# generated using pymatgen
data_AgSbTe2
_symmetry_space_group_name_H-M   'P 1'
_cell_length_a   12.31447741
_cell_length_b   12.29055595
_cell_length_c   12.28408225
_cell_angle_alpha   89.99294271
_cell_angle_beta   90.01074933
_cell_angle_gamma   89.99651921
_symmetry_Int_Tables_number   1
_chemical_formula_structural   AgSbTe2
_chemical_formula_sum   'Ag16 Sb16 Te32'
_cell_volume   1859.21758678
_cell_formula_units_Z   16
loop_
 _symmetry_equiv_pos_site_id
 _symmetry_equiv_pos_as_xyz
  1  'x, y, z'
loop_
 _atom_site_type_symbol
 _atom_site_label
 _atom_site_symmetry_multiplicity
 _atom_site_fract_x
 _atom_site_fract_y
 _atom_site_fract_z
 _atom_site_occupancy
  Ag  Ag0  1  0.25620884  0.00530502  0.23747711  1
  Ag  Ag1  1  0.49773801  0.76339690  0.24519808  1
  Ag  Ag2  1  0.74309213  0.00858350  0.24157570  1
  Ag  Ag3  1  0.25027877  0.24007927  0.00315356  1
  Ag  Ag4  1  0.74910047  0.24820492  0.50171363  1
  Ag  Ag5  1  0.49190140  0.01044301  0.00893882  1
  Ag  Ag6  1  0.00358254  0.75600763  0.24377576  1
  Ag  Ag7  1  0.50550166  0.24445025  0.76401941  1
  Ag  Ag8  1  -0.00598046  0.24803836  0.76016803  1
  Ag  Ag9  1  0.00009023  0.48499578  0.00216961  1
  Ag  Ag10  1  0.75265112  0.48906220  0.75694723  1
  Ag  Ag11  1  0.75023071  0.24624740  -0.00233650  1
  Ag  Ag12  1  0.24958569  0.49340878  0.24061487  1
  Ag  Ag13  1  0.25019500  0.01075637  0.76810680  1
  Ag  Ag14  1  0.49950593  0.23900696  0.23543938  1
  Ag  Ag15  1  0.00843968  0.01279016  0.00403949  1
  Sb  Sb16  1  0.24865856  0.25037920  0.49819320  1
  Sb  Sb17  1  0.49892470  0.48948302  0.00199920  1
  Sb  Sb18  1  0.24810217  0.48902229  0.76290054  1
  Sb  Sb19  1  0.50132070  0.75866393  0.75882119  1
  Sb  Sb20  1  0.74990523  0.00789040  0.75999181  1
  Sb  Sb21  1  0.75029722  0.75500769  0.00161658  1
  Sb  Sb22  1  0.75046786  0.49220714  0.24447840  1
  Sb  Sb23  1  0.50132371  0.49703740  0.49873941  1
  Sb  Sb24  1  0.49980790  0.00226224  0.49110353  1
  Sb  Sb25  1  -0.00040993  0.00412939  0.49432477  1
  Sb  Sb26  1  0.24993907  0.75117877  0.49594139  1
  Sb  Sb27  1  0.24967000  0.75965284  0.00142362  1
  Sb  Sb28  1  -0.00048794  0.75262129  0.75724617  1
  Sb  Sb29  1  0.00262724  0.24534164  0.24165123  1
  Sb  Sb30  1  0.75068532  0.75271606  0.49628886  1
  Sb  Sb31  1  -0.00217448  0.49540811  0.49469190  1
  Te  Te32  1  0.24915640  0.24573653  0.24974909  1
  Te  Te33  1  0.25335242  0.24616193  0.74798015  1
  Te  Te34  1  0.25214209  0.75497938  0.24789519  1
  Te  Te35  1  0.25233728  0.76135432  0.74728862  1
  Te  Te36  1  0.74937724  0.24795923  0.24237147  1
  Te  Te37  1  0.74707884  0.24913835  0.75855185  1
  Te  Te38  1  0.74657151  0.75509274  0.24968770  1
  Te  Te39  1  0.74819373  0.73533895  0.74762099  1
  Te  Te40  1  0.24729367  0.00518634  0.00265458  1
  Te  Te41  1  0.24970591  0.00017803  0.49696705  1
  Te  Te42  1  0.24649793  0.48904010  0.00485729  1
  Te  Te43  1  0.25007351  0.50071973  0.48333685  1
  Te  Te44  1  0.75305361  0.00368732  0.00408878  1
  Te  Te45  1  0.75037081  0.00609272  0.48824134  1
  Te  Te46  1  0.75358192  0.49241537  -0.00142955  1
  Te  Te47  1  0.75065275  0.49031829  0.50655989  1
  Te  Te48  1  0.00109979  0.24737664  -0.00235503  1
  Te  Te49  1  -0.00614457  0.24963453  0.52069056  1
  Te  Te50  1  0.00015138  0.75188520  0.00450803  1
  Te  Te51  1  -0.00016779  0.74954420  0.48772474  1
  Te  Te52  1  0.49899718  0.24629842  0.00091198  1
  Te  Te53  1  0.50570816  0.24893812  0.50267483  1
  Te  Te54  1  0.50007130  0.76341144  0.00574099  1
  Te  Te55  1  0.50009881  0.74931137  0.48664231  1
  Te  Te56  1  0.00437910  0.00184309  0.24604658  1
  Te  Te57  1  -0.00154896  -0.00199884  0.75689584  1
  Te  Te58  1  0.00014031  0.50110827  0.24523329  1
  Te  Te59  1  0.00312168  0.50330949  0.75610659  1
  Te  Te60  1  0.49693185  0.00536705  0.24776538  1
  Te  Te61  1  0.50095920  0.00120388  0.75636016  1
  Te  Te62  1  0.49778896  0.49752576  0.24674324  1
  Te  Te63  1  0.49819494  0.49806413  0.75147645  1
