# generated using pymatgen
data_AgSbTe2
_symmetry_space_group_name_H-M   'P 1'
_cell_length_a   12.22141369
_cell_length_b   12.21221883
_cell_length_c   12.21451567
_cell_angle_alpha   89.99835751
_cell_angle_beta   89.98900360
_cell_angle_gamma   89.99380470
_symmetry_Int_Tables_number   1
_chemical_formula_structural   AgSbTe2
_chemical_formula_sum   'Ag16 Sb16 Te32'
_cell_volume   1823.02348328
_cell_formula_units_Z   16
loop_
 _symmetry_equiv_pos_site_id
 _symmetry_equiv_pos_as_xyz
  1  'x, y, z'
loop_
 _atom_site_type_symbol
 _atom_site_label
 _atom_site_symmetry_multiplicity
 _atom_site_fract_x
 _atom_site_fract_y
 _atom_site_fract_z
 _atom_site_occupancy
  Ag  Ag0  1  -0.00014305  -0.00850690  0.00286164  1
  Ag  Ag1  1  0.24903641  0.75198282  0.00262648  1
  Ag  Ag2  1  0.50018358  -0.00995876  0.00108352  1
  Ag  Ag3  1  0.24708469  0.50489655  0.24844743  1
  Ag  Ag4  1  0.00041463  0.50392680  0.50235916  1
  Ag  Ag5  1  0.24567139  0.25138036  0.49933702  1
  Ag  Ag6  1  0.75450475  0.74895466  0.50285055  1
  Ag  Ag7  1  0.24681803  -0.00530865  0.24552875  1
  Ag  Ag8  1  0.00040784  0.75240179  0.24486002  1
  Ag  Ag9  1  -0.00015853  0.25195018  0.74969180  1
  Ag  Ag10  1  -0.00535770  0.74744483  0.75448072  1
  Ag  Ag11  1  0.75341490  -0.00697063  0.24543568  1
  Ag  Ag12  1  0.75363333  0.50760503  0.75134165  1
  Ag  Ag13  1  0.50430185  0.74820343  0.75782342  1
  Ag  Ag14  1  0.49992233  0.51047883  -0.00162855  1
  Ag  Ag15  1  0.75083949  0.75199233  -0.00327058  1
  Sb  Sb16  1  -0.00009129  -0.00355223  0.49779917  1
  Sb  Sb17  1  0.00003275  0.50902865  -0.00140927  1
  Sb  Sb18  1  0.75139197  -0.00916881  0.75451534  1
  Sb  Sb19  1  0.75237448  0.24829447  -0.00140534  1
  Sb  Sb20  1  0.49853832  0.24959721  0.24928231  1
  Sb  Sb21  1  0.49927134  0.50414530  0.50103738  1
  Sb  Sb22  1  0.75426006  0.25126132  0.50241490  1
  Sb  Sb23  1  0.24872598  -0.00209321  0.75481730  1
  Sb  Sb24  1  0.24594369  0.74968127  0.49633856  1
  Sb  Sb25  1  0.75253646  0.50784909  0.24874719  1
  Sb  Sb26  1  0.24786294  0.24870055  0.00060934  1
  Sb  Sb27  1  0.49997914  -0.00444327  0.49978190  1
  Sb  Sb28  1  0.49878747  0.75065812  0.24135468  1
  Sb  Sb29  1  0.50074558  0.25173978  0.75139150  1
  Sb  Sb30  1  0.00175327  0.24851155  0.24980696  1
  Sb  Sb31  1  0.24712204  0.50241661  0.75162012  1
  Te  Te32  1  0.24930539  0.25027885  0.25372871  1
  Te  Te33  1  0.24432812  0.24981498  0.74465660  1
  Te  Te34  1  0.24710739  0.75078125  0.24799292  1
  Te  Te35  1  0.24841432  0.74978911  0.75394669  1
  Te  Te36  1  0.75007782  0.24055546  0.25133238  1
  Te  Te37  1  0.75558515  0.25864419  0.74829060  1
  Te  Te38  1  0.75345661  0.75233422  0.24812263  1
  Te  Te39  1  0.75306968  0.74872918  0.75264487  1
  Te  Te40  1  0.24962699  -0.00231068  0.00401350  1
  Te  Te41  1  0.25084024  0.00261061  0.49092787  1
  Te  Te42  1  0.25277064  0.50322709  0.00391863  1
  Te  Te43  1  0.24755524  0.49905296  0.49549608  1
  Te  Te44  1  0.75040119  -0.00330416  0.00273907  1
  Te  Te45  1  0.74905376  -0.00527223  0.49278914  1
  Te  Te46  1  0.74687845  0.50410228  -0.00144567  1
  Te  Te47  1  0.75316660  0.50365541  0.50095165  1
  Te  Te48  1  0.00007326  0.24152795  -0.00637774  1
  Te  Te49  1  0.00308670  0.25429886  0.50487426  1
  Te  Te50  1  0.00008458  0.75123671  -0.00023307  1
  Te  Te51  1  -0.00246733  0.74691040  0.50151256  1
  Te  Te52  1  0.50023136  0.24894773  -0.00172607  1
  Te  Te53  1  0.49238367  0.24990498  0.50153278  1
  Te  Te54  1  0.49996349  0.75062159  -0.00177138  1
  Te  Te55  1  0.50665250  0.74994621  0.51047956  1
  Te  Te56  1  0.00155204  -0.00239890  0.24746633  1
  Te  Te57  1  -0.00091557  -0.00267751  0.75365481  1
  Te  Te58  1  0.00310250  0.50280722  0.25220881  1
  Te  Te59  1  -0.00233826  0.50422823  0.74865359  1
  Te  Te60  1  0.49804918  -0.00018345  0.24363864  1
  Te  Te61  1  0.50041616  -0.00396847  0.75697257  1
  Te  Te62  1  0.49518388  0.49974652  0.24461732  1
  Te  Te63  1  0.50349615  0.50326433  0.75386059  1
