# generated using pymatgen
data_AgSbTe2
_symmetry_space_group_name_H-M   'P 1'
_cell_length_a   12.22901659
_cell_length_b   12.21295397
_cell_length_c   12.22895594
_cell_angle_alpha   90.00209078
_cell_angle_beta   89.99283949
_cell_angle_gamma   90.00157448
_symmetry_Int_Tables_number   1
_chemical_formula_structural   AgSbTe2
_chemical_formula_sum   'Ag16 Sb16 Te32'
_cell_volume   1826.42410638
_cell_formula_units_Z   16
loop_
 _symmetry_equiv_pos_site_id
 _symmetry_equiv_pos_as_xyz
  1  'x, y, z'
loop_
 _atom_site_type_symbol
 _atom_site_label
 _atom_site_symmetry_multiplicity
 _atom_site_fract_x
 _atom_site_fract_y
 _atom_site_fract_z
 _atom_site_occupancy
  Ag  Ag0  1  -0.00089174  0.49846976  -0.00112809  1
  Ag  Ag1  1  0.50217530  0.25530875  0.25427324  1
  Ag  Ag2  1  0.00167512  0.74192938  0.74577193  1
  Ag  Ag3  1  0.25458892  0.26176087  0.50213094  1
  Ag  Ag4  1  0.24953460  0.49916852  0.25924663  1
  Ag  Ag5  1  0.00008258  0.74208260  0.25525283  1
  Ag  Ag6  1  0.00054710  0.25832434  0.74803074  1
  Ag  Ag7  1  0.74772850  0.25421160  -0.00021908  1
  Ag  Ag8  1  0.50181053  0.00537827  0.00015668  1
  Ag  Ag9  1  0.24765059  0.73860317  0.49998217  1
  Ag  Ag10  1  0.24701223  0.49695773  0.74080287  1
  Ag  Ag11  1  0.75290992  0.74098267  0.49834721  1
  Ag  Ag12  1  0.75082559  0.49716649  0.25556067  1
  Ag  Ag13  1  0.74509415  0.25912764  0.49962621  1
  Ag  Ag14  1  0.50031196  0.25419820  0.74551026  1
  Ag  Ag15  1  0.49655187  0.49380427  0.49854707  1
  Sb  Sb16  1  0.25095866  0.00290726  0.74863389  1
  Sb  Sb17  1  0.50035536  0.00766255  0.49999880  1
  Sb  Sb18  1  0.00437847  0.50097616  0.50262915  1
  Sb  Sb19  1  0.75364187  0.49760887  0.74296005  1
  Sb  Sb20  1  -0.00215676  0.00336791  -0.00056589  1
  Sb  Sb21  1  0.49843774  0.74470293  0.74603385  1
  Sb  Sb22  1  0.74866837  0.00314456  0.24972664  1
  Sb  Sb23  1  -0.00034773  -0.00050179  0.50026364  1
  Sb  Sb24  1  0.49970640  0.74431686  0.25284078  1
  Sb  Sb25  1  0.25129095  0.25340520  -0.00185313  1
  Sb  Sb26  1  -0.00041289  0.25821658  0.25179344  1
  Sb  Sb27  1  0.74912869  0.00218554  0.75027337  1
  Sb  Sb28  1  0.24862773  0.74614845  0.00009208  1
  Sb  Sb29  1  0.50212658  0.49565810  0.00033127  1
  Sb  Sb30  1  0.25158733  0.00192058  0.25182946  1
  Sb  Sb31  1  0.75199060  0.74436771  0.00145700  1
  Te  Te32  1  0.25041454  0.25376498  0.25438190  1
  Te  Te33  1  0.24845535  0.25261294  0.74742682  1
  Te  Te34  1  0.24861387  0.74530211  0.25437435  1
  Te  Te35  1  0.24709438  0.74607219  0.74563705  1
  Te  Te36  1  0.74964774  0.25321845  0.25345629  1
  Te  Te37  1  0.75049712  0.25181385  0.74721651  1
  Te  Te38  1  0.75144133  0.74539732  0.25358607  1
  Te  Te39  1  0.75484672  0.74914513  0.74449184  1
  Te  Te40  1  0.25644631  -0.00070623  0.00052902  1
  Te  Te41  1  0.25067221  -0.00170148  0.49932330  1
  Te  Te42  1  0.24569325  0.50023264  0.00131727  1
  Te  Te43  1  0.25130126  0.49903008  0.49938566  1
  Te  Te44  1  0.74602819  0.00850431  0.00015422  1
  Te  Te45  1  0.74914916  -0.00046564  0.49982727  1
  Te  Te46  1  0.75284328  0.49533526  0.00640795  1
  Te  Te47  1  0.74602169  0.49808327  0.49764824  1
  Te  Te48  1  -0.00345311  0.25258273  -0.00358297  1
  Te  Te49  1  -0.00105939  0.24824769  0.50392971  1
  Te  Te50  1  -0.00136180  0.74684582  -0.00310151  1
  Te  Te51  1  -0.00065304  0.75123309  0.50148641  1
  Te  Te52  1  0.50256192  0.25029322  -0.00084818  1
  Te  Te53  1  0.50083150  0.25242769  0.50085138  1
  Te  Te54  1  0.50173363  0.75743544  -0.00062981  1
  Te  Te55  1  0.50028924  0.74542820  0.50098654  1
  Te  Te56  1  0.00035524  -0.01331220  0.24805864  1
  Te  Te57  1  0.00037259  -0.00045689  0.75149795  1
  Te  Te58  1  0.00065924  0.50247539  0.24482477  1
  Te  Te59  1  0.00258323  0.49873205  0.75345322  1
  Te  Te60  1  0.49956105  0.00892086  0.24613305  1
  Te  Te61  1  0.49939111  0.00847962  0.75411748  1
  Te  Te62  1  0.49914922  0.49604766  0.25076191  1
  Te  Te63  1  0.49428437  0.49541870  0.74856098  1
