# generated using pymatgen
data_AgSbTe2
_symmetry_space_group_name_H-M   'P 1'
_cell_length_a   12.21639184
_cell_length_b   12.23049849
_cell_length_c   12.23076279
_cell_angle_alpha   89.99844760
_cell_angle_beta   90.00091385
_cell_angle_gamma   90.01232610
_symmetry_Int_Tables_number   1
_chemical_formula_structural   AgSbTe2
_chemical_formula_sum   'Ag16 Sb16 Te32'
_cell_volume   1827.42955895
_cell_formula_units_Z   16
loop_
 _symmetry_equiv_pos_site_id
 _symmetry_equiv_pos_as_xyz
  1  'x, y, z'
loop_
 _atom_site_type_symbol
 _atom_site_label
 _atom_site_symmetry_multiplicity
 _atom_site_fract_x
 _atom_site_fract_y
 _atom_site_fract_z
 _atom_site_occupancy
  Ag  Ag0  1  0.25341417  0.00407413  0.25353979  1
  Ag  Ag1  1  0.74436593  0.74631084  0.50617087  1
  Ag  Ag2  1  0.25687100  0.25042093  0.00161200  1
  Ag  Ag3  1  0.74236683  0.50338965  0.74237230  1
  Ag  Ag4  1  0.49926382  0.25504155  0.25715289  1
  Ag  Ag5  1  0.50172173  0.49700937  -0.00060556  1
  Ag  Ag6  1  0.74767332  -0.00340925  0.74349867  1
  Ag  Ag7  1  0.50321792  0.74344086  0.25538757  1
  Ag  Ag8  1  0.26029860  0.24911319  0.49822121  1
  Ag  Ag9  1  -0.00265437  -0.00040666  0.50193807  1
  Ag  Ag10  1  0.50661000  0.49579905  0.50056742  1
  Ag  Ag11  1  0.50754851  0.74418636  0.74417739  1
  Ag  Ag12  1  0.50339357  0.25626798  0.74263000  1
  Ag  Ag13  1  0.74089345  0.25481354  0.50238037  1
  Ag  Ag14  1  0.74198602  0.49997330  0.25766516  1
  Ag  Ag15  1  -0.00913392  0.75084135  0.74525073  1
  Sb  Sb16  1  -0.00344963  0.75056853  0.25531230  1
  Sb  Sb17  1  0.25708191  0.75046529  0.49922088  1
  Sb  Sb18  1  0.74763082  0.00026169  0.25678763  1
  Sb  Sb19  1  0.49908399  0.00359466  -0.00058677  1
  Sb  Sb20  1  0.74651183  0.74842140  -0.00688332  1
  Sb  Sb21  1  0.25177751  0.00202213  0.74681537  1
  Sb  Sb22  1  0.00038031  0.25032934  0.25271653  1
  Sb  Sb23  1  0.25479493  0.74912902  0.00119231  1
  Sb  Sb24  1  0.25924398  0.49881858  0.74827256  1
  Sb  Sb25  1  -0.00714362  0.50091207  0.50196127  1
  Sb  Sb26  1  -0.00105981  0.49956587  -0.00276323  1
  Sb  Sb27  1  0.50233148  0.00517191  0.50055065  1
  Sb  Sb28  1  0.74384231  0.25274824  -0.00163118  1
  Sb  Sb29  1  0.00082765  0.00000301  -0.00228490  1
  Sb  Sb30  1  -0.00480327  0.25026924  0.74697936  1
  Sb  Sb31  1  0.26003444  0.49597170  0.25196555  1
  Te  Te32  1  0.25282260  0.24841496  0.25400985  1
  Te  Te33  1  0.25511516  0.24943615  0.74652952  1
  Te  Te34  1  0.25486340  0.75502325  0.24999300  1
  Te  Te35  1  0.25325734  0.75029831  0.74983786  1
  Te  Te36  1  0.74627356  0.25040784  0.25270979  1
  Te  Te37  1  0.74665756  0.25119190  0.74801077  1
  Te  Te38  1  0.74514013  0.74996458  0.25476256  1
  Te  Te39  1  0.74574563  0.74875976  0.74814786  1
  Te  Te40  1  0.24934005  0.00554304  0.00570510  1
  Te  Te41  1  0.24483211  0.00388809  0.49716938  1
  Te  Te42  1  0.25531168  0.49456482  0.00045918  1
  Te  Te43  1  0.25563194  0.49375811  0.49951381  1
  Te  Te44  1  0.75129914  0.00064023  -0.00937070  1
  Te  Te45  1  0.75275823  -0.00001623  0.50341708  1
  Te  Te46  1  0.74482868  0.49937995  0.00040300  1
  Te  Te47  1  0.74762584  0.49919520  0.50120351  1
  Te  Te48  1  0.01149168  0.25064355  -0.00019865  1
  Te  Te49  1  -0.00085550  0.24653203  0.50088143  1
  Te  Te50  1  0.00194266  0.74933220  -0.00881797  1
  Te  Te51  1  -0.00341674  0.75214943  0.50412386  1
  Te  Te52  1  0.49708531  0.25358570  0.00028568  1
  Te  Te53  1  0.50173569  0.25022681  0.50035806  1
  Te  Te54  1  0.49930210  0.74330573  0.00005214  1
  Te  Te55  1  0.50204217  0.74713177  0.50099338  1
  Te  Te56  1  0.00368464  -0.00113450  0.25423587  1
  Te  Te57  1  -0.00332638  -0.00288038  0.74670298  1
  Te  Te58  1  -0.01220566  0.50218494  0.24870840  1
  Te  Te59  1  -0.00950855  0.50515002  0.75062163  1
  Te  Te60  1  0.49732783  0.00119199  0.24892202  1
  Te  Te61  1  0.50342856  -0.00126074  0.75129969  1
  Te  Te62  1  0.50264012  0.49909775  0.25230705  1
  Te  Te63  1  0.50220761  0.49917487  0.74743898  1
