# generated using pymatgen
data_AgSbTe2
_symmetry_space_group_name_H-M   'P 1'
_cell_length_a   12.23660203
_cell_length_b   12.22548447
_cell_length_c   12.22388972
_cell_angle_alpha   90.00405327
_cell_angle_beta   89.99873758
_cell_angle_gamma   90.00030021
_symmetry_Int_Tables_number   1
_chemical_formula_structural   AgSbTe2
_chemical_formula_sum   'Ag16 Sb16 Te32'
_cell_volume   1828.67419146
_cell_formula_units_Z   16
loop_
 _symmetry_equiv_pos_site_id
 _symmetry_equiv_pos_as_xyz
  1  'x, y, z'
loop_
 _atom_site_type_symbol
 _atom_site_label
 _atom_site_symmetry_multiplicity
 _atom_site_fract_x
 _atom_site_fract_y
 _atom_site_fract_z
 _atom_site_occupancy
  Ag  Ag0  1  -0.00098119  0.23968172  0.74522205  1
  Ag  Ag1  1  0.24756614  0.50173736  0.25135130  1
  Ag  Ag2  1  0.50071321  0.23844398  0.74678671  1
  Ag  Ag3  1  -0.00099640  0.50280602  0.50041203  1
  Ag  Ag4  1  0.75067029  -0.00126095  0.74177682  1
  Ag  Ag5  1  -0.00765056  -0.00100979  0.50676401  1
  Ag  Ag6  1  -0.00366395  0.75319725  0.25422464  1
  Ag  Ag7  1  0.75051553  0.75441664  -0.00148276  1
  Ag  Ag8  1  0.24932147  0.00212214  0.74760646  1
  Ag  Ag9  1  0.50394057  0.75466523  0.25162176  1
  Ag  Ag10  1  0.50450363  0.76076130  0.74733725  1
  Ag  Ag11  1  0.50758596  -0.00096423  0.50686701  1
  Ag  Ag12  1  -0.00425141  0.75955387  0.74501569  1
  Ag  Ag13  1  0.75252716  0.24210653  0.50440540  1
  Ag  Ag14  1  0.75090374  -0.00475665  0.25705862  1
  Ag  Ag15  1  0.24911733  0.24826887  -0.00465212  1
  Sb  Sb16  1  0.50075824  0.24421238  0.25267568  1
  Sb  Sb17  1  0.00093260  0.50067334  0.00057181  1
  Sb  Sb18  1  0.24971975  0.75104965  -0.00148054  1
  Sb  Sb19  1  0.50090219  -0.00051164  -0.00806294  1
  Sb  Sb20  1  0.24801745  0.49883104  0.74951308  1
  Sb  Sb21  1  0.49907531  0.50084845  0.00038435  1
  Sb  Sb22  1  0.24828774  0.24800461  0.50363462  1
  Sb  Sb23  1  0.75177924  0.75779993  0.50179999  1
  Sb  Sb24  1  0.50148703  0.50102559  0.49962367  1
  Sb  Sb25  1  0.24892445  -0.00084854  0.25234546  1
  Sb  Sb26  1  -0.00109021  0.24688947  0.25459298  1
  Sb  Sb27  1  0.75142612  0.50288694  0.74715747  1
  Sb  Sb28  1  -0.00093006  -0.00045386  -0.00785007  1
  Sb  Sb29  1  0.75016603  0.24664088  -0.00419487  1
  Sb  Sb30  1  0.24796695  0.75086253  0.50128295  1
  Sb  Sb31  1  0.75123416  0.50691253  0.25402436  1
  Te  Te32  1  0.25058697  0.25240078  0.24319769  1
  Te  Te33  1  0.25005313  0.24822184  0.75231785  1
  Te  Te34  1  0.24913451  0.74808703  0.24764829  1
  Te  Te35  1  0.24999247  0.75344316  0.75185949  1
  Te  Te36  1  0.74925496  0.24250063  0.24953322  1
  Te  Te37  1  0.75048291  0.24721785  0.75013577  1
  Te  Te38  1  0.75077864  0.75402475  0.24833481  1
  Te  Te39  1  0.75032850  0.75265964  0.75135785  1
  Te  Te40  1  0.24992477  0.00576765  -0.00590251  1
  Te  Te41  1  0.25015474  0.00036479  0.50518304  1
  Te  Te42  1  0.24967145  0.49412623  0.00562209  1
  Te  Te43  1  0.24392518  0.49915329  0.49427648  1
  Te  Te44  1  0.75009160  -0.00505540  0.00299082  1
  Te  Te45  1  0.75043189  0.00289144  0.50205372  1
  Te  Te46  1  0.74998622  0.50775233  0.00137395  1
  Te  Te47  1  0.75570647  0.48610719  0.49965623  1
  Te  Te48  1  0.00210008  0.25137028  -0.00768349  1
  Te  Te49  1  -0.00155628  0.24600140  0.50325215  1
  Te  Te50  1  -0.00284702  0.74922214  -0.00004327  1
  Te  Te51  1  -0.00022533  0.75187996  0.50148558  1
  Te  Te52  1  0.49827165  0.25061023  -0.00692321  1
  Te  Te53  1  0.50272965  0.24773879  0.50444209  1
  Te  Te54  1  0.50332275  0.74975822  -0.00078278  1
  Te  Te55  1  0.49979005  0.75235242  0.50251937  1
  Te  Te56  1  -0.00037645  -0.00361724  0.25714746  1
  Te  Te57  1  -0.00151037  -0.00154426  0.74744995  1
  Te  Te58  1  0.00232395  0.50323586  0.25464988  1
  Te  Te59  1  0.00104792  0.50322872  0.74412018  1
  Te  Te60  1  0.50037087  -0.00414383  0.25753745  1
  Te  Te61  1  0.50149776  -0.00149195  0.74675538  1
  Te  Te62  1  0.49685564  0.50749863  0.25138959  1
  Te  Te63  1  0.49922217  0.50364488  0.74871199  1
