# generated using pymatgen
data_AgSbTe2
_symmetry_space_group_name_H-M   'P 1'
_cell_length_a   12.20258891
_cell_length_b   12.20499194
_cell_length_c   12.20458608
_cell_angle_alpha   90.00196543
_cell_angle_beta   89.99870791
_cell_angle_gamma   90.00587012
_symmetry_Int_Tables_number   1
_chemical_formula_structural   AgSbTe2
_chemical_formula_sum   'Ag16 Sb16 Te32'
_cell_volume   1817.65949622
_cell_formula_units_Z   16
loop_
 _symmetry_equiv_pos_site_id
 _symmetry_equiv_pos_as_xyz
  1  'x, y, z'
loop_
 _atom_site_type_symbol
 _atom_site_label
 _atom_site_symmetry_multiplicity
 _atom_site_fract_x
 _atom_site_fract_y
 _atom_site_fract_z
 _atom_site_occupancy
  Ag  Ag0  1  0.00133490  -0.00006603  0.50285928  1
  Ag  Ag1  1  0.50495202  0.74870660  0.24854793  1
  Ag  Ag2  1  0.75192381  0.75258008  0.49494931  1
  Ag  Ag3  1  0.50285774  0.49999521  0.00375649  1
  Ag  Ag4  1  0.74715721  0.50500649  0.24647294  1
  Ag  Ag5  1  0.00147578  0.24238276  0.75051426  1
  Ag  Ag6  1  0.25232247  0.50058230  0.24947493  1
  Ag  Ag7  1  0.24388537  0.00308077  0.74891175  1
  Ag  Ag8  1  0.75149153  -0.00462626  0.24771160  1
  Ag  Ag9  1  0.75059296  0.75145191  0.00554685  1
  Ag  Ag10  1  0.49930806  0.24816760  0.75185222  1
  Ag  Ag11  1  -0.00248883  -0.00009586  -0.00268979  1
  Ag  Ag12  1  -0.00119672  0.75760961  0.75048550  1
  Ag  Ag13  1  0.24856545  0.24615808  0.50113626  1
  Ag  Ag14  1  0.24767965  0.00002710  0.25150995  1
  Ag  Ag15  1  0.75048877  0.24866308  0.00055498  1
  Sb  Sb16  1  0.50455081  0.00022864  0.00092845  1
  Sb  Sb17  1  -0.00341497  0.50016337  0.00088870  1
  Sb  Sb18  1  0.00019627  0.24553661  0.24881544  1
  Sb  Sb19  1  0.75902633  -0.00003933  0.75339008  1
  Sb  Sb20  1  0.50045461  0.50001758  0.49520527  1
  Sb  Sb21  1  0.75202889  0.24685087  0.49951577  1
  Sb  Sb22  1  0.74914572  0.49974023  0.75429375  1
  Sb  Sb23  1  0.49985815  0.25222661  0.24698268  1
  Sb  Sb24  1  0.49932465  0.00040640  0.49946457  1
  Sb  Sb25  1  -0.00073956  0.50029067  0.49920439  1
  Sb  Sb26  1  -0.00834774  0.75470476  0.24914129  1
  Sb  Sb27  1  0.24901176  0.24807055  -0.00207995  1
  Sb  Sb28  1  0.24807519  0.75131964  0.00201254  1
  Sb  Sb29  1  0.24634829  0.75455255  0.49711465  1
  Sb  Sb30  1  0.25081422  0.49676848  0.75019216  1
  Sb  Sb31  1  0.50073394  0.75215652  0.75197271  1
  Te  Te32  1  0.25075696  0.24744553  0.25394572  1
  Te  Te33  1  0.24808794  0.24746797  0.74829139  1
  Te  Te34  1  0.25607363  0.75125238  0.25123672  1
  Te  Te35  1  0.24626208  0.75469668  0.74930477  1
  Te  Te36  1  0.74933442  0.24915467  0.24650517  1
  Te  Te37  1  0.75038182  0.24998626  0.75290822  1
  Te  Te38  1  0.75005647  0.75083954  0.24850430  1
  Te  Te39  1  0.75289854  0.74991928  0.75027491  1
  Te  Te40  1  0.24372100  0.00068425  0.00227231  1
  Te  Te41  1  0.24605798  0.00260671  0.49787725  1
  Te  Te42  1  0.25484188  0.49970748  0.00743480  1
  Te  Te43  1  0.24946211  0.49408962  0.49307720  1
  Te  Te44  1  0.75323163  -0.00010994  0.00340035  1
  Te  Te45  1  0.75461911  -0.00240659  0.49379913  1
  Te  Te46  1  0.74801625  0.50002917  0.00445488  1
  Te  Te47  1  0.75062568  0.50467837  0.49115555  1
  Te  Te48  1  -0.00490608  0.24614881  -0.00546200  1
  Te  Te49  1  0.00272006  0.24491789  0.50640231  1
  Te  Te50  1  -0.00564834  0.75378717  -0.00515375  1
  Te  Te51  1  -0.00431743  0.75487333  0.50574242  1
  Te  Te52  1  0.50529323  0.25319526  -0.00417783  1
  Te  Te53  1  0.49581638  0.25040332  0.50810395  1
  Te  Te54  1  0.50679647  0.74643334  0.00253862  1
  Te  Te55  1  0.50769482  0.74968144  0.49629582  1
  Te  Te56  1  0.00172378  -0.00024207  0.24942607  1
  Te  Te57  1  0.00122861  0.00063828  0.75038596  1
  Te  Te58  1  0.00143022  0.49977345  0.24927024  1
  Te  Te59  1  0.00165484  0.49956678  0.75055741  1
  Te  Te60  1  0.49917428  -0.00425653  0.24889227  1
  Te  Te61  1  0.49060044  0.00449461  0.75069068  1
  Te  Te62  1  0.50068887  0.50224137  0.24594738  1
  Te  Te63  1  0.49820563  0.49568457  0.75746086  1
