# generated using pymatgen
data_AgSbTe2
_symmetry_space_group_name_H-M   'P 1'
_cell_length_a   12.22095233
_cell_length_b   12.21494804
_cell_length_c   12.21242360
_cell_angle_alpha   89.99985155
_cell_angle_beta   90.00330141
_cell_angle_gamma   90.00075993
_symmetry_Int_Tables_number   1
_chemical_formula_structural   AgSbTe2
_chemical_formula_sum   'Ag16 Sb16 Te32'
_cell_volume   1823.04980391
_cell_formula_units_Z   16
loop_
 _symmetry_equiv_pos_site_id
 _symmetry_equiv_pos_as_xyz
  1  'x, y, z'
loop_
 _atom_site_type_symbol
 _atom_site_label
 _atom_site_symmetry_multiplicity
 _atom_site_fract_x
 _atom_site_fract_y
 _atom_site_fract_z
 _atom_site_occupancy
  Ag  Ag0  1  0.00073287  0.24534635  0.24435260  1
  Ag  Ag1  1  0.50110839  0.24570290  0.75818195  1
  Ag  Ag2  1  0.74835601  0.00337847  0.24291765  1
  Ag  Ag3  1  -0.00262559  0.00315828  0.00398763  1
  Ag  Ag4  1  0.50030190  0.75421390  0.75341369  1
  Ag  Ag5  1  0.74586840  0.75434179  0.50079858  1
  Ag  Ag6  1  0.74562938  0.24339446  0.00229718  1
  Ag  Ag7  1  0.25360785  0.75405684  0.00074474  1
  Ag  Ag8  1  0.50338417  0.00464054  0.00039615  1
  Ag  Ag9  1  0.50009070  0.49609244  -0.00027408  1
  Ag  Ag10  1  0.25310503  0.75379040  0.49904506  1
  Ag  Ag11  1  0.74506123  0.00040030  0.75621416  1
  Ag  Ag12  1  0.25136479  0.00285185  0.24653515  1
  Ag  Ag13  1  0.25226816  0.24487326  0.49606594  1
  Ag  Ag14  1  -0.00013058  0.49724746  0.00247613  1
  Ag  Ag15  1  0.49961700  0.24479050  0.24283731  1
  Sb  Sb16  1  0.49879930  0.75600070  0.24628869  1
  Sb  Sb17  1  0.74913625  0.49702137  0.24617116  1
  Sb  Sb18  1  0.00006996  0.24641007  0.75726951  1
  Sb  Sb19  1  0.25584811  -0.00012472  0.75431252  1
  Sb  Sb20  1  0.00065563  0.49832902  0.49680440  1
  Sb  Sb21  1  0.25183089  0.49966477  0.75317556  1
  Sb  Sb22  1  0.74846116  0.24571476  0.49831317  1
  Sb  Sb23  1  -0.00064492  0.75290979  0.75231280  1
  Sb  Sb24  1  0.00115901  0.00085183  0.49541948  1
  Sb  Sb25  1  0.49920070  0.50041741  0.49855018  1
  Sb  Sb26  1  0.25566317  0.24465940  0.00382770  1
  Sb  Sb27  1  0.00044602  0.75492967  0.24714285  1
  Sb  Sb28  1  0.74745914  0.49989367  0.75335499  1
  Sb  Sb29  1  0.74536378  0.75837561  -0.00108238  1
  Sb  Sb30  1  0.49940247  -0.00043497  0.49927463  1
  Sb  Sb31  1  0.25043333  0.49624534  0.24731856  1
  Te  Te32  1  0.25139634  0.24604958  0.25221519  1
  Te  Te33  1  0.25563402  0.24893989  0.74148445  1
  Te  Te34  1  0.25078351  0.75622511  0.25158860  1
  Te  Te35  1  0.25530073  0.75088135  0.74824786  1
  Te  Te36  1  0.74839653  0.24553308  0.24945015  1
  Te  Te37  1  0.74511630  0.24533144  0.75044467  1
  Te  Te38  1  0.74970605  0.75775089  0.25529842  1
  Te  Te39  1  0.74512485  0.75483329  0.74736982  1
  Te  Te40  1  0.25077308  -0.00255578  0.00269485  1
  Te  Te41  1  0.24916784  -0.00206843  0.49500300  1
  Te  Te42  1  0.25083399  0.50796713  0.00067700  1
  Te  Te43  1  0.24893204  0.50490026  0.49925990  1
  Te  Te44  1  0.74813473  0.00139653  0.00192195  1
  Te  Te45  1  0.75075593  -0.00444475  0.49957190  1
  Te  Te46  1  0.74936717  0.49334278  0.00032918  1
  Te  Te47  1  0.75135896  0.51014466  0.50016200  1
  Te  Te48  1  -0.00114554  0.24765890  0.00201167  1
  Te  Te49  1  0.00498194  0.25183843  0.49380669  1
  Te  Te50  1  0.00549815  0.75033445  0.00009191  1
  Te  Te51  1  0.00482431  0.74846228  0.50032478  1
  Te  Te52  1  0.49847359  0.24785452  -0.00012777  1
  Te  Te53  1  0.49612448  0.25154353  0.49957178  1
  Te  Te54  1  0.49824458  0.75079528  -0.00234399  1
  Te  Te55  1  0.49673146  0.74843853  0.50470762  1
  Te  Te56  1  0.00011962  0.00392112  0.24568290  1
  Te  Te57  1  -0.00853056  0.00067406  0.75901367  1
  Te  Te58  1  -0.00026439  0.49157213  0.24245520  1
  Te  Te59  1  -0.00070214  0.49954416  0.76034291  1
  Te  Te60  1  0.49991541  0.00342017  0.24686652  1
  Te  Te61  1  0.50262473  0.00036767  0.75357549  1
  Te  Te62  1  0.50052742  0.49097958  0.24284647  1
  Te  Te63  1  0.50077116  0.49922466  0.75701156  1
