# generated using pymatgen
data_AgSbTe2
_symmetry_space_group_name_H-M   'P 1'
_cell_length_a   12.23339865
_cell_length_b   12.22764421
_cell_length_c   12.24095610
_cell_angle_alpha   90.00635991
_cell_angle_beta   89.99992342
_cell_angle_gamma   89.99309387
_symmetry_Int_Tables_number   1
_chemical_formula_structural   AgSbTe2
_chemical_formula_sum   'Ag16 Sb16 Te32'
_cell_volume   1831.07130341
_cell_formula_units_Z   16
loop_
 _symmetry_equiv_pos_site_id
 _symmetry_equiv_pos_as_xyz
  1  'x, y, z'
loop_
 _atom_site_type_symbol
 _atom_site_label
 _atom_site_symmetry_multiplicity
 _atom_site_fract_x
 _atom_site_fract_y
 _atom_site_fract_z
 _atom_site_occupancy
  Ag  Ag0  1  0.49324165  0.00475124  -0.00323371  1
  Ag  Ag1  1  0.00866980  0.24942889  0.24880796  1
  Ag  Ag2  1  0.74410439  0.24893088  -0.00402615  1
  Ag  Ag3  1  0.00715779  0.25065598  0.75118234  1
  Ag  Ag4  1  0.00320383  0.49525500  0.50284289  1
  Ag  Ag5  1  0.25391414  0.00528077  0.75582440  1
  Ag  Ag6  1  0.24836513  0.24745104  0.50251097  1
  Ag  Ag7  1  0.25584837  0.75829005  -0.00566064  1
  Ag  Ag8  1  0.25620057  0.24140984  -0.00250053  1
  Ag  Ag9  1  0.49155748  0.24608273  0.24116786  1
  Ag  Ag10  1  0.25073215  0.75260678  0.50444430  1
  Ag  Ag11  1  0.74446874  0.75108813  -0.00462404  1
  Ag  Ag12  1  0.25231025  0.00718733  0.24371702  1
  Ag  Ag13  1  0.49423810  0.75224698  0.75663577  1
  Ag  Ag14  1  0.49303279  0.24672254  0.75775836  1
  Ag  Ag15  1  0.74977522  0.49655935  0.75267728  1
  Sb  Sb16  1  0.75188075  0.49703649  0.24723809  1
  Sb  Sb17  1  0.74634328  0.00207270  0.75466081  1
  Sb  Sb18  1  0.00537744  0.75028409  0.75048779  1
  Sb  Sb19  1  0.49538311  0.00122126  0.50365109  1
  Sb  Sb20  1  0.49555310  0.75427469  0.24262719  1
  Sb  Sb21  1  0.74815530  0.74637363  0.50584921  1
  Sb  Sb22  1  0.00546942  0.00365234  0.50093180  1
  Sb  Sb23  1  0.75088490  0.25211985  0.50401946  1
  Sb  Sb24  1  0.49995670  0.49415821  -0.00232267  1
  Sb  Sb25  1  0.00389596  0.75066866  0.24944576  1
  Sb  Sb26  1  0.49652335  0.49836472  0.50362151  1
  Sb  Sb27  1  0.24991377  0.49357560  0.74976918  1
  Sb  Sb28  1  0.00003322  0.49555811  -0.00263196  1
  Sb  Sb29  1  0.74811843  0.00344418  0.24463391  1
  Sb  Sb30  1  0.24915503  0.49148885  0.25038820  1
  Sb  Sb31  1  0.00787803  0.00332136  -0.00030795  1
  Te  Te32  1  0.24995846  0.24794217  0.24877288  1
  Te  Te33  1  0.25139146  0.25099965  0.75106704  1
  Te  Te34  1  0.24995781  0.75680483  0.24964914  1
  Te  Te35  1  0.25127431  0.75091613  0.75185889  1
  Te  Te36  1  0.75002026  0.25001889  0.24435713  1
  Te  Te37  1  0.74859119  0.25012078  0.75283624  1
  Te  Te38  1  0.75007566  0.75035767  0.24168677  1
  Te  Te39  1  0.74786119  0.74975026  0.75422865  1
  Te  Te40  1  0.25275174  0.00210347  -0.00225711  1
  Te  Te41  1  0.25042483  0.00168573  0.50183340  1
  Te  Te42  1  0.24897308  0.50416014  0.00113337  1
  Te  Te43  1  0.24616860  0.49928385  0.49909376  1
  Te  Te44  1  0.74157651  0.00075952  -0.00005365  1
  Te  Te45  1  0.75114639  -0.00255959  0.49821772  1
  Te  Te46  1  0.75052314  0.49942622  -0.00423366  1
  Te  Te47  1  0.75651387  0.50126814  0.50578418  1
  Te  Te48  1  0.00074709  0.25034796  -0.00140281  1
  Te  Te49  1  0.00218780  0.25236617  0.50157970  1
  Te  Te50  1  0.00011360  0.74893339  0.00077613  1
  Te  Te51  1  0.00559477  0.74448393  0.49934902  1
  Te  Te52  1  0.49767913  0.24952523  -0.00284120  1
  Te  Te53  1  0.49607942  0.24997636  0.50293520  1
  Te  Te54  1  0.49705778  0.75209504  -0.00253717  1
  Te  Te55  1  0.49483584  0.74965048  0.50534428  1
  Te  Te56  1  0.00593670  0.00651221  0.25045689  1
  Te  Te57  1  0.00743434  0.00653163  0.74960434  1
  Te  Te58  1  -0.00088873  0.49340826  0.25645992  1
  Te  Te59  1  -0.00459551  0.49514185  0.74737420  1
  Te  Te60  1  0.49572719  0.00504095  0.24516739  1
  Te  Te61  1  0.49637827  0.00150242  0.75267477  1
  Te  Te62  1  0.50100989  0.48997972  0.25272687  1
  Te  Te63  1  0.50615172  0.49990427  0.74877225  1
