# generated using pymatgen
data_AgSbTe2
_symmetry_space_group_name_H-M   'P 1'
_cell_length_a   12.22893805
_cell_length_b   12.23553417
_cell_length_c   12.22475638
_cell_angle_alpha   90.00075405
_cell_angle_beta   89.99735367
_cell_angle_gamma   89.99533092
_symmetry_Int_Tables_number   1
_chemical_formula_structural   AgSbTe2
_chemical_formula_sum   'Ag16 Sb16 Te32'
_cell_volume   1829.16082022
_cell_formula_units_Z   16
loop_
 _symmetry_equiv_pos_site_id
 _symmetry_equiv_pos_as_xyz
  1  'x, y, z'
loop_
 _atom_site_type_symbol
 _atom_site_label
 _atom_site_symmetry_multiplicity
 _atom_site_fract_x
 _atom_site_fract_y
 _atom_site_fract_z
 _atom_site_occupancy
  Ag  Ag0  1  0.49676195  0.25157552  0.74523540  1
  Ag  Ag1  1  0.24163602  0.74762256  -0.00267397  1
  Ag  Ag2  1  0.00427752  0.25037745  0.75009793  1
  Ag  Ag3  1  0.00521553  0.75036179  0.74810958  1
  Ag  Ag4  1  0.50027118  -0.00542827  0.50186800  1
  Ag  Ag5  1  0.49833410  0.50463362  0.50278168  1
  Ag  Ag6  1  0.24767124  0.75027030  0.50148179  1
  Ag  Ag7  1  0.75171220  0.75184412  0.50030387  1
  Ag  Ag8  1  0.00326598  0.75108594  0.25271875  1
  Ag  Ag9  1  0.49722726  0.74989216  0.25815502  1
  Ag  Ag10  1  0.75026297  0.24876549  0.50422256  1
  Ag  Ag11  1  0.00652741  0.50431924  -0.00502909  1
  Ag  Ag12  1  0.24528806  0.25231681  -0.00748304  1
  Ag  Ag13  1  0.24674261  0.50092111  0.75099972  1
  Ag  Ag14  1  0.00438117  -0.00503120  -0.00398080  1
  Ag  Ag15  1  -0.00046571  -0.00744048  0.50421216  1
  Sb  Sb16  1  0.75092846  0.50280469  0.25313503  1
  Sb  Sb17  1  0.24929627  -0.00397318  0.25131496  1
  Sb  Sb18  1  0.24927149  0.50449207  0.25050154  1
  Sb  Sb19  1  0.49826481  0.24966633  0.25511235  1
  Sb  Sb20  1  0.75088619  -0.00251108  0.25433150  1
  Sb  Sb21  1  0.00211460  0.50718782  0.50387578  1
  Sb  Sb22  1  0.75278401  -0.00138081  0.74575529  1
  Sb  Sb23  1  0.49363230  0.74872782  0.74221642  1
  Sb  Sb24  1  0.75846344  0.75001742  -0.00090949  1
  Sb  Sb25  1  0.24673175  -0.00234696  0.74951024  1
  Sb  Sb26  1  0.75392357  0.25001018  -0.00473721  1
  Sb  Sb27  1  0.00136282  0.24936617  0.25058434  1
  Sb  Sb28  1  0.49319738  0.50208961  -0.00247288  1
  Sb  Sb29  1  0.24911765  0.25048468  0.50750457  1
  Sb  Sb30  1  0.75275833  0.50078444  0.74716168  1
  Sb  Sb31  1  0.49592974  -0.00254439  -0.00225996  1
  Te  Te32  1  0.25048215  0.25226430  0.23683094  1
  Te  Te33  1  0.24642550  0.25591748  0.75274683  1
  Te  Te34  1  0.24784565  0.74882887  0.25080739  1
  Te  Te35  1  0.24728124  0.74515400  0.75044548  1
  Te  Te36  1  0.74885524  0.25157596  0.26031909  1
  Te  Te37  1  0.75104987  0.25131243  0.74405516  1
  Te  Te38  1  0.75079794  0.74924448  0.25573959  1
  Te  Te39  1  0.75727916  0.74889585  0.74451708  1
  Te  Te40  1  0.24437000  -0.00260538  0.00017880  1
  Te  Te41  1  0.24825212  -0.00481272  0.49984375  1
  Te  Te42  1  0.24740896  0.50322279  -0.00479668  1
  Te  Te43  1  0.25377657  0.50333030  0.50512801  1
  Te  Te44  1  0.75923259  0.00064372  0.00089082  1
  Te  Te45  1  0.75166031  -0.00211084  0.50009222  1
  Te  Te46  1  0.75792499  0.49938290  -0.00006242  1
  Te  Te47  1  0.74402181  0.50087743  0.50086185  1
  Te  Te48  1  0.00084693  0.24852106  -0.00121447  1
  Te  Te49  1  -0.00033459  0.24734403  0.50196866  1
  Te  Te50  1  0.00051283  0.75192340  -0.00162108  1
  Te  Te51  1  0.00185561  0.74900303  0.50094947  1
  Te  Te52  1  0.49797529  0.24845998  -0.00375075  1
  Te  Te53  1  0.49921253  0.24823598  0.50161251  1
  Te  Te54  1  0.49638908  0.75218562  0.00479237  1
  Te  Te55  1  0.49880683  0.75218842  0.50076274  1
  Te  Te56  1  -0.00011876  -0.00547628  0.25267443  1
  Te  Te57  1  0.00035868  0.00042587  0.74704756  1
  Te  Te58  1  -0.00002754  0.50560855  0.24348144  1
  Te  Te59  1  0.00403835  0.49889193  0.75147600  1
  Te  Te60  1  0.50046730  -0.00595352  0.25607661  1
  Te  Te61  1  0.50001356  0.00611641  0.74472221  1
  Te  Te62  1  0.50049171  0.50561743  0.25481457  1
  Te  Te63  1  0.49507582  0.49682551  0.74696610  1
