# generated using pymatgen
data_AgSbTe2
_symmetry_space_group_name_H-M   'P 1'
_cell_length_a   12.22291547
_cell_length_b   12.22893966
_cell_length_c   12.22047645
_cell_angle_alpha   89.99532246
_cell_angle_beta   90.00020966
_cell_angle_gamma   90.00303242
_symmetry_Int_Tables_number   1
_chemical_formula_structural   AgSbTe2
_chemical_formula_sum   'Ag16 Sb16 Te32'
_cell_volume   1826.63488097
_cell_formula_units_Z   16
loop_
 _symmetry_equiv_pos_site_id
 _symmetry_equiv_pos_as_xyz
  1  'x, y, z'
loop_
 _atom_site_type_symbol
 _atom_site_label
 _atom_site_symmetry_multiplicity
 _atom_site_fract_x
 _atom_site_fract_y
 _atom_site_fract_z
 _atom_site_occupancy
  Ag  Ag0  1  0.48555850  -0.00117132  0.49953637  1
  Ag  Ag1  1  0.49190333  0.50136359  0.50312144  1
  Ag  Ag2  1  0.75178106  0.24950745  -0.00074976  1
  Ag  Ag3  1  0.24852037  0.24835275  -0.00259913  1
  Ag  Ag4  1  0.24364745  0.76144938  0.50219810  1
  Ag  Ag5  1  0.75376022  -0.00236025  0.25215408  1
  Ag  Ag6  1  0.24665395  -0.00090388  0.26438775  1
  Ag  Ag7  1  0.75361537  0.50225294  0.74835072  1
  Ag  Ag8  1  0.00766504  0.50691171  0.50433051  1
  Ag  Ag9  1  0.01356760  -0.00666333  0.49860135  1
  Ag  Ag10  1  0.00093502  0.75421980  0.25784862  1
  Ag  Ag11  1  0.75355985  0.75068717  -0.00069371  1
  Ag  Ag12  1  0.24664024  0.50073545  0.74172084  1
  Ag  Ag13  1  0.24692606  -0.00040960  0.73600539  1
  Ag  Ag14  1  0.00291439  0.74830312  0.74238645  1
  Ag  Ag15  1  0.24882543  0.23735578  0.50202025  1
  Sb  Sb16  1  0.75140455  0.24931968  0.50101906  1
  Sb  Sb17  1  0.00122376  0.24476786  0.25228425  1
  Sb  Sb18  1  0.49960463  0.75237029  0.25419951  1
  Sb  Sb19  1  0.00081104  -0.00120279  0.00186587  1
  Sb  Sb20  1  0.49741199  0.74985883  0.74566853  1
  Sb  Sb21  1  0.00283611  0.25139743  0.74822213  1
  Sb  Sb22  1  0.00034924  0.50159296  -0.00553382  1
  Sb  Sb23  1  0.49868173  0.49982893  -0.00401006  1
  Sb  Sb24  1  0.49725082  0.24996492  0.74768934  1
  Sb  Sb25  1  0.24708218  0.50098249  0.26037993  1
  Sb  Sb26  1  0.75817744  0.75026082  0.50081486  1
  Sb  Sb27  1  0.49776829  0.00002965  -0.00062855  1
  Sb  Sb28  1  0.24689914  0.75100626  -0.00221239  1
  Sb  Sb29  1  0.75373017  0.50201774  0.25109083  1
  Sb  Sb30  1  0.49885301  0.24835750  0.25218850  1
  Sb  Sb31  1  0.75447473  -0.00152555  0.74897803  1
  Te  Te32  1  0.24913167  0.24479680  0.24967217  1
  Te  Te33  1  0.24874351  0.24987467  0.74927817  1
  Te  Te34  1  0.24559201  0.75411154  0.24922847  1
  Te  Te35  1  0.24685504  0.74931753  0.75090986  1
  Te  Te36  1  0.75072716  0.24486952  0.24340515  1
  Te  Te37  1  0.75123439  0.25372461  0.75588889  1
  Te  Te38  1  0.75427040  0.75345430  0.24720459  1
  Te  Te39  1  0.75485529  0.74767790  0.75235552  1
  Te  Te40  1  0.25174564  0.00453910  -0.00090885  1
  Te  Te41  1  0.24872493  -0.00026873  0.50060286  1
  Te  Te42  1  0.25181879  0.49440975  -0.00773399  1
  Te  Te43  1  0.24869607  0.50073435  0.50133569  1
  Te  Te44  1  0.74907137  0.00164374  0.00219899  1
  Te  Te45  1  0.75022016  0.00202615  0.49626278  1
  Te  Te46  1  0.74921781  0.49804319  -0.00415057  1
  Te  Te47  1  0.75030698  0.49837391  0.50441991  1
  Te  Te48  1  0.00092474  0.25053432  0.00107799  1
  Te  Te49  1  0.00442366  0.24969082  0.49933933  1
  Te  Te50  1  -0.00462608  0.74959570  -0.00033253  1
  Te  Te51  1  0.00170038  0.75083085  0.50116271  1
  Te  Te52  1  0.49928184  0.25078415  0.00094723  1
  Te  Te53  1  0.49434230  0.24958197  0.49967515  1
  Te  Te54  1  0.51042771  0.74910243  0.00096370  1
  Te  Te55  1  0.49177500  0.75048763  0.49999417  1
  Te  Te56  1  0.00061273  -0.00384395  0.25244624  1
  Te  Te57  1  0.00296851  -0.00533023  0.74508153  1
  Te  Te58  1  -0.00059341  0.50946967  0.25903516  1
  Te  Te59  1  0.00159203  0.50331054  0.74613244  1
  Te  Te60  1  0.49932590  -0.00075826  0.25593172  1
  Te  Te61  1  0.49407650  -0.00052900  0.74327363  1
  Te  Te62  1  0.50039470  0.50070849  0.26067386  1
  Te  Te63  1  0.49912954  0.50037878  0.74399271  1
