# generated using pymatgen
data_AgSbTe2
_symmetry_space_group_name_H-M   'P 1'
_cell_length_a   12.31225460
_cell_length_b   12.31896562
_cell_length_c   12.30456974
_cell_angle_alpha   90.00293268
_cell_angle_beta   90.00836889
_cell_angle_gamma   90.00168122
_symmetry_Int_Tables_number   1
_chemical_formula_structural   AgSbTe2
_chemical_formula_sum   'Ag16 Sb16 Te32'
_cell_volume   1866.28625363
_cell_formula_units_Z   16
loop_
 _symmetry_equiv_pos_site_id
 _symmetry_equiv_pos_as_xyz
  1  'x, y, z'
loop_
 _atom_site_type_symbol
 _atom_site_label
 _atom_site_symmetry_multiplicity
 _atom_site_fract_x
 _atom_site_fract_y
 _atom_site_fract_z
 _atom_site_occupancy
  Ag  Ag0  1  0.00314933  0.49200398  0.00448957  1
  Ag  Ag1  1  0.25052745  0.76458734  0.00401082  1
  Ag  Ag2  1  0.74394505  -0.00244845  0.76961877  1
  Ag  Ag3  1  0.00984528  0.24360429  0.24159727  1
  Ag  Ag4  1  0.51742952  0.00219391  -0.00252651  1
  Ag  Ag5  1  0.24429889  0.48541962  0.24105112  1
  Ag  Ag6  1  0.24294883  0.23641702  0.00788747  1
  Ag  Ag7  1  0.75483232  0.23183927  0.00233106  1
  Ag  Ag8  1  0.24534078  0.00859101  0.24110441  1
  Ag  Ag9  1  0.25077497  0.24451729  0.48716125  1
  Ag  Ag10  1  -0.01895808  0.00634182  0.00445215  1
  Ag  Ag11  1  0.75337553  0.00329135  0.23381220  1
  Ag  Ag12  1  0.74661145  0.75791310  0.50138094  1
  Ag  Ag13  1  0.74772340  0.76831011  -0.00186176  1
  Ag  Ag14  1  0.50617759  0.76100035  0.75931933  1
  Ag  Ag15  1  0.50070681  0.23964670  0.76035297  1
  Sb  Sb16  1  0.49897444  0.49976088  -0.00063519  1
  Sb  Sb17  1  0.00028181  0.24719850  0.75745569  1
  Sb  Sb18  1  0.25300728  0.75242018  0.49789103  1
  Sb  Sb19  1  0.24920188  0.49879434  0.75700107  1
  Sb  Sb20  1  0.50069576  0.75279460  0.24326153  1
  Sb  Sb21  1  0.75410597  0.49752111  0.24349730  1
  Sb  Sb22  1  -0.00007706  0.75458875  0.24617124  1
  Sb  Sb23  1  -0.00300546  0.75412422  0.75580671  1
  Sb  Sb24  1  0.49941800  0.49927444  0.50048750  1
  Sb  Sb25  1  -0.00046164  0.00233140  0.49500107  1
  Sb  Sb26  1  0.74893757  0.24501662  0.49885813  1
  Sb  Sb27  1  0.25301941  0.00161587  0.76452786  1
  Sb  Sb28  1  0.49739947  0.24715323  0.24255194  1
  Sb  Sb29  1  0.74967322  0.50025546  0.75397066  1
  Sb  Sb30  1  0.49909912  0.00087509  0.50379462  1
  Sb  Sb31  1  0.00168893  0.49734750  0.49255271  1
  Te  Te32  1  0.25219698  0.24487025  0.24550804  1
  Te  Te33  1  0.25058524  0.24779850  0.75300317  1
  Te  Te34  1  0.25101909  0.75879336  0.24686958  1
  Te  Te35  1  0.25540281  0.75034614  0.75113838  1
  Te  Te36  1  0.74706621  0.24727537  0.25029242  1
  Te  Te37  1  0.74953809  0.25095580  0.74875905  1
  Te  Te38  1  0.74932166  0.75251498  0.24172758  1
  Te  Te39  1  0.74903787  0.74850912  0.76018577  1
  Te  Te40  1  0.25037487  -0.00136891  -0.00115029  1
  Te  Te41  1  0.24911139  0.00272479  0.48507446  1
  Te  Te42  1  0.24802099  0.50034939  0.00053479  1
  Te  Te43  1  0.24893557  0.49983934  0.49189491  1
  Te  Te44  1  0.74810294  0.00262365  0.00066004  1
  Te  Te45  1  0.74975269  -0.00489644  0.49562148  1
  Te  Te46  1  0.75580381  0.49983958  0.00271305  1
  Te  Te47  1  0.75066586  0.51127025  0.49816672  1
  Te  Te48  1  0.00144972  0.24457307  0.00197220  1
  Te  Te49  1  0.00461376  0.25077506  0.49133192  1
  Te  Te50  1  0.00441914  0.75606694  0.00100970  1
  Te  Te51  1  -0.00511134  0.74920535  0.50229987  1
  Te  Te52  1  0.50185060  0.25112578  -0.00209512  1
  Te  Te53  1  0.49693647  0.25068480  0.51220612  1
  Te  Te54  1  0.49937570  0.74735541  -0.00143773  1
  Te  Te55  1  0.50422434  0.74942833  0.51131589  1
  Te  Te56  1  -0.00067028  0.00230427  0.24745236  1
  Te  Te57  1  -0.01044000  0.00045872  0.75700613  1
  Te  Te58  1  0.00413049  0.49327668  0.24494752  1
  Te  Te59  1  0.00073395  0.49962064  0.76107495  1
  Te  Te60  1  0.50389080  -0.00013513  0.24102643  1
  Te  Te61  1  0.50236754  0.00094919  0.75395179  1
  Te  Te62  1  0.48755661  0.50049814  0.25244683  1
  Te  Te63  1  0.49904860  0.49806667  0.74811704  1
