# generated using pymatgen
data_AgSbTe2
_symmetry_space_group_name_H-M   'P 1'
_cell_length_a   12.29295910
_cell_length_b   12.31327747
_cell_length_c   12.27994459
_cell_angle_alpha   89.99424571
_cell_angle_beta   90.00493036
_cell_angle_gamma   90.00511968
_symmetry_Int_Tables_number   1
_chemical_formula_structural   AgSbTe2
_chemical_formula_sum   'Ag16 Sb16 Te32'
_cell_volume   1858.77363677
_cell_formula_units_Z   16
loop_
 _symmetry_equiv_pos_site_id
 _symmetry_equiv_pos_as_xyz
  1  'x, y, z'
loop_
 _atom_site_type_symbol
 _atom_site_label
 _atom_site_symmetry_multiplicity
 _atom_site_fract_x
 _atom_site_fract_y
 _atom_site_fract_z
 _atom_site_occupancy
  Ag  Ag0  1  0.49676822  0.00382291  -0.00709242  1
  Ag  Ag1  1  0.00856589  0.24953338  0.74161872  1
  Ag  Ag2  1  0.49346785  0.26046822  0.73789539  1
  Ag  Ag3  1  0.74172140  0.74517805  0.50542039  1
  Ag  Ag4  1  0.49926615  0.49044664  0.51045618  1
  Ag  Ag5  1  0.49914985  0.74658169  0.25866387  1
  Ag  Ag6  1  0.25608977  0.74912885  0.50702129  1
  Ag  Ag7  1  0.73626593  0.25583728  0.50738939  1
  Ag  Ag8  1  0.25217997  0.00626192  0.74338506  1
  Ag  Ag9  1  0.49867991  0.25303072  0.26263897  1
  Ag  Ag10  1  0.73683253  0.49543656  0.74300094  1
  Ag  Ag11  1  0.49942347  0.49684391  -0.01384292  1
  Ag  Ag12  1  0.26145821  0.49244402  0.74286461  1
  Ag  Ag13  1  0.00448351  0.75119875  0.74175789  1
  Ag  Ag14  1  0.26179269  0.25193408  0.50928365  1
  Ag  Ag15  1  0.00472976  0.00097093  0.50948630  1
  Sb  Sb16  1  0.25351223  0.25063891  -0.01251521  1
  Sb  Sb17  1  0.00148489  0.49978782  0.50286500  1
  Sb  Sb18  1  0.49758240  0.74331022  0.74017895  1
  Sb  Sb19  1  0.74471070  0.00033805  0.25488026  1
  Sb  Sb20  1  0.00033709  0.75179188  0.26245379  1
  Sb  Sb21  1  0.49598735  0.00327407  0.50736605  1
  Sb  Sb22  1  0.25466014  0.74861475  -0.01007922  1
  Sb  Sb23  1  0.00533499  0.00087454  -0.01244330  1
  Sb  Sb24  1  0.00345920  0.49960903  -0.01156038  1
  Sb  Sb25  1  0.74454714  0.74684296  -0.01122378  1
  Sb  Sb26  1  0.25411474  0.00026275  0.25822067  1
  Sb  Sb27  1  0.74501100  0.49929638  0.26098242  1
  Sb  Sb28  1  0.74671332  0.25248143  -0.01069103  1
  Sb  Sb29  1  0.25451524  0.49906077  0.26134373  1
  Sb  Sb30  1  0.74621345  0.00220443  0.74792656  1
  Sb  Sb31  1  0.00125343  0.24822338  0.26470341  1
  Te  Te32  1  0.25269402  0.25102157  0.26515270  1
  Te  Te33  1  0.25262928  0.25235813  0.74506517  1
  Te  Te34  1  0.25197132  0.74963716  0.26300010  1
  Te  Te35  1  0.25098634  0.74932525  0.74491638  1
  Te  Te36  1  0.74679223  0.25023509  0.26414592  1
  Te  Te37  1  0.74634087  0.25008011  0.74509615  1
  Te  Te38  1  0.74831219  0.75026007  0.26315259  1
  Te  Te39  1  0.75187448  0.74901104  0.74386893  1
  Te  Te40  1  0.25456561  0.00013063  -0.01165593  1
  Te  Te41  1  0.24840430  -0.00092767  0.50575352  1
  Te  Te42  1  0.25635533  0.49981189  -0.01208553  1
  Te  Te43  1  0.25117913  0.49976069  0.50451988  1
  Te  Te44  1  0.74073781  -0.00069739  0.00114078  1
  Te  Te45  1  0.75781231  -0.00184221  0.50231819  1
  Te  Te46  1  0.74158925  0.50013301  -0.01294534  1
  Te  Te47  1  0.74821808  0.49914270  0.50521064  1
  Te  Te48  1  -0.00088960  0.24895132  -0.00851223  1
  Te  Te49  1  0.00121936  0.25202702  0.50483313  1
  Te  Te50  1  -0.00093901  0.75074822  -0.00718796  1
  Te  Te51  1  0.00218740  0.74727246  0.50465073  1
  Te  Te52  1  0.49905235  0.25483333  0.00168779  1
  Te  Te53  1  0.49985141  0.24748496  0.50314456  1
  Te  Te54  1  0.49983517  0.74551829  0.01248481  1
  Te  Te55  1  0.50020257  0.75516510  0.49822778  1
  Te  Te56  1  0.00082761  0.00121295  0.25459529  1
  Te  Te57  1  0.00287566  0.00268000  0.74618709  1
  Te  Te58  1  -0.00012565  0.49887253  0.23952578  1
  Te  Te59  1  0.00284028  0.49623644  0.75081692  1
  Te  Te60  1  0.49745219  0.00430310  0.24054244  1
  Te  Te61  1  0.49657736  0.00554591  0.75289203  1
  Te  Te62  1  0.49909472  0.49614818  0.25337587  1
  Te  Te63  1  0.49916318  0.49983085  0.74372661  1
