# generated using pymatgen
data_AgSbTe2
_symmetry_space_group_name_H-M   'P 1'
_cell_length_a   12.21103439
_cell_length_b   12.20637448
_cell_length_c   12.20657945
_cell_angle_alpha   90.00124494
_cell_angle_beta   89.99896154
_cell_angle_gamma   89.99667786
_symmetry_Int_Tables_number   1
_chemical_formula_structural   AgSbTe2
_chemical_formula_sum   'Ag16 Sb16 Te32'
_cell_volume   1819.42067454
_cell_formula_units_Z   16
loop_
 _symmetry_equiv_pos_site_id
 _symmetry_equiv_pos_as_xyz
  1  'x, y, z'
loop_
 _atom_site_type_symbol
 _atom_site_label
 _atom_site_symmetry_multiplicity
 _atom_site_fract_x
 _atom_site_fract_y
 _atom_site_fract_z
 _atom_site_occupancy
  Ag  Ag0  1  0.50005107  0.00118130  0.00374938  1
  Ag  Ag1  1  0.74989352  0.24198225  0.50078112  1
  Ag  Ag2  1  0.75200717  0.75810635  0.49998072  1
  Ag  Ag3  1  0.25225636  -0.00288741  0.24791237  1
  Ag  Ag4  1  -0.00099008  0.75036153  0.74903929  1
  Ag  Ag5  1  -0.00628629  -0.00379219  0.49910171  1
  Ag  Ag6  1  0.25160005  0.25515236  0.00140665  1
  Ag  Ag7  1  0.50602771  -0.00183780  0.49712847  1
  Ag  Ag8  1  0.25022957  0.50217323  0.24176751  1
  Ag  Ag9  1  0.74769339  0.24805615  -0.00040226  1
  Ag  Ag10  1  0.00634638  0.50057662  0.00065823  1
  Ag  Ag11  1  0.49788739  0.75295457  0.24959786  1
  Ag  Ag12  1  0.75052294  -0.00054253  0.74536922  1
  Ag  Ag13  1  0.49362540  0.49855901  0.00224885  1
  Ag  Ag14  1  0.24857857  0.50084699  0.75887345  1
  Ag  Ag15  1  0.00186978  0.75099645  0.25144941  1
  Sb  Sb16  1  -0.00031850  0.50407408  0.49837122  1
  Sb  Sb17  1  0.25044845  0.74350213  0.00250157  1
  Sb  Sb18  1  0.00120237  0.24893090  0.24974000  1
  Sb  Sb19  1  0.49892381  0.24626971  0.24762406  1
  Sb  Sb20  1  0.24937349  -0.00125663  0.75413171  1
  Sb  Sb21  1  0.24826063  0.75227892  0.49721807  1
  Sb  Sb22  1  0.25065659  0.24753386  0.49926469  1
  Sb  Sb23  1  -0.00076639  0.24989387  0.75023473  1
  Sb  Sb24  1  0.50028882  0.50193221  0.49678313  1
  Sb  Sb25  1  0.74959263  0.75404860  -0.00040986  1
  Sb  Sb26  1  -0.00010978  -0.00078534  0.00206478  1
  Sb  Sb27  1  0.74703215  -0.00136054  0.25569768  1
  Sb  Sb28  1  0.50067519  0.75034612  0.74928572  1
  Sb  Sb29  1  0.74949560  0.50207246  0.24729123  1
  Sb  Sb30  1  0.50086643  0.24962086  0.75210256  1
  Sb  Sb31  1  0.75168990  0.50162511  0.75311213  1
  Te  Te32  1  0.24916194  0.25103951  0.24535066  1
  Te  Te33  1  0.24909025  0.25563771  0.75601455  1
  Te  Te34  1  0.24965309  0.75083514  0.25129409  1
  Te  Te35  1  0.24338381  0.74550504  0.74805754  1
  Te  Te36  1  0.75085291  0.25066297  0.24873750  1
  Te  Te37  1  0.75078197  0.24505288  0.75045613  1
  Te  Te38  1  0.75129347  0.74930007  0.25495990  1
  Te  Te39  1  0.75427066  0.75353363  0.74531514  1
  Te  Te40  1  0.25312195  0.00626035  0.00163575  1
  Te  Te41  1  0.25144136  0.00298805  0.49682950  1
  Te  Te42  1  0.25066279  0.49813228  0.00163122  1
  Te  Te43  1  0.25095444  0.49658134  0.49868515  1
  Te  Te44  1  0.74747869  0.00473521  -0.00425155  1
  Te  Te45  1  0.74953870  0.00023332  0.50016972  1
  Te  Te46  1  0.74890099  0.49280707  -0.00125074  1
  Te  Te47  1  0.74910186  0.49744224  0.50078140  1
  Te  Te48  1  -0.00080578  0.25483725  0.00032185  1
  Te  Te49  1  -0.00634002  0.24384256  0.49984606  1
  Te  Te50  1  -0.00259930  0.74592019  0.00141509  1
  Te  Te51  1  -0.00381981  0.75256086  0.49822504  1
  Te  Te52  1  0.50114129  0.24980179  0.00061094  1
  Te  Te53  1  0.50634990  0.24442973  0.49953803  1
  Te  Te54  1  0.50226028  0.75131820  0.00504986  1
  Te  Te55  1  0.50530438  0.75359263  0.49611554  1
  Te  Te56  1  0.00581067  -0.00597039  0.25240863  1
  Te  Te57  1  -0.00197306  -0.00576268  0.74690183  1
  Te  Te58  1  0.00521845  0.50586733  0.24747194  1
  Te  Te59  1  0.00310309  0.50534390  0.75301836  1
  Te  Te60  1  0.49675964  -0.00423791  0.24859217  1
  Te  Te61  1  0.50237778  -0.00212395  0.75024688  1
  Te  Te62  1  0.49482787  0.50662889  0.24590339  1
  Te  Te63  1  0.49407139  0.50259160  0.75624304  1
