# generated using pymatgen
data_AgSbTe2
_symmetry_space_group_name_H-M   'P 1'
_cell_length_a   12.27933661
_cell_length_b   12.28329510
_cell_length_c   12.27858698
_cell_angle_alpha   89.99642136
_cell_angle_beta   90.00462786
_cell_angle_gamma   89.99938574
_symmetry_Int_Tables_number   1
_chemical_formula_structural   AgSbTe2
_chemical_formula_sum   'Ag16 Sb16 Te32'
_cell_volume   1851.98804669
_cell_formula_units_Z   16
loop_
 _symmetry_equiv_pos_site_id
 _symmetry_equiv_pos_as_xyz
  1  'x, y, z'
loop_
 _atom_site_type_symbol
 _atom_site_label
 _atom_site_symmetry_multiplicity
 _atom_site_fract_x
 _atom_site_fract_y
 _atom_site_fract_z
 _atom_site_occupancy
  Ag  Ag0  1  0.51788120  0.25843907  0.26268979  1
  Ag  Ag1  1  -0.01886155  0.74299973  0.25771376  1
  Ag  Ag2  1  0.25101709  0.25669926  0.49942061  1
  Ag  Ag3  1  0.74962367  0.25766121  0.48742899  1
  Ag  Ag4  1  0.25268631  0.49379622  0.73888296  1
  Ag  Ag5  1  0.50653017  0.25456460  0.73620575  1
  Ag  Ag6  1  0.51970136  0.74083307  0.25700380  1
  Ag  Ag7  1  0.74967197  0.49827548  0.25976849  1
  Ag  Ag8  1  -0.00925818  0.00714041  0.49722259  1
  Ag  Ag9  1  0.74897999  0.25232469  0.01241227  1
  Ag  Ag10  1  -0.01746021  0.25604867  0.26052023  1
  Ag  Ag11  1  0.75020423  0.74701373  0.01699200  1
  Ag  Ag12  1  0.75240572  0.74183403  0.48452454  1
  Ag  Ag13  1  0.75021941  0.00597028  0.74239914  1
  Ag  Ag14  1  0.50943677  0.48988279  0.49470639  1
  Ag  Ag15  1  -0.01077044  0.49289038  0.49337444  1
  Sb  Sb16  1  0.24912054  0.74457739  0.49947425  1
  Sb  Sb17  1  -0.00493325  0.74740031  0.74157697  1
  Sb  Sb18  1  -0.00371802  0.49898656  0.00909005  1
  Sb  Sb19  1  0.25023683  0.49772078  0.25666198  1
  Sb  Sb20  1  0.51064553  0.00940867  0.50050793  1
  Sb  Sb21  1  0.74830311  0.49425282  0.73811940  1
  Sb  Sb22  1  -0.00563464  0.00117536  0.00341238  1
  Sb  Sb23  1  0.24985909  0.25260938  0.00006681  1
  Sb  Sb24  1  0.50314159  0.49995281  0.00783509  1
  Sb  Sb25  1  0.75033757  0.00136870  0.25770983  1
  Sb  Sb26  1  0.25046930  0.00659527  0.74211725  1
  Sb  Sb27  1  0.50561134  0.00015461  0.00041050  1
  Sb  Sb28  1  -0.00716417  0.25100939  0.73711760  1
  Sb  Sb29  1  0.24944015  0.74540159  0.00297516  1
  Sb  Sb30  1  0.50573247  0.74343308  0.74053753  1
  Sb  Sb31  1  0.24906097  0.00168062  0.25533073  1
  Te  Te32  1  0.25221823  0.25244199  0.25362539  1
  Te  Te33  1  0.25787546  0.25252753  0.74925058  1
  Te  Te34  1  0.25111774  0.74894878  0.24913545  1
  Te  Te35  1  0.25197506  0.74504358  0.75217848  1
  Te  Te36  1  0.74870956  0.24322947  0.25402101  1
  Te  Te37  1  0.74658394  0.25159227  0.74885298  1
  Te  Te38  1  0.74975672  0.75834652  0.25422698  1
  Te  Te39  1  0.74788428  0.75318739  0.74985083  1
  Te  Te40  1  0.24748084  -0.00140451  -0.00427534  1
  Te  Te41  1  0.23470322  0.01117280  0.50081639  1
  Te  Te42  1  0.24905772  0.49979668  -0.01640944  1
  Te  Te43  1  0.25131255  0.49419716  0.50239283  1
  Te  Te44  1  0.75163575  0.00213076  -0.01612777  1
  Te  Te45  1  0.75460015  0.00061394  0.50672775  1
  Te  Te46  1  0.75065501  0.49911741  0.01180311  1
  Te  Te47  1  0.74977380  0.49878196  0.49455123  1
  Te  Te48  1  -0.00648250  0.25022433  0.01515882  1
  Te  Te49  1  -0.00576133  0.25526299  0.49659431  1
  Te  Te50  1  -0.00693980  0.75023434  0.01231188  1
  Te  Te51  1  -0.00022299  0.74486433  0.49546853  1
  Te  Te52  1  0.50654514  0.25010727  0.00585346  1
  Te  Te53  1  0.50538767  0.25083306  0.49569109  1
  Te  Te54  1  0.50751304  0.74972972  0.01088508  1
  Te  Te55  1  0.49976802  0.74620365  0.49546418  1
  Te  Te56  1  0.00146995  0.00099806  0.25759011  1
  Te  Te57  1  -0.00363901  -0.00007404  0.74149498  1
  Te  Te58  1  -0.00169860  0.49867259  0.25540505  1
  Te  Te59  1  0.00177612  0.49884105  0.73742701  1
  Te  Te60  1  0.49644967  0.00111098  0.25197943  1
  Te  Te61  1  0.50336081  0.00863139  0.74846302  1
  Te  Te62  1  0.50200503  0.49698227  0.25489379  1
  Te  Te63  1  0.50261283  0.49555334  0.74048959  1
