# generated using pymatgen
data_AgSbTe2
_symmetry_space_group_name_H-M   'P 1'
_cell_length_a   12.28610299
_cell_length_b   12.30813303
_cell_length_c   12.29569926
_cell_angle_alpha   89.99537628
_cell_angle_beta   89.99455908
_cell_angle_gamma   89.99153599
_symmetry_Int_Tables_number   1
_chemical_formula_structural   AgSbTe2
_chemical_formula_sum   'Ag16 Sb16 Te32'
_cell_volume   1859.34318950
_cell_formula_units_Z   16
loop_
 _symmetry_equiv_pos_site_id
 _symmetry_equiv_pos_as_xyz
  1  'x, y, z'
loop_
 _atom_site_type_symbol
 _atom_site_label
 _atom_site_symmetry_multiplicity
 _atom_site_fract_x
 _atom_site_fract_y
 _atom_site_fract_z
 _atom_site_occupancy
  Ag  Ag0  1  0.75084724  0.24081647  0.00932628  1
  Ag  Ag1  1  0.75069317  0.50601206  0.75346512  1
  Ag  Ag2  1  0.75791242  -0.00918567  0.25101903  1
  Ag  Ag3  1  -0.01481988  0.23532166  0.24798781  1
  Ag  Ag4  1  0.75503681  0.76129144  0.48672449  1
  Ag  Ag5  1  0.51001464  0.50523456  0.00441394  1
  Ag  Ag6  1  0.51542765  0.24093961  0.24637133  1
  Ag  Ag7  1  -0.01631409  0.76327199  0.24960471  1
  Ag  Ag8  1  -0.01063925  0.50688020  0.49444650  1
  Ag  Ag9  1  0.51646468  0.75778599  0.24720878  1
  Ag  Ag10  1  0.75092031  -0.00481944  0.75003197  1
  Ag  Ag11  1  -0.01400990  -0.00560662  0.48533665  1
  Ag  Ag12  1  0.51794079  -0.00550411  0.49016800  1
  Ag  Ag13  1  0.24946812  0.75205899  0.00610772  1
  Ag  Ag14  1  -0.01006646  -0.00658050  0.01410080  1
  Ag  Ag15  1  0.75115809  0.75832410  0.01344686  1
  Sb  Sb16  1  0.25077792  -0.00276732  0.75119202  1
  Sb  Sb17  1  0.51139717  -0.00273245  0.01157898  1
  Sb  Sb18  1  0.24777802  0.50333254  0.75301654  1
  Sb  Sb19  1  0.24869735  0.24917664  0.49663962  1
  Sb  Sb20  1  0.75061463  0.50630902  0.24886427  1
  Sb  Sb21  1  0.24972677  0.50090954  0.24902290  1
  Sb  Sb22  1  -0.00284393  0.75106734  0.74931520  1
  Sb  Sb23  1  -0.00638298  0.50338114  0.00294596  1
  Sb  Sb24  1  0.51222503  0.50343038  0.49910495  1
  Sb  Sb25  1  0.24945413  0.24759954  0.00326301  1
  Sb  Sb26  1  0.50894950  0.24628760  0.75572349  1
  Sb  Sb27  1  0.24386336  -0.00033228  0.24901599  1
  Sb  Sb28  1  0.75018877  0.24143651  0.48661070  1
  Sb  Sb29  1  0.24792534  0.75018014  0.49288547  1
  Sb  Sb30  1  0.50451105  0.75221692  0.75526340  1
  Sb  Sb31  1  -0.00644059  0.24734829  0.75323865  1
  Te  Te32  1  0.25139381  0.25020690  0.25079212  1
  Te  Te33  1  0.25123419  0.25058762  0.74904845  1
  Te  Te34  1  0.25142768  0.75078563  0.24360678  1
  Te  Te35  1  0.25143568  0.75045945  0.76586258  1
  Te  Te36  1  0.75102326  0.24835047  0.24431075  1
  Te  Te37  1  0.75034395  0.24578340  0.76746107  1
  Te  Te38  1  0.75137855  0.74998040  0.25090046  1
  Te  Te39  1  0.75040321  0.75498927  0.75004466  1
  Te  Te40  1  0.23335961  -0.00463871  -0.00298021  1
  Te  Te41  1  0.24513600  -0.00018372  0.50333321  1
  Te  Te42  1  0.25822453  0.50549487  -0.00212950  1
  Te  Te43  1  0.23571087  0.50041735  0.50355991  1
  Te  Te44  1  0.75236047  -0.00323310  0.00427186  1
  Te  Te45  1  0.75189696  -0.00208963  0.49474457  1
  Te  Te46  1  0.74853371  0.50436610  -0.00072890  1
  Te  Te47  1  0.75307163  0.50763389  0.50519026  1
  Te  Te48  1  -0.00006751  0.25280841  0.00573903  1
  Te  Te49  1  -0.00121689  0.24351407  0.49082495  1
  Te  Te50  1  -0.01182039  0.74828314  0.00297495  1
  Te  Te51  1  0.00016386  0.75575087  0.49713432  1
  Te  Te52  1  0.49939357  0.24875405  0.00616096  1
  Te  Te53  1  0.49938779  0.24932091  0.48763473  1
  Te  Te54  1  0.51107254  0.75204493  0.00436643  1
  Te  Te55  1  0.49706072  0.75056810  0.49160133  1
  Te  Te56  1  -0.00198347  -0.00251406  0.24941025  1
  Te  Te57  1  -0.00803346  0.00085166  0.74686507  1
  Te  Te58  1  -0.00128032  0.50049611  0.25380940  1
  Te  Te59  1  -0.00718373  0.49965962  0.74317383  1
  Te  Te60  1  0.50253640  -0.00218710  0.25173924  1
  Te  Te61  1  0.50772397  -0.00002965  0.73518114  1
  Te  Te62  1  0.50055935  0.50118272  0.24674413  1
  Te  Te63  1  0.50627757  0.49950174  0.75191104  1
