# generated using pymatgen
data_AgSbTe2
_symmetry_space_group_name_H-M   'P 1'
_cell_length_a   12.22553309
_cell_length_b   12.22375348
_cell_length_c   12.22364850
_cell_angle_alpha   90.01089617
_cell_angle_beta   89.99214072
_cell_angle_gamma   90.00502437
_symmetry_Int_Tables_number   1
_chemical_formula_structural   AgSbTe2
_chemical_formula_sum   'Ag16 Sb16 Te32'
_cell_volume   1826.72523066
_cell_formula_units_Z   16
loop_
 _symmetry_equiv_pos_site_id
 _symmetry_equiv_pos_as_xyz
  1  'x, y, z'
loop_
 _atom_site_type_symbol
 _atom_site_label
 _atom_site_symmetry_multiplicity
 _atom_site_fract_x
 _atom_site_fract_y
 _atom_site_fract_z
 _atom_site_occupancy
  Ag  Ag0  1  0.50284247  0.25105832  0.24785390  1
  Ag  Ag1  1  0.49645043  -0.00896763  0.50157022  1
  Ag  Ag2  1  0.00300093  0.50536431  0.50214846  1
  Ag  Ag3  1  0.49955979  0.74939731  0.24915580  1
  Ag  Ag4  1  0.49900101  -0.00767650  -0.00146417  1
  Ag  Ag5  1  0.25677186  0.74743237  0.51458517  1
  Ag  Ag6  1  0.74495547  0.50208624  0.24893754  1
  Ag  Ag7  1  0.01469829  0.74970776  0.75231452  1
  Ag  Ag8  1  0.25200017  0.51505063  0.74734785  1
  Ag  Ag9  1  0.74613466  0.24890328  0.00280900  1
  Ag  Ag10  1  0.49726511  0.50852962  0.49883091  1
  Ag  Ag11  1  0.74392338  0.75165766  -0.00050456  1
  Ag  Ag12  1  0.25386656  -0.01477169  0.75282839  1
  Ag  Ag13  1  0.00084221  -0.00543178  -0.00312704  1
  Ag  Ag14  1  0.48600928  0.75187078  0.75074022  1
  Ag  Ag15  1  0.25545612  0.75309107  -0.01458631  1
  Sb  Sb16  1  0.25332929  -0.00413304  0.24741237  1
  Sb  Sb17  1  0.00021143  0.50560809  -0.00237962  1
  Sb  Sb18  1  0.00469061  -0.00673410  0.50414087  1
  Sb  Sb19  1  0.25360088  0.24730113  -0.00071007  1
  Sb  Sb20  1  0.25433513  0.50422259  0.25274224  1
  Sb  Sb21  1  0.74648720  0.25232649  0.49672777  1
  Sb  Sb22  1  0.74782874  0.50414484  0.75021072  1
  Sb  Sb23  1  -0.00357826  0.25266656  0.24681954  1
  Sb  Sb24  1  0.49941629  0.24889589  0.75206728  1
  Sb  Sb25  1  0.74195064  0.74819157  0.49926563  1
  Sb  Sb26  1  0.25192690  0.25169835  0.50072527  1
  Sb  Sb27  1  0.74578395  -0.00277653  0.24631583  1
  Sb  Sb28  1  0.50005056  0.50892722  0.00120382  1
  Sb  Sb29  1  -0.00070499  0.74841387  0.24885919  1
  Sb  Sb30  1  0.00067835  0.25005344  0.75189172  1
  Sb  Sb31  1  0.74595259  -0.00452211  0.75304619  1
  Te  Te32  1  0.25906629  0.25170511  0.24920076  1
  Te  Te33  1  0.24939796  0.25049320  0.75097805  1
  Te  Te34  1  0.25555837  0.74888239  0.24973838  1
  Te  Te35  1  0.25230675  0.74993241  0.75035847  1
  Te  Te36  1  0.74528186  0.25462269  0.24573650  1
  Te  Te37  1  0.75041217  0.25114106  0.75987130  1
  Te  Te38  1  0.74563259  0.74654127  0.24532213  1
  Te  Te39  1  0.74960067  0.74942711  0.75650032  1
  Te  Te40  1  0.25294892  -0.00272622  -0.00193733  1
  Te  Te41  1  0.25357039  -0.00332261  0.50403961  1
  Te  Te42  1  0.24880311  0.50415884  -0.00548795  1
  Te  Te43  1  0.25252692  0.50218041  0.50220163  1
  Te  Te44  1  0.74750199  -0.00327843  -0.00018117  1
  Te  Te45  1  0.74381254  0.00119280  0.50031569  1
  Te  Te46  1  0.75036823  0.50159961  0.00347227  1
  Te  Te47  1  0.74775701  0.50042788  0.49634614  1
  Te  Te48  1  -0.00482572  0.24267936  0.00078256  1
  Te  Te49  1  -0.00079176  0.25640885  0.49905073  1
  Te  Te50  1  0.00092005  0.75297777  -0.00138021  1
  Te  Te51  1  0.00405712  0.74807065  0.50194347  1
  Te  Te52  1  0.50283489  0.24382870  0.00328706  1
  Te  Te53  1  0.50112840  0.24946008  0.49555743  1
  Te  Te54  1  0.49916725  0.75066916  -0.00095094  1
  Te  Te55  1  0.49964303  0.75037400  0.50060875  1
  Te  Te56  1  0.00000301  0.00105156  0.24467330  1
  Te  Te57  1  0.00469046  -0.00393604  0.75225280  1
  Te  Te58  1  -0.00549003  0.49962390  0.25602216  1
  Te  Te59  1  0.00279288  0.50371028  0.74603767  1
  Te  Te60  1  0.50006093  -0.00307969  0.24959003  1
  Te  Te61  1  0.49727295  -0.00141241  0.75089420  1
  Te  Te62  1  0.50214743  0.50296353  0.25205242  1
  Te  Te63  1  0.49710626  0.50204674  0.74532512  1
