# generated using pymatgen
data_AgSbTe2
_symmetry_space_group_name_H-M   'P 1'
_cell_length_a   12.21829545
_cell_length_b   12.22033529
_cell_length_c   12.21885762
_cell_angle_alpha   90.00311352
_cell_angle_beta   89.99681148
_cell_angle_gamma   90.00320886
_symmetry_Int_Tables_number   1
_chemical_formula_structural   AgSbTe2
_chemical_formula_sum   'Ag16 Sb16 Te32'
_cell_volume   1824.41799323
_cell_formula_units_Z   16
loop_
 _symmetry_equiv_pos_site_id
 _symmetry_equiv_pos_as_xyz
  1  'x, y, z'
loop_
 _atom_site_type_symbol
 _atom_site_label
 _atom_site_symmetry_multiplicity
 _atom_site_fract_x
 _atom_site_fract_y
 _atom_site_fract_z
 _atom_site_occupancy
  Ag  Ag0  1  0.00400491  -0.00151777  0.49843248  1
  Ag  Ag1  1  0.50050694  0.75502902  0.74750082  1
  Ag  Ag2  1  0.25384535  0.75876239  0.50067034  1
  Ag  Ag3  1  0.74810862  0.75903036  0.00065132  1
  Ag  Ag4  1  0.74414842  0.00165204  0.24481395  1
  Ag  Ag5  1  -0.00098229  0.75507431  0.74924459  1
  Ag  Ag6  1  0.50085716  0.24437711  0.74575639  1
  Ag  Ag7  1  0.74583448  0.24084632  0.00389234  1
  Ag  Ag8  1  0.50697222  0.00135173  0.00401879  1
  Ag  Ag9  1  0.50265251  0.24297391  0.25346420  1
  Ag  Ag10  1  0.74544386  0.49844167  0.25006763  1
  Ag  Ag11  1  0.25695050  0.24111873  0.49815739  1
  Ag  Ag12  1  0.50024084  0.49788614  0.49847875  1
  Ag  Ag13  1  0.25579790  0.00134929  0.25637785  1
  Ag  Ag14  1  0.49502572  0.00286691  0.49641105  1
  Ag  Ag15  1  -0.00740338  -0.00162804  0.00137781  1
  Sb  Sb16  1  -0.00498574  0.50269231  0.00047127  1
  Sb  Sb17  1  0.74705123  0.49981363  0.74835106  1
  Sb  Sb18  1  0.25274462  0.50022020  0.74770622  1
  Sb  Sb19  1  0.74637641  0.75428872  0.50035275  1
  Sb  Sb20  1  0.74601709  -0.00057207  0.75718452  1
  Sb  Sb21  1  0.50086622  0.75889630  0.25301482  1
  Sb  Sb22  1  0.25369929  -0.00027819  0.74031555  1
  Sb  Sb23  1  0.25649657  0.49762264  0.25387576  1
  Sb  Sb24  1  0.74096144  0.24547059  0.49599679  1
  Sb  Sb25  1  0.50335516  0.49961067  0.00276522  1
  Sb  Sb26  1  -0.00113211  0.75470063  0.25079984  1
  Sb  Sb27  1  -0.00120094  0.50172981  0.49945910  1
  Sb  Sb28  1  -0.00129481  0.24345002  0.74886240  1
  Sb  Sb29  1  -0.00369246  0.24592072  0.25052742  1
  Sb  Sb30  1  0.25518739  0.24323074  0.00199041  1
  Sb  Sb31  1  0.25201039  0.75653552  -0.00087439  1
  Te  Te32  1  0.25554581  0.24670137  0.25354374  1
  Te  Te33  1  0.25661931  0.25090601  0.74501620  1
  Te  Te34  1  0.24999781  0.75443457  0.25593708  1
  Te  Te35  1  0.25263083  0.74948682  0.74523493  1
  Te  Te36  1  0.74664615  0.24634237  0.24732215  1
  Te  Te37  1  0.74414042  0.25186160  0.75720069  1
  Te  Te38  1  0.74927859  0.75248635  0.24433566  1
  Te  Te39  1  0.74794499  0.74907072  0.75503698  1
  Te  Te40  1  0.25013741  -0.00005329  0.01079641  1
  Te  Te41  1  0.25175307  -0.00035748  0.49675200  1
  Te  Te42  1  0.24841558  0.50015129  0.00192405  1
  Te  Te43  1  0.25512548  0.50068355  0.49835776  1
  Te  Te44  1  0.74847101  -0.00068162  0.00241749  1
  Te  Te45  1  0.75096103  0.00014963  0.49129073  1
  Te  Te46  1  0.75030453  0.50074789  0.00683412  1
  Te  Te47  1  0.74559032  0.50039831  0.49325997  1
  Te  Te48  1  -0.00542423  0.24376658  -0.00227192  1
  Te  Te49  1  0.00845069  0.24496599  0.50250705  1
  Te  Te50  1  -0.00209509  0.75458392  -0.00424514  1
  Te  Te51  1  0.00314882  0.75358389  0.50406611  1
  Te  Te52  1  0.50240704  0.24771478  -0.00018164  1
  Te  Te53  1  0.49952086  0.24625596  0.50056257  1
  Te  Te54  1  0.50225887  0.75277845  -0.00596971  1
  Te  Te55  1  0.49868275  0.75279647  0.50303760  1
  Te  Te56  1  -0.00122017  0.00025184  0.25056862  1
  Te  Te57  1  -0.00012041  -0.00438990  0.74958480  1
  Te  Te58  1  -0.00922050  0.49942360  0.25066728  1
  Te  Te59  1  -0.00061328  0.50984139  0.74910085  1
  Te  Te60  1  0.50135667  0.00076437  0.25038658  1
  Te  Te61  1  0.50006011  -0.00016049  0.74907390  1
  Te  Te62  1  0.50413576  0.49333097  0.25404724  1
  Te  Te63  1  0.50064622  0.50121771  0.74369138  1
