# generated using pymatgen
data_AgSbTe2
_symmetry_space_group_name_H-M   'P 1'
_cell_length_a   12.26376059
_cell_length_b   12.26729964
_cell_length_c   12.24070696
_cell_angle_alpha   90.00696587
_cell_angle_beta   89.99765101
_cell_angle_gamma   90.01330964
_symmetry_Int_Tables_number   1
_chemical_formula_structural   AgSbTe2
_chemical_formula_sum   'Ag16 Sb16 Te32'
_cell_volume   1841.53137724
_cell_formula_units_Z   16
loop_
 _symmetry_equiv_pos_site_id
 _symmetry_equiv_pos_as_xyz
  1  'x, y, z'
loop_
 _atom_site_type_symbol
 _atom_site_label
 _atom_site_symmetry_multiplicity
 _atom_site_fract_x
 _atom_site_fract_y
 _atom_site_fract_z
 _atom_site_occupancy
  Ag  Ag0  1  0.50382866  0.00150169  0.00962027  1
  Ag  Ag1  1  0.76487874  0.48487070  0.24932716  1
  Ag  Ag2  1  0.75464008  0.24701650  0.01357827  1
  Ag  Ag3  1  0.75548025  0.01435230  0.24635257  1
  Ag  Ag4  1  -0.00047659  0.50212319  0.48495533  1
  Ag  Ag5  1  -0.00246132  0.50030148  0.01424415  1
  Ag  Ag6  1  -0.01386816  0.26353904  0.24746526  1
  Ag  Ag7  1  0.75340008  0.25103698  0.48439980  1
  Ag  Ag8  1  0.49703641  0.75509274  0.24933172  1
  Ag  Ag9  1  0.23506335  0.50507033  0.25079444  1
  Ag  Ag10  1  0.24460501  0.74848040  0.49095364  1
  Ag  Ag11  1  0.00114074  0.74937326  0.75146433  1
  Ag  Ag12  1  -0.00240730  0.00004104  0.00904618  1
  Ag  Ag13  1  0.24473673  -0.00443416  0.24856928  1
  Ag  Ag14  1  0.00282410  0.73620614  0.24934782  1
  Ag  Ag15  1  0.51537622  0.24471559  0.24820174  1
  Sb  Sb16  1  0.50072592  0.49946702  0.49188300  1
  Sb  Sb17  1  0.24609297  -0.00334526  0.75191663  1
  Sb  Sb18  1  0.50102823  0.00032659  0.48894855  1
  Sb  Sb19  1  0.24818391  0.25078665  0.49029761  1
  Sb  Sb20  1  0.49777114  0.75267376  0.74998775  1
  Sb  Sb21  1  -0.00024781  -0.00200644  0.48782767  1
  Sb  Sb22  1  0.75340979  0.75173587  0.00655070  1
  Sb  Sb23  1  0.75424464  0.50012229  0.75168542  1
  Sb  Sb24  1  0.24708474  0.24912714  0.00692840  1
  Sb  Sb25  1  0.50358603  0.24800926  0.75185322  1
  Sb  Sb26  1  -0.00208565  0.24966159  0.75155622  1
  Sb  Sb27  1  0.24390103  0.50286786  0.75048538  1
  Sb  Sb28  1  0.75308228  0.00026908  0.75271552  1
  Sb  Sb29  1  0.75271344  0.74912125  0.49134440  1
  Sb  Sb30  1  0.24637320  0.75028042  0.00844882  1
  Sb  Sb31  1  0.50238927  0.49893360  0.00911685  1
  Te  Te32  1  0.24988262  0.24819183  0.24961763  1
  Te  Te33  1  0.25232372  0.24976089  0.74749243  1
  Te  Te34  1  0.24948691  0.75028722  0.25035988  1
  Te  Te35  1  0.24580777  0.74989300  0.73843373  1
  Te  Te36  1  0.75029074  0.24871117  0.24872792  1
  Te  Te37  1  0.74913650  0.25006856  0.74884266  1
  Te  Te38  1  0.74883886  0.75024440  0.25082430  1
  Te  Te39  1  0.75625089  0.75013573  0.74714802  1
  Te  Te40  1  0.24631995  0.00005153  0.00483157  1
  Te  Te41  1  0.25062458  -0.00231061  0.49592455  1
  Te  Te42  1  0.24429687  0.49997629  0.00435663  1
  Te  Te43  1  0.24660790  0.50136900  0.49599344  1
  Te  Te44  1  0.75353022  0.00136636  0.00253967  1
  Te  Te45  1  0.74941685  0.00475333  0.49744838  1
  Te  Te46  1  0.75362903  0.49607305  0.00248717  1
  Te  Te47  1  0.75317447  0.49793426  0.49751586  1
  Te  Te48  1  -0.00227512  0.24998677  0.00056176  1
  Te  Te49  1  -0.00325428  0.25262563  0.50072404  1
  Te  Te50  1  0.00024032  0.74898451  0.00482350  1
  Te  Te51  1  0.00132159  0.74937883  0.49416203  1
  Te  Te52  1  0.50374693  0.24845100  0.00336105  1
  Te  Te53  1  0.50545131  0.24933097  0.49750725  1
  Te  Te54  1  0.50006083  0.75314907  0.00282501  1
  Te  Te55  1  0.49479217  0.75061495  0.49804271  1
  Te  Te56  1  -0.00036728  0.00109339  0.24992713  1
  Te  Te57  1  0.00096981  -0.00479616  0.76158362  1
  Te  Te58  1  -0.00029300  0.50025727  0.24995434  1
  Te  Te59  1  0.00028223  0.50518448  0.75199812  1
  Te  Te60  1  0.50042042  -0.00054833  0.24834278  1
  Te  Te61  1  0.49874726  -0.00067636  0.76381538  1
  Te  Te62  1  0.49975417  0.50184911  0.24941599  1
  Te  Te63  1  0.49873464  0.50129094  0.75121331  1
