# generated using pymatgen
data_AgSbTe2
_symmetry_space_group_name_H-M   'P 1'
_cell_length_a   12.23579094
_cell_length_b   12.23255387
_cell_length_c   12.24901080
_cell_angle_alpha   90.00312533
_cell_angle_beta   89.99846247
_cell_angle_gamma   90.01498860
_symmetry_Int_Tables_number   1
_chemical_formula_structural   AgSbTe2
_chemical_formula_sum   'Ag16 Sb16 Te32'
_cell_volume   1833.37028098
_cell_formula_units_Z   16
loop_
 _symmetry_equiv_pos_site_id
 _symmetry_equiv_pos_as_xyz
  1  'x, y, z'
loop_
 _atom_site_type_symbol
 _atom_site_label
 _atom_site_symmetry_multiplicity
 _atom_site_fract_x
 _atom_site_fract_y
 _atom_site_fract_z
 _atom_site_occupancy
  Ag  Ag0  1  0.50631321  0.00374900  -0.00734074  1
  Ag  Ag1  1  -0.00683351  0.00806794  -0.00385795  1
  Ag  Ag2  1  0.75245653  0.48433296  0.75462841  1
  Ag  Ag3  1  0.50381912  0.00309527  0.50798421  1
  Ag  Ag4  1  -0.01380956  0.24628858  0.75769621  1
  Ag  Ag5  1  0.24849793  0.75548445  -0.00377637  1
  Ag  Ag6  1  0.75010940  0.24591951  0.51484759  1
  Ag  Ag7  1  0.25290069  0.00171064  0.75395272  1
  Ag  Ag8  1  0.25158166  0.75493083  0.50416440  1
  Ag  Ag9  1  0.51488797  0.24311053  0.75227029  1
  Ag  Ag10  1  -0.00859819  0.24821144  0.24092221  1
  Ag  Ag11  1  0.74663364  0.01309298  0.75625922  1
  Ag  Ag12  1  0.75146316  0.01102433  0.24313050  1
  Ag  Ag13  1  -0.00612469  0.49028309  -0.00137368  1
  Ag  Ag14  1  0.75400901  0.48765249  0.24461005  1
  Ag  Ag15  1  0.75573215  0.24424969  -0.01196011  1
  Sb  Sb16  1  -0.00204899  0.49709733  0.50177793  1
  Sb  Sb17  1  0.49957618  0.75809792  0.75053085  1
  Sb  Sb18  1  0.74969731  0.75470086  -0.00062374  1
  Sb  Sb19  1  0.51058248  0.24685556  0.24713183  1
  Sb  Sb20  1  0.24882000  0.00102587  0.24818050  1
  Sb  Sb21  1  -0.00123821  0.75225271  0.24719320  1
  Sb  Sb22  1  0.24432237  0.24556348  -0.00242801  1
  Sb  Sb23  1  0.50345140  0.49663015  0.50248987  1
  Sb  Sb24  1  0.25112286  0.24669605  0.50356002  1
  Sb  Sb25  1  0.24554464  0.49886570  0.24664822  1
  Sb  Sb26  1  -0.00220490  0.00333403  0.50305872  1
  Sb  Sb27  1  0.50050213  0.75186391  0.24930060  1
  Sb  Sb28  1  -0.00035576  0.75398084  0.75272075  1
  Sb  Sb29  1  0.24872757  0.49786775  0.75282592  1
  Sb  Sb30  1  0.74813456  0.75405294  0.50111902  1
  Sb  Sb31  1  0.50566537  0.49743119  -0.00275023  1
  Te  Te32  1  0.23824969  0.25148844  0.25147227  1
  Te  Te33  1  0.24894967  0.24563133  0.74922879  1
  Te  Te34  1  0.24992762  0.74917639  0.24957003  1
  Te  Te35  1  0.25010494  0.75371316  0.75090247  1
  Te  Te36  1  0.75194588  0.24808472  0.24710090  1
  Te  Te37  1  0.75123988  0.24852037  0.75108011  1
  Te  Te38  1  0.74999705  0.74999792  0.25143303  1
  Te  Te39  1  0.74988046  0.74796509  0.74828635  1
  Te  Te40  1  0.24958731  -0.00118152  -0.00166011  1
  Te  Te41  1  0.25327702  -0.00202650  0.50135553  1
  Te  Te42  1  0.24521609  0.50700275  0.00048032  1
  Te  Te43  1  0.25074670  0.50821191  0.49922052  1
  Te  Te44  1  0.75109340  -0.00084192  -0.00141195  1
  Te  Te45  1  0.74795107  0.00163006  0.50148033  1
  Te  Te46  1  0.75225610  0.50157469  -0.00105241  1
  Te  Te47  1  0.74948581  0.49746330  0.50095723  1
  Te  Te48  1  -0.00106500  0.24846382  -0.00182776  1
  Te  Te49  1  -0.00377446  0.24987442  0.50198468  1
  Te  Te50  1  0.00345273  0.75247194  -0.00014215  1
  Te  Te51  1  0.00703678  0.74976753  0.49972678  1
  Te  Te52  1  0.50285260  0.24624842  -0.00212930  1
  Te  Te53  1  0.50268486  0.24565796  0.50272822  1
  Te  Te54  1  0.49431256  0.75604011  0.00003176  1
  Te  Te55  1  0.49615371  0.75649392  0.49989102  1
  Te  Te56  1  -0.00356210  0.00259864  0.24629999  1
  Te  Te57  1  -0.00105150  0.00222781  0.75233435  1
  Te  Te58  1  -0.00508522  0.49677309  0.24632038  1
  Te  Te59  1  -0.00257899  0.49559821  0.75308862  1
  Te  Te60  1  0.50399289  0.00113848  0.24839474  1
  Te  Te61  1  0.50115359  0.00154340  0.75160340  1
  Te  Te62  1  0.50816701  0.49989066  0.25000199  1
  Te  Te63  1  0.50406432  0.49128143  0.75035745  1
