# generated using pymatgen
data_AgSbTe2
_symmetry_space_group_name_H-M   'P 1'
_cell_length_a   12.23063249
_cell_length_b   12.21511865
_cell_length_c   12.22443998
_cell_angle_alpha   90.00184567
_cell_angle_beta   90.00000179
_cell_angle_gamma   90.00631262
_symmetry_Int_Tables_number   1
_chemical_formula_structural   AgSbTe2
_chemical_formula_sum   'Ag16 Sb16 Te32'
_cell_volume   1826.31453729
_cell_formula_units_Z   16
loop_
 _symmetry_equiv_pos_site_id
 _symmetry_equiv_pos_as_xyz
  1  'x, y, z'
loop_
 _atom_site_type_symbol
 _atom_site_label
 _atom_site_symmetry_multiplicity
 _atom_site_fract_x
 _atom_site_fract_y
 _atom_site_fract_z
 _atom_site_occupancy
  Ag  Ag0  1  -0.00411544  0.50519636  0.50150221  1
  Ag  Ag1  1  0.75074046  0.50861231  0.74617701  1
  Ag  Ag2  1  0.49970562  -0.00279284  0.50357244  1
  Ag  Ag3  1  0.25340674  0.49670405  0.24915067  1
  Ag  Ag4  1  0.24571339  -0.00169151  0.74876865  1
  Ag  Ag5  1  0.49972041  0.49909902  0.00226437  1
  Ag  Ag6  1  0.00367871  -0.00114835  -0.00655744  1
  Ag  Ag7  1  -0.00007859  -0.00492677  0.50727825  1
  Ag  Ag8  1  0.74766550  0.50083242  0.25276279  1
  Ag  Ag9  1  0.75240063  0.75009888  0.50729094  1
  Ag  Ag10  1  0.49583547  0.25203179  0.24893879  1
  Ag  Ag11  1  0.50629074  0.75342492  0.74760336  1
  Ag  Ag12  1  0.25171104  0.24760390  0.00359658  1
  Ag  Ag13  1  0.75366395  -0.00900611  0.74534541  1
  Ag  Ag14  1  -0.00606748  0.75583817  0.74538839  1
  Ag  Ag15  1  0.25030751  0.00320406  0.25043013  1
  Sb  Sb16  1  0.00047001  0.24324809  0.75032391  1
  Sb  Sb17  1  0.49942675  0.24791917  0.74977398  1
  Sb  Sb18  1  0.50157998  0.74939073  0.25174231  1
  Sb  Sb19  1  0.24771143  0.75192049  0.50129846  1
  Sb  Sb20  1  0.50284010  0.50322453  0.49928741  1
  Sb  Sb21  1  0.00396098  0.24992728  0.24924050  1
  Sb  Sb22  1  0.24972294  0.75246256  -0.00103173  1
  Sb  Sb23  1  0.25113321  0.24770448  0.49694590  1
  Sb  Sb24  1  0.49753471  0.00031085  -0.00199039  1
  Sb  Sb25  1  0.74853777  0.24952743  0.00089329  1
  Sb  Sb26  1  0.74988173  0.75008901  -0.00771338  1
  Sb  Sb27  1  -0.00003273  0.50175086  -0.00167895  1
  Sb  Sb28  1  0.74957336  0.25004738  0.49966761  1
  Sb  Sb29  1  -0.00146553  0.75044815  0.25501491  1
  Sb  Sb30  1  0.24897901  0.50116254  0.74998385  1
  Sb  Sb31  1  0.75018257  -0.00057213  0.25372554  1
  Te  Te32  1  0.25336916  0.24925528  0.24683653  1
  Te  Te33  1  0.25104615  0.24368655  0.75724356  1
  Te  Te34  1  0.24986703  0.75006719  0.24982804  1
  Te  Te35  1  0.25070932  0.75498872  0.74982551  1
  Te  Te36  1  0.74224475  0.25671461  0.24870988  1
  Te  Te37  1  0.74928462  0.25208654  0.75123956  1
  Te  Te38  1  0.74966597  0.74382934  0.25856079  1
  Te  Te39  1  0.74999803  0.75057271  0.74748684  1
  Te  Te40  1  0.24857825  0.00208527  0.00147010  1
  Te  Te41  1  0.24843011  0.00018622  0.49993241  1
  Te  Te42  1  0.25199004  0.49623852  0.00326773  1
  Te  Te43  1  0.24491942  0.49938899  0.49559666  1
  Te  Te44  1  0.75505732  0.00073653  -0.00324973  1
  Te  Te45  1  0.75199789  -0.00212833  0.50125018  1
  Te  Te46  1  0.74791628  0.50006151  0.00014633  1
  Te  Te47  1  0.75206153  0.50187448  0.50208654  1
  Te  Te48  1  0.00658516  0.24374273  0.00092569  1
  Te  Te49  1  0.00042518  0.24904847  0.49954367  1
  Te  Te50  1  -0.00054153  0.75604142  -0.00827768  1
  Te  Te51  1  -0.00362524  0.75150394  0.50374843  1
  Te  Te52  1  0.49617294  0.25411561  0.00478974  1
  Te  Te53  1  0.49941708  0.24185171  0.49386960  1
  Te  Te54  1  0.50038561  0.74340136  -0.00697962  1
  Te  Te55  1  0.50532705  0.75510678  0.50537100  1
  Te  Te56  1  0.00318345  -0.00072788  0.25210124  1
  Te  Te57  1  -0.00034264  -0.00127005  0.74665910  1
  Te  Te58  1  -0.00043576  0.50043187  0.25224947  1
  Te  Te59  1  -0.00237247  0.50470607  0.74717118  1
  Te  Te60  1  0.49702865  0.00076002  0.25123808  1
  Te  Te61  1  0.50104975  -0.00216076  0.74825950  1
  Te  Te62  1  0.49838021  0.49963601  0.24939246  1
  Te  Te63  1  0.50161175  0.50252687  0.75071144  1
