# generated using pymatgen
data_AgSbTe2
_symmetry_space_group_name_H-M   'P 1'
_cell_length_a   12.23434219
_cell_length_b   12.21738160
_cell_length_c   12.21675859
_cell_angle_alpha   90.00845729
_cell_angle_beta   90.00080947
_cell_angle_gamma   89.99957309
_symmetry_Int_Tables_number   1
_chemical_formula_structural   AgSbTe2
_chemical_formula_sum   'Ag16 Sb16 Te32'
_cell_volume   1826.05876454
_cell_formula_units_Z   16
loop_
 _symmetry_equiv_pos_site_id
 _symmetry_equiv_pos_as_xyz
  1  'x, y, z'
loop_
 _atom_site_type_symbol
 _atom_site_label
 _atom_site_symmetry_multiplicity
 _atom_site_fract_x
 _atom_site_fract_y
 _atom_site_fract_z
 _atom_site_occupancy
  Ag  Ag0  1  0.00148535  0.24749637  0.24495775  1
  Ag  Ag1  1  0.00302401  0.74591002  0.75550682  1
  Ag  Ag2  1  0.00025976  -0.00006234  0.00468680  1
  Ag  Ag3  1  0.24756964  0.25392128  0.49685456  1
  Ag  Ag4  1  0.49808976  0.75449228  0.24319298  1
  Ag  Ag5  1  0.75306607  0.50162901  0.75223022  1
  Ag  Ag6  1  0.49687468  0.74895875  0.75720813  1
  Ag  Ag7  1  0.75041167  0.00204670  0.24356690  1
  Ag  Ag8  1  0.49889172  0.24547385  0.24386822  1
  Ag  Ag9  1  0.24955502  0.75147283  -0.00125283  1
  Ag  Ag10  1  0.75092335  0.24628203  0.00428012  1
  Ag  Ag11  1  0.24684799  0.50304510  0.75164560  1
  Ag  Ag12  1  0.24903399  0.24806260  0.00369697  1
  Ag  Ag13  1  0.00171165  0.75303213  0.24362955  1
  Ag  Ag14  1  0.00211156  0.49905696  0.50253538  1
  Ag  Ag15  1  0.49974799  -0.00084515  0.00498360  1
  Sb  Sb16  1  0.49948619  0.00109471  0.49528769  1
  Sb  Sb17  1  0.75112883  0.74810137  0.49987975  1
  Sb  Sb18  1  0.24941628  -0.00378720  0.75446655  1
  Sb  Sb19  1  0.49762597  0.49829190  0.50160092  1
  Sb  Sb20  1  0.00198345  0.25281128  0.75482922  1
  Sb  Sb21  1  0.00076136  0.50166714  -0.00247566  1
  Sb  Sb22  1  0.75162522  0.25268552  0.49694851  1
  Sb  Sb23  1  0.49925985  0.50274314  -0.00072543  1
  Sb  Sb24  1  0.75287595  0.49879514  0.24695705  1
  Sb  Sb25  1  0.75039138  0.75350271  0.00064564  1
  Sb  Sb26  1  0.49777458  0.24920165  0.75687999  1
  Sb  Sb27  1  0.24938568  0.00129565  0.24600544  1
  Sb  Sb28  1  0.75094507  -0.00019260  0.75566320  1
  Sb  Sb29  1  0.24811171  0.74661452  0.50095305  1
  Sb  Sb30  1  0.00027225  0.00043402  0.49615684  1
  Sb  Sb31  1  0.24806125  0.49764116  0.24822566  1
  Te  Te32  1  0.24917002  0.25195515  0.24446962  1
  Te  Te33  1  0.25071400  0.25570909  0.75362440  1
  Te  Te34  1  0.24966301  0.74802008  0.24603101  1
  Te  Te35  1  0.24951907  0.74647615  0.75219101  1
  Te  Te36  1  0.75038024  0.24944899  0.24635300  1
  Te  Te37  1  0.74897273  0.25354434  0.75444771  1
  Te  Te38  1  0.75039542  0.75175531  0.24955680  1
  Te  Te39  1  0.75031595  0.74646769  0.75020273  1
  Te  Te40  1  0.24934365  0.00042315  -0.00057187  1
  Te  Te41  1  0.24959092  0.01238021  0.50253403  1
  Te  Te42  1  0.25003979  0.50028334  -0.00580898  1
  Te  Te43  1  0.24568435  0.49527304  0.50606063  1
  Te  Te44  1  0.75067767  0.00447119  0.00387654  1
  Te  Te45  1  0.75011443  0.00101127  0.49052768  1
  Te  Te46  1  0.74996055  0.49031870  -0.00602640  1
  Te  Te47  1  0.75717361  0.49905497  0.50896492  1
  Te  Te48  1  0.00352207  0.24738354  0.00264993  1
  Te  Te49  1  0.00340795  0.25206993  0.49525837  1
  Te  Te50  1  0.00106699  0.75171435  0.00270388  1
  Te  Te51  1  0.00171018  0.74729812  0.49802741  1
  Te  Te52  1  0.49645169  0.24600193  0.00323477  1
  Te  Te53  1  0.49501207  0.24918023  0.49212455  1
  Te  Te54  1  0.49888286  0.75255930  0.00264170  1
  Te  Te55  1  0.49857653  0.75058867  0.49670351  1
  Te  Te56  1  -0.00259774  -0.00117720  0.24655562  1
  Te  Te57  1  -0.00217556  -0.00825029  0.75502417  1
  Te  Te58  1  -0.00117644  0.50159023  0.25578491  1
  Te  Te59  1  0.00120030  0.50338202  0.74750273  1
  Te  Te60  1  0.50293515  -0.00129495  0.24625502  1
  Te  Te61  1  0.50205076  -0.00713773  0.75572964  1
  Te  Te62  1  0.50107211  0.50267629  0.25157935  1
  Te  Te63  1  0.49963645  0.50595036  0.74890238  1
