# generated using pymatgen
data_AgSbTe2
_symmetry_space_group_name_H-M   'P 1'
_cell_length_a   12.23962670
_cell_length_b   12.22398060
_cell_length_c   12.24877423
_cell_angle_alpha   89.99863714
_cell_angle_beta   89.99633317
_cell_angle_gamma   89.98480800
_symmetry_Int_Tables_number   1
_chemical_formula_structural   AgSbTe2
_chemical_formula_sum   'Ag16 Sb16 Te32'
_cell_volume   1832.62428640
_cell_formula_units_Z   16
loop_
 _symmetry_equiv_pos_site_id
 _symmetry_equiv_pos_as_xyz
  1  'x, y, z'
loop_
 _atom_site_type_symbol
 _atom_site_label
 _atom_site_symmetry_multiplicity
 _atom_site_fract_x
 _atom_site_fract_y
 _atom_site_fract_z
 _atom_site_occupancy
  Ag  Ag0  1  0.49894027  0.75681090  0.24388792  1
  Ag  Ag1  1  0.25722964  0.76506979  -0.00187963  1
  Ag  Ag2  1  0.25474484  0.00153707  0.76383997  1
  Ag  Ag3  1  0.74873805  0.50348754  0.75112780  1
  Ag  Ag4  1  0.49805445  -0.00370939  0.50741100  1
  Ag  Ag5  1  0.74216191  0.75464166  -0.00427276  1
  Ag  Ag6  1  0.00307048  0.24244383  0.75323583  1
  Ag  Ag7  1  0.48559003  -0.00603478  -0.00741762  1
  Ag  Ag8  1  0.74602041  0.75407422  0.50497429  1
  Ag  Ag9  1  0.00331944  0.24258628  0.24585213  1
  Ag  Ag10  1  0.01471857  0.00244455  -0.00270670  1
  Ag  Ag11  1  0.49701456  0.23937664  0.75351009  1
  Ag  Ag12  1  0.25000985  -0.00031280  0.23443337  1
  Ag  Ag13  1  0.50177247  0.75968213  0.75518482  1
  Ag  Ag14  1  0.24851282  0.23502105  -0.00363193  1
  Ag  Ag15  1  0.00227097  0.00038219  0.50296337  1
  Sb  Sb16  1  0.24947153  0.24351351  0.50471157  1
  Sb  Sb17  1  0.50268777  0.50542489  0.50394052  1
  Sb  Sb18  1  0.75005748  -0.00194885  0.24878245  1
  Sb  Sb19  1  0.74362828  -0.00386608  0.75121847  1
  Sb  Sb20  1  -0.00132210  0.49693012  -0.00213321  1
  Sb  Sb21  1  0.50098852  0.50766018  -0.00236351  1
  Sb  Sb22  1  0.00299444  0.75824663  0.24792427  1
  Sb  Sb23  1  0.25442942  0.75778134  0.50332103  1
  Sb  Sb24  1  0.75016377  0.50412756  0.24801620  1
  Sb  Sb25  1  0.25037220  0.49922597  0.75285238  1
  Sb  Sb26  1  0.74959676  0.24359429  -0.00328690  1
  Sb  Sb27  1  0.49490986  0.23984950  0.24550743  1
  Sb  Sb28  1  0.74976219  0.24489346  0.50345809  1
  Sb  Sb29  1  0.25031534  0.50079368  0.24630483  1
  Sb  Sb30  1  -0.00363475  0.50043788  0.50338598  1
  Sb  Sb31  1  -0.00162543  0.75983954  0.75166233  1
  Te  Te32  1  0.24781145  0.24694345  0.24410225  1
  Te  Te33  1  0.25150204  0.24861769  0.75308451  1
  Te  Te34  1  0.25361810  0.75314809  0.24525580  1
  Te  Te35  1  0.25358852  0.75172361  0.75349082  1
  Te  Te36  1  0.75725544  0.25277934  0.25040522  1
  Te  Te37  1  0.74820844  0.25657841  0.75012142  1
  Te  Te38  1  0.74484796  0.74864558  0.24776083  1
  Te  Te39  1  0.74858532  0.74825932  0.75173549  1
  Te  Te40  1  0.24993704  0.00022078  -0.00108681  1
  Te  Te41  1  0.24963935  -0.00105923  0.50126671  1
  Te  Te42  1  0.24979302  0.50022936  0.00041458  1
  Te  Te43  1  0.24928928  0.50078524  0.49909190  1
  Te  Te44  1  0.75012054  -0.00592310  0.00092694  1
  Te  Te45  1  0.74954707  -0.00527982  0.49896927  1
  Te  Te46  1  0.75052958  0.51100670  -0.00488209  1
  Te  Te47  1  0.75045271  0.50987162  0.50519665  1
  Te  Te48  1  -0.00021902  0.24649316  -0.00301656  1
  Te  Te49  1  -0.00039488  0.24302419  0.50340186  1
  Te  Te50  1  0.00150273  0.75488870  0.00054030  1
  Te  Te51  1  -0.00632600  0.75632229  0.49927302  1
  Te  Te52  1  0.49913058  0.24422819  -0.00275972  1
  Te  Te53  1  0.50070595  0.24156970  0.50487073  1
  Te  Te54  1  0.49926484  0.75191141  -0.00268751  1
  Te  Te55  1  0.50240542  0.75438553  0.50335864  1
  Te  Te56  1  0.00342971  0.00295103  0.24955696  1
  Te  Te57  1  0.00350943  0.00287493  0.75057764  1
  Te  Te58  1  0.00066890  0.48732267  0.25138138  1
  Te  Te59  1  -0.00332126  0.48822038  0.74850890  1
  Te  Te60  1  0.49686413  -0.00268584  0.25002631  1
  Te  Te61  1  0.49972942  -0.00037418  0.75076964  1
  Te  Te62  1  0.50013291  0.50973469  0.25156746  1
  Te  Te63  1  0.50322721  0.49858165  0.74896357  1
