# generated using pymatgen
data_AgSbTe2
_symmetry_space_group_name_H-M   'P 1'
_cell_length_a   12.20801763
_cell_length_b   12.21121057
_cell_length_c   12.20171374
_cell_angle_alpha   90.00081862
_cell_angle_beta   89.99673460
_cell_angle_gamma   89.99638303
_symmetry_Int_Tables_number   1
_chemical_formula_structural   AgSbTe2
_chemical_formula_sum   'Ag16 Sb16 Te32'
_cell_volume   1818.96649014
_cell_formula_units_Z   16
loop_
 _symmetry_equiv_pos_site_id
 _symmetry_equiv_pos_as_xyz
  1  'x, y, z'
loop_
 _atom_site_type_symbol
 _atom_site_label
 _atom_site_symmetry_multiplicity
 _atom_site_fract_x
 _atom_site_fract_y
 _atom_site_fract_z
 _atom_site_occupancy
  Ag  Ag0  1  0.50227200  0.25264470  0.74942563  1
  Ag  Ag1  1  0.74791272  0.49990573  0.75127152  1
  Ag  Ag2  1  0.74647557  0.74621393  -0.00496312  1
  Ag  Ag3  1  -0.00155039  0.49862730  -0.00072724  1
  Ag  Ag4  1  0.50384961  0.74771552  0.75178590  1
  Ag  Ag5  1  0.75012303  0.74872574  0.50430658  1
  Ag  Ag6  1  0.50234596  0.50154569  -0.00406000  1
  Ag  Ag7  1  -0.00196855  0.25219475  0.74410909  1
  Ag  Ag8  1  0.75488939  0.25061348  0.50409559  1
  Ag  Ag9  1  0.24934768  0.75103097  0.49972540  1
  Ag  Ag10  1  0.24483993  0.24877809  0.49804560  1
  Ag  Ag11  1  0.00344772  0.25071620  0.25546169  1
  Ag  Ag12  1  0.24848616  0.49763923  0.25123527  1
  Ag  Ag13  1  0.24865454  0.00238204  0.25413886  1
  Ag  Ag14  1  0.00236361  0.00519244  0.49940875  1
  Ag  Ag15  1  0.50026091  -0.00095876  -0.00184380  1
  Sb  Sb16  1  0.50028556  0.50007940  0.50471131  1
  Sb  Sb17  1  0.25343239  0.74887851  -0.00133563  1
  Sb  Sb18  1  -0.00000352  0.49184908  0.50066464  1
  Sb  Sb19  1  0.49758814  -0.00007930  0.50069140  1
  Sb  Sb20  1  0.00153325  0.74836795  0.25174828  1
  Sb  Sb21  1  0.74941551  0.00043599  0.74923657  1
  Sb  Sb22  1  -0.00419984  0.74616994  0.74737821  1
  Sb  Sb23  1  0.49704050  0.25115526  0.25122938  1
  Sb  Sb24  1  0.25190655  0.49822543  0.74922921  1
  Sb  Sb25  1  0.75162064  0.49810874  0.24812311  1
  Sb  Sb26  1  0.75094956  0.00192141  0.25102645  1
  Sb  Sb27  1  0.25016219  0.25053789  0.00265307  1
  Sb  Sb28  1  0.49931415  0.74931671  0.24814247  1
  Sb  Sb29  1  0.25012982  0.00072575  0.74555676  1
  Sb  Sb30  1  -0.00036428  0.00038899  0.00070294  1
  Sb  Sb31  1  0.74934719  0.25388141  -0.00552793  1
  Te  Te32  1  0.24769823  0.25067562  0.25413018  1
  Te  Te33  1  0.25040944  0.25102972  0.74328841  1
  Te  Te34  1  0.24988263  0.74925391  0.25715977  1
  Te  Te35  1  0.25561862  0.74963151  0.74302488  1
  Te  Te36  1  0.75553893  0.25075095  0.25922854  1
  Te  Te37  1  0.74906282  0.25323349  0.74642713  1
  Te  Te38  1  0.75003262  0.74965066  0.25446974  1
  Te  Te39  1  0.74743737  0.74654770  0.74774834  1
  Te  Te40  1  0.25332384  -0.00129917  0.00756540  1
  Te  Te41  1  0.24760146  0.00045851  0.49620281  1
  Te  Te42  1  0.24958031  0.50128782  0.00489504  1
  Te  Te43  1  0.25028278  0.50043852  0.49470470  1
  Te  Te44  1  0.74583882  -0.00760603  0.00109099  1
  Te  Te45  1  0.75402722  -0.00112766  0.49882137  1
  Te  Te46  1  0.74867337  0.50341113  -0.00196845  1
  Te  Te47  1  0.74984443  0.50216718  0.50355782  1
  Te  Te48  1  -0.00082027  0.25318513  -0.00108607  1
  Te  Te49  1  0.00029898  0.25012912  0.50108351  1
  Te  Te50  1  -0.00528670  0.74631924  -0.00081748  1
  Te  Te51  1  -0.00087343  0.75587450  0.50135941  1
  Te  Te52  1  0.50079830  0.25082128  -0.00589133  1
  Te  Te53  1  0.50090373  0.24928414  0.50524237  1
  Te  Te54  1  0.50254668  0.74811806  -0.00381075  1
  Te  Te55  1  0.50228160  0.75074888  0.50527264  1
  Te  Te56  1  0.00539213  0.00584869  0.25234729  1
  Te  Te57  1  0.00068801  0.00836600  0.74669534  1
  Te  Te58  1  0.00365255  0.49502557  0.24473804  1
  Te  Te59  1  -0.00319791  0.49531102  0.75507345  1
  Te  Te60  1  0.49343627  0.00121693  0.24340843  1
  Te  Te61  1  0.49919229  0.00086742  0.75577019  1
  Te  Te62  1  0.49422104  0.49840185  0.24061407  1
  Te  Te63  1  0.50200615  0.49904808  0.75400829  1
