# generated using pymatgen
data_AgSbTe2
_symmetry_space_group_name_H-M   'P 1'
_cell_length_a   12.21902927
_cell_length_b   12.21184073
_cell_length_c   12.21798330
_cell_angle_alpha   89.99800683
_cell_angle_beta   90.00240380
_cell_angle_gamma   89.99412356
_symmetry_Int_Tables_number   1
_chemical_formula_structural   AgSbTe2
_chemical_formula_sum   'Ag16 Sb16 Te32'
_cell_volume   1823.12883877
_cell_formula_units_Z   16
loop_
 _symmetry_equiv_pos_site_id
 _symmetry_equiv_pos_as_xyz
  1  'x, y, z'
loop_
 _atom_site_type_symbol
 _atom_site_label
 _atom_site_symmetry_multiplicity
 _atom_site_fract_x
 _atom_site_fract_y
 _atom_site_fract_z
 _atom_site_occupancy
  Ag  Ag0  1  0.49642522  0.24139818  0.74803107  1
  Ag  Ag1  1  0.25220300  0.75453183  0.00145989  1
  Ag  Ag2  1  0.75004405  0.50321465  0.25066564  1
  Ag  Ag3  1  0.49339139  -0.00031469  0.50620463  1
  Ag  Ag4  1  0.49604214  0.75233665  0.24784925  1
  Ag  Ag5  1  0.49666444  0.75768041  0.75104584  1
  Ag  Ag6  1  0.00178723  0.49988060  0.49931052  1
  Ag  Ag7  1  0.24837950  -0.00438265  0.25336786  1
  Ag  Ag8  1  0.00466537  -0.00196907  -0.00288765  1
  Ag  Ag9  1  0.49854899  0.50407931  0.00005060  1
  Ag  Ag10  1  0.00342862  0.75377600  0.25054804  1
  Ag  Ag11  1  0.00765122  0.00198024  0.50387689  1
  Ag  Ag12  1  0.74906387  0.00046067  0.74852060  1
  Ag  Ag13  1  0.25068847  0.00152332  0.74536066  1
  Ag  Ag14  1  0.24786351  0.24284624  0.50394426  1
  Ag  Ag15  1  0.00364484  0.24232355  0.74587228  1
  Sb  Sb16  1  0.75231474  0.24818371  0.50204903  1
  Sb  Sb17  1  0.49775013  0.50004527  0.49974156  1
  Sb  Sb18  1  0.75036241  0.75113831  0.50024344  1
  Sb  Sb19  1  0.24980524  0.50566428  0.25130683  1
  Sb  Sb20  1  0.00386476  0.75840579  0.74970478  1
  Sb  Sb21  1  0.74743490  0.75120801  -0.00009102  1
  Sb  Sb22  1  0.74997758  0.50085305  0.74928726  1
  Sb  Sb23  1  0.00312614  0.24713612  0.25398314  1
  Sb  Sb24  1  0.25000392  0.24517368  -0.00411027  1
  Sb  Sb25  1  0.49569249  -0.00353080  -0.00609670  1
  Sb  Sb26  1  0.49646450  0.24730934  0.25153446  1
  Sb  Sb27  1  0.74936175  0.24834966  -0.00207577  1
  Sb  Sb28  1  0.25016665  0.49997117  0.74879079  1
  Sb  Sb29  1  0.00123519  0.50185602  0.00009081  1
  Sb  Sb30  1  0.25016366  0.75872804  0.49878108  1
  Sb  Sb31  1  0.75092769  -0.00243736  0.25112378  1
  Te  Te32  1  0.25055394  0.24053610  0.25507302  1
  Te  Te33  1  0.25030982  0.24684750  0.74770374  1
  Te  Te34  1  0.25095487  0.75520616  0.24766794  1
  Te  Te35  1  0.25432665  0.75406115  0.75426071  1
  Te  Te36  1  0.74966676  0.25762668  0.24947509  1
  Te  Te37  1  0.74854395  0.24447008  0.74994933  1
  Te  Te38  1  0.74929515  0.74655213  0.24987085  1
  Te  Te39  1  0.74233271  0.75562994  0.75027758  1
  Te  Te40  1  0.24656260  -0.00340179  0.00052064  1
  Te  Te41  1  0.24970706  0.00112503  0.50151717  1
  Te  Te42  1  0.25439305  0.50677534  0.00036524  1
  Te  Te43  1  0.24446971  0.49084023  0.49963122  1
  Te  Te44  1  0.75885676  -0.00016923  -0.00438434  1
  Te  Te45  1  0.74948427  0.00055056  0.50385938  1
  Te  Te46  1  0.74569311  0.49994959  0.00437448  1
  Te  Te47  1  0.75619015  0.49936848  0.49547146  1
  Te  Te48  1  0.00142783  0.24655019  -0.00640030  1
  Te  Te49  1  0.00338481  0.24581092  0.50313554  1
  Te  Te50  1  0.00465433  0.75229871  0.00280586  1
  Te  Te51  1  0.00060229  0.75085439  0.49679010  1
  Te  Te52  1  0.49857332  0.25582491  -0.00513996  1
  Te  Te53  1  0.49535149  0.24740591  0.50383259  1
  Te  Te54  1  0.49686325  0.74878746  0.00147328  1
  Te  Te55  1  0.49961225  0.75267947  0.49993001  1
  Te  Te56  1  -0.00046836  -0.00265581  0.25200848  1
  Te  Te57  1  0.00223902  -0.00014863  0.74687212  1
  Te  Te58  1  -0.00123866  0.50316781  0.25207849  1
  Te  Te59  1  -0.00248988  0.49460184  0.74627840  1
  Te  Te60  1  0.50014279  -0.00389309  0.25219734  1
  Te  Te61  1  0.49793221  0.00003438  0.75057491  1
  Te  Te62  1  0.50119008  0.50415371  0.24886719  1
  Te  Te63  1  0.50173906  0.50114039  0.75157882  1
