# generated using pymatgen
data_AgSbTe2
_symmetry_space_group_name_H-M   'P 1'
_cell_length_a   12.22431447
_cell_length_b   12.23161237
_cell_length_c   12.21250073
_cell_angle_alpha   90.00162602
_cell_angle_beta   90.00332569
_cell_angle_gamma   89.99856337
_symmetry_Int_Tables_number   1
_chemical_formula_structural   AgSbTe2
_chemical_formula_sum   'Ag16 Sb16 Te32'
_cell_volume   1826.05067107
_cell_formula_units_Z   16
loop_
 _symmetry_equiv_pos_site_id
 _symmetry_equiv_pos_as_xyz
  1  'x, y, z'
loop_
 _atom_site_type_symbol
 _atom_site_label
 _atom_site_symmetry_multiplicity
 _atom_site_fract_x
 _atom_site_fract_y
 _atom_site_fract_z
 _atom_site_occupancy
  Ag  Ag0  1  0.50265590  0.49993446  0.00819545  1
  Ag  Ag1  1  0.74969913  0.50379356  0.25362248  1
  Ag  Ag2  1  0.25084045  0.75225745  0.49679778  1
  Ag  Ag3  1  0.50434383  0.24641646  0.25398662  1
  Ag  Ag4  1  0.50071334  -0.00006768  0.00947984  1
  Ag  Ag5  1  0.25034181  0.24752767  0.49966869  1
  Ag  Ag6  1  0.25120665  0.00157569  0.74440339  1
  Ag  Ag7  1  0.50619956  0.75387963  0.25398741  1
  Ag  Ag8  1  0.74923886  0.24983898  0.49448488  1
  Ag  Ag9  1  0.50074718  -0.00010643  0.49289202  1
  Ag  Ag10  1  -0.00583064  0.74618006  0.25566179  1
  Ag  Ag11  1  0.74289113  -0.00305288  0.25535432  1
  Ag  Ag12  1  0.00104353  0.25084929  0.74490605  1
  Ag  Ag13  1  -0.00266914  0.49999255  0.00484495  1
  Ag  Ag14  1  0.74977744  0.75024575  0.49078654  1
  Ag  Ag15  1  -0.00325089  0.50027969  0.49582453  1
  Sb  Sb16  1  0.49930527  0.24866404  0.74563581  1
  Sb  Sb17  1  0.75097991  0.49865517  0.74626233  1
  Sb  Sb18  1  0.25128315  0.24850978  0.00116410  1
  Sb  Sb19  1  -0.00070199  -0.00018315  0.00352705  1
  Sb  Sb20  1  0.74915605  0.74926109  0.00991538  1
  Sb  Sb21  1  -0.00329342  0.25344283  0.25404869  1
  Sb  Sb22  1  0.00125631  0.74923788  0.74607957  1
  Sb  Sb23  1  0.74911759  0.00170215  0.74578150  1
  Sb  Sb24  1  0.49933144  0.75121277  0.74596077  1
  Sb  Sb25  1  0.25826596  -0.00035920  0.25545508  1
  Sb  Sb26  1  0.74865406  0.25093378  0.00569315  1
  Sb  Sb27  1  0.25156734  0.75137669  0.00313952  1
  Sb  Sb28  1  0.50326890  0.50011426  0.49254298  1
  Sb  Sb29  1  0.25018744  0.50067819  0.25130541  1
  Sb  Sb30  1  0.00000696  -0.00037439  0.49789899  1
  Sb  Sb31  1  0.24913342  0.49858119  0.74676270  1
  Te  Te32  1  0.25545394  0.24905702  0.25733343  1
  Te  Te33  1  0.24734479  0.24679284  0.74350178  1
  Te  Te34  1  0.25017386  0.75083514  0.25621935  1
  Te  Te35  1  0.24966954  0.75586211  0.74059130  1
  Te  Te36  1  0.74702177  0.25047053  0.25485157  1
  Te  Te37  1  0.75521953  0.24965115  0.73950050  1
  Te  Te38  1  0.74831988  0.74889446  0.25343711  1
  Te  Te39  1  0.75067399  0.75052029  0.73606528  1
  Te  Te40  1  0.25614964  -0.00004640  -0.00673650  1
  Te  Te41  1  0.25216990  0.00068047  0.50145536  1
  Te  Te42  1  0.24937652  0.50007428  -0.00103101  1
  Te  Te43  1  0.24501604  0.49996554  0.50092081  1
  Te  Te44  1  0.74313289  -0.00023485  0.00393284  1
  Te  Te45  1  0.74758787  0.00055216  0.49699717  1
  Te  Te46  1  0.75012940  0.50005316  0.00497296  1
  Te  Te47  1  0.75232255  0.49937665  0.49638951  1
  Te  Te48  1  0.00043063  0.25585000  -0.00371100  1
  Te  Te49  1  0.00056143  0.25185646  0.50012364  1
  Te  Te50  1  0.00021193  0.74348346  0.00400211  1
  Te  Te51  1  -0.00014973  0.74817461  0.49707795  1
  Te  Te52  1  0.49973224  0.24983708  0.00477296  1
  Te  Te53  1  0.50030228  0.25039643  0.49691295  1
  Te  Te54  1  0.49924809  0.75011530  0.00544922  1
  Te  Te55  1  0.49967773  0.74967190  0.49641819  1
  Te  Te56  1  -0.00834041  -0.00544124  0.24641672  1
  Te  Te57  1  0.00421543  0.00497507  0.75318073  1
  Te  Te58  1  -0.00264033  0.50158163  0.25157699  1
  Te  Te59  1  -0.00045271  0.49615030  0.75020481  1
  Te  Te60  1  0.50158261  -0.00081352  0.25198902  1
  Te  Te61  1  0.49711739  0.00026341  0.74898516  1
  Te  Te62  1  0.50278546  0.50043599  0.24740319  1
  Te  Te63  1  0.50048930  0.49996125  0.76472612  1
