# generated using pymatgen
data_AgSbTe2
_symmetry_space_group_name_H-M   'P 1'
_cell_length_a   12.22160159
_cell_length_b   12.22218376
_cell_length_c   12.20883591
_cell_angle_alpha   90.00170204
_cell_angle_beta   90.00204472
_cell_angle_gamma   89.99588303
_symmetry_Int_Tables_number   1
_chemical_formula_structural   AgSbTe2
_chemical_formula_sum   'Ag16 Sb16 Te32'
_cell_volume   1823.69071136
_cell_formula_units_Z   16
loop_
 _symmetry_equiv_pos_site_id
 _symmetry_equiv_pos_as_xyz
  1  'x, y, z'
loop_
 _atom_site_type_symbol
 _atom_site_label
 _atom_site_symmetry_multiplicity
 _atom_site_fract_x
 _atom_site_fract_y
 _atom_site_fract_z
 _atom_site_occupancy
  Ag  Ag0  1  0.49959390  0.50424232  0.00197200  1
  Ag  Ag1  1  0.74528652  0.50213098  0.24645574  1
  Ag  Ag2  1  0.49718269  0.50051481  0.49875135  1
  Ag  Ag3  1  -0.00011041  0.74918930  0.75466474  1
  Ag  Ag4  1  0.74506707  0.75292061  -0.00081209  1
  Ag  Ag5  1  0.50121083  0.74667611  0.24399535  1
  Ag  Ag6  1  -0.00324196  -0.00296792  -0.00342129  1
  Ag  Ag7  1  0.50359794  -0.00394865  -0.00097180  1
  Ag  Ag8  1  0.25502170  0.74836446  -0.00221227  1
  Ag  Ag9  1  0.74844116  -0.00189027  0.75763487  1
  Ag  Ag10  1  0.00291178  0.50082171  0.50219534  1
  Ag  Ag11  1  0.25317976  0.25457665  0.50304193  1
  Ag  Ag12  1  0.49994431  -0.00099100  0.50091491  1
  Ag  Ag13  1  0.74607943  0.24735436  -0.00074079  1
  Ag  Ag14  1  0.25122198  0.50046490  0.75155596  1
  Ag  Ag15  1  0.25437477  0.25160061  -0.00247009  1
  Sb  Sb16  1  0.50037919  0.74970956  0.75839936  1
  Sb  Sb17  1  -0.00075591  0.25251523  0.24862091  1
  Sb  Sb18  1  0.25425841  0.50145889  0.24864177  1
  Sb  Sb19  1  0.74713979  0.25108662  0.50069687  1
  Sb  Sb20  1  0.74624828  -0.00239624  0.24197620  1
  Sb  Sb21  1  0.00027859  -0.00012547  0.50407067  1
  Sb  Sb22  1  0.50066047  0.25395873  0.24701814  1
  Sb  Sb23  1  0.00076442  0.50187984  -0.00177600  1
  Sb  Sb24  1  0.00086910  0.25110886  0.75149702  1
  Sb  Sb25  1  -0.00156358  0.74743480  0.24592261  1
  Sb  Sb26  1  0.25310661  -0.00121255  0.24733182  1
  Sb  Sb27  1  0.74760214  0.74950512  0.50095969  1
  Sb  Sb28  1  0.74890671  0.50171599  0.75388659  1
  Sb  Sb29  1  0.25322295  0.74609111  0.50382911  1
  Sb  Sb30  1  0.49915845  0.25066590  0.75296444  1
  Sb  Sb31  1  0.25152831  -0.00127298  0.75406230  1
  Te  Te32  1  0.24919629  0.24965692  0.24687188  1
  Te  Te33  1  0.24946259  0.25630339  0.75284431  1
  Te  Te34  1  0.25498057  0.74998182  0.24101337  1
  Te  Te35  1  0.24487453  0.74545750  0.75539100  1
  Te  Te36  1  0.75075899  0.25683861  0.24268813  1
  Te  Te37  1  0.75121528  0.24444776  0.75759069  1
  Te  Te38  1  0.74653760  0.74574643  0.24437871  1
  Te  Te39  1  0.75496395  0.75285145  0.75531645  1
  Te  Te40  1  0.25327280  0.00205545  -0.00222359  1
  Te  Te41  1  0.25489084  0.00567761  0.50150759  1
  Te  Te42  1  0.25139826  0.49834545  -0.00144167  1
  Te  Te43  1  0.25381613  0.49785177  0.50126877  1
  Te  Te44  1  0.74625343  -0.00036297  -0.00107653  1
  Te  Te45  1  0.74543619  0.00232976  0.50554828  1
  Te  Te46  1  0.74863324  0.49996200  -0.00041356  1
  Te  Te47  1  0.74572358  0.49803652  0.49864163  1
  Te  Te48  1  0.00218816  0.24534360  -0.00037734  1
  Te  Te49  1  0.00555136  0.25339278  0.49983368  1
  Te  Te50  1  0.00022579  0.75235779  -0.00212208  1
  Te  Te51  1  0.00043611  0.74690745  0.50403785  1
  Te  Te52  1  0.49791571  0.24972552  0.00144101  1
  Te  Te53  1  0.49559212  0.25135611  0.49815647  1
  Te  Te54  1  0.50009944  0.74957077  0.00014849  1
  Te  Te55  1  0.49921449  0.74913774  0.49392888  1
  Te  Te56  1  -0.00133082  -0.00109404  0.24413951  1
  Te  Te57  1  -0.00356408  -0.00547826  0.75314157  1
  Te  Te58  1  -0.00762593  0.50137066  0.25768644  1
  Te  Te59  1  0.00242343  0.50463471  0.74571738  1
  Te  Te60  1  0.50168947  -0.00763249  0.24985249  1
  Te  Te61  1  0.50389730  -0.00088071  0.75051925  1
  Te  Te62  1  0.50355598  0.50418923  0.24882137  1
  Te  Te63  1  0.49675179  0.50073726  0.74851422  1
