# generated using pymatgen
data_AgSbTe2
_symmetry_space_group_name_H-M   'P 1'
_cell_length_a   12.20716425
_cell_length_b   12.21859776
_cell_length_c   12.21946584
_cell_angle_alpha   89.99907119
_cell_angle_beta   89.99038490
_cell_angle_gamma   89.99767789
_symmetry_Int_Tables_number   1
_chemical_formula_structural   AgSbTe2
_chemical_formula_sum   'Ag16 Sb16 Te32'
_cell_volume   1822.58743177
_cell_formula_units_Z   16
loop_
 _symmetry_equiv_pos_site_id
 _symmetry_equiv_pos_as_xyz
  1  'x, y, z'
loop_
 _atom_site_type_symbol
 _atom_site_label
 _atom_site_symmetry_multiplicity
 _atom_site_fract_x
 _atom_site_fract_y
 _atom_site_fract_z
 _atom_site_occupancy
  Ag  Ag0  1  0.74552020  -0.00301345  0.74584751  1
  Ag  Ag1  1  0.25230907  0.50052446  0.75165549  1
  Ag  Ag2  1  0.25080817  0.25014099  -0.00008670  1
  Ag  Ag3  1  0.50291609  0.75282589  0.75009927  1
  Ag  Ag4  1  0.74721444  0.50352138  0.74597567  1
  Ag  Ag5  1  0.50655711  -0.00063579  0.50194343  1
  Ag  Ag6  1  0.24955143  0.50066820  0.24835731  1
  Ag  Ag7  1  0.25066705  0.75038528  0.00011696  1
  Ag  Ag8  1  0.74991220  -0.00299170  0.25387796  1
  Ag  Ag9  1  0.75088459  0.50374034  0.25400975  1
  Ag  Ag10  1  -0.00027685  -0.00227791  0.00147878  1
  Ag  Ag11  1  0.25222079  0.25023582  0.50003333  1
  Ag  Ag12  1  0.74783444  0.75322206  0.50008702  1
  Ag  Ag13  1  0.50056971  -0.00225221  -0.00217592  1
  Ag  Ag14  1  0.74746432  0.24632676  0.50008340  1
  Ag  Ag15  1  -0.00279252  0.75074240  0.24830173  1
  Sb  Sb16  1  0.00013806  0.24829524  0.75108440  1
  Sb  Sb17  1  0.49986856  0.24814754  0.25060885  1
  Sb  Sb18  1  0.50231393  0.75240789  0.24996726  1
  Sb  Sb19  1  -0.00052202  0.24893923  0.24857604  1
  Sb  Sb20  1  -0.00690635  -0.00115301  0.49893873  1
  Sb  Sb21  1  0.24878148  -0.00102747  0.24819815  1
  Sb  Sb22  1  -0.00193837  0.50102593  0.49897026  1
  Sb  Sb23  1  0.50235287  0.50087900  0.50155348  1
  Sb  Sb24  1  0.49762735  0.50248309  -0.00227596  1
  Sb  Sb25  1  0.74882287  0.24609592  -0.00009182  1
  Sb  Sb26  1  0.25416872  -0.00104620  0.75191590  1
  Sb  Sb27  1  0.74888538  0.75288462  0.00020451  1
  Sb  Sb28  1  0.00208828  0.50250633  0.00181927  1
  Sb  Sb29  1  0.50013882  0.24612722  0.74929584  1
  Sb  Sb30  1  0.25244861  0.74963753  0.49987951  1
  Sb  Sb31  1  -0.00245950  0.75173869  0.75209640  1
  Te  Te32  1  0.24938612  0.25611505  0.25096609  1
  Te  Te33  1  0.25004543  0.25631370  0.74899081  1
  Te  Te34  1  0.24750958  0.74570117  0.24832298  1
  Te  Te35  1  0.25188674  0.74573320  0.75137195  1
  Te  Te36  1  0.75075671  0.25206584  0.25434451  1
  Te  Te37  1  0.74998739  0.25259835  0.74562578  1
  Te  Te38  1  0.75133301  0.74817133  0.25022756  1
  Te  Te39  1  0.74840672  0.74831880  0.74938915  1
  Te  Te40  1  0.25151534  -0.00023899  0.00008734  1
  Te  Te41  1  0.25515974  0.00506016  0.50011310  1
  Te  Te42  1  0.25057050  0.49934635  0.00014090  1
  Te  Te43  1  0.25153416  0.49613253  0.49992341  1
  Te  Te44  1  0.74802308  0.00191542  0.00028725  1
  Te  Te45  1  0.74915864  0.00096531  0.49997830  1
  Te  Te46  1  0.74972705  0.49798793  0.00008149  1
  Te  Te47  1  0.74847422  0.49907152  0.49996513  1
  Te  Te48  1  0.00787005  0.24149439  0.00066205  1
  Te  Te49  1  0.00169774  0.24847708  0.49976229  1
  Te  Te50  1  0.00575973  0.75500896  0.00395177  1
  Te  Te51  1  -0.00605497  0.75145148  0.49302751  1
  Te  Te52  1  0.49284912  0.24086310  -0.00018816  1
  Te  Te53  1  0.50045985  0.24230013  0.50005704  1
  Te  Te54  1  0.49500934  0.75567351  -0.00445900  1
  Te  Te55  1  0.50461502  0.75640012  0.50466364  1
  Te  Te56  1  -0.00468617  -0.00485268  0.24573108  1
  Te  Te57  1  -0.00804750  -0.00127193  0.75640311  1
  Te  Te58  1  -0.00240699  0.50584937  0.24873179  1
  Te  Te59  1  -0.00178146  0.50115645  0.75123900  1
  Te  Te60  1  0.50616245  -0.00114436  0.24944545  1
  Te  Te61  1  0.50375030  -0.00403657  0.75067883  1
  Te  Te62  1  0.50185248  0.50109441  0.24917166  1
  Te  Te63  1  0.50230765  0.50717479  0.75096038  1
