# generated using pymatgen
data_AgSbTe2
_symmetry_space_group_name_H-M   'P 1'
_cell_length_a   12.22757312
_cell_length_b   12.22731784
_cell_length_c   12.21603039
_cell_angle_alpha   90.00108167
_cell_angle_beta   89.99527191
_cell_angle_gamma   90.00083939
_symmetry_Int_Tables_number   1
_chemical_formula_structural   AgSbTe2
_chemical_formula_sum   'Ag16 Sb16 Te32'
_cell_volume   1826.42386414
_cell_formula_units_Z   16
loop_
 _symmetry_equiv_pos_site_id
 _symmetry_equiv_pos_as_xyz
  1  'x, y, z'
loop_
 _atom_site_type_symbol
 _atom_site_label
 _atom_site_symmetry_multiplicity
 _atom_site_fract_x
 _atom_site_fract_y
 _atom_site_fract_z
 _atom_site_occupancy
  Ag  Ag0  1  0.74797560  0.50025206  0.74246798  1
  Ag  Ag1  1  0.75260290  0.74526181  0.49799611  1
  Ag  Ag2  1  0.24691166  0.74709452  0.49388672  1
  Ag  Ag3  1  0.00174974  0.74716400  0.25753505  1
  Ag  Ag4  1  0.50508966  0.49614349  0.49848044  1
  Ag  Ag5  1  0.50331076  0.25105528  0.74027577  1
  Ag  Ag6  1  0.50073325  0.25086680  0.25881676  1
  Ag  Ag7  1  0.50070689  -0.00151486  0.00201179  1
  Ag  Ag8  1  0.74520867  0.25437478  0.49857941  1
  Ag  Ag9  1  -0.00051016  0.25290152  0.25730507  1
  Ag  Ag10  1  -0.00381061  0.50359451  0.49506363  1
  Ag  Ag11  1  -0.00209730  -0.00352782  0.49606802  1
  Ag  Ag12  1  0.50286614  0.00387079  0.49814421  1
  Ag  Ag13  1  0.25073253  0.74931104  0.00512493  1
  Ag  Ag14  1  0.24842042  0.50354726  0.25488187  1
  Ag  Ag15  1  0.74898449  0.74908242  0.00222364  1
  Sb  Sb16  1  -0.00117121  -0.00396534  0.00402873  1
  Sb  Sb17  1  0.74777235  0.25091763  0.00156574  1
  Sb  Sb18  1  0.75126336  0.50079594  0.25779966  1
  Sb  Sb19  1  -0.00374382  0.25312165  0.73993834  1
  Sb  Sb20  1  0.25496115  0.25286569  0.49682530  1
  Sb  Sb21  1  -0.00145805  0.74828986  0.74095444  1
  Sb  Sb22  1  0.25140986  0.50084751  0.74493306  1
  Sb  Sb23  1  -0.00112555  0.50198541  0.00586427  1
  Sb  Sb24  1  0.50105853  0.50147599  0.00227577  1
  Sb  Sb25  1  0.25229902  0.25037436  0.00478767  1
  Sb  Sb26  1  0.74849325  -0.00138778  0.25309429  1
  Sb  Sb27  1  0.74767871  -0.00013419  0.74638363  1
  Sb  Sb28  1  0.50163966  0.74877861  0.74650575  1
  Sb  Sb29  1  0.25082967  -0.00420127  0.25180780  1
  Sb  Sb30  1  0.25206951  -0.00052892  0.74785364  1
  Sb  Sb31  1  0.49818015  0.74804496  0.25351454  1
  Te  Te32  1  0.24933727  0.25679841  0.24926897  1
  Te  Te33  1  0.25837249  0.25072806  0.75261688  1
  Te  Te34  1  0.24877890  0.74616077  0.25267418  1
  Te  Te35  1  0.24963827  0.74919647  0.75217620  1
  Te  Te36  1  0.74996529  0.25067534  0.25347097  1
  Te  Te37  1  0.74585722  0.25480180  0.74657197  1
  Te  Te38  1  0.75427673  0.74943766  0.25168687  1
  Te  Te39  1  0.75000815  0.74454736  0.74833834  1
  Te  Te40  1  0.25459492  -0.00670346  -0.00075586  1
  Te  Te41  1  0.25185902  -0.00803066  0.50018795  1
  Te  Te42  1  0.24999363  0.50677445  0.00398318  1
  Te  Te43  1  0.25038245  0.50398628  0.49774613  1
  Te  Te44  1  0.74567863  -0.00649373  -0.00252624  1
  Te  Te45  1  0.74705675  -0.00124396  0.50121178  1
  Te  Te46  1  0.74959812  0.50600475  -0.00889896  1
  Te  Te47  1  0.74786879  0.50100068  0.50067621  1
  Te  Te48  1  -0.00069067  0.24831208  0.00951229  1
  Te  Te49  1  -0.00195493  0.25022511  0.49641295  1
  Te  Te50  1  -0.00047408  0.75198767  0.00718991  1
  Te  Te51  1  -0.00209293  0.74922603  0.49756914  1
  Te  Te52  1  0.50115039  0.24520310  0.00355688  1
  Te  Te53  1  0.49975160  0.24924540  0.49745111  1
  Te  Te54  1  0.50137330  0.75397845  0.00128289  1
  Te  Te55  1  0.50260722  0.75101000  0.49889509  1
  Te  Te56  1  0.00104994  0.00106261  0.25611827  1
  Te  Te57  1  0.00067794  0.00207411  0.74105392  1
  Te  Te58  1  0.00256563  0.50039372  0.25432379  1
  Te  Te59  1  -0.00372455  0.49827852  0.74215603  1
  Te  Te60  1  0.49905649  0.00622969  0.25310161  1
  Te  Te61  1  0.50003853  0.00596383  0.74674081  1
  Te  Te62  1  0.49596641  0.49625173  0.25369945  1
  Te  Te63  1  0.50240183  0.49616002  0.74551325  1
