# generated using pymatgen
data_AgSbTe2
_symmetry_space_group_name_H-M   'P 1'
_cell_length_a   12.21425821
_cell_length_b   12.22283871
_cell_length_c   12.21597262
_cell_angle_alpha   89.99598870
_cell_angle_beta   89.99804139
_cell_angle_gamma   90.00672226
_symmetry_Int_Tables_number   1
_chemical_formula_structural   AgSbTe2
_chemical_formula_sum   'Ag16 Sb16 Te32'
_cell_volume   1823.75805936
_cell_formula_units_Z   16
loop_
 _symmetry_equiv_pos_site_id
 _symmetry_equiv_pos_as_xyz
  1  'x, y, z'
loop_
 _atom_site_type_symbol
 _atom_site_label
 _atom_site_symmetry_multiplicity
 _atom_site_fract_x
 _atom_site_fract_y
 _atom_site_fract_z
 _atom_site_occupancy
  Ag  Ag0  1  0.25535111  -0.00153988  0.75059404  1
  Ag  Ag1  1  0.25250238  0.50186449  0.75183823  1
  Ag  Ag2  1  0.74366653  0.75348134  0.49523061  1
  Ag  Ag3  1  -0.00510687  0.25311720  0.25029534  1
  Ag  Ag4  1  0.50284496  0.74980391  0.25263749  1
  Ag  Ag5  1  0.74218437  0.00344015  0.25576936  1
  Ag  Ag6  1  0.25302288  0.74783041  0.00126885  1
  Ag  Ag7  1  0.50239339  0.49995657  0.49229056  1
  Ag  Ag8  1  0.25484819  0.50046834  0.24855258  1
  Ag  Ag9  1  0.50686610  -0.00001921  0.49541977  1
  Ag  Ag10  1  0.74435297  0.49614148  0.25371145  1
  Ag  Ag11  1  0.50026376  -0.00139785  0.00332831  1
  Ag  Ag12  1  0.00261961  0.49998262  0.00481123  1
  Ag  Ag13  1  0.74526446  0.24666925  0.49281996  1
  Ag  Ag14  1  0.74413610  0.00026381  0.74421141  1
  Ag  Ag15  1  0.50552961  0.25045932  0.25376291  1
  Sb  Sb16  1  -0.00716770  0.00177354  0.49785308  1
  Sb  Sb17  1  0.49986094  0.75161517  0.74755115  1
  Sb  Sb18  1  0.50147465  0.24783967  0.74643936  1
  Sb  Sb19  1  0.25604649  0.75022042  0.49841298  1
  Sb  Sb20  1  -0.00235209  0.74770488  0.24896370  1
  Sb  Sb21  1  0.00084415  0.00006327  0.00288672  1
  Sb  Sb22  1  -0.00159901  0.49794358  0.49562849  1
  Sb  Sb23  1  0.74839963  0.24934985  0.00879053  1
  Sb  Sb24  1  0.74749618  0.49993115  0.74671888  1
  Sb  Sb25  1  0.25905080  -0.00127492  0.24924561  1
  Sb  Sb26  1  0.49749609  0.50184538  0.00823215  1
  Sb  Sb27  1  0.00030008  0.74941737  0.75092218  1
  Sb  Sb28  1  -0.00210969  0.25117469  0.74953449  1
  Sb  Sb29  1  0.25518546  0.24982008  0.49768293  1
  Sb  Sb30  1  0.74627743  0.75105606  0.00466707  1
  Sb  Sb31  1  0.25153491  0.25201928  0.00140098  1
  Te  Te32  1  0.25083682  0.25494188  0.25148493  1
  Te  Te33  1  0.24929062  0.24980064  0.74923031  1
  Te  Te34  1  0.25293432  0.74644532  0.24762881  1
  Te  Te35  1  0.25014111  0.74945417  0.75305758  1
  Te  Te36  1  0.74670065  0.25085248  0.25212275  1
  Te  Te37  1  0.75067820  0.24505500  0.74141708  1
  Te  Te38  1  0.74724776  0.74964217  0.25196404  1
  Te  Te39  1  0.74992463  0.75492572  0.74463606  1
  Te  Te40  1  0.25270056  -0.00378577  -0.00308601  1
  Te  Te41  1  0.25679852  -0.00160383  0.50574423  1
  Te  Te42  1  0.25025475  0.50232074  0.00094400  1
  Te  Te43  1  0.25419444  0.50071761  0.49930447  1
  Te  Te44  1  0.74653646  -0.00116756  -0.00063106  1
  Te  Te45  1  0.74759278  0.00024698  0.49820054  1
  Te  Te46  1  0.75332215  0.50146961  0.00189101  1
  Te  Te47  1  0.74691453  0.49994040  0.49888731  1
  Te  Te48  1  -0.00015174  0.25517549  0.00693728  1
  Te  Te49  1  -0.00789955  0.25021985  0.49264209  1
  Te  Te50  1  0.00786333  0.74497854  0.00063859  1
  Te  Te51  1  -0.01002276  0.74999695  0.49953493  1
  Te  Te52  1  0.50017608  0.24285922  0.00804647  1
  Te  Te53  1  0.50375460  0.24960482  0.49557980  1
  Te  Te54  1  0.49572788  0.75397524  0.00619243  1
  Te  Te55  1  0.50378282  0.75028339  0.49550766  1
  Te  Te56  1  -0.00640758  0.00582887  0.24894363  1
  Te  Te57  1  0.00162818  0.00092606  0.75081917  1
  Te  Te58  1  0.00013012  0.49745308  0.24795230  1
  Te  Te59  1  0.00636545  0.49874494  0.75569837  1
  Te  Te60  1  0.50080362  -0.00016547  0.25226545  1
  Te  Te61  1  0.50034093  0.00048353  0.74950918  1
  Te  Te62  1  0.50114649  0.49995592  0.25065400  1
  Te  Te63  1  0.49521596  0.49940258  0.74481021  1
