# generated using pymatgen
data_AgSbTe2
_symmetry_space_group_name_H-M   'P 1'
_cell_length_a   12.21940329
_cell_length_b   12.22091388
_cell_length_c   12.23322859
_cell_angle_alpha   90.00500899
_cell_angle_beta   90.00578436
_cell_angle_gamma   90.00138674
_symmetry_Int_Tables_number   1
_chemical_formula_structural   AgSbTe2
_chemical_formula_sum   'Ag16 Sb16 Te32'
_cell_volume   1826.81584221
_cell_formula_units_Z   16
loop_
 _symmetry_equiv_pos_site_id
 _symmetry_equiv_pos_as_xyz
  1  'x, y, z'
loop_
 _atom_site_type_symbol
 _atom_site_label
 _atom_site_symmetry_multiplicity
 _atom_site_fract_x
 _atom_site_fract_y
 _atom_site_fract_z
 _atom_site_occupancy
  Ag  Ag0  1  0.49255933  -0.00098035  0.00846004  1
  Ag  Ag1  1  0.49647708  0.00051806  0.49063564  1
  Ag  Ag2  1  0.24541409  0.75351936  0.49328064  1
  Ag  Ag3  1  0.74933976  0.24679118  0.49494235  1
  Ag  Ag4  1  0.00462799  0.50804358  0.00466607  1
  Ag  Ag5  1  0.24545055  0.50677250  0.24724582  1
  Ag  Ag6  1  0.00329811  0.50438615  0.49530738  1
  Ag  Ag7  1  0.74511759  -0.00196789  0.24887652  1
  Ag  Ag8  1  0.24391748  0.75489796  0.00640675  1
  Ag  Ag9  1  0.00489263  0.75018789  0.75462019  1
  Ag  Ag10  1  0.00757927  0.74843765  0.24555039  1
  Ag  Ag11  1  0.25492178  -0.00488380  0.24526706  1
  Ag  Ag12  1  0.49684286  0.24194062  0.24958145  1
  Ag  Ag13  1  0.75674452  0.75356753  0.00441646  1
  Ag  Ag14  1  0.25020036  0.24365572  0.00564501  1
  Ag  Ag15  1  0.25040764  -0.00481013  0.75442767  1
  Sb  Sb16  1  0.49115118  0.75856427  0.24954282  1
  Sb  Sb17  1  0.49711626  0.49998342  0.49431165  1
  Sb  Sb18  1  0.49724442  0.24617891  0.75101611  1
  Sb  Sb19  1  0.24987649  0.24713423  0.49505019  1
  Sb  Sb20  1  0.75042083  0.24636107  0.00411896  1
  Sb  Sb21  1  0.00261715  0.25076888  0.24859139  1
  Sb  Sb22  1  0.49478201  0.75363859  0.75135380  1
  Sb  Sb23  1  0.00864981  -0.00867419  0.00208747  1
  Sb  Sb24  1  0.00328188  0.24845695  0.75159425  1
  Sb  Sb25  1  0.75373899  0.50232361  0.24899097  1
  Sb  Sb26  1  0.75065951  -0.00326739  0.75156658  1
  Sb  Sb27  1  0.49567939  0.50149464  0.00486753  1
  Sb  Sb28  1  0.75356178  0.50245043  0.75060905  1
  Sb  Sb29  1  0.75335361  0.75239429  0.49535898  1
  Sb  Sb30  1  0.00302272  -0.00307322  0.49696003  1
  Sb  Sb31  1  0.24638512  0.50398658  0.75228525  1
  Te  Te32  1  0.25149727  0.24671459  0.24649462  1
  Te  Te33  1  0.24936639  0.24265714  0.75754447  1
  Te  Te34  1  0.24884584  0.75134286  0.24933665  1
  Te  Te35  1  0.24615106  0.75373590  0.75065685  1
  Te  Te36  1  0.74734340  0.24546300  0.25294128  1
  Te  Te37  1  0.75026126  0.24961586  0.74229614  1
  Te  Te38  1  0.75604295  0.75355765  0.24633079  1
  Te  Te39  1  0.75815106  0.75068833  0.75625022  1
  Te  Te40  1  0.25059724  -0.00201229  0.00392354  1
  Te  Te41  1  0.25282844  -0.00152870  0.49676359  1
  Te  Te42  1  0.24785691  0.50314459  0.00228029  1
  Te  Te43  1  0.24646873  0.50253532  0.49746818  1
  Te  Te44  1  0.74377381  -0.00205519  0.00275323  1
  Te  Te45  1  0.74581329  0.00155427  0.49774551  1
  Te  Te46  1  0.75461603  0.50476415  0.00057699  1
  Te  Te47  1  0.75398343  0.49710556  0.49956060  1
  Te  Te48  1  0.00333497  0.26042002  -0.00114801  1
  Te  Te49  1  -0.00311885  0.25705702  0.50075081  1
  Te  Te50  1  0.00305925  0.74927430  0.00306057  1
  Te  Te51  1  0.00271405  0.74681927  0.49726815  1
  Te  Te52  1  0.49752765  0.24666040  0.00322591  1
  Te  Te53  1  0.50205642  0.24692499  0.49664728  1
  Te  Te54  1  0.49904475  0.75319517  -0.00027168  1
  Te  Te55  1  0.49590608  0.75451233  0.50092478  1
  Te  Te56  1  -0.00029046  -0.00347838  0.25081017  1
  Te  Te57  1  0.00589074  -0.00600082  0.74898419  1
  Te  Te58  1  0.00402905  0.50233042  0.24963378  1
  Te  Te59  1  0.00075456  0.50600092  0.74964489  1
  Te  Te60  1  0.49836598  0.00105239  0.24960060  1
  Te  Te61  1  0.49439963  -0.00028230  0.75057053  1
  Te  Te62  1  0.49288573  0.48948056  0.25025631  1
  Te  Te63  1  0.50051118  0.49995361  0.74948429  1
