# generated using pymatgen
data_AgSbTe2
_symmetry_space_group_name_H-M   'P 1'
_cell_length_a   12.21315745
_cell_length_b   12.20516940
_cell_length_c   12.21000894
_cell_angle_alpha   89.99745804
_cell_angle_beta   90.00702189
_cell_angle_gamma   90.00216023
_symmetry_Int_Tables_number   1
_chemical_formula_structural   AgSbTe2
_chemical_formula_sum   'Ag16 Sb16 Te32'
_cell_volume   1820.06855163
_cell_formula_units_Z   16
loop_
 _symmetry_equiv_pos_site_id
 _symmetry_equiv_pos_as_xyz
  1  'x, y, z'
loop_
 _atom_site_type_symbol
 _atom_site_label
 _atom_site_symmetry_multiplicity
 _atom_site_fract_x
 _atom_site_fract_y
 _atom_site_fract_z
 _atom_site_occupancy
  Ag  Ag0  1  0.24782001  0.25490139  0.50231002  1
  Ag  Ag1  1  0.75480462  0.50308329  0.75007581  1
  Ag  Ag2  1  0.50205966  0.74737769  0.25011249  1
  Ag  Ag3  1  0.24736155  -0.00298053  0.74996826  1
  Ag  Ag4  1  -0.00059602  0.50016721  0.50653294  1
  Ag  Ag5  1  0.50094530  0.50228345  0.50284514  1
  Ag  Ag6  1  0.75074557  -0.00072988  0.24971985  1
  Ag  Ag7  1  0.75269543  -0.00319652  0.75005069  1
  Ag  Ag8  1  -0.00126750  0.50036462  -0.00652227  1
  Ag  Ag9  1  -0.00082080  0.74337839  0.75014284  1
  Ag  Ag10  1  -0.00210761  0.25253532  0.24997802  1
  Ag  Ag11  1  0.75219031  0.25404321  -0.00099470  1
  Ag  Ag12  1  0.50096279  0.50233057  -0.00284377  1
  Ag  Ag13  1  0.24517033  0.50280292  0.74991555  1
  Ag  Ag14  1  0.75026859  0.74594017  0.50369919  1
  Ag  Ag15  1  0.24950456  0.74525472  -0.00486840  1
  Sb  Sb16  1  0.50028424  0.25450187  0.74965378  1
  Sb  Sb17  1  0.50098754  0.74519363  0.75003316  1
  Sb  Sb18  1  -0.00073561  0.00030759  0.50289615  1
  Sb  Sb19  1  0.24822267  0.25501300  -0.00176311  1
  Sb  Sb20  1  0.24938665  0.74520991  0.50557147  1
  Sb  Sb21  1  0.24874302  -0.00080522  0.25028942  1
  Sb  Sb22  1  -0.00207708  0.74856452  0.24996590  1
  Sb  Sb23  1  0.75042606  0.74533343  -0.00365338  1
  Sb  Sb24  1  0.75056207  0.50070402  0.24962380  1
  Sb  Sb25  1  -0.00046000  0.25931900  0.74988657  1
  Sb  Sb26  1  -0.00111991  0.00016294  -0.00286526  1
  Sb  Sb27  1  0.50112621  -0.00302767  0.50054117  1
  Sb  Sb28  1  0.75176744  0.25445770  0.50072716  1
  Sb  Sb29  1  0.50221105  0.25196840  0.25012917  1
  Sb  Sb30  1  0.24965872  0.50056204  0.25045881  1
  Sb  Sb31  1  0.50141293  -0.00306277  -0.00052196  1
  Te  Te32  1  0.24448336  0.24728967  0.25433575  1
  Te  Te33  1  0.24996175  0.25015879  0.74624826  1
  Te  Te34  1  0.25395479  0.75286592  0.24396020  1
  Te  Te35  1  0.24681258  0.74812644  0.75220537  1
  Te  Te36  1  0.75345231  0.24512720  0.24780326  1
  Te  Te37  1  0.75026337  0.24873209  0.75332136  1
  Te  Te38  1  0.74825420  0.75459017  0.25284267  1
  Te  Te39  1  0.75306390  0.74924415  0.74797865  1
  Te  Te40  1  0.25053677  -0.00309768  -0.00750784  1
  Te  Te41  1  0.25059024  0.00463455  0.50703634  1
  Te  Te42  1  0.25010753  0.50099420  -0.00394714  1
  Te  Te43  1  0.24973785  0.49892133  0.50376225  1
  Te  Te44  1  0.74933122  0.00440294  -0.00355336  1
  Te  Te45  1  0.74935677  -0.00327569  0.50409254  1
  Te  Te46  1  0.75027346  0.49863490  -0.00300668  1
  Te  Te47  1  0.74988792  0.50171632  0.50317365  1
  Te  Te48  1  -0.00339428  0.25639635  0.00481319  1
  Te  Te49  1  0.00299575  0.25651048  0.49535707  1
  Te  Te50  1  0.00331427  0.74327075  -0.00209599  1
  Te  Te51  1  -0.00324852  0.74342655  0.50204416  1
  Te  Te52  1  0.50499298  0.25911901  0.00240114  1
  Te  Te53  1  0.49457442  0.25926213  0.49780613  1
  Te  Te54  1  0.49689798  0.74368840  0.00466901  1
  Te  Te55  1  0.50341347  0.74392724  0.49513795  1
  Te  Te56  1  -0.00562070  0.00420650  0.25004518  1
  Te  Te57  1  -0.00209473  -0.00758844  0.74995291  1
  Te  Te58  1  -0.00041306  0.49655823  0.24997310  1
  Te  Te59  1  -0.00058527  0.50144040  0.75004535  1
  Te  Te60  1  0.50643305  -0.00580875  0.24997753  1
  Te  Te61  1  0.50189563  -0.00073950  0.75001866  1
  Te  Te62  1  0.50011317  0.50434702  0.24998338  1
  Te  Te63  1  0.50052500  0.50095994  0.75003141  1
