# generated using pymatgen
data_AgSbTe2
_symmetry_space_group_name_H-M   'P 1'
_cell_length_a   12.21978264
_cell_length_b   12.21617226
_cell_length_c   12.21881350
_cell_angle_alpha   90.00334427
_cell_angle_beta   90.00099138
_cell_angle_gamma   89.99735794
_symmetry_Int_Tables_number   1
_chemical_formula_structural   AgSbTe2
_chemical_formula_sum   'Ag16 Sb16 Te32'
_cell_volume   1824.01188574
_cell_formula_units_Z   16
loop_
 _symmetry_equiv_pos_site_id
 _symmetry_equiv_pos_as_xyz
  1  'x, y, z'
loop_
 _atom_site_type_symbol
 _atom_site_label
 _atom_site_symmetry_multiplicity
 _atom_site_fract_x
 _atom_site_fract_y
 _atom_site_fract_z
 _atom_site_occupancy
  Ag  Ag0  1  0.74693916  0.25730907  0.49779901  1
  Ag  Ag1  1  0.00104842  0.74270216  0.74116789  1
  Ag  Ag2  1  0.24297093  0.74329969  0.50135907  1
  Ag  Ag3  1  0.50075586  0.25456735  0.74204659  1
  Ag  Ag4  1  0.25315938  0.25751303  0.50129647  1
  Ag  Ag5  1  0.50189959  0.49346305  0.50178587  1
  Ag  Ag6  1  -0.00144136  0.74573114  0.25901953  1
  Ag  Ag7  1  0.75420366  0.49785648  0.74098208  1
  Ag  Ag8  1  0.75021566  0.00252556  0.25462989  1
  Ag  Ag9  1  0.50402446  0.25183136  0.25732640  1
  Ag  Ag10  1  -0.00200514  -0.00360053  0.49875519  1
  Ag  Ag11  1  0.75279670  0.49738868  0.25901508  1
  Ag  Ag12  1  -0.00151046  0.50155553  -0.00209902  1
  Ag  Ag13  1  -0.00104640  0.50390853  0.50288459  1
  Ag  Ag14  1  0.24625364  0.49952923  0.74197381  1
  Ag  Ag15  1  0.50224618  0.00285816  0.00165756  1
  Sb  Sb16  1  0.75095523  0.00270243  0.74411096  1
  Sb  Sb17  1  0.24754283  0.74696838  -0.00115279  1
  Sb  Sb18  1  0.49938386  0.74602781  0.74495286  1
  Sb  Sb19  1  -0.00258429  -0.00196772  0.00152618  1
  Sb  Sb20  1  0.50111919  0.49857401  -0.00068935  1
  Sb  Sb21  1  -0.00428150  0.25364822  0.25596374  1
  Sb  Sb22  1  0.25175589  0.25335101  -0.00103278  1
  Sb  Sb23  1  0.75112952  0.74861871  0.00024993  1
  Sb  Sb24  1  0.24940501  0.00116148  0.25317517  1
  Sb  Sb25  1  0.50284033  0.00730283  0.49872062  1
  Sb  Sb26  1  -0.00053236  0.25891399  0.74442848  1
  Sb  Sb27  1  0.50171026  0.74871116  0.25496101  1
  Sb  Sb28  1  0.74836460  0.25151239  0.00173746  1
  Sb  Sb29  1  0.75888126  0.74050560  0.49982857  1
  Sb  Sb30  1  0.24966646  0.00139649  0.74636975  1
  Sb  Sb31  1  0.24671365  0.49915921  0.25976768  1
  Te  Te32  1  0.25819669  0.25054358  0.25629270  1
  Te  Te33  1  0.25394223  0.25422817  0.74456808  1
  Te  Te34  1  0.24395868  0.74979098  0.25571655  1
  Te  Te35  1  0.24648669  0.74545521  0.74526320  1
  Te  Te36  1  0.74706333  0.25216761  0.25354788  1
  Te  Te37  1  0.74647744  0.25398600  0.74521375  1
  Te  Te38  1  0.75373831  0.74873524  0.25023839  1
  Te  Te39  1  0.75449478  0.74423908  0.75010577  1
  Te  Te40  1  0.25516235  0.00018346  -0.00005757  1
  Te  Te41  1  0.24360824  0.00105851  0.50031915  1
  Te  Te42  1  0.24530168  0.49979658  -0.00936008  1
  Te  Te43  1  0.24879147  0.49784067  0.50138343  1
  Te  Te44  1  0.74720268  0.00070923  0.00664469  1
  Te  Te45  1  0.75379965  0.00691812  0.49625349  1
  Te  Te46  1  0.75403690  0.49908468  0.00021010  1
  Te  Te47  1  0.75037881  0.49858324  0.49976450  1
  Te  Te48  1  0.00120345  0.25600031  0.00032355  1
  Te  Te49  1  0.00029997  0.25057369  0.50007813  1
  Te  Te50  1  0.00075923  0.74561689  0.00049118  1
  Te  Te51  1  0.00145194  0.74776688  0.49981877  1
  Te  Te52  1  0.49926127  0.24682958  0.00099700  1
  Te  Te53  1  0.50026030  0.25150781  0.49984358  1
  Te  Te54  1  0.49916916  0.75673657  0.00030139  1
  Te  Te55  1  0.48956505  0.74371223  0.50001471  1
  Te  Te56  1  -0.00479726  -0.00321356  0.25099610  1
  Te  Te57  1  -0.00192759  -0.00820607  0.74837172  1
  Te  Te58  1  -0.00292595  0.50173198  0.25295169  1
  Te  Te59  1  -0.00152184  0.50102205  0.74570532  1
  Te  Te60  1  0.50533987  0.00182190  0.24891522  1
  Te  Te61  1  0.50196578  0.00472636  0.75289305  1
  Te  Te62  1  0.50516850  0.49744532  0.25065192  1
  Te  Te63  1  0.50150796  0.49758322  0.74902514  1
