# generated using pymatgen
data_AgSbTe2
_symmetry_space_group_name_H-M   'P 1'
_cell_length_a   12.25746924
_cell_length_b   12.24934047
_cell_length_c   12.25540821
_cell_angle_alpha   89.99992069
_cell_angle_beta   90.00320156
_cell_angle_gamma   89.99053761
_symmetry_Int_Tables_number   1
_chemical_formula_structural   AgSbTe2
_chemical_formula_sum   'Ag16 Sb16 Te32'
_cell_volume   1840.09943979
_cell_formula_units_Z   16
loop_
 _symmetry_equiv_pos_site_id
 _symmetry_equiv_pos_as_xyz
  1  'x, y, z'
loop_
 _atom_site_type_symbol
 _atom_site_label
 _atom_site_symmetry_multiplicity
 _atom_site_fract_x
 _atom_site_fract_y
 _atom_site_fract_z
 _atom_site_occupancy
  Ag  Ag0  1  0.25044653  0.25805431  0.49367678  1
  Ag  Ag1  1  0.49195239  0.74194582  0.25150434  1
  Ag  Ag2  1  0.24010884  0.74337407  0.00804804  1
  Ag  Ag3  1  0.75416522  -0.00444304  0.75024013  1
  Ag  Ag4  1  0.00859960  0.73849163  0.24467426  1
  Ag  Ag5  1  0.24230012  0.50650226  0.25008307  1
  Ag  Ag6  1  0.00642748  0.50914444  0.00846906  1
  Ag  Ag7  1  0.49197709  0.25729028  0.25283373  1
  Ag  Ag8  1  0.00784445  0.26220097  0.24958815  1
  Ag  Ag9  1  0.75779179  0.50596535  0.25038425  1
  Ag  Ag10  1  0.00486020  0.74699596  0.75504128  1
  Ag  Ag11  1  0.00119548  -0.00996180  0.00045809  1
  Ag  Ag12  1  0.49491632  0.25238016  0.74673676  1
  Ag  Ag13  1  0.24558577  0.50383080  0.74968841  1
  Ag  Ag14  1  0.75533967  0.74759532  0.49508433  1
  Ag  Ag15  1  0.24496385  0.74249619  0.49144432  1
  Sb  Sb16  1  0.49601016  0.74684020  0.74810845  1
  Sb  Sb17  1  0.49634659  0.50010379  0.49639173  1
  Sb  Sb18  1  0.00360218  0.50359012  0.48790690  1
  Sb  Sb19  1  0.24792873  0.25775707  0.00884536  1
  Sb  Sb20  1  0.75058223  0.25050334  0.00229989  1
  Sb  Sb21  1  0.49868422  -0.00405805  -0.00118038  1
  Sb  Sb22  1  0.75096132  0.25426166  0.49697092  1
  Sb  Sb23  1  0.50094038  -0.00018753  0.50049184  1
  Sb  Sb24  1  0.00598329  0.25391616  0.74765178  1
  Sb  Sb25  1  0.24571230  -0.00215815  0.75173432  1
  Sb  Sb26  1  0.75338168  -0.00655909  0.24995333  1
  Sb  Sb27  1  -0.00128695  -0.00404079  0.50099542  1
  Sb  Sb28  1  0.49240307  0.50342705  0.00345058  1
  Sb  Sb29  1  0.24733504  -0.00806857  0.24841661  1
  Sb  Sb30  1  0.75643022  0.50404972  0.74903925  1
  Sb  Sb31  1  0.76214891  0.74864733  0.00599492  1
  Te  Te32  1  0.25142894  0.25472060  0.25162710  1
  Te  Te33  1  0.25141966  0.25437098  0.74447674  1
  Te  Te34  1  0.24683981  0.74880449  0.25477599  1
  Te  Te35  1  0.25009528  0.74608307  0.74462546  1
  Te  Te36  1  0.74766082  0.25689556  0.25463385  1
  Te  Te37  1  0.74429780  0.25030291  0.74439265  1
  Te  Te38  1  0.75128267  0.74663480  0.25362539  1
  Te  Te39  1  0.74917001  0.74733249  0.74314981  1
  Te  Te40  1  0.24005366  -0.01291196  -0.00172370  1
  Te  Te41  1  0.24972752  -0.00268639  0.50192506  1
  Te  Te42  1  0.24382243  0.50545816  0.00294165  1
  Te  Te43  1  0.24815111  0.50331525  0.49862702  1
  Te  Te44  1  0.75975133  -0.00089867  -0.00776202  1
  Te  Te45  1  0.75102782  -0.01070888  0.50757885  1
  Te  Te46  1  0.76362793  0.50162336  0.00797044  1
  Te  Te47  1  0.75092927  0.50880923  0.49349570  1
  Te  Te48  1  0.00274819  0.25066220  0.00800481  1
  Te  Te49  1  0.00712527  0.24585466  0.49247638  1
  Te  Te50  1  0.00313179  0.74788241  0.00194287  1
  Te  Te51  1  0.00512931  0.75182943  0.49915406  1
  Te  Te52  1  0.49847629  0.24828590  0.00589609  1
  Te  Te53  1  0.49306192  0.24962699  0.49374539  1
  Te  Te54  1  0.48662912  0.75151938  0.00863331  1
  Te  Te55  1  0.49471680  0.75016770  0.49266545  1
  Te  Te56  1  -0.00380991  -0.00080984  0.24003944  1
  Te  Te57  1  -0.00295338  -0.00273844  0.75745552  1
  Te  Te58  1  0.00450054  0.50273994  0.24764790  1
  Te  Te59  1  0.00276275  0.50283485  0.76067025  1
  Te  Te60  1  0.50421934  0.00487779  0.24703046  1
  Te  Te61  1  0.50746792  0.00756071  0.75354622  1
  Te  Te62  1  0.49717358  0.49884010  0.24623531  1
  Te  Te63  1  0.49469624  0.49383422  0.75547066  1
