# generated using pymatgen
data_AgSbTe2
_symmetry_space_group_name_H-M   'P 1'
_cell_length_a   12.22327416
_cell_length_b   12.22464946
_cell_length_c   12.22182590
_cell_angle_alpha   89.99483017
_cell_angle_beta   90.00300720
_cell_angle_gamma   89.99480032
_symmetry_Int_Tables_number   1
_chemical_formula_structural   AgSbTe2
_chemical_formula_sum   'Ag16 Sb16 Te32'
_cell_volume   1826.24927374
_cell_formula_units_Z   16
loop_
 _symmetry_equiv_pos_site_id
 _symmetry_equiv_pos_as_xyz
  1  'x, y, z'
loop_
 _atom_site_type_symbol
 _atom_site_label
 _atom_site_symmetry_multiplicity
 _atom_site_fract_x
 _atom_site_fract_y
 _atom_site_fract_z
 _atom_site_occupancy
  Ag  Ag0  1  0.24661863  0.50031408  0.24778569  1
  Ag  Ag1  1  0.50158814  0.24524015  0.75132835  1
  Ag  Ag2  1  0.50324410  0.74661251  0.24148232  1
  Ag  Ag3  1  0.74445132  -0.00256762  0.75262589  1
  Ag  Ag4  1  -0.00238305  0.50387263  0.00550927  1
  Ag  Ag5  1  -0.00367582  0.74137416  0.24302467  1
  Ag  Ag6  1  0.50534492  0.75504157  0.75844427  1
  Ag  Ag7  1  0.00067371  0.25834506  0.24747491  1
  Ag  Ag8  1  -0.00101745  0.25155990  0.75193226  1
  Ag  Ag9  1  0.74588790  0.74733012  -0.00015690  1
  Ag  Ag10  1  0.50404780  -0.00706570  -0.00571154  1
  Ag  Ag11  1  0.50296286  0.50671626  0.00186328  1
  Ag  Ag12  1  -0.00468240  0.74828951  0.75629423  1
  Ag  Ag13  1  0.75298799  0.50405291  0.24386054  1
  Ag  Ag14  1  0.50070233  -0.00033511  0.50595134  1
  Ag  Ag15  1  0.25052695  0.25063788  0.50001429  1
  Sb  Sb16  1  0.49910750  0.50026186  0.49946199  1
  Sb  Sb17  1  0.25666759  0.00093556  0.74928350  1
  Sb  Sb18  1  0.75044143  0.50276190  0.75509571  1
  Sb  Sb19  1  -0.00427696  -0.00467454  -0.00246215  1
  Sb  Sb20  1  0.74875247  0.75119613  0.50021081  1
  Sb  Sb21  1  0.24962514  0.25238939  0.00038671  1
  Sb  Sb22  1  0.49935563  0.25345641  0.24873006  1
  Sb  Sb23  1  0.74994702  0.25334132  -0.00033553  1
  Sb  Sb24  1  0.25191559  0.74939422  0.49826268  1
  Sb  Sb25  1  -0.00075810  0.00128069  0.50236091  1
  Sb  Sb26  1  0.24944282  0.49903237  0.75212955  1
  Sb  Sb27  1  0.74860587  0.24874886  0.50087115  1
  Sb  Sb28  1  0.74799021  -0.00314949  0.24680724  1
  Sb  Sb29  1  0.25478517  0.74805029  0.00118512  1
  Sb  Sb30  1  0.25091467  0.00015564  0.25081852  1
  Sb  Sb31  1  0.00092865  0.49909182  0.49410973  1
  Te  Te32  1  0.24590197  0.25301825  0.25316055  1
  Te  Te33  1  0.24745190  0.25093082  0.74570048  1
  Te  Te34  1  0.24875903  0.74589976  0.25149948  1
  Te  Te35  1  0.24698774  0.74909053  0.74814903  1
  Te  Te36  1  0.75650015  0.25353148  0.25009141  1
  Te  Te37  1  0.75121394  0.24756965  0.75056065  1
  Te  Te38  1  0.75053147  0.74889562  0.24764273  1
  Te  Te39  1  0.74997495  0.75034610  0.75236245  1
  Te  Te40  1  0.26148763  0.00145067  0.00067811  1
  Te  Te41  1  0.25705352  0.00655115  0.49931632  1
  Te  Te42  1  0.24931044  0.49934554  0.00572433  1
  Te  Te43  1  0.25045569  0.49392048  0.49225121  1
  Te  Te44  1  0.74489012  -0.00644613  -0.00412497  1
  Te  Te45  1  0.74300354  0.00037581  0.50729847  1
  Te  Te46  1  0.74987104  0.50396048  0.00373251  1
  Te  Te47  1  0.74956627  0.49984256  0.48810177  1
  Te  Te48  1  -0.00063630  0.25242892  -0.00194011  1
  Te  Te49  1  0.00361933  0.24881081  0.50329497  1
  Te  Te50  1  -0.00232167  0.74897431  -0.00031673  1
  Te  Te51  1  0.00078363  0.75105048  0.50198581  1
  Te  Te52  1  0.50046306  0.25230978  -0.00433294  1
  Te  Te53  1  0.49782316  0.24721183  0.50370852  1
  Te  Te54  1  0.50075070  0.74744322  -0.00074614  1
  Te  Te55  1  0.49877890  0.75404221  0.50164277  1
  Te  Te56  1  -0.00065016  -0.00120319  0.25002302  1
  Te  Te57  1  -0.00525415  -0.00020102  0.75061579  1
  Te  Te58  1  0.00025071  0.50174353  0.24813424  1
  Te  Te59  1  -0.00069151  0.50045453  0.75543220  1
  Te  Te60  1  0.50127982  -0.00408755  0.24853344  1
  Te  Te61  1  0.50143906  -0.00104829  0.75163256  1
  Te  Te62  1  0.50029045  0.50170523  0.24749229  1
  Te  Te63  1  0.50039295  0.50039172  0.75405694  1
