# generated using pymatgen
data_AgSbTe2
_symmetry_space_group_name_H-M   'P 1'
_cell_length_a   12.29157389
_cell_length_b   12.25523796
_cell_length_c   12.29521327
_cell_angle_alpha   90.00072890
_cell_angle_beta   89.99381749
_cell_angle_gamma   89.99164163
_symmetry_Int_Tables_number   1
_chemical_formula_structural   AgSbTe2
_chemical_formula_sum   'Ag16 Sb16 Te32'
_cell_volume   1852.10371890
_cell_formula_units_Z   16
loop_
 _symmetry_equiv_pos_site_id
 _symmetry_equiv_pos_as_xyz
  1  'x, y, z'
loop_
 _atom_site_type_symbol
 _atom_site_label
 _atom_site_symmetry_multiplicity
 _atom_site_fract_x
 _atom_site_fract_y
 _atom_site_fract_z
 _atom_site_occupancy
  Ag  Ag0  1  0.73977712  0.74604416  0.49917517  1
  Ag  Ag1  1  0.26089798  0.74428880  0.50562328  1
  Ag  Ag2  1  0.74024400  0.25443723  0.49706163  1
  Ag  Ag3  1  0.49256895  0.74431203  0.75002664  1
  Ag  Ag4  1  0.00754713  0.74636085  0.75005788  1
  Ag  Ag5  1  0.49871927  0.25216863  0.25033582  1
  Ag  Ag6  1  0.73846759  0.75207122  0.00085799  1
  Ag  Ag7  1  0.00143424  0.25138808  0.24987426  1
  Ag  Ag8  1  0.25744666  0.50900637  0.74935969  1
  Ag  Ag9  1  0.00146409  0.74835294  0.25010173  1
  Ag  Ag10  1  0.26023146  0.25110193  0.00027229  1
  Ag  Ag11  1  0.49905023  0.50811200  0.50363123  1
  Ag  Ag12  1  0.49534680  0.25546202  0.74971541  1
  Ag  Ag13  1  0.49721303  -0.00885771  0.00022381  1
  Ag  Ag14  1  0.49865302  0.74812913  0.24964875  1
  Ag  Ag15  1  0.26001204  0.74888525  -0.00520039  1
  Sb  Sb16  1  0.74846270  -0.00305826  0.24869998  1
  Sb  Sb17  1  0.00527644  0.25550781  0.74969735  1
  Sb  Sb18  1  0.25323284  0.50339301  0.25110967  1
  Sb  Sb19  1  0.00244596  0.50224999  -0.00065541  1
  Sb  Sb20  1  0.74703458  -0.00304405  0.75106464  1
  Sb  Sb21  1  0.49778925  0.50733942  -0.00569813  1
  Sb  Sb22  1  -0.00070071  -0.00187129  0.49989174  1
  Sb  Sb23  1  0.74156102  0.50317460  0.74763475  1
  Sb  Sb24  1  0.00299659  -0.00296828  0.00020848  1
  Sb  Sb25  1  0.25966582  0.25793950  0.49966699  1
  Sb  Sb26  1  0.00257809  0.50263329  0.50133545  1
  Sb  Sb27  1  0.74584587  0.50219549  0.25181225  1
  Sb  Sb28  1  0.50038665  -0.00661711  0.49952600  1
  Sb  Sb29  1  0.25225899  -0.00252927  0.24884823  1
  Sb  Sb30  1  0.73874107  0.24801339  0.00214277  1
  Sb  Sb31  1  0.25352638  -0.00908267  0.75131789  1
  Te  Te32  1  0.25351468  0.25306881  0.24827682  1
  Te  Te33  1  0.24920776  0.25357116  0.75042354  1
  Te  Te34  1  0.25070176  0.74728913  0.24544101  1
  Te  Te35  1  0.25505600  0.74864894  0.75395807  1
  Te  Te36  1  0.74652187  0.25191063  0.25205262  1
  Te  Te37  1  0.74932319  0.25235682  0.74722346  1
  Te  Te38  1  0.74936575  0.74815724  0.25398107  1
  Te  Te39  1  0.74652817  0.74717785  0.74558433  1
  Te  Te40  1  0.25815385  0.00046620  -0.00020531  1
  Te  Te41  1  0.25009085  -0.01711877  0.50023682  1
  Te  Te42  1  0.25114825  0.50044572  -0.00836011  1
  Te  Te43  1  0.25741902  0.50782075  0.50652793  1
  Te  Te44  1  0.73846955  -0.01043847  -0.00053913  1
  Te  Te45  1  0.74921884  -0.00123604  0.50127073  1
  Te  Te46  1  0.75152239  0.51327606  -0.00175033  1
  Te  Te47  1  0.74020903  0.50319104  0.49996733  1
  Te  Te48  1  0.00202430  0.24724666  0.00387214  1
  Te  Te49  1  -0.00548706  0.25082262  0.49570890  1
  Te  Te50  1  0.00458361  0.75285195  0.00583784  1
  Te  Te51  1  -0.00485750  0.74815239  0.49422307  1
  Te  Te52  1  0.50173654  0.25256950  0.00152744  1
  Te  Te53  1  0.49935040  0.24600143  0.49868454  1
  Te  Te54  1  0.49610045  0.74663935  0.00210827  1
  Te  Te55  1  0.50305972  0.75313789  0.49836617  1
  Te  Te56  1  0.00072924  -0.00088366  0.25017335  1
  Te  Te57  1  -0.00070535  -0.01237690  0.74989764  1
  Te  Te58  1  0.00241746  0.50147308  0.24998465  1
  Te  Te59  1  0.01287342  0.50736523  0.75007637  1
  Te  Te60  1  0.49906390  0.00046203  0.24279023  1
  Te  Te61  1  0.49914587  0.00200755  0.75781699  1
  Te  Te62  1  0.49823406  0.49966070  0.26121925  1
  Te  Te63  1  0.49510485  0.50174460  0.74625645  1
