# generated using pymatgen
data_AgSbTe2
_symmetry_space_group_name_H-M   'P 1'
_cell_length_a   12.31732914
_cell_length_b   12.29634338
_cell_length_c   12.31154282
_cell_angle_alpha   90.00592876
_cell_angle_beta   89.98743780
_cell_angle_gamma   89.99214372
_symmetry_Int_Tables_number   1
_chemical_formula_structural   AgSbTe2
_chemical_formula_sum   'Ag16 Sb16 Te32'
_cell_volume   1864.68291782
_cell_formula_units_Z   16
loop_
 _symmetry_equiv_pos_site_id
 _symmetry_equiv_pos_as_xyz
  1  'x, y, z'
loop_
 _atom_site_type_symbol
 _atom_site_label
 _atom_site_symmetry_multiplicity
 _atom_site_fract_x
 _atom_site_fract_y
 _atom_site_fract_z
 _atom_site_occupancy
  Ag  Ag0  1  0.47980408  0.48926039  0.49348829  1
  Ag  Ag1  1  0.25059868  0.00873728  0.25803388  1
  Ag  Ag2  1  0.00866748  0.01279329  0.49613374  1
  Ag  Ag3  1  0.25060555  0.49695331  0.72950374  1
  Ag  Ag4  1  0.50133384  0.01557617  0.00519979  1
  Ag  Ag5  1  0.01051035  0.48827997  0.00345762  1
  Ag  Ag6  1  0.49002575  0.48951971  0.00583360  1
  Ag  Ag7  1  0.75267426  0.00731033  0.75256348  1
  Ag  Ag8  1  0.24931115  0.26346580  0.49273393  1
  Ag  Ag9  1  0.01677330  0.48847557  0.49714424  1
  Ag  Ag10  1  0.24819248  0.72938995  0.49729704  1
  Ag  Ag11  1  -0.00083809  0.01253377  0.00177074  1
  Ag  Ag12  1  0.74644469  0.24622211  0.00048650  1
  Ag  Ag13  1  0.75177973  0.25192254  0.49869907  1
  Ag  Ag14  1  0.49457748  0.25419869  0.24967121  1
  Ag  Ag15  1  0.25402652  0.49103173  0.26561109  1
  Sb  Sb16  1  0.49632600  0.00843596  0.49429537  1
  Sb  Sb17  1  0.49496776  0.74738929  0.25102287  1
  Sb  Sb18  1  0.00523842  0.25092338  0.25195618  1
  Sb  Sb19  1  0.74952751  0.49720182  0.74939546  1
  Sb  Sb20  1  0.25035863  0.74776136  0.00019389  1
  Sb  Sb21  1  0.74795579  0.49509516  0.25073829  1
  Sb  Sb22  1  0.74914555  0.74987735  -0.00197264  1
  Sb  Sb23  1  0.75047857  0.00656823  0.25006859  1
  Sb  Sb24  1  0.25084285  0.00344164  0.74748772  1
  Sb  Sb25  1  0.00343437  0.74908089  0.25028070  1
  Sb  Sb26  1  0.50008737  0.25088800  0.75138764  1
  Sb  Sb27  1  0.49738013  0.74912751  0.74872260  1
  Sb  Sb28  1  0.75050943  0.74832844  0.50295749  1
  Sb  Sb29  1  0.00258020  0.74985979  0.74970683  1
  Sb  Sb30  1  0.00085280  0.24966565  0.74935799  1
  Sb  Sb31  1  0.25000039  0.25184616  0.00303171  1
  Te  Te32  1  0.25417931  0.24876100  0.25154461  1
  Te  Te33  1  0.24930715  0.25627182  0.73668865  1
  Te  Te34  1  0.24931146  0.75317684  0.25326944  1
  Te  Te35  1  0.24951062  0.74075403  0.74343223  1
  Te  Te36  1  0.73623806  0.25206840  0.25076593  1
  Te  Te37  1  0.75060394  0.24551122  0.75019750  1
  Te  Te38  1  0.75025060  0.74944923  0.24876343  1
  Te  Te39  1  0.74954070  0.76816583  0.75099117  1
  Te  Te40  1  0.24442192  -0.00038312  -0.00383547  1
  Te  Te41  1  0.24931958  0.00739024  0.50072517  1
  Te  Te42  1  0.24774201  0.49917525  0.00491660  1
  Te  Te43  1  0.24940635  0.50003109  0.49980684  1
  Te  Te44  1  0.75448103  0.00294042  0.00328236  1
  Te  Te45  1  0.74988960  0.00169308  0.49724395  1
  Te  Te46  1  0.75238140  0.49772007  0.00003462  1
  Te  Te47  1  0.75593223  0.49590578  0.50052566  1
  Te  Te48  1  -0.00186050  0.25026222  0.00147415  1
  Te  Te49  1  -0.00571084  0.24917022  0.49908923  1
  Te  Te50  1  -0.00027544  0.74762905  -0.00024208  1
  Te  Te51  1  0.00039803  0.74837951  0.50027663  1
  Te  Te52  1  0.49822479  0.25092830  -0.00020232  1
  Te  Te53  1  0.50524913  0.25209040  0.49970035  1
  Te  Te54  1  0.49980013  0.74348400  -0.00049013  1
  Te  Te55  1  0.50000200  0.73743160  0.49982387  1
  Te  Te56  1  0.00711971  0.00072570  0.24926252  1
  Te  Te57  1  -0.00022892  0.00044458  0.75510918  1
  Te  Te58  1  0.00507601  0.49950063  0.24731616  1
  Te  Te59  1  0.00081108  0.49982235  0.75368537  1
  Te  Te60  1  0.49476348  0.00161832  0.24608260  1
  Te  Te61  1  0.49982614  -0.00068913  0.76252241  1
  Te  Te62  1  0.49952943  0.49837170  0.24658364  1
  Te  Te63  1  0.50058681  0.50103810  0.75539707  1
