# generated using pymatgen
data_AgSbTe2
_symmetry_space_group_name_H-M   'P 1'
_cell_length_a   12.22591866
_cell_length_b   12.22332442
_cell_length_c   12.22988350
_cell_angle_alpha   90.00126394
_cell_angle_beta   89.99905720
_cell_angle_gamma   90.01467395
_symmetry_Int_Tables_number   1
_chemical_formula_structural   AgSbTe2
_chemical_formula_sum   'Ag16 Sb16 Te32'
_cell_volume   1827.65048649
_cell_formula_units_Z   16
loop_
 _symmetry_equiv_pos_site_id
 _symmetry_equiv_pos_as_xyz
  1  'x, y, z'
loop_
 _atom_site_type_symbol
 _atom_site_label
 _atom_site_symmetry_multiplicity
 _atom_site_fract_x
 _atom_site_fract_y
 _atom_site_fract_z
 _atom_site_occupancy
  Ag  Ag0  1  0.75632900  0.74715683  -0.00758426  1
  Ag  Ag1  1  0.74560783  0.50855944  0.75173764  1
  Ag  Ag2  1  0.24366906  0.74915350  -0.00708788  1
  Ag  Ag3  1  -0.00453788  0.75529918  0.75442754  1
  Ag  Ag4  1  0.25049407  0.25189498  -0.00623789  1
  Ag  Ag5  1  0.49816262  0.25645093  0.75208520  1
  Ag  Ag6  1  -0.00158817  -0.00586579  0.50972610  1
  Ag  Ag7  1  0.50063350  0.50133538  -0.00879927  1
  Ag  Ag8  1  0.50342941  0.50166559  0.50963226  1
  Ag  Ag9  1  -0.00355993  0.74995107  0.24503672  1
  Ag  Ag10  1  0.75724887  -0.00975627  0.75127560  1
  Ag  Ag11  1  0.74981058  0.50611842  0.24781447  1
  Ag  Ag12  1  0.75379624  0.74750837  0.50833861  1
  Ag  Ag13  1  0.24354812  -0.00385013  0.75425262  1
  Ag  Ag14  1  0.00111913  -0.00757546  -0.00836950  1
  Ag  Ag15  1  0.25470055  0.50278869  0.75516441  1
  Sb  Sb16  1  0.49994521  0.25420164  0.24720625  1
  Sb  Sb17  1  0.50388565  0.74740435  0.24806453  1
  Sb  Sb18  1  -0.00355023  0.50515984  0.50401068  1
  Sb  Sb19  1  0.00207391  0.24507872  0.75236069  1
  Sb  Sb20  1  0.25135023  0.25099655  0.50661961  1
  Sb  Sb21  1  0.49968167  -0.00181397  -0.00586562  1
  Sb  Sb22  1  0.75022780  0.25251907  -0.00358924  1
  Sb  Sb23  1  0.50574630  0.74196690  0.75105734  1
  Sb  Sb24  1  -0.00135395  0.50798831  -0.00337823  1
  Sb  Sb25  1  0.24945715  0.50402340  0.24522237  1
  Sb  Sb26  1  0.75396442  -0.00679698  0.24825337  1
  Sb  Sb27  1  0.74951023  0.25237615  0.50376324  1
  Sb  Sb28  1  0.24646229  0.74953759  0.50890642  1
  Sb  Sb29  1  0.50189074  -0.00291682  0.50779570  1
  Sb  Sb30  1  -0.00050174  0.25161887  0.24679241  1
  Sb  Sb31  1  0.24648625  -0.00358446  0.24491042  1
  Te  Te32  1  0.24941342  0.25030497  0.24024032  1
  Te  Te33  1  0.25126739  0.25196960  0.75437486  1
  Te  Te34  1  0.24239916  0.74954112  0.24207583  1
  Te  Te35  1  0.24651194  0.74993860  0.75284240  1
  Te  Te36  1  0.75034229  0.26051997  0.24937120  1
  Te  Te37  1  0.74592085  0.25151686  0.75073295  1
  Te  Te38  1  0.75361380  0.74628818  0.24774904  1
  Te  Te39  1  0.75034774  0.74981457  0.75170421  1
  Te  Te40  1  0.24997312  -0.00412443  -0.00426730  1
  Te  Te41  1  0.24666191  -0.00021509  0.50660357  1
  Te  Te42  1  0.25094360  0.50258697  -0.00288757  1
  Te  Te43  1  0.25571166  0.49992822  0.50466528  1
  Te  Te44  1  0.75114990  -0.00324901  -0.00311354  1
  Te  Te45  1  0.75261617  -0.00413820  0.50325577  1
  Te  Te46  1  0.74942602  0.50216421  -0.00426071  1
  Te  Te47  1  0.74820285  0.50274286  0.50456460  1
  Te  Te48  1  0.00530510  0.23947268  0.00091868  1
  Te  Te49  1  0.00092152  0.23872652  0.49787249  1
  Te  Te50  1  -0.00142452  0.75137197  -0.00368464  1
  Te  Te51  1  -0.00332616  0.75321525  0.50285166  1
  Te  Te52  1  0.49647326  0.25440044  -0.00317965  1
  Te  Te53  1  0.49926736  0.25636221  0.50409468  1
  Te  Te54  1  0.50026908  0.74568537  0.00114130  1
  Te  Te55  1  0.50666115  0.74464900  0.49799749  1
  Te  Te56  1  -0.00063958  -0.00547360  0.24897574  1
  Te  Te57  1  -0.00098717  -0.00079195  0.75185148  1
  Te  Te58  1  -0.00486888  0.50528381  0.25183767  1
  Te  Te59  1  -0.00020245  0.50358821  0.74888766  1
  Te  Te60  1  0.50018998  0.00136425  0.25281774  1
  Te  Te61  1  0.49929614  0.00882893  0.74937266  1
  Te  Te62  1  0.50444077  0.49971136  0.24934455  1
  Te  Te63  1  0.49998369  0.49942224  0.75170727  1
