# generated using pymatgen
data_AgSbTe2
_symmetry_space_group_name_H-M   'P 1'
_cell_length_a   12.20102625
_cell_length_b   12.20093923
_cell_length_c   12.20546020
_cell_angle_alpha   89.99803588
_cell_angle_beta   90.00030061
_cell_angle_gamma   90.00471589
_symmetry_Int_Tables_number   1
_chemical_formula_structural   AgSbTe2
_chemical_formula_sum   'Ag16 Sb16 Te32'
_cell_volume   1816.95337318
_cell_formula_units_Z   16
loop_
 _symmetry_equiv_pos_site_id
 _symmetry_equiv_pos_as_xyz
  1  'x, y, z'
loop_
 _atom_site_type_symbol
 _atom_site_label
 _atom_site_symmetry_multiplicity
 _atom_site_fract_x
 _atom_site_fract_y
 _atom_site_fract_z
 _atom_site_occupancy
  Ag  Ag0  1  0.49951942  0.25103801  0.25019705  1
  Ag  Ag1  1  0.00055120  0.25261735  0.25211374  1
  Ag  Ag2  1  0.49771090  0.74942736  0.24862567  1
  Ag  Ag3  1  -0.00101844  0.49704517  0.49868118  1
  Ag  Ag4  1  0.50037047  0.49823837  0.49576030  1
  Ag  Ag5  1  0.24807094  -0.00078178  0.75016431  1
  Ag  Ag6  1  0.00464374  0.00270807  0.49876397  1
  Ag  Ag7  1  0.75368585  0.49925865  0.75036636  1
  Ag  Ag8  1  0.25105383  0.00208761  0.24979183  1
  Ag  Ag9  1  0.00168636  0.74757847  0.75024737  1
  Ag  Ag10  1  0.24709579  0.24861811  0.49603899  1
  Ag  Ag11  1  0.24981216  0.75219581  0.00138796  1
  Ag  Ag12  1  0.75085577  0.25369606  0.00388140  1
  Ag  Ag13  1  0.75088496  0.49614774  0.24944784  1
  Ag  Ag14  1  0.49635890  0.00028241  0.00381219  1
  Ag  Ag15  1  -0.00259144  0.49893133  0.00118514  1
  Sb  Sb16  1  0.24968487  0.24813844  0.00454291  1
  Sb  Sb17  1  0.75101849  0.74644641  0.00105496  1
  Sb  Sb18  1  0.49791469  0.74916243  0.75186813  1
  Sb  Sb19  1  0.00408970  0.00118717  0.00094025  1
  Sb  Sb20  1  0.00219276  0.74727509  0.24943403  1
  Sb  Sb21  1  0.49455849  0.00236487  0.49568943  1
  Sb  Sb22  1  0.24638849  0.50100318  0.74952742  1
  Sb  Sb23  1  0.74932779  0.00364018  0.24833344  1
  Sb  Sb24  1  0.50240517  0.49935469  0.00492803  1
  Sb  Sb25  1  0.75036214  0.74658688  0.49904838  1
  Sb  Sb26  1  0.49940993  0.25086762  0.74961483  1
  Sb  Sb27  1  0.00062287  0.25242292  0.74740599  1
  Sb  Sb28  1  0.24876157  0.75224937  0.49822595  1
  Sb  Sb29  1  0.75238037  0.00075457  0.75169920  1
  Sb  Sb30  1  0.75241259  0.25406435  0.49563147  1
  Sb  Sb31  1  0.24945972  0.49715897  0.25095617  1
  Te  Te32  1  0.24973715  0.24659009  0.25251428  1
  Te  Te33  1  0.25025418  0.24319854  0.74388025  1
  Te  Te34  1  0.25404050  0.75572250  0.24621170  1
  Te  Te35  1  0.24635623  0.75468519  0.75414144  1
  Te  Te36  1  0.75019838  0.25397698  0.24641213  1
  Te  Te37  1  0.74970587  0.25597295  0.75783555  1
  Te  Te38  1  0.74334186  0.74327769  0.24886070  1
  Te  Te39  1  0.75607371  0.74393275  0.75094865  1
  Te  Te40  1  0.25252173  -0.00202877  0.00131460  1
  Te  Te41  1  0.24700553  0.00273280  0.49875183  1
  Te  Te42  1  0.24445574  0.50460804  -0.00124396  1
  Te  Te43  1  0.24822180  0.49546184  0.50100354  1
  Te  Te44  1  0.74386932  0.00604819  -0.00108959  1
  Te  Te45  1  0.75871670  0.00108157  0.50182097  1
  Te  Te46  1  0.75325749  0.49667132  0.00127576  1
  Te  Te47  1  0.75237510  0.49822904  0.49920099  1
  Te  Te48  1  -0.00156493  0.25344188  0.00493876  1
  Te  Te49  1  0.00232268  0.25248581  0.49657687  1
  Te  Te50  1  0.00322058  0.74683781  -0.00229994  1
  Te  Te51  1  0.00106311  0.74761780  0.50325868  1
  Te  Te52  1  0.50107597  0.24796349  0.00609087  1
  Te  Te53  1  0.49653882  0.25347590  0.49385558  1
  Te  Te54  1  0.49575827  0.75254102  0.00371920  1
  Te  Te55  1  0.49945954  0.74461232  0.49395678  1
  Te  Te56  1  0.00250154  0.00228180  0.25308290  1
  Te  Te57  1  0.00371068  -0.00376167  0.74707487  1
  Te  Te58  1  -0.00188738  0.49860471  0.25190904  1
  Te  Te59  1  -0.00291523  0.50248130  0.74823302  1
  Te  Te60  1  0.49816002  0.00121519  0.24877575  1
  Te  Te61  1  0.49492123  -0.00137969  0.75381970  1
  Te  Te62  1  0.50183671  0.49815911  0.25237818  1
  Te  Te63  1  0.50598706  0.50149664  0.74342503  1
