# generated using pymatgen
data_AgSbTe2
_symmetry_space_group_name_H-M   'P 1'
_cell_length_a   12.21362527
_cell_length_b   12.21205930
_cell_length_c   12.20641576
_cell_angle_alpha   89.99906169
_cell_angle_beta   89.99692393
_cell_angle_gamma   90.00151366
_symmetry_Int_Tables_number   1
_chemical_formula_structural   AgSbTe2
_chemical_formula_sum   'Ag16 Sb16 Te32'
_cell_volume   1820.62982618
_cell_formula_units_Z   16
loop_
 _symmetry_equiv_pos_site_id
 _symmetry_equiv_pos_as_xyz
  1  'x, y, z'
loop_
 _atom_site_type_symbol
 _atom_site_label
 _atom_site_symmetry_multiplicity
 _atom_site_fract_x
 _atom_site_fract_y
 _atom_site_fract_z
 _atom_site_occupancy
  Ag  Ag0  1  0.75128559  0.00456173  0.25234056  1
  Ag  Ag1  1  0.75133726  0.74436843  0.00456475  1
  Ag  Ag2  1  0.50298629  0.74943489  0.24844111  1
  Ag  Ag3  1  0.75421323  0.24743504  0.49346407  1
  Ag  Ag4  1  0.24868348  0.49883495  0.24624863  1
  Ag  Ag5  1  0.50422831  0.50060475  0.00489646  1
  Ag  Ag6  1  0.75166343  0.49581749  0.24337884  1
  Ag  Ag7  1  0.24525998  0.49944551  0.75359691  1
  Ag  Ag8  1  0.50296858  0.00079341  0.49416235  1
  Ag  Ag9  1  -0.00406821  0.49776936  0.00166419  1
  Ag  Ag10  1  -0.00314319  0.00379940  0.49528746  1
  Ag  Ag11  1  0.24896255  0.00102309  0.25174775  1
  Ag  Ag12  1  -0.00107681  0.74666085  0.75203679  1
  Ag  Ag13  1  -0.00191757  0.25313097  0.75076906  1
  Ag  Ag14  1  0.75415087  0.25537060  0.00707542  1
  Ag  Ag15  1  -0.00634174  0.25070139  0.24967456  1
  Sb  Sb16  1  0.24770378  0.74647671  0.00142633  1
  Sb  Sb17  1  -0.00320805  0.74932111  0.24789338  1
  Sb  Sb18  1  -0.00221805  0.49634806  0.49879527  1
  Sb  Sb19  1  0.50293870  0.49936483  0.49461224  1
  Sb  Sb20  1  0.50369345  -0.00082774  0.00669422  1
  Sb  Sb21  1  -0.00262446  0.00292261  0.00525894  1
  Sb  Sb22  1  0.75136016  0.75233780  0.49500273  1
  Sb  Sb23  1  0.50181729  0.74704423  0.75219093  1
  Sb  Sb24  1  0.24826444  0.75042063  0.49834894  1
  Sb  Sb25  1  0.75625059  0.49895237  0.75925370  1
  Sb  Sb26  1  0.24647284  0.00090594  0.74850730  1
  Sb  Sb27  1  0.50095600  0.25244085  0.75071101  1
  Sb  Sb28  1  0.24509511  0.25379540  0.00268220  1
  Sb  Sb29  1  0.24534515  0.24915566  0.49714545  1
  Sb  Sb30  1  0.75184508  0.00090000  0.74623317  1
  Sb  Sb31  1  0.50815673  0.25052169  0.24976701  1
  Te  Te32  1  0.24256823  0.25163725  0.24991816  1
  Te  Te33  1  0.24286572  0.25470114  0.75016803  1
  Te  Te34  1  0.25426355  0.74845499  0.24911298  1
  Te  Te35  1  0.24409232  0.74471745  0.75085998  1
  Te  Te36  1  0.75168032  0.25006540  0.24894370  1
  Te  Te37  1  0.75657048  0.25038398  0.75033245  1
  Te  Te38  1  0.74845893  0.74955524  0.24663773  1
  Te  Te39  1  0.75458311  0.74973705  0.75692009  1
  Te  Te40  1  0.25107409  0.00019057  0.00881759  1
  Te  Te41  1  0.24941551  0.00026507  0.49347478  1
  Te  Te42  1  0.24873603  0.49966580  0.00387274  1
  Te  Te43  1  0.25086781  0.49973431  0.49667823  1
  Te  Te44  1  0.74943962  0.00106171  0.00640487  1
  Te  Te45  1  0.75178907  0.00242941  0.49611087  1
  Te  Te46  1  0.75189188  0.49887447  0.00207728  1
  Te  Te47  1  0.74875217  0.49467495  0.49148370  1
  Te  Te48  1  -0.00426881  0.25267018  0.00097714  1
  Te  Te49  1  -0.00394563  0.24670342  0.49853276  1
  Te  Te50  1  -0.00499698  0.74576148  -0.00357114  1
  Te  Te51  1  -0.00161140  0.75712610  0.50670590  1
  Te  Te52  1  0.50881695  0.25553377  -0.00184952  1
  Te  Te53  1  0.50798019  0.24441450  0.50164437  1
  Te  Te54  1  0.50618570  0.74594307  0.00342591  1
  Te  Te55  1  0.50138196  0.75556931  0.49529135  1
  Te  Te56  1  -0.00106512  0.00041099  0.25235758  1
  Te  Te57  1  0.00250938  0.00192043  0.74464167  1
  Te  Te58  1  0.00027028  0.49929349  0.24867976  1
  Te  Te59  1  0.00286349  0.49830007  0.75103254  1
  Te  Te60  1  0.50050310  -0.00217936  0.25265999  1
  Te  Te61  1  0.49717164  -0.00089816  0.74118286  1
  Te  Te62  1  0.49883643  0.50219379  0.24729518  1
  Te  Te63  1  0.49127920  0.50125611  0.75530873  1
