# generated using pymatgen
data_AgSbTe2
_symmetry_space_group_name_H-M   'P 1'
_cell_length_a   12.31256057
_cell_length_b   12.29163631
_cell_length_c   12.27658217
_cell_angle_alpha   89.99871653
_cell_angle_beta   90.00440267
_cell_angle_gamma   90.01025327
_symmetry_Int_Tables_number   1
_chemical_formula_structural   AgSbTe2
_chemical_formula_sum   'Ag16 Sb16 Te32'
_cell_volume   1857.95652748
_cell_formula_units_Z   16
loop_
 _symmetry_equiv_pos_site_id
 _symmetry_equiv_pos_as_xyz
  1  'x, y, z'
loop_
 _atom_site_type_symbol
 _atom_site_label
 _atom_site_symmetry_multiplicity
 _atom_site_fract_x
 _atom_site_fract_y
 _atom_site_fract_z
 _atom_site_occupancy
  Ag  Ag0  1  0.74181754  0.75624000  -0.01814473  1
  Ag  Ag1  1  0.49416856  -0.00021572  0.51637927  1
  Ag  Ag2  1  0.25826433  0.23396796  0.51563201  1
  Ag  Ag3  1  0.50105700  0.23538157  0.74978642  1
  Ag  Ag4  1  0.74181500  0.24051409  0.51577199  1
  Ag  Ag5  1  0.49548418  -0.00017599  -0.01648103  1
  Ag  Ag6  1  0.00462854  -0.00345991  0.51038116  1
  Ag  Ag7  1  -0.00227274  0.75761961  0.74605510  1
  Ag  Ag8  1  0.25963558  -0.00550771  0.74450848  1
  Ag  Ag9  1  0.25399784  0.76627277  0.51801179  1
  Ag  Ag10  1  0.74592265  0.75930901  0.51776067  1
  Ag  Ag11  1  0.25861877  0.76293805  -0.01762502  1
  Ag  Ag12  1  0.26074533  0.23724060  -0.01542589  1
  Ag  Ag13  1  0.74712681  0.50477016  0.74968459  1
  Ag  Ag14  1  0.50099760  0.76411277  0.74975610  1
  Ag  Ag15  1  0.73951507  0.24295930  -0.01644170  1
  Sb  Sb16  1  0.73810483  -0.00530635  0.74834428  1
  Sb  Sb17  1  0.25044944  -0.00018747  0.25529314  1
  Sb  Sb18  1  0.25170456  0.50239616  0.74942722  1
  Sb  Sb19  1  -0.00099612  0.50102333  -0.00750991  1
  Sb  Sb20  1  -0.00004595  0.24735821  0.25149537  1
  Sb  Sb21  1  0.50055243  0.50129782  0.50549091  1
  Sb  Sb22  1  0.50027966  0.24613184  0.25079248  1
  Sb  Sb23  1  0.75012745  0.50036855  0.25043470  1
  Sb  Sb24  1  0.74956673  -0.00041816  0.25136326  1
  Sb  Sb25  1  -0.00216563  0.23935666  0.74743313  1
  Sb  Sb26  1  0.00325785  -0.00311183  -0.01348475  1
  Sb  Sb27  1  0.25007251  0.50051724  0.25027139  1
  Sb  Sb28  1  -0.00010434  0.75278159  0.25441259  1
  Sb  Sb29  1  -0.00100394  0.50454876  0.50663390  1
  Sb  Sb30  1  0.50059887  0.50105776  -0.00550447  1
  Sb  Sb31  1  0.50004296  0.75396676  0.25096058  1
  Te  Te32  1  0.24934807  0.25204232  0.24762900  1
  Te  Te33  1  0.24689246  0.25752642  0.74947202  1
  Te  Te34  1  0.24870676  0.74763974  0.24701985  1
  Te  Te35  1  0.25692237  0.74415085  0.74933759  1
  Te  Te36  1  0.75103387  0.25266598  0.24903088  1
  Te  Te37  1  0.75282172  0.24703143  0.74969694  1
  Te  Te38  1  0.75125038  0.74761078  0.24819412  1
  Te  Te39  1  0.74378147  0.75661335  0.74950594  1
  Te  Te40  1  0.24922138  -0.00034659  -0.00257674  1
  Te  Te41  1  0.25722677  -0.00048871  0.50208537  1
  Te  Te42  1  0.24959086  0.49789757  -0.00054102  1
  Te  Te43  1  0.24952804  0.49743017  0.50084225  1
  Te  Te44  1  0.74984325  0.00089879  0.00035370  1
  Te  Te45  1  0.74423121  0.00023760  0.50151495  1
  Te  Te46  1  0.75040174  0.50000626  -0.00477942  1
  Te  Te47  1  0.75032783  0.49925266  0.50431565  1
  Te  Te48  1  -0.00076327  0.24795299  0.00031321  1
  Te  Te49  1  -0.00029829  0.24392918  0.50151794  1
  Te  Te50  1  -0.00122962  0.75260870  -0.00440339  1
  Te  Te51  1  -0.00051732  0.75269010  0.50316368  1
  Te  Te52  1  0.50003123  0.24588244  -0.00287577  1
  Te  Te53  1  0.50032179  0.24652149  0.50272076  1
  Te  Te54  1  0.49993873  0.75376225  -0.00141710  1
  Te  Te55  1  0.50040559  0.75307242  0.50133945  1
  Te  Te56  1  -0.00010496  -0.00006217  0.27239572  1
  Te  Te57  1  0.02046371  -0.00777886  0.74289997  1
  Te  Te58  1  0.00068463  0.49946349  0.25016111  1
  Te  Te59  1  -0.01405860  0.51827032  0.74972978  1
  Te  Te60  1  0.49952593  -0.00039457  0.24804066  1
  Te  Te61  1  0.49335429  0.00085016  0.75007375  1
  Te  Te62  1  0.49965432  0.50017172  0.25024383  1
  Te  Te63  1  0.50950029  0.49914429  0.74953230  1
