# generated using pymatgen
data_AgSbTe2
_symmetry_space_group_name_H-M   'P 1'
_cell_length_a   12.23604504
_cell_length_b   12.22771581
_cell_length_c   12.22414858
_cell_angle_alpha   90.00392556
_cell_angle_beta   89.99702763
_cell_angle_gamma   90.00158596
_symmetry_Int_Tables_number   1
_chemical_formula_structural   AgSbTe2
_chemical_formula_sum   'Ag16 Sb16 Te32'
_cell_volume   1828.96342805
_cell_formula_units_Z   16
loop_
 _symmetry_equiv_pos_site_id
 _symmetry_equiv_pos_as_xyz
  1  'x, y, z'
loop_
 _atom_site_type_symbol
 _atom_site_label
 _atom_site_symmetry_multiplicity
 _atom_site_fract_x
 _atom_site_fract_y
 _atom_site_fract_z
 _atom_site_occupancy
  Ag  Ag0  1  0.24582218  0.24753073  0.00616817  1
  Ag  Ag1  1  0.00379236  0.24378663  0.74891681  1
  Ag  Ag2  1  0.24958112  0.24278730  0.49413805  1
  Ag  Ag3  1  0.75154989  0.00232472  0.25492403  1
  Ag  Ag4  1  0.50028753  0.75515634  0.25337140  1
  Ag  Ag5  1  0.49561502  0.24445947  0.25497728  1
  Ag  Ag6  1  0.49889410  0.49572640  0.49326422  1
  Ag  Ag7  1  0.00090644  0.49489098  0.00553110  1
  Ag  Ag8  1  0.75052157  0.49757614  0.25148985  1
  Ag  Ag9  1  -0.00070370  0.75653007  0.25098963  1
  Ag  Ag10  1  0.24857551  0.00720500  0.25635933  1
  Ag  Ag11  1  0.75316573  0.00359543  0.74485100  1
  Ag  Ag12  1  0.24657355  0.00597575  0.74280081  1
  Ag  Ag13  1  0.00490185  0.24369412  0.25108089  1
  Ag  Ag14  1  0.49578918  0.00362807  0.49238548  1
  Ag  Ag15  1  0.00394914  0.00507107  0.49413471  1
  Sb  Sb16  1  0.75236826  0.49531661  0.74753918  1
  Sb  Sb17  1  0.24976504  0.75863743  0.49566926  1
  Sb  Sb18  1  0.24880413  0.49345162  0.74790659  1
  Sb  Sb19  1  0.00044429  0.75807745  0.74947445  1
  Sb  Sb20  1  0.49706503  0.24632002  0.74450839  1
  Sb  Sb21  1  0.00124330  0.00412671  0.00783868  1
  Sb  Sb22  1  0.74996690  0.24641637  0.49658823  1
  Sb  Sb23  1  0.49932831  0.49599365  0.00782879  1
  Sb  Sb24  1  0.49930430  0.75489182  0.74540908  1
  Sb  Sb25  1  0.49868463  0.00274910  0.01015262  1
  Sb  Sb26  1  0.24966022  0.49171362  0.25086151  1
  Sb  Sb27  1  0.75484601  0.24977606  0.00424837  1
  Sb  Sb28  1  0.24779513  0.75227262  0.00479166  1
  Sb  Sb29  1  0.75177698  0.75032892  0.00440801  1
  Sb  Sb30  1  0.75048719  0.75349033  0.49651097  1
  Sb  Sb31  1  0.00110084  0.49354594  0.49467251  1
  Te  Te32  1  0.24828275  0.24811554  0.25181055  1
  Te  Te33  1  0.24691623  0.24569346  0.74889909  1
  Te  Te34  1  0.24953447  0.75816459  0.24943052  1
  Te  Te35  1  0.24985645  0.75989302  0.75227232  1
  Te  Te36  1  0.75089217  0.24748442  0.24868161  1
  Te  Te37  1  0.75568915  0.24390450  0.75270351  1
  Te  Te38  1  0.75108361  0.75273197  0.24969767  1
  Te  Te39  1  0.75013145  0.75943687  0.75200263  1
  Te  Te40  1  0.25024300  0.00538829  0.00038221  1
  Te  Te41  1  0.24943173  0.00251493  0.49699607  1
  Te  Te42  1  0.24575981  0.49351393  -0.00141470  1
  Te  Te43  1  0.25443761  0.49179920  0.50174682  1
  Te  Te44  1  0.74951563  0.00028293  0.00037368  1
  Te  Te45  1  0.75052168  0.00073324  0.49643637  1
  Te  Te46  1  0.75408887  0.50017032  0.00471620  1
  Te  Te47  1  0.74489259  0.49989755  0.49493624  1
  Te  Te48  1  0.00376113  0.25241791  0.00268211  1
  Te  Te49  1  0.00407463  0.24729806  0.49765175  1
  Te  Te50  1  0.00115531  0.74090531  0.00645743  1
  Te  Te51  1  0.00088986  0.75517892  0.49387568  1
  Te  Te52  1  0.49129750  0.25103134  0.00643554  1
  Te  Te53  1  0.49616731  0.24656669  0.49694652  1
  Te  Te54  1  0.49917494  0.74782547  0.00916288  1
  Te  Te55  1  0.49901972  0.75170312  0.49407231  1
  Te  Te56  1  -0.00127863  0.00261205  0.25019220  1
  Te  Te57  1  0.00045192  0.00200750  0.74664970  1
  Te  Te58  1  -0.00253546  0.49800791  0.25047460  1
  Te  Te59  1  -0.00249186  0.49567585  0.75250405  1
  Te  Te60  1  0.50153496  0.00232019  0.25212497  1
  Te  Te61  1  0.50085073  -0.00090012  0.74194648  1
  Te  Te62  1  0.50258396  0.49890917  0.25346094  1
  Te  Te63  1  0.50220472  0.50166937  0.74190099  1
