# generated using pymatgen
data_AgSbTe2
_symmetry_space_group_name_H-M   'P 1'
_cell_length_a   12.24295361
_cell_length_b   12.23341776
_cell_length_c   12.24703134
_cell_angle_alpha   90.00687433
_cell_angle_beta   89.99803224
_cell_angle_gamma   90.00024810
_symmetry_Int_Tables_number   1
_chemical_formula_structural   AgSbTe2
_chemical_formula_sum   'Ag16 Sb16 Te32'
_cell_volume   1834.27664628
_cell_formula_units_Z   16
loop_
 _symmetry_equiv_pos_site_id
 _symmetry_equiv_pos_as_xyz
  1  'x, y, z'
loop_
 _atom_site_type_symbol
 _atom_site_label
 _atom_site_symmetry_multiplicity
 _atom_site_fract_x
 _atom_site_fract_y
 _atom_site_fract_z
 _atom_site_occupancy
  Ag  Ag0  1  0.75438663  0.74632206  -0.00364544  1
  Ag  Ag1  1  0.50639123  0.49280296  0.50253752  1
  Ag  Ag2  1  -0.00575415  0.48583355  0.50649776  1
  Ag  Ag3  1  -0.00218390  0.01658129  0.50291075  1
  Ag  Ag4  1  0.76266863  0.25699263  0.50164980  1
  Ag  Ag5  1  -0.00415640  0.74394714  0.74948064  1
  Ag  Ag6  1  0.24295674  0.49486427  0.74501540  1
  Ag  Ag7  1  -0.00613119  0.25634872  0.73598297  1
  Ag  Ag8  1  0.50943393  0.25414761  0.25789448  1
  Ag  Ag9  1  -0.00390912  0.00526011  -0.00395769  1
  Ag  Ag10  1  0.75223767  0.49240138  0.25530194  1
  Ag  Ag11  1  0.50715343  0.25568542  0.74241042  1
  Ag  Ag12  1  0.75530817  0.25315471  -0.00178108  1
  Ag  Ag13  1  0.23665847  0.25362888  0.50346377  1
  Ag  Ag14  1  0.75554170  0.49269953  0.74466325  1
  Ag  Ag15  1  -0.00796410  0.25277720  0.26446210  1
  Sb  Sb16  1  0.50686201  0.74039489  0.74953965  1
  Sb  Sb17  1  0.50471555  0.01470200  0.50124092  1
  Sb  Sb18  1  0.75294511  0.01196594  0.24973774  1
  Sb  Sb19  1  0.50640839  0.00619102  -0.00111277  1
  Sb  Sb20  1  -0.00560847  0.49404292  -0.00884711  1
  Sb  Sb21  1  0.24440119  0.00731586  0.74730933  1
  Sb  Sb22  1  0.24555312  0.74424344  0.50376327  1
  Sb  Sb23  1  0.75404947  0.73991746  0.50524530  1
  Sb  Sb24  1  0.24649748  0.00539491  0.25259400  1
  Sb  Sb25  1  0.24672152  0.49434298  0.25738038  1
  Sb  Sb26  1  0.75523051  0.01115846  0.74975560  1
  Sb  Sb27  1  0.50496574  0.49571730  -0.00277298  1
  Sb  Sb28  1  -0.00533353  0.74528966  0.24885923  1
  Sb  Sb29  1  0.50717730  0.74142743  0.25126427  1
  Sb  Sb30  1  0.24212273  0.74802076  -0.00560543  1
  Sb  Sb31  1  0.24275826  0.25144080  -0.00510100  1
  Te  Te32  1  0.24893067  0.25257506  0.25510955  1
  Te  Te33  1  0.24832128  0.25518317  0.74775107  1
  Te  Te34  1  0.25264053  0.74875423  0.24806191  1
  Te  Te35  1  0.24304028  0.73990824  0.75088016  1
  Te  Te36  1  0.75178915  0.25388531  0.24999310  1
  Te  Te37  1  0.75200511  0.25198002  0.74976051  1
  Te  Te38  1  0.74933654  0.73776641  0.24117635  1
  Te  Te39  1  0.75381591  0.74132034  0.75433915  1
  Te  Te40  1  0.23926856  -0.00100352  0.00014406  1
  Te  Te41  1  0.24223693  0.00754309  0.50018646  1
  Te  Te42  1  0.25224226  0.50065583  -0.01046333  1
  Te  Te43  1  0.24837882  0.49580139  0.50423955  1
  Te  Te44  1  0.75568397  0.00271475  0.00013115  1
  Te  Te45  1  0.75561421  0.00619110  0.49954230  1
  Te  Te46  1  0.75026719  0.49586134  -0.00062660  1
  Te  Te47  1  0.75168089  0.49812755  0.50176466  1
  Te  Te48  1  -0.00350520  0.24757915  -0.00061728  1
  Te  Te49  1  -0.00210772  0.25127877  0.50071905  1
  Te  Te50  1  -0.00502041  0.75668464  -0.00328865  1
  Te  Te51  1  -0.00041741  0.75048601  0.50538643  1
  Te  Te52  1  0.50687705  0.24813101  -0.00009432  1
  Te  Te53  1  0.50240693  0.25140902  0.50115361  1
  Te  Te54  1  0.50951225  0.75319029  -0.00035466  1
  Te  Te55  1  0.49913946  0.74156597  0.50042255  1
  Te  Te56  1  -0.00031834  0.00551933  0.25253238  1
  Te  Te57  1  -0.00029721  0.00103666  0.74823728  1
  Te  Te58  1  -0.00306523  0.49569058  0.25658968  1
  Te  Te59  1  -0.00371524  0.49722512  0.74932957  1
  Te  Te60  1  0.49848757  0.00979704  0.25020340  1
  Te  Te61  1  0.49724851  0.00866983  0.74952467  1
  Te  Te62  1  0.50360427  0.49395027  0.25566158  1
  Te  Te63  1  0.50381427  0.49550870  0.74646764  1
