# generated using pymatgen
data_AgSbTe2
_symmetry_space_group_name_H-M   'P 1'
_cell_length_a   12.24671381
_cell_length_b   12.23180366
_cell_length_c   12.25359903
_cell_angle_alpha   89.99506129
_cell_angle_beta   89.99210589
_cell_angle_gamma   89.99108067
_symmetry_Int_Tables_number   1
_chemical_formula_structural   AgSbTe2
_chemical_formula_sum   'Ag16 Sb16 Te32'
_cell_volume   1835.58171969
_cell_formula_units_Z   16
loop_
 _symmetry_equiv_pos_site_id
 _symmetry_equiv_pos_as_xyz
  1  'x, y, z'
loop_
 _atom_site_type_symbol
 _atom_site_label
 _atom_site_symmetry_multiplicity
 _atom_site_fract_x
 _atom_site_fract_y
 _atom_site_fract_z
 _atom_site_occupancy
  Ag  Ag0  1  -0.00079572  0.48469132  0.50118041  1
  Ag  Ag1  1  0.50167390  0.24867029  0.75349491  1
  Ag  Ag2  1  0.24614153  0.00837538  0.24929421  1
  Ag  Ag3  1  0.75642198  0.49295739  0.24697152  1
  Ag  Ag4  1  0.75860019  0.25001526  -0.00522430  1
  Ag  Ag5  1  0.24082918  0.25028056  -0.00554133  1
  Ag  Ag6  1  -0.00362586  0.48994396  -0.00088751  1
  Ag  Ag7  1  0.75232003  0.75031244  -0.00101174  1
  Ag  Ag8  1  0.76536596  0.24993505  0.50470217  1
  Ag  Ag9  1  -0.00054278  0.25193551  0.73714457  1
  Ag  Ag10  1  0.75231676  0.00912074  0.75339053  1
  Ag  Ag11  1  -0.00056036  0.01623782  0.50071086  1
  Ag  Ag12  1  -0.00142617  0.25146388  0.26397890  1
  Ag  Ag13  1  0.23432760  0.25006622  0.50471634  1
  Ag  Ag14  1  0.24423063  0.49027572  0.75040415  1
  Ag  Ag15  1  0.50300644  0.00697468  -0.00222575  1
  Sb  Sb16  1  0.50101559  0.49316018  0.50221553  1
  Sb  Sb17  1  0.24867246  0.00861517  0.74964805  1
  Sb  Sb18  1  0.50274482  0.75101149  0.75396590  1
  Sb  Sb19  1  0.50048518  0.00624588  0.50143502  1
  Sb  Sb20  1  0.75201349  0.00517907  0.24843682  1
  Sb  Sb21  1  0.50224794  0.49432397  -0.00232651  1
  Sb  Sb22  1  0.24626992  0.75049700  0.50061977  1
  Sb  Sb23  1  0.50243450  0.75186549  0.24620778  1
  Sb  Sb24  1  -0.00182989  0.74943296  0.75205992  1
  Sb  Sb25  1  -0.00158398  0.74949738  0.24793911  1
  Sb  Sb26  1  0.24723033  0.74985546  -0.00048461  1
  Sb  Sb27  1  -0.00098301  0.01094781  -0.00094952  1
  Sb  Sb28  1  0.24424420  0.49320072  0.25008545  1
  Sb  Sb29  1  0.50045358  0.24899554  0.24698664  1
  Sb  Sb30  1  0.75465339  0.49112719  0.75132414  1
  Sb  Sb31  1  0.75388224  0.74991961  0.50128565  1
  Te  Te32  1  0.24907984  0.24753261  0.24927704  1
  Te  Te33  1  0.24602251  0.25045215  0.75152174  1
  Te  Te34  1  0.25109037  0.76012530  0.24959008  1
  Te  Te35  1  0.25072485  0.73831423  0.75036145  1
  Te  Te36  1  0.75138479  0.25237403  0.24993540  1
  Te  Te37  1  0.75308627  0.24897579  0.75048719  1
  Te  Te38  1  0.75019897  0.74368516  0.24423236  1
  Te  Te39  1  0.74872833  0.76007483  0.75520676  1
  Te  Te40  1  0.25085710  0.00247967  0.00084916  1
  Te  Te41  1  0.24719400  0.00250912  0.49959187  1
  Te  Te42  1  0.24829458  0.49742275  0.00034181  1
  Te  Te43  1  0.24646110  0.49685427  0.49939600  1
  Te  Te44  1  0.75036274  0.00605337  0.00001979  1
  Te  Te45  1  0.75235405  0.00183926  0.50059827  1
  Te  Te46  1  0.75171625  0.49358603  -0.00087870  1
  Te  Te47  1  0.75362786  0.49761275  0.49958702  1
  Te  Te48  1  0.00036075  0.25121786  -0.00069848  1
  Te  Te49  1  -0.00043832  0.25001357  0.49963251  1
  Te  Te50  1  -0.00538772  0.73865019  0.00000549  1
  Te  Te51  1  0.00023057  0.74889039  0.49990479  1
  Te  Te52  1  0.50006534  0.24722350  -0.00353660  1
  Te  Te53  1  0.50036386  0.24988107  0.50722032  1
  Te  Te54  1  0.50581408  0.75771271  -0.00061032  1
  Te  Te55  1  0.49970454  0.75021518  0.49997940  1
  Te  Te56  1  0.00321782  0.00427225  0.25277912  1
  Te  Te57  1  -0.00320445  0.00292585  0.74690815  1
  Te  Te58  1  -0.00217467  0.49647789  0.24983230  1
  Te  Te59  1  0.00123415  0.49706180  0.74983596  1
  Te  Te60  1  0.49453416  0.00008194  0.24532706  1
  Te  Te61  1  0.50261794  0.00418328  0.75352862  1
  Te  Te62  1  0.50890622  0.50156764  0.25023487  1
  Te  Te63  1  0.49273809  0.49460244  0.74999252  1
