# generated using pymatgen
data_AgSbTe2
_symmetry_space_group_name_H-M   'P 1'
_cell_length_a   12.22926324
_cell_length_b   12.23448989
_cell_length_c   12.24341407
_cell_angle_alpha   90.00043476
_cell_angle_beta   89.99827019
_cell_angle_gamma   90.00029278
_symmetry_Int_Tables_number   1
_chemical_formula_structural   AgSbTe2
_chemical_formula_sum   'Ag16 Sb16 Te32'
_cell_volume   1831.84488973
_cell_formula_units_Z   16
loop_
 _symmetry_equiv_pos_site_id
 _symmetry_equiv_pos_as_xyz
  1  'x, y, z'
loop_
 _atom_site_type_symbol
 _atom_site_label
 _atom_site_symmetry_multiplicity
 _atom_site_fract_x
 _atom_site_fract_y
 _atom_site_fract_z
 _atom_site_occupancy
  Ag  Ag0  1  -0.00310193  -0.00718201  -0.00139545  1
  Ag  Ag1  1  -0.00150744  0.75096867  0.75039571  1
  Ag  Ag2  1  0.75583227  -0.00935355  0.75267296  1
  Ag  Ag3  1  0.75990532  0.74951244  0.50653503  1
  Ag  Ag4  1  0.00038682  0.74687206  0.24852216  1
  Ag  Ag5  1  0.75835463  -0.00400522  0.24571306  1
  Ag  Ag6  1  0.24122144  0.50572874  0.24935878  1
  Ag  Ag7  1  0.24233500  -0.00899989  0.75258358  1
  Ag  Ag8  1  0.75733342  0.24769410  -0.00000448  1
  Ag  Ag9  1  -0.00191888  0.25186918  0.24574294  1
  Ag  Ag10  1  0.24137043  0.75040142  -0.00442519  1
  Ag  Ag11  1  -0.00061068  0.50861932  0.49810419  1
  Ag  Ag12  1  0.23940750  0.74834292  0.50441167  1
  Ag  Ag13  1  0.75661412  0.51080164  0.75065327  1
  Ag  Ag14  1  0.50227403  0.75079669  0.75013233  1
  Ag  Ag15  1  -0.00063553  0.50807180  0.00278869  1
  Sb  Sb16  1  -0.00161646  0.24969020  0.75291492  1
  Sb  Sb17  1  0.50258831  0.25041895  0.24765378  1
  Sb  Sb18  1  0.50237731  0.25004918  0.75184532  1
  Sb  Sb19  1  0.50251335  0.50401738  -0.00219182  1
  Sb  Sb20  1  0.75500966  0.25049311  0.49975569  1
  Sb  Sb21  1  -0.00113988  -0.00867513  0.50304975  1
  Sb  Sb22  1  0.50056590  0.74996275  0.24906706  1
  Sb  Sb23  1  0.50122112  0.50478026  0.50190403  1
  Sb  Sb24  1  0.75835116  0.50455541  0.24900042  1
  Sb  Sb25  1  0.24130332  -0.00504375  0.24838552  1
  Sb  Sb26  1  0.24295913  0.50902133  0.75043364  1
  Sb  Sb27  1  0.24347551  0.25023246  0.00104256  1
  Sb  Sb28  1  0.50358727  -0.00382859  -0.00209540  1
  Sb  Sb29  1  0.50057987  -0.00386878  0.50134076  1
  Sb  Sb30  1  0.75981557  0.75140653  -0.00688955  1
  Sb  Sb31  1  0.24341387  0.25170361  0.49974152  1
  Te  Te32  1  0.24578425  0.25293164  0.25024779  1
  Te  Te33  1  0.25239427  0.23782819  0.74981159  1
  Te  Te34  1  0.24936158  0.74935160  0.25125721  1
  Te  Te35  1  0.24475712  0.75123473  0.74897572  1
  Te  Te36  1  0.75368103  0.24683316  0.24801209  1
  Te  Te37  1  0.74946550  0.24629175  0.75198602  1
  Te  Te38  1  0.75119868  0.75212218  0.25458727  1
  Te  Te39  1  0.75510993  0.75091391  0.75075129  1
  Te  Te40  1  0.24587618  -0.00133510  -0.00224142  1
  Te  Te41  1  0.25010920  -0.00548967  0.50361416  1
  Te  Te42  1  0.24514370  0.50075440  0.00007598  1
  Te  Te43  1  0.24570685  0.50369817  0.50014863  1
  Te  Te44  1  0.75376048  -0.00044173  -0.00188873  1
  Te  Te45  1  0.75041437  -0.00352807  0.50389508  1
  Te  Te46  1  0.75408727  0.49803474  -0.00179252  1
  Te  Te47  1  0.75329701  0.50355086  0.50220220  1
  Te  Te48  1  -0.00346479  0.24989022  0.00338652  1
  Te  Te49  1  0.00026262  0.26195349  0.49087896  1
  Te  Te50  1  0.00145189  0.74982046  0.00017858  1
  Te  Te51  1  -0.00049312  0.74847463  0.50090583  1
  Te  Te52  1  0.50984152  0.25086143  0.00014945  1
  Te  Te53  1  0.49913609  0.25075093  0.49935057  1
  Te  Te54  1  0.48597395  0.74955835  -0.00496781  1
  Te  Te55  1  0.50040320  0.74934049  0.50535015  1
  Te  Te56  1  -0.00312950  -0.00332583  0.24737881  1
  Te  Te57  1  -0.00204386  -0.00049105  0.75157016  1
  Te  Te58  1  0.00057633  0.50573908  0.24692757  1
  Te  Te59  1  -0.00307581  0.49980078  0.75175975  1
  Te  Te60  1  0.51114626  0.00085828  0.25003521  1
  Te  Te61  1  0.50386768  -0.00559200  0.75051495  1
  Te  Te62  1  0.48833759  0.49965352  0.24984227  1
  Te  Te63  1  0.50879694  0.50490325  0.75034923  1
