# generated using pymatgen
data_AgSbTe2
_symmetry_space_group_name_H-M   'P 1'
_cell_length_a   12.23964345
_cell_length_b   12.23412556
_cell_length_c   12.21576194
_cell_angle_alpha   90.00420710
_cell_angle_beta   90.00570771
_cell_angle_gamma   90.00116955
_symmetry_Int_Tables_number   1
_chemical_formula_structural   AgSbTe2
_chemical_formula_sum   'Ag16 Sb16 Te32'
_cell_volume   1829.20448443
_cell_formula_units_Z   16
loop_
 _symmetry_equiv_pos_site_id
 _symmetry_equiv_pos_as_xyz
  1  'x, y, z'
loop_
 _atom_site_type_symbol
 _atom_site_label
 _atom_site_symmetry_multiplicity
 _atom_site_fract_x
 _atom_site_fract_y
 _atom_site_fract_z
 _atom_site_occupancy
  Ag  Ag0  1  0.75406282  0.50509930  0.24520327  1
  Ag  Ag1  1  -0.00191172  0.74589786  0.75867414  1
  Ag  Ag2  1  0.49591928  0.24649075  0.25335059  1
  Ag  Ag3  1  0.75167667  0.50283510  0.75456356  1
  Ag  Ag4  1  0.50034908  0.75301526  0.24820924  1
  Ag  Ag5  1  0.49823827  0.00343582  0.49192629  1
  Ag  Ag6  1  0.25408506  0.24902558  0.49180429  1
  Ag  Ag7  1  0.24414694  0.74764095  0.00853032  1
  Ag  Ag8  1  0.49959327  0.25095022  0.74755970  1
  Ag  Ag9  1  0.00359803  0.25470554  0.24897516  1
  Ag  Ag10  1  0.74584683  -0.00471465  0.24895822  1
  Ag  Ag11  1  0.24601277  0.50122317  0.24762497  1
  Ag  Ag12  1  -0.00035388  0.74476160  0.24206703  1
  Ag  Ag13  1  0.25430659  -0.00044616  0.25083866  1
  Ag  Ag14  1  -0.00225061  0.50714245  0.00684157  1
  Ag  Ag15  1  0.75622090  0.74531016  0.00733042  1
  Sb  Sb16  1  0.00033426  0.25486834  0.75039384  1
  Sb  Sb17  1  0.00133055  0.00048869  0.49415373  1
  Sb  Sb18  1  0.74775382  -0.00240862  0.75235012  1
  Sb  Sb19  1  0.49916924  0.49692087  0.49572123  1
  Sb  Sb20  1  0.25210546  -0.00093716  0.75001180  1
  Sb  Sb21  1  0.24863566  0.50106241  0.75315922  1
  Sb  Sb22  1  0.00051880  0.49985721  0.49083558  1
  Sb  Sb23  1  0.75085776  0.25465522  0.00422637  1
  Sb  Sb24  1  0.50011676  -0.00100598  0.00906630  1
  Sb  Sb25  1  0.50230413  0.50111928  0.00418878  1
  Sb  Sb26  1  0.74620454  0.24922352  0.49607542  1
  Sb  Sb27  1  0.50186483  0.74946393  0.75095174  1
  Sb  Sb28  1  0.00008632  -0.00794096  0.00506235  1
  Sb  Sb29  1  0.24847422  0.25178436  0.00873990  1
  Sb  Sb30  1  0.25038164  0.75056883  0.49013982  1
  Sb  Sb31  1  0.74985072  0.75035503  0.49040829  1
  Te  Te32  1  0.25137928  0.24993961  0.24994310  1
  Te  Te33  1  0.25390154  0.24951150  0.74504809  1
  Te  Te34  1  0.24946270  0.74885926  0.24878524  1
  Te  Te35  1  0.24725356  0.74966062  0.75701702  1
  Te  Te36  1  0.74943066  0.25123518  0.24918706  1
  Te  Te37  1  0.74705227  0.25378990  0.75069819  1
  Te  Te38  1  0.75062303  0.74786971  0.24824203  1
  Te  Te39  1  0.75129543  0.74654590  0.75617736  1
  Te  Te40  1  0.24995287  -0.00618521  0.00589571  1
  Te  Te41  1  0.25393344  0.00330959  0.49503889  1
  Te  Te42  1  0.24498439  0.50423847  0.00478902  1
  Te  Te43  1  0.25024554  0.49501042  0.49367675  1
  Te  Te44  1  0.75018782  -0.00818202  0.00603552  1
  Te  Te45  1  0.74422027  0.00035876  0.49296487  1
  Te  Te46  1  0.75283550  0.50344413  0.00418727  1
  Te  Te47  1  0.75002078  0.49998878  0.49997792  1
  Te  Te48  1  0.00087398  0.25793643  0.00455321  1
  Te  Te49  1  0.00738107  0.24939944  0.49523978  1
  Te  Te50  1  -0.00046859  0.74780100  0.00384107  1
  Te  Te51  1  0.00083380  0.75033697  0.50136639  1
  Te  Te52  1  0.49939610  0.24952674  -0.00005164  1
  Te  Te53  1  0.49704650  0.24764021  0.49457222  1
  Te  Te54  1  0.49936472  0.75028792  0.00429274  1
  Te  Te55  1  0.49902912  0.75653803  0.49542332  1
  Te  Te56  1  -0.00027759  0.00018465  0.25046655  1
  Te  Te57  1  -0.00129997  -0.00558906  0.74830913  1
  Te  Te58  1  -0.00132572  0.50149053  0.24809884  1
  Te  Te59  1  -0.00326148  0.50264530  0.75560788  1
  Te  Te60  1  0.49975082  0.00098652  0.25152897  1
  Te  Te61  1  0.50082309  0.00541205  0.74180743  1
  Te  Te62  1  0.50121623  0.49988344  0.25024056  1
  Te  Te63  1  0.50460984  0.49567733  0.74909758  1
