# generated using pymatgen
data_AgSbTe2
_symmetry_space_group_name_H-M   'P 1'
_cell_length_a   12.27148360
_cell_length_b   12.29040523
_cell_length_c   12.26361162
_cell_angle_alpha   90.00174485
_cell_angle_beta   89.99837401
_cell_angle_gamma   90.01097337
_symmetry_Int_Tables_number   1
_chemical_formula_structural   AgSbTe2
_chemical_formula_sum   'Ag16 Sb16 Te32'
_cell_volume   1849.61634021
_cell_formula_units_Z   16
loop_
 _symmetry_equiv_pos_site_id
 _symmetry_equiv_pos_as_xyz
  1  'x, y, z'
loop_
 _atom_site_type_symbol
 _atom_site_label
 _atom_site_symmetry_multiplicity
 _atom_site_fract_x
 _atom_site_fract_y
 _atom_site_fract_z
 _atom_site_occupancy
  Ag  Ag0  1  0.00751549  0.00407714  0.50449812  1
  Ag  Ag1  1  0.74534873  0.74986964  0.50751075  1
  Ag  Ag2  1  0.49158253  -0.00000968  0.51084749  1
  Ag  Ag3  1  0.00752908  0.49570697  0.50383960  1
  Ag  Ag4  1  0.49430881  0.74324245  0.74965707  1
  Ag  Ag5  1  0.00649918  0.24821835  0.25443621  1
  Ag  Ag6  1  0.00857245  0.00064650  -0.00509019  1
  Ag  Ag7  1  0.25513341  0.74982438  -0.01188224  1
  Ag  Ag8  1  0.25096353  0.24950963  -0.01353177  1
  Ag  Ag9  1  0.49091427  0.50452306  -0.01527311  1
  Ag  Ag10  1  0.48895306  0.25698620  0.74546481  1
  Ag  Ag11  1  0.74538632  0.75021402  -0.00682769  1
  Ag  Ag12  1  0.25997943  0.49361469  0.74874056  1
  Ag  Ag13  1  0.25085906  0.24962325  0.51145435  1
  Ag  Ag14  1  0.25311240  0.00623988  0.74821845  1
  Ag  Ag15  1  0.49262784  0.49994594  0.51442703  1
  Sb  Sb16  1  0.49883403  0.74965402  0.25071815  1
  Sb  Sb17  1  0.00853903  0.49916332  -0.00621684  1
  Sb  Sb18  1  0.00099258  0.75010845  0.25260684  1
  Sb  Sb19  1  0.49019651  -0.00307693  -0.01182919  1
  Sb  Sb20  1  0.00692702  0.75000590  0.74949718  1
  Sb  Sb21  1  0.25506666  0.75046556  0.51022896  1
  Sb  Sb22  1  0.75051937  -0.00048401  0.24954407  1
  Sb  Sb23  1  0.24996490  -0.00081030  0.25397521  1
  Sb  Sb24  1  0.74876669  0.25027765  0.50229192  1
  Sb  Sb25  1  0.73969729  0.50275616  0.75026050  1
  Sb  Sb26  1  0.75050557  0.50039500  0.25011178  1
  Sb  Sb27  1  0.49444472  0.25067384  0.25190162  1
  Sb  Sb28  1  0.74725471  -0.00169921  0.74986935  1
  Sb  Sb29  1  0.24916341  0.50074424  0.25526577  1
  Sb  Sb30  1  0.74973069  0.24948643  -0.00363564  1
  Sb  Sb31  1  0.01151342  0.24894449  0.74657363  1
  Te  Te32  1  0.24525488  0.24991862  0.25077201  1
  Te  Te33  1  0.25645605  0.24920266  0.74837743  1
  Te  Te34  1  0.25013966  0.74995594  0.22552243  1
  Te  Te35  1  0.25555142  0.75120389  0.75494568  1
  Te  Te36  1  0.76390146  0.24993306  0.24938557  1
  Te  Te37  1  0.72718400  0.24910781  0.75103016  1
  Te  Te38  1  0.74974161  0.74988678  0.24671617  1
  Te  Te39  1  0.73775385  0.75034925  0.75040274  1
  Te  Te40  1  0.24859629  0.00411681  -0.00424773  1
  Te  Te41  1  0.24709069  -0.00289650  0.50287361  1
  Te  Te42  1  0.25078173  0.49664100  -0.00507587  1
  Te  Te43  1  0.25303972  0.50304970  0.50308757  1
  Te  Te44  1  0.75970582  -0.00655581  -0.00155520  1
  Te  Te45  1  0.75531069  -0.00539606  0.50182676  1
  Te  Te46  1  0.74475751  0.50779601  -0.00211145  1
  Te  Te47  1  0.74844516  0.50559558  0.50215073  1
  Te  Te48  1  0.00168089  0.24938132  -0.00234523  1
  Te  Te49  1  0.00048156  0.24643352  0.50338263  1
  Te  Te50  1  -0.00175591  0.75084598  -0.00001146  1
  Te  Te51  1  -0.00394507  0.75368486  0.50049009  1
  Te  Te52  1  0.49753540  0.24936900  0.00258059  1
  Te  Te53  1  0.49991456  0.25338461  0.49899164  1
  Te  Te54  1  0.49929397  0.75149488  0.00051910  1
  Te  Te55  1  0.49930194  0.74673607  0.49996801  1
  Te  Te56  1  0.00115164  0.00341598  0.25504527  1
  Te  Te57  1  0.00924282  -0.00032396  0.74695428  1
  Te  Te58  1  0.00129218  0.49474939  0.26269043  1
  Te  Te59  1  0.01299086  0.49974568  0.74211979  1
  Te  Te60  1  0.49957096  0.00189719  0.27129164  1
  Te  Te61  1  0.49356458  -0.00272395  0.74487537  1
  Te  Te62  1  0.49986948  0.49863938  0.25361624  1
  Te  Te63  1  0.49469743  0.50252430  0.74807827  1
