# generated using pymatgen
data_AgSbTe2
_symmetry_space_group_name_H-M   'P 1'
_cell_length_a   12.21361519
_cell_length_b   12.21185415
_cell_length_c   12.20901633
_cell_angle_alpha   90.00137461
_cell_angle_beta   90.00442273
_cell_angle_gamma   89.99856790
_symmetry_Int_Tables_number   1
_chemical_formula_structural   AgSbTe2
_chemical_formula_sum   'Ag16 Sb16 Te32'
_cell_volume   1820.98561237
_cell_formula_units_Z   16
loop_
 _symmetry_equiv_pos_site_id
 _symmetry_equiv_pos_as_xyz
  1  'x, y, z'
loop_
 _atom_site_type_symbol
 _atom_site_label
 _atom_site_symmetry_multiplicity
 _atom_site_fract_x
 _atom_site_fract_y
 _atom_site_fract_z
 _atom_site_occupancy
  Ag  Ag0  1  0.50141660  0.25605187  0.24326638  1
  Ag  Ag1  1  0.50144031  0.74424934  0.24949050  1
  Ag  Ag2  1  0.74824075  0.49960991  0.24781155  1
  Ag  Ag3  1  0.75630872  0.74688907  0.49920716  1
  Ag  Ag4  1  -0.00003729  -0.00444518  0.50346725  1
  Ag  Ag5  1  0.00014715  0.49454938  -0.00608639  1
  Ag  Ag6  1  0.75105502  0.25474481  -0.00047289  1
  Ag  Ag7  1  0.49832139  0.25521814  0.75674541  1
  Ag  Ag8  1  0.50065964  0.49354453  0.00136701  1
  Ag  Ag9  1  0.24323634  0.74699125  0.50167353  1
  Ag  Ag10  1  0.24872025  0.25438144  -0.00357240  1
  Ag  Ag11  1  0.00121127  0.74463318  0.74530213  1
  Ag  Ag12  1  0.00004167  0.50420178  0.50585713  1
  Ag  Ag13  1  -0.00001232  0.00492648  -0.00348761  1
  Ag  Ag14  1  0.24431213  0.49748844  0.75200646  1
  Ag  Ag15  1  0.00197830  0.25568075  0.75589175  1
  Sb  Sb16  1  0.75350392  0.25309795  0.49910403  1
  Sb  Sb17  1  0.24661813  0.25322647  0.50288359  1
  Sb  Sb18  1  0.25240251  0.49943080  0.24771096  1
  Sb  Sb19  1  0.49992675  0.00775173  -0.00014110  1
  Sb  Sb20  1  0.24730880  0.74546006  -0.00151481  1
  Sb  Sb21  1  -0.00098871  0.74707500  0.25659655  1
  Sb  Sb22  1  0.75429527  0.00065379  0.75051621  1
  Sb  Sb23  1  0.24939725  0.00029887  0.24982458  1
  Sb  Sb24  1  0.75071483  0.00065743  0.24943432  1
  Sb  Sb25  1  0.75261104  0.74471789  0.00212754  1
  Sb  Sb26  1  0.50081794  0.50068987  0.49888845  1
  Sb  Sb27  1  0.24574954  0.00269594  0.75033415  1
  Sb  Sb28  1  0.49861322  0.74231473  0.75052995  1
  Sb  Sb29  1  -0.00119799  0.25288423  0.24155019  1
  Sb  Sb30  1  0.75775755  0.49909366  0.75241482  1
  Sb  Sb31  1  0.49997673  -0.00095527  0.50067003  1
  Te  Te32  1  0.25766823  0.25069889  0.24492965  1
  Te  Te33  1  0.24810133  0.25448703  0.75247486  1
  Te  Te34  1  0.25691614  0.74955247  0.25543388  1
  Te  Te35  1  0.24679609  0.74444144  0.74663262  1
  Te  Te36  1  0.74476237  0.25473987  0.24717370  1
  Te  Te37  1  0.75035233  0.25045814  0.75387333  1
  Te  Te38  1  0.74506318  0.74530514  0.25289765  1
  Te  Te39  1  0.75409304  0.75010677  0.74396417  1
  Te  Te40  1  0.24302806  0.00672927  0.00009058  1
  Te  Te41  1  0.24261721  -0.00663940  0.49988630  1
  Te  Te42  1  0.24854798  0.49680343  -0.00222247  1
  Te  Te43  1  0.24521983  0.50336553  0.50360870  1
  Te  Te44  1  0.75690859  0.00711386  0.00061797  1
  Te  Te45  1  0.75725216  -0.00644589  0.49924611  1
  Te  Te46  1  0.75024569  0.49680839  0.00345561  1
  Te  Te47  1  0.75407658  0.50357299  0.49443061  1
  Te  Te48  1  -0.00013242  0.25263487  -0.00100359  1
  Te  Te49  1  0.00007163  0.25067572  0.50602472  1
  Te  Te50  1  0.00004022  0.74894078  -0.00488680  1
  Te  Te51  1  0.00023109  0.74860659  0.50047523  1
  Te  Te52  1  0.50051529  0.25114149  -0.00052139  1
  Te  Te53  1  0.49998202  0.24851587  0.50052652  1
  Te  Te54  1  0.50011899  0.74567736  0.00382976  1
  Te  Te55  1  0.50053453  0.75095486  0.49762271  1
  Te  Te56  1  -0.00056649  0.00014971  0.25000437  1
  Te  Te57  1  0.00071603  0.00050564  0.75018361  1
  Te  Te58  1  -0.00414549  0.49979027  0.24909031  1
  Te  Te59  1  0.00033978  0.49899653  0.75121386  1
  Te  Te60  1  0.50034190  0.00021153  0.24962212  1
  Te  Te61  1  0.49925585  0.00913157  0.75033689  1
  Te  Te62  1  0.50180635  0.49871873  0.24805310  1
  Te  Te63  1  0.49469516  0.49644220  0.75353885  1
