# generated using pymatgen
data_AgSbTe2
_symmetry_space_group_name_H-M   'P 1'
_cell_length_a   12.22824477
_cell_length_b   12.21865950
_cell_length_c   12.22319187
_cell_angle_alpha   89.99308590
_cell_angle_beta   90.00038410
_cell_angle_gamma   90.00061247
_symmetry_Int_Tables_number   1
_chemical_formula_structural   AgSbTe2
_chemical_formula_sum   'Ag16 Sb16 Te32'
_cell_volume   1826.30081025
_cell_formula_units_Z   16
loop_
 _symmetry_equiv_pos_site_id
 _symmetry_equiv_pos_as_xyz
  1  'x, y, z'
loop_
 _atom_site_type_symbol
 _atom_site_label
 _atom_site_symmetry_multiplicity
 _atom_site_fract_x
 _atom_site_fract_y
 _atom_site_fract_z
 _atom_site_occupancy
  Ag  Ag0  1  0.75821768  0.49173954  0.24749981  1
  Ag  Ag1  1  0.24153126  0.49583293  0.24943116  1
  Ag  Ag2  1  0.75860187  0.50099942  0.75198487  1
  Ag  Ag3  1  0.24139889  0.50244066  0.74965257  1
  Ag  Ag4  1  0.75403971  0.00831844  0.24979830  1
  Ag  Ag5  1  0.50101245  0.74723000  0.74822180  1
  Ag  Ag6  1  0.50499298  0.25249941  0.24757214  1
  Ag  Ag7  1  -0.00040011  0.74339380  0.74615978  1
  Ag  Ag8  1  0.00148409  0.50134740  0.50079908  1
  Ag  Ag9  1  -0.00432505  0.25666190  0.24712658  1
  Ag  Ag10  1  0.24506747  0.25603241  0.00308700  1
  Ag  Ag11  1  0.24495472  0.74541305  0.50318244  1
  Ag  Ag12  1  -0.00199191  -0.00083596  0.50036801  1
  Ag  Ag13  1  -0.00076770  0.49604383  0.00035006  1
  Ag  Ag14  1  0.75378074  0.25417093  0.00578037  1
  Ag  Ag15  1  0.75431438  -0.00040039  0.74976377  1
  Sb  Sb16  1  0.75492337  0.74868442  0.50296475  1
  Sb  Sb17  1  0.50285518  -0.00175760  0.50040392  1
  Sb  Sb18  1  0.75331526  0.74471732  -0.00223461  1
  Sb  Sb19  1  0.24547679  0.25546146  0.49812228  1
  Sb  Sb20  1  0.49991184  0.74866518  0.25174599  1
  Sb  Sb21  1  0.24515219  0.00459863  0.25203366  1
  Sb  Sb22  1  -0.00281396  0.00373430  -0.00024025  1
  Sb  Sb23  1  0.24624873  0.74245626  -0.00220284  1
  Sb  Sb24  1  -0.00155467  0.25668467  0.75347235  1
  Sb  Sb25  1  0.75347490  0.25136241  0.49334913  1
  Sb  Sb26  1  0.24460695  -0.00164990  0.74842169  1
  Sb  Sb27  1  0.50268303  0.25114048  0.75175842  1
  Sb  Sb28  1  0.50147693  0.49824989  0.00009652  1
  Sb  Sb29  1  0.00026533  0.74387384  0.25364847  1
  Sb  Sb30  1  0.49900022  0.50136684  0.50050802  1
  Sb  Sb31  1  0.50208719  0.00179971  -0.00005586  1
  Te  Te32  1  0.24723893  0.25347799  0.24790728  1
  Te  Te33  1  0.25205540  0.25493296  0.75486114  1
  Te  Te34  1  0.25227022  0.74415555  0.25256448  1
  Te  Te35  1  0.24730532  0.74720553  0.74919409  1
  Te  Te36  1  0.75259837  0.25218219  0.24905443  1
  Te  Te37  1  0.74800995  0.25138576  0.75572622  1
  Te  Te38  1  0.74786666  0.74959946  0.24952195  1
  Te  Te39  1  0.75161568  0.74773341  0.75012932  1
  Te  Te40  1  0.24995502  0.01026794  0.00061064  1
  Te  Te41  1  0.24244307  -0.00610405  0.50020195  1
  Te  Te42  1  0.24681601  0.49644810  0.00060105  1
  Te  Te43  1  0.24651349  0.50219676  0.50123756  1
  Te  Te44  1  0.75146374  0.00656651  0.00036765  1
  Te  Te45  1  0.75554099  -0.00064995  0.50113155  1
  Te  Te46  1  0.75290298  0.49653314  0.00005092  1
  Te  Te47  1  0.75550447  0.50054405  0.50128158  1
  Te  Te48  1  -0.00122191  0.25438543  0.00259005  1
  Te  Te49  1  0.00087988  0.25069926  0.49403787  1
  Te  Te50  1  0.00036658  0.74249591  -0.00786278  1
  Te  Te51  1  0.00337975  0.74743566  0.50304139  1
  Te  Te52  1  0.50150376  0.25000856  0.00550293  1
  Te  Te53  1  0.49790241  0.24913752  0.49114275  1
  Te  Te54  1  0.49854452  0.75064760  -0.00872664  1
  Te  Te55  1  0.49109163  0.75057829  0.50580322  1
  Te  Te56  1  -0.00417392  0.00153816  0.25172626  1
  Te  Te57  1  -0.00428088  -0.00313658  0.74747302  1
  Te  Te58  1  -0.00093839  0.50088876  0.25061515  1
  Te  Te59  1  -0.00124274  0.49879415  0.74796749  1
  Te  Te60  1  0.50728085  0.00328124  0.25067961  1
  Te  Te61  1  0.50783292  -0.00352772  0.74913294  1
  Te  Te62  1  0.50193236  0.49701541  0.25078619  1
  Te  Te63  1  0.50202214  0.50300770  0.74907937  1
