# generated using pymatgen
data_AgSbTe2
_symmetry_space_group_name_H-M   'P 1'
_cell_length_a   12.26619870
_cell_length_b   12.24585131
_cell_length_c   12.27518079
_cell_angle_alpha   90.00346873
_cell_angle_beta   89.99983663
_cell_angle_gamma   90.00191995
_symmetry_Int_Tables_number   1
_chemical_formula_structural   AgSbTe2
_chemical_formula_sum   'Ag16 Sb16 Te32'
_cell_volume   1843.85545823
_cell_formula_units_Z   16
loop_
 _symmetry_equiv_pos_site_id
 _symmetry_equiv_pos_as_xyz
  1  'x, y, z'
loop_
 _atom_site_type_symbol
 _atom_site_label
 _atom_site_symmetry_multiplicity
 _atom_site_fract_x
 _atom_site_fract_y
 _atom_site_fract_z
 _atom_site_occupancy
  Ag  Ag0  1  0.49645369  0.00593113  0.00062470  1
  Ag  Ag1  1  0.73888171  0.24901115  0.00320049  1
  Ag  Ag2  1  0.25055084  0.50035575  0.75085769  1
  Ag  Ag3  1  0.24732283  0.49381459  0.24956137  1
  Ag  Ag4  1  0.26047255  0.25505978  0.00733722  1
  Ag  Ag5  1  0.01106479  0.74217844  0.75230403  1
  Ag  Ag6  1  0.01176691  0.74154104  0.24818470  1
  Ag  Ag7  1  0.00742238  0.49588567  0.49595684  1
  Ag  Ag8  1  0.49328858  0.25247205  0.75870102  1
  Ag  Ag9  1  0.48990417  0.74624319  0.75837852  1
  Ag  Ag10  1  0.74893301  0.25476267  0.49630521  1
  Ag  Ag11  1  0.25032209  0.25918279  0.49202226  1
  Ag  Ag12  1  0.01109086  0.25873569  0.25222664  1
  Ag  Ag13  1  0.25610006  0.74558719  0.00203279  1
  Ag  Ag14  1  0.48929263  0.25330295  0.24113000  1
  Ag  Ag15  1  0.48805067  0.74613833  0.24134998  1
  Sb  Sb16  1  0.24877092  0.74079880  0.49710616  1
  Sb  Sb17  1  0.01115151  0.26056467  0.74867061  1
  Sb  Sb18  1  0.49218434  0.49500685  0.49849855  1
  Sb  Sb19  1  0.75405404  0.49541222  0.25118335  1
  Sb  Sb20  1  0.74887167  0.49709922  0.74862343  1
  Sb  Sb21  1  0.00363616  0.00149035  -0.00043218  1
  Sb  Sb22  1  0.74073352  0.74945097  0.00143885  1
  Sb  Sb23  1  0.49947327  0.00345344  0.49865971  1
  Sb  Sb24  1  0.25117355  -0.00260447  0.75096693  1
  Sb  Sb25  1  0.25129000  0.00690520  0.24880102  1
  Sb  Sb26  1  0.00407558  0.50110350  0.00602980  1
  Sb  Sb27  1  0.49669530  0.49093040  0.00169913  1
  Sb  Sb28  1  0.75102516  0.74329843  0.49831867  1
  Sb  Sb29  1  0.74872384  0.00431699  0.24786813  1
  Sb  Sb30  1  0.74964792  0.00296415  0.75196056  1
  Sb  Sb31  1  0.00094195  0.00453779  0.50026818  1
  Te  Te32  1  0.25197786  0.25193995  0.24527430  1
  Te  Te33  1  0.25152023  0.25575287  0.75509326  1
  Te  Te34  1  0.25114735  0.74548459  0.25210459  1
  Te  Te35  1  0.25433548  0.74564862  0.74838612  1
  Te  Te36  1  0.74757421  0.25344098  0.24944090  1
  Te  Te37  1  0.74110705  0.25341049  0.75135179  1
  Te  Te38  1  0.74947632  0.74707500  0.24884112  1
  Te  Te39  1  0.74496161  0.74714650  0.75130530  1
  Te  Te40  1  0.25740436  -0.00074582  -0.00126351  1
  Te  Te41  1  0.25001183  0.02183452  0.50258173  1
  Te  Te42  1  0.24877187  0.50062080  0.00060000  1
  Te  Te43  1  0.24496208  0.49233339  0.49830636  1
  Te  Te44  1  0.73865523  0.01288661  -0.00028768  1
  Te  Te45  1  0.75021962  0.01832395  0.50097995  1
  Te  Te46  1  0.75335237  0.48613924  -0.00028434  1
  Te  Te47  1  0.76410468  0.48939569  0.50006494  1
  Te  Te48  1  0.00396987  0.24658569  0.00473735  1
  Te  Te49  1  0.00236829  0.25158193  0.49736575  1
  Te  Te50  1  0.00329661  0.75199117  0.00398085  1
  Te  Te51  1  -0.00184010  0.74661749  0.49517895  1
  Te  Te52  1  0.49492649  0.25153540  0.00160589  1
  Te  Te53  1  0.49920684  0.24976442  0.49854860  1
  Te  Te54  1  0.50020304  0.75312646  0.00086513  1
  Te  Te55  1  0.50245387  0.75266231  0.49970059  1
  Te  Te56  1  -0.00154802  -0.00504454  0.24968567  1
  Te  Te57  1  -0.00106287  -0.01972598  0.75024735  1
  Te  Te58  1  0.00551828  0.49965790  0.25213087  1
  Te  Te59  1  0.00854114  0.50543666  0.74336573  1
  Te  Te60  1  0.50036828  -0.00182630  0.24370497  1
  Te  Te61  1  0.49937607  -0.00118759  0.75692793  1
  Te  Te62  1  0.48996718  0.50110167  0.25299683  1
  Te  Te63  1  0.49130637  0.50210501  0.74662839  1
