# generated using pymatgen
data_AgSbTe2
_symmetry_space_group_name_H-M   'P 1'
_cell_length_a   12.27432975
_cell_length_b   12.23907469
_cell_length_c   12.26276224
_cell_angle_alpha   90.01055551
_cell_angle_beta   90.00106102
_cell_angle_gamma   89.99750114
_symmetry_Int_Tables_number   1
_chemical_formula_structural   AgSbTe2
_chemical_formula_sum   'Ag16 Sb16 Te32'
_cell_volume   1842.19106486
_cell_formula_units_Z   16
loop_
 _symmetry_equiv_pos_site_id
 _symmetry_equiv_pos_as_xyz
  1  'x, y, z'
loop_
 _atom_site_type_symbol
 _atom_site_label
 _atom_site_symmetry_multiplicity
 _atom_site_fract_x
 _atom_site_fract_y
 _atom_site_fract_z
 _atom_site_occupancy
  Ag  Ag0  1  0.74481466  0.75828883  0.00867109  1
  Ag  Ag1  1  0.74497370  -0.00397607  0.74809810  1
  Ag  Ag2  1  0.26443222  -0.00081232  0.24912466  1
  Ag  Ag3  1  0.74592598  0.23817712  0.49266344  1
  Ag  Ag4  1  0.50735582  -0.00023783  0.48415085  1
  Ag  Ag5  1  -0.00596102  -0.00428914  0.00906414  1
  Ag  Ag6  1  0.50746288  0.76581849  0.24622353  1
  Ag  Ag7  1  -0.00728366  0.76297088  0.24646541  1
  Ag  Ag8  1  0.50537620  -0.00695901  0.01602511  1
  Ag  Ag9  1  0.25532503  0.75747232  0.00623439  1
  Ag  Ag10  1  0.50240806  0.23315845  0.25444594  1
  Ag  Ag11  1  0.74478739  0.76154481  0.49196873  1
  Ag  Ag12  1  -0.00263382  0.23699705  0.25132009  1
  Ag  Ag13  1  0.50429124  0.75818740  0.75364063  1
  Ag  Ag14  1  0.73638859  -0.00548152  0.25135458  1
  Ag  Ag15  1  0.25435473  0.24206715  0.49285550  1
  Sb  Sb16  1  -0.00093501  0.50012021  0.49697282  1
  Sb  Sb17  1  0.50354666  0.23805669  0.74571133  1
  Sb  Sb18  1  0.25123198  0.50103012  0.25001141  1
  Sb  Sb19  1  0.74933837  0.23499868  0.01167581  1
  Sb  Sb20  1  -0.00555269  0.75792129  0.75286619  1
  Sb  Sb21  1  -0.00134635  0.50571615  0.00436565  1
  Sb  Sb22  1  0.25557193  -0.00190454  0.75086450  1
  Sb  Sb23  1  0.50079817  0.51037241  0.00299272  1
  Sb  Sb24  1  -0.00318100  0.24028699  0.74746336  1
  Sb  Sb25  1  0.25286904  0.50239013  0.74941246  1
  Sb  Sb26  1  -0.01163743  -0.00009357  0.48551424  1
  Sb  Sb27  1  0.25204974  0.23864074  0.00945993  1
  Sb  Sb28  1  0.50083703  0.50077055  0.49805069  1
  Sb  Sb29  1  0.74751270  0.50555325  0.74874221  1
  Sb  Sb30  1  0.25590930  0.76110442  0.49203082  1
  Sb  Sb31  1  0.74911676  0.50668614  0.25009055  1
  Te  Te32  1  0.25073242  0.24687868  0.25239081  1
  Te  Te33  1  0.24984299  0.25108691  0.73951408  1
  Te  Te34  1  0.25010565  0.75326192  0.24851657  1
  Te  Te35  1  0.25616277  0.75045237  0.75554033  1
  Te  Te36  1  0.74924941  0.24806012  0.25289928  1
  Te  Te37  1  0.74966434  0.24447040  0.73843653  1
  Te  Te38  1  0.74921887  0.75061128  0.25124279  1
  Te  Te39  1  0.74713363  0.75412262  0.74737951  1
  Te  Te40  1  0.25233197  -0.00415406  0.00194432  1
  Te  Te41  1  0.25882081  0.00301951  0.49791372  1
  Te  Te42  1  0.24936180  0.51368219  -0.00156159  1
  Te  Te43  1  0.24934488  0.48537318  0.50076609  1
  Te  Te44  1  0.74728401  -0.00203354  0.00423693  1
  Te  Te45  1  0.74858303  -0.00201739  0.49613976  1
  Te  Te46  1  0.75075293  0.51572500  -0.00239587  1
  Te  Te47  1  0.75043649  0.49961430  0.50150523  1
  Te  Te48  1  0.00074204  0.24542982  0.00749776  1
  Te  Te49  1  -0.00295163  0.25004103  0.49369995  1
  Te  Te50  1  -0.00182779  0.75321410  0.00383602  1
  Te  Te51  1  -0.00530814  0.74942886  0.49372870  1
  Te  Te52  1  0.49886346  0.24410148  0.00501018  1
  Te  Te53  1  0.50342372  0.24815444  0.49741902  1
  Te  Te54  1  0.50224229  0.75267642  0.00487019  1
  Te  Te55  1  0.50193953  0.75185715  0.49523814  1
  Te  Te56  1  -0.00048539  -0.00111921  0.24846999  1
  Te  Te57  1  -0.00908333  -0.00018756  0.76600960  1
  Te  Te58  1  0.00033604  0.49826774  0.24943598  1
  Te  Te59  1  0.00071733  0.49875285  0.75059516  1
  Te  Te60  1  0.50001380  -0.00030506  0.25049370  1
  Te  Te61  1  0.50514854  -0.00467540  0.75055031  1
  Te  Te62  1  0.49920219  0.49745154  0.24917404  1
  Te  Te63  1  0.49985409  0.51418205  0.75097189  1
