# generated using pymatgen
data_AgSbTe2
_symmetry_space_group_name_H-M   'P 1'
_cell_length_a   12.28858762
_cell_length_b   12.29203777
_cell_length_c   12.29370940
_cell_angle_alpha   90.00765920
_cell_angle_beta   89.99498093
_cell_angle_gamma   89.99814088
_symmetry_Int_Tables_number   1
_chemical_formula_structural   AgSbTe2
_chemical_formula_sum   'Ag16 Sb16 Te32'
_cell_volume   1856.98670129
_cell_formula_units_Z   16
loop_
 _symmetry_equiv_pos_site_id
 _symmetry_equiv_pos_as_xyz
  1  'x, y, z'
loop_
 _atom_site_type_symbol
 _atom_site_label
 _atom_site_symmetry_multiplicity
 _atom_site_fract_x
 _atom_site_fract_y
 _atom_site_fract_z
 _atom_site_occupancy
  Ag  Ag0  1  0.00511107  0.49648731  0.49904631  1
  Ag  Ag1  1  0.73249131  0.00468411  0.75375572  1
  Ag  Ag2  1  0.48916237  0.49813487  -0.00330957  1
  Ag  Ag3  1  0.25814167  0.49598281  0.24141992  1
  Ag  Ag4  1  0.26288118  0.00277811  0.76435991  1
  Ag  Ag5  1  0.49615541  0.24305610  0.75638582  1
  Ag  Ag6  1  0.25557371  0.75596430  0.00293219  1
  Ag  Ag7  1  0.48963613  0.24519667  0.24263704  1
  Ag  Ag8  1  0.26176634  0.00295237  0.23632864  1
  Ag  Ag9  1  0.49133264  0.75709161  0.24241747  1
  Ag  Ag10  1  0.01610657  0.00176112  0.00133959  1
  Ag  Ag11  1  0.73769227  0.49619233  0.75205602  1
  Ag  Ag12  1  0.48816545  0.00148833  -0.00175524  1
  Ag  Ag13  1  0.25993904  0.49734799  0.75970881  1
  Ag  Ag14  1  0.01489357  0.24826386  0.24723439  1
  Ag  Ag15  1  0.49458445  0.00254525  0.50279388  1
  Sb  Sb16  1  0.49791137  0.75465364  0.75485664  1
  Sb  Sb17  1  0.74028078  0.00170511  0.24443368  1
  Sb  Sb18  1  0.00209047  0.75083652  0.75198101  1
  Sb  Sb19  1  0.74938721  0.24982549  0.50159130  1
  Sb  Sb20  1  0.74725385  0.25051902  -0.00134566  1
  Sb  Sb21  1  0.00597658  0.24859296  0.75445427  1
  Sb  Sb22  1  0.25308825  0.24342691  0.00130697  1
  Sb  Sb23  1  0.24978935  0.24988597  0.49867303  1
  Sb  Sb24  1  0.49998072  0.49817427  0.50171956  1
  Sb  Sb25  1  0.74368045  0.75025673  0.00005928  1
  Sb  Sb26  1  0.00928142  0.75122059  0.24650771  1
  Sb  Sb27  1  0.00122070  0.00145639  0.49826715  1
  Sb  Sb28  1  0.74633606  0.75075355  0.50099584  1
  Sb  Sb29  1  0.74387804  0.49810698  0.24592148  1
  Sb  Sb30  1  0.25267802  0.75076510  0.49734954  1
  Sb  Sb31  1  0.01114300  0.49661470  0.00125468  1
  Te  Te32  1  0.25396094  0.25088883  0.24999831  1
  Te  Te33  1  0.25609112  0.25089457  0.74938792  1
  Te  Te34  1  0.25430291  0.75071137  0.24748608  1
  Te  Te35  1  0.25006986  0.74880382  0.75646204  1
  Te  Te36  1  0.74517040  0.25010904  0.25001030  1
  Te  Te37  1  0.74193955  0.25004571  0.75120199  1
  Te  Te38  1  0.73666585  0.74923556  0.25064146  1
  Te  Te39  1  0.75117178  0.74763609  0.74994295  1
  Te  Te40  1  0.25283723  -0.00035539  0.00081275  1
  Te  Te41  1  0.25273956  -0.00094832  0.50202549  1
  Te  Te42  1  0.25444646  0.50370912  0.00013426  1
  Te  Te43  1  0.24759646  0.50138744  0.50165793  1
  Te  Te44  1  0.74675572  -0.00155426  -0.00493569  1
  Te  Te45  1  0.74913547  -0.00097204  0.51150695  1
  Te  Te46  1  0.74165526  0.50234100  -0.00598435  1
  Te  Te47  1  0.75269792  0.50068687  0.50975988  1
  Te  Te48  1  -0.00331487  0.24236872  0.00735591  1
  Te  Te49  1  0.00026953  0.25535585  0.48923469  1
  Te  Te50  1  0.00930807  0.76128473  0.00016648  1
  Te  Te51  1  -0.00124056  0.74038831  0.49891079  1
  Te  Te52  1  0.49932999  0.25203661  -0.00077471  1
  Te  Te53  1  0.49947406  0.24351569  0.50054615  1
  Te  Te54  1  0.49590834  0.74901400  0.00290431  1
  Te  Te55  1  0.49891750  0.75946085  0.48580305  1
  Te  Te56  1  0.00209316  0.00200776  0.25268091  1
  Te  Te57  1  0.00744949  0.00315138  0.74886859  1
  Te  Te58  1  0.00134954  0.49846157  0.24618301  1
  Te  Te59  1  0.00663209  0.49638761  0.75236611  1
  Te  Te60  1  0.49928823  0.00848818  0.24304538  1
  Te  Te61  1  0.49590449  -0.00104955  0.75575747  1
  Te  Te62  1  0.49892063  0.48879242  0.25511964  1
  Te  Te63  1  0.49486433  0.50099541  0.74634657  1
