# generated using pymatgen
data_AgSbTe2
_symmetry_space_group_name_H-M   'P 1'
_cell_length_a   12.21733091
_cell_length_b   12.21441650
_cell_length_c   12.22214526
_cell_angle_alpha   89.99731660
_cell_angle_beta   89.99363373
_cell_angle_gamma   89.99185303
_symmetry_Int_Tables_number   1
_chemical_formula_structural   AgSbTe2
_chemical_formula_sum   'Ag16 Sb16 Te32'
_cell_volume   1823.88098484
_cell_formula_units_Z   16
loop_
 _symmetry_equiv_pos_site_id
 _symmetry_equiv_pos_as_xyz
  1  'x, y, z'
loop_
 _atom_site_type_symbol
 _atom_site_label
 _atom_site_symmetry_multiplicity
 _atom_site_fract_x
 _atom_site_fract_y
 _atom_site_fract_z
 _atom_site_occupancy
  Ag  Ag0  1  0.75177175  0.25118848  0.49642817  1
  Ag  Ag1  1  0.25246745  0.50127467  0.25355037  1
  Ag  Ag2  1  -0.00270994  -0.00046105  0.49681863  1
  Ag  Ag3  1  0.74798653  0.50366626  0.74941055  1
  Ag  Ag4  1  0.75134969  -0.00353228  0.75021882  1
  Ag  Ag5  1  0.24856178  0.74671808  0.49941386  1
  Ag  Ag6  1  0.24776010  -0.00077760  0.25204658  1
  Ag  Ag7  1  0.74758203  0.49841177  0.25119076  1
  Ag  Ag8  1  0.25194515  0.50381948  0.74663410  1
  Ag  Ag9  1  0.74857345  0.74956311  -0.00184307  1
  Ag  Ag10  1  0.50501079  -0.00317043  0.00214078  1
  Ag  Ag11  1  0.50365757  0.50233798  0.00112123  1
  Ag  Ag12  1  -0.00369281  0.24863024  0.25379700  1
  Ag  Ag13  1  -0.00343971  0.74937755  0.74779947  1
  Ag  Ag14  1  0.50109656  0.50096865  0.49893288  1
  Ag  Ag15  1  0.75218314  0.00178103  0.25042741  1
  Sb  Sb16  1  0.50190870  0.74774076  0.25021095  1
  Sb  Sb17  1  -0.00359958  0.24980655  0.74594186  1
  Sb  Sb18  1  0.50401340  0.74760929  0.75050577  1
  Sb  Sb19  1  -0.00096878  0.75170682  0.25304870  1
  Sb  Sb20  1  0.74933269  0.25096481  0.00345279  1
  Sb  Sb21  1  0.50407463  0.25202371  0.25119239  1
  Sb  Sb22  1  -0.00452458  0.50233024  0.00039044  1
  Sb  Sb23  1  0.24958825  -0.00462305  0.74876746  1
  Sb  Sb24  1  0.25058970  0.25093176  0.00170031  1
  Sb  Sb25  1  0.75183794  0.74876080  0.50185183  1
  Sb  Sb26  1  0.50260628  0.25206611  0.74872083  1
  Sb  Sb27  1  0.50259342  -0.00129391  0.49840506  1
  Sb  Sb28  1  -0.00455706  -0.00259956  0.00260556  1
  Sb  Sb29  1  0.25095344  0.74827426  0.00022813  1
  Sb  Sb30  1  0.24858707  0.25281814  0.49686376  1
  Sb  Sb31  1  -0.00065959  0.50087881  0.49915918  1
  Te  Te32  1  0.24298675  0.25085473  0.25149238  1
  Te  Te33  1  0.24702330  0.25946219  0.74975007  1
  Te  Te34  1  0.24730495  0.74798898  0.25277839  1
  Te  Te35  1  0.24373413  0.74604185  0.74754518  1
  Te  Te36  1  0.75362688  0.25038950  0.25386251  1
  Te  Te37  1  0.75222604  0.25133236  0.74363888  1
  Te  Te38  1  0.75245808  0.74923275  0.24669082  1
  Te  Te39  1  0.75364958  0.74851292  0.75086477  1
  Te  Te40  1  0.25698230  -0.00086791  0.00503331  1
  Te  Te41  1  0.25066733  -0.00185043  0.49654139  1
  Te  Te42  1  0.25776408  0.50147991  0.00224576  1
  Te  Te43  1  0.25098909  0.50116216  0.49768927  1
  Te  Te44  1  0.74682624  -0.00128915  0.00115376  1
  Te  Te45  1  0.74869609  -0.00137129  0.49801707  1
  Te  Te46  1  0.74579449  0.50111612  0.00024701  1
  Te  Te47  1  0.74889434  0.50147637  0.49900561  1
  Te  Te48  1  0.00044827  0.24970809  0.01000648  1
  Te  Te49  1  -0.00575116  0.24307388  0.49536751  1
  Te  Te50  1  -0.00742068  0.75014463  -0.00866915  1
  Te  Te51  1  0.00387650  0.75560871  0.50435592  1
  Te  Te52  1  0.49982476  0.25129480  -0.00068203  1
  Te  Te53  1  0.50799367  0.25724686  0.50047115  1
  Te  Te54  1  0.50637758  0.74904211  0.00008600  1
  Te  Te55  1  0.49163205  0.74330201  0.49994909  1
  Te  Te56  1  -0.00166249  0.00050210  0.25245797  1
  Te  Te57  1  -0.00334311  -0.00131636  0.74710026  1
  Te  Te58  1  -0.00035197  0.49780047  0.25037251  1
  Te  Te59  1  -0.00213420  0.50177516  0.75005381  1
  Te  Te60  1  0.50128790  0.00126601  0.24685462  1
  Te  Te61  1  0.50481037  0.00074628  0.75435330  1
  Te  Te62  1  0.50064439  0.49898048  0.24910228  1
  Te  Te63  1  0.50226499  0.49996221  0.75113152  1
