# generated using pymatgen
data_AgSbTe2
_symmetry_space_group_name_H-M   'P 1'
_cell_length_a   12.24410366
_cell_length_b   12.23292200
_cell_length_c   12.23978955
_cell_angle_alpha   90.00681832
_cell_angle_beta   89.99687092
_cell_angle_gamma   90.00637614
_symmetry_Int_Tables_number   1
_chemical_formula_structural   AgSbTe2
_chemical_formula_sum   'Ag16 Sb16 Te32'
_cell_volume   1833.28991017
_cell_formula_units_Z   16
loop_
 _symmetry_equiv_pos_site_id
 _symmetry_equiv_pos_as_xyz
  1  'x, y, z'
loop_
 _atom_site_type_symbol
 _atom_site_label
 _atom_site_symmetry_multiplicity
 _atom_site_fract_x
 _atom_site_fract_y
 _atom_site_fract_z
 _atom_site_occupancy
  Ag  Ag0  1  0.74465533  0.50977077  0.75491485  1
  Ag  Ag1  1  0.50256803  0.50732332  -0.00538702  1
  Ag  Ag2  1  0.50425659  -0.00641069  -0.01337952  1
  Ag  Ag3  1  -0.00462877  -0.00655137  -0.00385910  1
  Ag  Ag4  1  -0.00383316  0.75440674  0.24387516  1
  Ag  Ag5  1  0.50348182  0.75610744  0.24296187  1
  Ag  Ag6  1  0.50009924  -0.00532198  0.51501120  1
  Ag  Ag7  1  0.26450438  -0.00418053  0.75389965  1
  Ag  Ag8  1  0.50000484  0.23481784  0.75486342  1
  Ag  Ag9  1  0.73595117  -0.00790830  0.75771859  1
  Ag  Ag10  1  0.25412726  0.75433160  0.50420270  1
  Ag  Ag11  1  0.74446817  0.75674868  -0.00567098  1
  Ag  Ag12  1  0.74611020  -0.00700870  0.24145447  1
  Ag  Ag13  1  0.25498504  0.24399491  -0.00411434  1
  Ag  Ag14  1  -0.00522371  0.75583046  0.75561721  1
  Ag  Ag15  1  0.50514380  0.76335310  0.75658667  1
  Sb  Sb16  1  0.25346265  -0.00401313  0.24543676  1
  Sb  Sb17  1  0.25701710  0.75631037  -0.00549327  1
  Sb  Sb18  1  0.25536541  0.24199868  0.50644835  1
  Sb  Sb19  1  -0.00307749  0.50981399  -0.00345407  1
  Sb  Sb20  1  -0.00058863  0.50715389  0.50302727  1
  Sb  Sb21  1  -0.00099880  0.24112478  0.24367209  1
  Sb  Sb22  1  0.50027546  0.24121583  0.24316491  1
  Sb  Sb23  1  0.74596737  0.51196200  0.24244709  1
  Sb  Sb24  1  0.25582978  0.50571710  0.75341056  1
  Sb  Sb25  1  0.74628879  0.24544502  0.50335336  1
  Sb  Sb26  1  0.00048515  -0.00469971  0.50335785  1
  Sb  Sb27  1  0.74456706  0.24035456  -0.00281468  1
  Sb  Sb28  1  0.00031002  0.24192597  0.75441456  1
  Sb  Sb29  1  0.50010526  0.50773763  0.50671192  1
  Sb  Sb30  1  0.25228237  0.50575264  0.24532604  1
  Sb  Sb31  1  0.74519151  0.75311982  0.50753411  1
  Te  Te32  1  0.24950497  0.25106049  0.24343080  1
  Te  Te33  1  0.25331983  0.24491804  0.75334295  1
  Te  Te34  1  0.25106955  0.75094765  0.25656878  1
  Te  Te35  1  0.25090139  0.75319330  0.74889867  1
  Te  Te36  1  0.75050667  0.24003053  0.25091715  1
  Te  Te37  1  0.74542117  0.24747699  0.75096669  1
  Te  Te38  1  0.74825749  0.75407336  0.24646666  1
  Te  Te39  1  0.74830210  0.75351429  0.75084811  1
  Te  Te40  1  0.25173920  0.00080068  -0.00336318  1
  Te  Te41  1  0.25414802  -0.00405555  0.50583563  1
  Te  Te42  1  0.25729701  0.49063885  -0.00108983  1
  Te  Te43  1  0.25026624  0.50774793  0.49994525  1
  Te  Te44  1  0.74832646  -0.00270365  -0.00220677  1
  Te  Te45  1  0.74469393  -0.00046284  0.50130055  1
  Te  Te46  1  0.74588072  0.50650664  -0.00498099  1
  Te  Te47  1  0.74945920  0.49764464  0.51066644  1
  Te  Te48  1  0.00826738  0.24163885  0.00043519  1
  Te  Te49  1  0.00250307  0.25164317  0.49802180  1
  Te  Te50  1  -0.00219328  0.75365804  -0.00167230  1
  Te  Te51  1  0.00797749  0.75118810  0.50071637  1
  Te  Te52  1  0.49758130  0.24743945  -0.00321340  1
  Te  Te53  1  0.49848014  0.24273764  0.50701334  1
  Te  Te54  1  0.49949732  0.75281337  -0.00146915  1
  Te  Te55  1  0.49696871  0.75368864  0.50051696  1
  Te  Te56  1  -0.00460043  -0.00603203  0.24632417  1
  Te  Te57  1  -0.00154205  -0.00430326  0.75311974  1
  Te  Te58  1  -0.00134468  0.51087363  0.25038390  1
  Te  Te59  1  -0.00803426  0.50833695  0.75108799  1
  Te  Te60  1  0.50289368  -0.00385856  0.24743155  1
  Te  Te61  1  0.50025436  -0.00161844  0.75155662  1
  Te  Te62  1  0.50201525  0.50755072  0.24334014  1
  Te  Te63  1  0.50302874  0.50268969  0.75362248  1
