# generated using pymatgen
data_AgSbTe2
_symmetry_space_group_name_H-M   'P 1'
_cell_length_a   12.21038927
_cell_length_b   12.21110771
_cell_length_c   12.21011456
_cell_angle_alpha   90.01053975
_cell_angle_beta   90.00227008
_cell_angle_gamma   90.00097230
_symmetry_Int_Tables_number   1
_chemical_formula_structural   AgSbTe2
_chemical_formula_sum   'Ag16 Sb16 Te32'
_cell_volume   1820.55709073
_cell_formula_units_Z   16
loop_
 _symmetry_equiv_pos_site_id
 _symmetry_equiv_pos_as_xyz
  1  'x, y, z'
loop_
 _atom_site_type_symbol
 _atom_site_label
 _atom_site_symmetry_multiplicity
 _atom_site_fract_x
 _atom_site_fract_y
 _atom_site_fract_z
 _atom_site_occupancy
  Ag  Ag0  1  0.50255780  0.24873664  0.25518546  1
  Ag  Ag1  1  -0.00324031  -0.00244876  0.00678317  1
  Ag  Ag2  1  0.75083060  0.24913206  0.49791817  1
  Ag  Ag3  1  -0.00369117  0.00114241  0.49421144  1
  Ag  Ag4  1  -0.00750598  0.75630384  0.24928403  1
  Ag  Ag5  1  0.50460901  0.50155352  0.49892834  1
  Ag  Ag6  1  0.75420019  -0.00568210  0.25306005  1
  Ag  Ag7  1  0.74810625  0.75076329  0.49490119  1
  Ag  Ag8  1  0.50801780  0.75195619  0.25368696  1
  Ag  Ag9  1  0.24615159  0.00019264  0.25251299  1
  Ag  Ag10  1  0.75036511  0.50220772  0.74741194  1
  Ag  Ag11  1  -0.00476170  0.50178530  0.00082748  1
  Ag  Ag12  1  0.24901214  0.24786984  0.49725089  1
  Ag  Ag13  1  -0.00282441  0.24988235  0.74677798  1
  Ag  Ag14  1  0.50611898  0.74820046  0.74622184  1
  Ag  Ag15  1  0.75312670  0.75032537  0.00497467  1
  Sb  Sb16  1  0.24882933  0.49845469  0.25224840  1
  Sb  Sb17  1  0.24873045  0.49898387  0.74763296  1
  Sb  Sb18  1  -0.00512575  0.49974977  0.49946534  1
  Sb  Sb19  1  0.50379578  0.25228757  0.74304613  1
  Sb  Sb20  1  -0.00630181  0.74923522  0.75032672  1
  Sb  Sb21  1  0.25137045  0.75277781  0.49717072  1
  Sb  Sb22  1  0.24732314  0.24713850  0.00384084  1
  Sb  Sb23  1  0.24722249  0.00155598  0.74637542  1
  Sb  Sb24  1  -0.00294179  0.24226456  0.25470277  1
  Sb  Sb25  1  0.75281017  0.24975891  0.00294840  1
  Sb  Sb26  1  0.24586412  0.75201603  0.00203657  1
  Sb  Sb27  1  0.50460114  -0.00172251  0.00431477  1
  Sb  Sb28  1  0.75048720  0.50643479  0.25296962  1
  Sb  Sb29  1  0.75214885  -0.00169863  0.74683217  1
  Sb  Sb30  1  0.50500763  0.50285686  0.00046151  1
  Sb  Sb31  1  0.50420881  -0.00152333  0.49562321  1
  Te  Te32  1  0.25431689  0.24530247  0.25470167  1
  Te  Te33  1  0.24592329  0.24934595  0.74312401  1
  Te  Te34  1  0.25131552  0.75614951  0.25076857  1
  Te  Te35  1  0.26080709  0.75024170  0.75009933  1
  Te  Te36  1  0.74674017  0.24564700  0.25414050  1
  Te  Te37  1  0.75208761  0.25277178  0.74549696  1
  Te  Te38  1  0.74955950  0.75029504  0.25176490  1
  Te  Te39  1  0.74703748  0.74810386  0.74818376  1
  Te  Te40  1  0.24093556  0.00044246  0.00698175  1
  Te  Te41  1  0.24371201  0.00413068  0.49552895  1
  Te  Te42  1  0.24039535  0.49938976  -0.00018248  1
  Te  Te43  1  0.25719899  0.49278599  0.50005619  1
  Te  Te44  1  0.75529296  -0.00392339  0.00454298  1
  Te  Te45  1  0.75352574  -0.00060895  0.49706948  1
  Te  Te46  1  0.75452465  0.50357515  -0.00547229  1
  Te  Te47  1  0.74716343  0.50053771  0.50280782  1
  Te  Te48  1  -0.00072652  0.24924528  -0.00472002  1
  Te  Te49  1  -0.00282806  0.24895170  0.50107461  1
  Te  Te50  1  -0.00406604  0.75211372  0.00090847  1
  Te  Te51  1  -0.00312577  0.75155004  0.49828568  1
  Te  Te52  1  0.49964500  0.25088212  0.00737119  1
  Te  Te53  1  0.50280714  0.25107141  0.49768247  1
  Te  Te54  1  0.50633089  0.74854905  0.00355261  1
  Te  Te55  1  0.50243366  0.74921565  0.49629431  1
  Te  Te56  1  -0.00222773  -0.00063864  0.25096096  1
  Te  Te57  1  0.00003425  0.00353502  0.74911158  1
  Te  Te58  1  0.00090407  0.50728438  0.24559545  1
  Te  Te59  1  -0.00360181  0.49771748  0.75199014  1
  Te  Te60  1  0.50116706  -0.00232297  0.24990197  1
  Te  Te61  1  0.49922536  -0.00658620  0.75214687  1
  Te  Te62  1  0.49984298  0.50132379  0.25294984  1
  Te  Te63  1  0.50454646  0.50343059  0.74734961  1
