# generated using pymatgen
data_AgSbTe2
_symmetry_space_group_name_H-M   'P 1'
_cell_length_a   12.21254810
_cell_length_b   12.20991139
_cell_length_c   12.20930123
_cell_angle_alpha   89.99370257
_cell_angle_beta   89.99808812
_cell_angle_gamma   90.00093151
_symmetry_Int_Tables_number   1
_chemical_formula_structural   AgSbTe2
_chemical_formula_sum   'Ag16 Sb16 Te32'
_cell_volume   1820.57931940
_cell_formula_units_Z   16
loop_
 _symmetry_equiv_pos_site_id
 _symmetry_equiv_pos_as_xyz
  1  'x, y, z'
loop_
 _atom_site_type_symbol
 _atom_site_label
 _atom_site_symmetry_multiplicity
 _atom_site_fract_x
 _atom_site_fract_y
 _atom_site_fract_z
 _atom_site_occupancy
  Ag  Ag0  1  0.75014583  0.50734097  0.25568587  1
  Ag  Ag1  1  0.50284537  0.25394998  0.74768867  1
  Ag  Ag2  1  0.24921408  0.24916164  0.00071563  1
  Ag  Ag3  1  -0.00172984  0.50359821  0.00055242  1
  Ag  Ag4  1  0.74772735  0.50446549  0.74457789  1
  Ag  Ag5  1  0.74586831  0.74496516  0.49625622  1
  Ag  Ag6  1  0.25326902  0.74895214  0.49738382  1
  Ag  Ag7  1  0.50444900  0.74580752  0.74291260  1
  Ag  Ag8  1  0.50544269  0.74884575  0.25716703  1
  Ag  Ag9  1  -0.00550682  0.75137222  0.25015755  1
  Ag  Ag10  1  -0.00399319  0.74774758  0.74986100  1
  Ag  Ag11  1  0.74708767  0.25536812  0.50027084  1
  Ag  Ag12  1  0.75214859  -0.00841515  0.25153864  1
  Ag  Ag13  1  0.00030500  -0.00332762  0.00397667  1
  Ag  Ag14  1  0.24787085  -0.00447257  0.24876224  1
  Ag  Ag15  1  0.50647060  0.50607616  0.50168349  1
  Sb  Sb16  1  0.74936488  0.25070050  -0.00154019  1
  Sb  Sb17  1  -0.00286753  0.25307813  0.75154779  1
  Sb  Sb18  1  0.24618063  0.75130494  0.00326152  1
  Sb  Sb19  1  0.25483518  0.25068466  0.49947836  1
  Sb  Sb20  1  0.50013103  -0.00027315  0.00253284  1
  Sb  Sb21  1  0.24876015  0.50532304  0.25055361  1
  Sb  Sb22  1  0.50208148  0.25245713  0.25301679  1
  Sb  Sb23  1  0.75152419  -0.00604878  0.74865508  1
  Sb  Sb24  1  -0.00888953  0.50472249  0.49912990  1
  Sb  Sb25  1  0.75280807  0.74929587  0.00598405  1
  Sb  Sb26  1  -0.00115381  0.24900768  0.24862996  1
  Sb  Sb27  1  -0.00143804  -0.00514911  0.49475170  1
  Sb  Sb28  1  0.50188954  0.50085946  -0.00125626  1
  Sb  Sb29  1  0.50106253  -0.00884655  0.49878979  1
  Sb  Sb30  1  0.24837364  -0.00247496  0.75106371  1
  Sb  Sb31  1  0.25137841  0.50218051  0.74981813  1
  Te  Te32  1  0.25109791  0.24276522  0.24772216  1
  Te  Te33  1  0.25527474  0.24938383  0.75173269  1
  Te  Te34  1  0.24951452  0.75315812  0.25339311  1
  Te  Te35  1  0.25029372  0.75085089  0.74369015  1
  Te  Te36  1  0.74828878  0.25126583  0.25533749  1
  Te  Te37  1  0.74603265  0.25287852  0.74618666  1
  Te  Te38  1  0.75038740  0.74942611  0.25082474  1
  Te  Te39  1  0.74925453  0.74878760  0.74579608  1
  Te  Te40  1  0.24496836  0.00344037  0.00521122  1
  Te  Te41  1  0.24896826  -0.00375166  0.49280781  1
  Te  Te42  1  0.24296549  0.49413595  0.00112051  1
  Te  Te43  1  0.25834124  0.50374530  0.49878369  1
  Te  Te44  1  0.75667063  0.00259465  0.00762007  1
  Te  Te45  1  0.75091735  -0.00088749  0.49410317  1
  Te  Te46  1  0.75505678  0.49798232  0.00022405  1
  Te  Te47  1  0.74840448  0.50271976  0.49966989  1
  Te  Te48  1  0.00468897  0.25036052  -0.00149833  1
  Te  Te49  1  -0.00564184  0.25055763  0.50201653  1
  Te  Te50  1  0.00232847  0.74948436  0.00007092  1
  Te  Te51  1  -0.00039256  0.74892177  0.49976887  1
  Te  Te52  1  0.49456021  0.25057060  -0.00636355  1
  Te  Te53  1  0.50254628  0.25691656  0.50423902  1
  Te  Te54  1  0.49732286  0.74921582  -0.00204956  1
  Te  Te55  1  0.50230010  0.74795893  0.50021065  1
  Te  Te56  1  -0.00149602  -0.00368956  0.24620008  1
  Te  Te57  1  -0.00069671  -0.00674508  0.75874056  1
  Te  Te58  1  -0.00383811  0.50488334  0.24642452  1
  Te  Te59  1  -0.00483397  0.50486355  0.75384276  1
  Te  Te60  1  0.50176978  -0.00559180  0.24835368  1
  Te  Te61  1  0.50081374  -0.00226986  0.75128082  1
  Te  Te62  1  0.50451783  0.50422451  0.25167941  1
  Te  Te63  1  0.50395883  0.50358589  0.74925276  1
