# generated using pymatgen
data_AgSbTe2
_symmetry_space_group_name_H-M   'P 1'
_cell_length_a   12.21725367
_cell_length_b   12.22795954
_cell_length_c   12.22884186
_cell_angle_alpha   90.00581185
_cell_angle_beta   90.00051501
_cell_angle_gamma   90.00048868
_symmetry_Int_Tables_number   1
_chemical_formula_structural   AgSbTe2
_chemical_formula_sum   'Ag16 Sb16 Te32'
_cell_volume   1826.89215582
_cell_formula_units_Z   16
loop_
 _symmetry_equiv_pos_site_id
 _symmetry_equiv_pos_as_xyz
  1  'x, y, z'
loop_
 _atom_site_type_symbol
 _atom_site_label
 _atom_site_symmetry_multiplicity
 _atom_site_fract_x
 _atom_site_fract_y
 _atom_site_fract_z
 _atom_site_occupancy
  Ag  Ag0  1  0.50113844  0.49443786  0.00411309  1
  Ag  Ag1  1  0.50346540  0.49538048  0.49545398  1
  Ag  Ag2  1  -0.00456548  0.74960062  0.74239955  1
  Ag  Ag3  1  0.75605443  0.74936624  0.49998458  1
  Ag  Ag4  1  0.75258989  -0.00056059  0.74492223  1
  Ag  Ag5  1  0.50331573  0.00401396  0.50001611  1
  Ag  Ag6  1  0.25256988  0.25194505  0.00018902  1
  Ag  Ag7  1  0.00036923  0.25083515  0.74579823  1
  Ag  Ag8  1  0.24983156  0.25072685  0.49988916  1
  Ag  Ag9  1  -0.00393783  0.50271119  0.49924048  1
  Ag  Ag10  1  -0.00150816  0.49827600  0.00071678  1
  Ag  Ag11  1  0.75072025  0.50061041  0.25378414  1
  Ag  Ag12  1  -0.00455303  0.74535217  0.25706826  1
  Ag  Ag13  1  -0.00380158  -0.00231907  0.50376409  1
  Ag  Ag14  1  0.49952356  0.25342358  0.25145779  1
  Ag  Ag15  1  0.50090217  0.00544920  0.00068242  1
  Sb  Sb16  1  0.50434489  0.75131223  0.74724649  1
  Sb  Sb17  1  0.24723742  0.00243140  0.74877878  1
  Sb  Sb18  1  0.49996267  0.24898943  0.74909368  1
  Sb  Sb19  1  0.24903882  0.74876551  -0.00014810  1
  Sb  Sb20  1  0.25003672  0.49800803  0.25047849  1
  Sb  Sb21  1  0.25060719  0.00210609  0.25065968  1
  Sb  Sb22  1  0.24675822  0.49747609  0.74964387  1
  Sb  Sb23  1  0.75187703  0.74862709  -0.00004181  1
  Sb  Sb24  1  0.74749533  0.25111919  -0.00019663  1
  Sb  Sb25  1  0.24453100  0.74933354  0.50007143  1
  Sb  Sb26  1  -0.00029951  0.25375601  0.25310844  1
  Sb  Sb27  1  0.75407233  0.50032169  0.74629551  1
  Sb  Sb28  1  -0.00059322  0.00263462  -0.00288540  1
  Sb  Sb29  1  0.50395201  0.74676825  0.25293641  1
  Sb  Sb30  1  0.74989727  0.25053635  0.50019381  1
  Sb  Sb31  1  0.74998032  -0.00042038  0.25431000  1
  Te  Te32  1  0.25707430  0.24972383  0.25031129  1
  Te  Te33  1  0.24247665  0.24988611  0.74920630  1
  Te  Te34  1  0.23829372  0.75090330  0.24982899  1
  Te  Te35  1  0.23802705  0.75058148  0.75011398  1
  Te  Te36  1  0.74232481  0.25668946  0.24937317  1
  Te  Te37  1  0.75910747  0.24330219  0.75064986  1
  Te  Te38  1  0.75494617  0.74468442  0.25525927  1
  Te  Te39  1  0.75506582  0.75470108  0.74452191  1
  Te  Te40  1  0.25745424  0.00619749  -0.00010792  1
  Te  Te41  1  0.25222749  0.00545394  0.50014564  1
  Te  Te42  1  0.25206140  0.49499182  -0.00051772  1
  Te  Te43  1  0.25169184  0.49466587  0.50043470  1
  Te  Te44  1  0.74406105  -0.00088064  -0.00403687  1
  Te  Te45  1  0.74996979  -0.00265805  0.50149261  1
  Te  Te46  1  0.74915289  0.50107483  0.00389166  1
  Te  Te47  1  0.75018669  0.50266422  0.49810636  1
  Te  Te48  1  0.00417809  0.25333302  0.00023927  1
  Te  Te49  1  0.00282324  0.25096258  0.49911110  1
  Te  Te50  1  0.00095220  0.74519142  -0.00068828  1
  Te  Te51  1  0.00020158  0.74845650  0.50118988  1
  Te  Te52  1  0.49733288  0.25267933  -0.00189616  1
  Te  Te53  1  0.49759159  0.25114850  0.50130811  1
  Te  Te54  1  0.49873540  0.74791130  -0.00014329  1
  Te  Te55  1  0.50240258  0.74987731  0.49998856  1
  Te  Te56  1  -0.00230390  -0.00354120  0.25407033  1
  Te  Te57  1  -0.00352326  0.00067732  0.74843671  1
  Te  Te58  1  -0.00349759  0.50003835  0.25115387  1
  Te  Te59  1  -0.00183523  0.49883896  0.74929175  1
  Te  Te60  1  0.50134313  0.00225912  0.25207058  1
  Te  Te61  1  0.50563698  -0.00083981  0.74668823  1
  Te  Te62  1  0.50296222  0.49880151  0.25114472  1
  Te  Te63  1  0.50186576  0.50121021  0.75033684  1
