# generated using pymatgen
data_AgSbTe2
_symmetry_space_group_name_H-M   'P 1'
_cell_length_a   12.22641685
_cell_length_b   12.24278244
_cell_length_c   12.23492478
_cell_angle_alpha   90.00743337
_cell_angle_beta   89.99561071
_cell_angle_gamma   89.99888331
_symmetry_Int_Tables_number   1
_chemical_formula_structural   AgSbTe2
_chemical_formula_sum   'Ag16 Sb16 Te32'
_cell_volume   1831.38911896
_cell_formula_units_Z   16
loop_
 _symmetry_equiv_pos_site_id
 _symmetry_equiv_pos_as_xyz
  1  'x, y, z'
loop_
 _atom_site_type_symbol
 _atom_site_label
 _atom_site_symmetry_multiplicity
 _atom_site_fract_x
 _atom_site_fract_y
 _atom_site_fract_z
 _atom_site_occupancy
  Ag  Ag0  1  0.00977240  0.49749545  0.00061511  1
  Ag  Ag1  1  0.01239782  0.25152245  0.75583023  1
  Ag  Ag2  1  0.49002133  0.00392197  0.00356043  1
  Ag  Ag3  1  0.25093157  0.24981388  -0.00000388  1
  Ag  Ag4  1  0.49124931  0.24760003  0.24679334  1
  Ag  Ag5  1  0.49305503  0.49574036  0.50122837  1
  Ag  Ag6  1  0.74960677  0.00138619  0.24555550  1
  Ag  Ag7  1  0.25090036  0.00504053  0.24171406  1
  Ag  Ag8  1  0.49306015  0.74844887  0.75393386  1
  Ag  Ag9  1  0.00613080  0.75214654  0.24405017  1
  Ag  Ag10  1  0.48916518  0.25256848  0.75243939  1
  Ag  Ag11  1  0.25275350  0.49252132  0.75576531  1
  Ag  Ag12  1  0.01046943  0.00177841  0.00410911  1
  Ag  Ag13  1  0.24913663  0.75095634  0.00232610  1
  Ag  Ag14  1  0.25391334  0.25309586  0.50042445  1
  Ag  Ag15  1  0.25066234  0.49415799  0.24316904  1
  Sb  Sb16  1  0.00982782  0.24878475  0.24340201  1
  Sb  Sb17  1  0.74791039  0.75059469  0.49806926  1
  Sb  Sb18  1  0.74704030  0.24976267  0.49844522  1
  Sb  Sb19  1  0.49470304  0.75107124  0.24645865  1
  Sb  Sb20  1  0.25022377  0.00836757  0.75906417  1
  Sb  Sb21  1  0.00807272  0.74931797  0.75616547  1
  Sb  Sb22  1  0.49077908  0.49618284  -0.00076887  1
  Sb  Sb23  1  0.74949275  0.49841006  0.24862149  1
  Sb  Sb24  1  0.74956727  0.75155447  0.00135983  1
  Sb  Sb25  1  0.25161518  0.74788670  0.49899553  1
  Sb  Sb26  1  0.00661968  0.49685602  0.49938523  1
  Sb  Sb27  1  0.49603717  0.00256552  0.49809138  1
  Sb  Sb28  1  0.74733431  0.49861281  0.75149879  1
  Sb  Sb29  1  0.74851423  0.24898350  0.00146671  1
  Sb  Sb30  1  0.00454438  0.00277998  0.49660096  1
  Sb  Sb31  1  0.74891120  0.00156522  0.75385126  1
  Te  Te32  1  0.25173098  0.25252447  0.24621497  1
  Te  Te33  1  0.25164502  0.25058728  0.75329276  1
  Te  Te34  1  0.24791671  0.74842719  0.24754736  1
  Te  Te35  1  0.25342539  0.74419933  0.75210685  1
  Te  Te36  1  0.73937710  0.24643996  0.25100974  1
  Te  Te37  1  0.74711299  0.24938094  0.74963904  1
  Te  Te38  1  0.75622556  0.75426289  0.24968986  1
  Te  Te39  1  0.74020132  0.75073904  0.74920547  1
  Te  Te40  1  0.25048994  0.00122407  0.00110790  1
  Te  Te41  1  0.24965711  0.00629247  0.48902075  1
  Te  Te42  1  0.24866488  0.49828006  0.00115938  1
  Te  Te43  1  0.25334146  0.49649080  0.49957046  1
  Te  Te44  1  0.74999835  -0.00028285  0.00488721  1
  Te  Te45  1  0.75080287  -0.00008381  0.48948748  1
  Te  Te46  1  0.76636779  0.50058717  0.00066375  1
  Te  Te47  1  0.73993541  0.50015317  0.49961123  1
  Te  Te48  1  0.00228011  0.24838013  -0.00202247  1
  Te  Te49  1  0.00500449  0.25045696  0.50972425  1
  Te  Te50  1  0.00427663  0.75271334  0.00226837  1
  Te  Te51  1  -0.00090514  0.74984732  0.49367298  1
  Te  Te52  1  0.49765402  0.24822356  -0.00003041  1
  Te  Te53  1  0.49656895  0.25186016  0.50167027  1
  Te  Te54  1  0.49544889  0.75343187  -0.00287737  1
  Te  Te55  1  0.49944313  0.74542770  0.50707924  1
  Te  Te56  1  0.00417789  0.00065281  0.24657661  1
  Te  Te57  1  -0.00124728  0.00234692  0.75568404  1
  Te  Te58  1  0.00231065  0.50037585  0.24841034  1
  Te  Te59  1  0.00278348  0.49803229  0.75133893  1
  Te  Te60  1  0.49519279  0.00060749  0.24756389  1
  Te  Te61  1  0.50085285  0.00266642  0.75328187  1
  Te  Te62  1  0.49729947  0.49892564  0.24970902  1
  Te  Te63  1  0.49754693  0.49533866  0.75151854  1
