# generated using pymatgen
data_AgSbTe2
_symmetry_space_group_name_H-M   'P 1'
_cell_length_a   12.27477213
_cell_length_b   12.29608104
_cell_length_c   12.30340247
_cell_angle_alpha   90.00656976
_cell_angle_beta   90.00020494
_cell_angle_gamma   90.00381923
_symmetry_Int_Tables_number   1
_chemical_formula_structural   AgSbTe2
_chemical_formula_sum   'Ag16 Sb16 Te32'
_cell_volume   1856.97211713
_cell_formula_units_Z   16
loop_
 _symmetry_equiv_pos_site_id
 _symmetry_equiv_pos_as_xyz
  1  'x, y, z'
loop_
 _atom_site_type_symbol
 _atom_site_label
 _atom_site_symmetry_multiplicity
 _atom_site_fract_x
 _atom_site_fract_y
 _atom_site_fract_z
 _atom_site_occupancy
  Ag  Ag0  1  0.49398194  0.50644599  0.49868411  1
  Ag  Ag1  1  0.00825365  -0.00041946  0.49965042  1
  Ag  Ag2  1  0.73607693  0.25336762  -0.00418820  1
  Ag  Ag3  1  0.49518903  0.74362427  0.26275267  1
  Ag  Ag4  1  0.26461294  0.75646180  0.49671806  1
  Ag  Ag5  1  0.26550371  0.25124245  -0.00179505  1
  Ag  Ag6  1  0.73708974  0.74632438  -0.00084966  1
  Ag  Ag7  1  0.49808553  0.74798004  0.73902370  1
  Ag  Ag8  1  0.26373592  0.24233452  0.50103318  1
  Ag  Ag9  1  0.73298657  0.75045320  0.50076931  1
  Ag  Ag10  1  0.73491800  0.24855809  0.50461758  1
  Ag  Ag11  1  0.25555826  0.00356372  0.73742781  1
  Ag  Ag12  1  0.25930664  0.50052040  0.25623541  1
  Ag  Ag13  1  0.49520633  0.25076825  0.74509245  1
  Ag  Ag14  1  0.49868555  0.49765179  0.00076568  1
  Ag  Ag15  1  0.25416390  0.00056488  0.26291832  1
  Sb  Sb16  1  0.49898974  0.00640084  0.00020451  1
  Sb  Sb17  1  0.74211655  -0.00179545  0.25433994  1
  Sb  Sb18  1  0.25437928  0.49803484  0.74573902  1
  Sb  Sb19  1  0.49723101  0.25464269  0.25512545  1
  Sb  Sb20  1  0.74336240  -0.00001903  0.74610293  1
  Sb  Sb21  1  0.00322659  0.50044797  0.49670671  1
  Sb  Sb22  1  0.49381674  -0.00408780  0.49878394  1
  Sb  Sb23  1  0.00334024  0.50080369  0.00402669  1
  Sb  Sb24  1  0.00214623  0.24816058  0.25011005  1
  Sb  Sb25  1  0.74681158  0.49979880  0.74948961  1
  Sb  Sb26  1  0.00508230  0.75432517  0.74833992  1
  Sb  Sb27  1  0.26295096  0.74718847  0.00024506  1
  Sb  Sb28  1  0.74175333  0.50218924  0.25069382  1
  Sb  Sb29  1  0.00558902  0.24621327  0.74881784  1
  Sb  Sb30  1  0.00529519  0.75181068  0.25001018  1
  Sb  Sb31  1  0.00411723  -0.00114424  0.00163686  1
  Te  Te32  1  0.25202781  0.24557592  0.25352860  1
  Te  Te33  1  0.25557643  0.25026764  0.74730049  1
  Te  Te34  1  0.25276341  0.75187035  0.24916190  1
  Te  Te35  1  0.25438405  0.75176253  0.75030005  1
  Te  Te36  1  0.74962041  0.24943908  0.25103598  1
  Te  Te37  1  0.74005292  0.24930115  0.74752043  1
  Te  Te38  1  0.74345977  0.75076668  0.25508237  1
  Te  Te39  1  0.74164055  0.75130369  0.74481351  1
  Te  Te40  1  0.24808387  0.00766007  0.00096908  1
  Te  Te41  1  0.25049532  0.00234241  0.49943638  1
  Te  Te42  1  0.25275038  0.49533920  0.00222115  1
  Te  Te43  1  0.25320809  0.49902633  0.49940236  1
  Te  Te44  1  0.75264942  0.00642915  0.00170051  1
  Te  Te45  1  0.75948255  0.00316392  0.49834607  1
  Te  Te46  1  0.74555084  0.49470581  0.00095065  1
  Te  Te47  1  0.74728073  0.49868289  0.49875388  1
  Te  Te48  1  -0.00855121  0.25171122  -0.00063032  1
  Te  Te49  1  -0.00355223  0.25031162  0.50124971  1
  Te  Te50  1  -0.02348216  0.74806067  -0.00080121  1
  Te  Te51  1  -0.00323827  0.74924744  0.50110845  1
  Te  Te52  1  0.49994141  0.25188995  0.00305833  1
  Te  Te53  1  0.49966176  0.25231562  0.49773432  1
  Te  Te54  1  0.50251818  0.74508802  -0.00546906  1
  Te  Te55  1  0.49885049  0.74952702  0.50339580  1
  Te  Te56  1  0.01388055  -0.00051237  0.25500869  1
  Te  Te57  1  0.01531499  -0.00064952  0.74435174  1
  Te  Te58  1  0.02148587  0.50026082  0.24911832  1
  Te  Te59  1  -0.00047318  0.50096381  0.75098152  1
  Te  Te60  1  0.49366487  -0.01445945  0.24887897  1
  Te  Te61  1  0.49451111  0.00200990  0.75068558  1
  Te  Te62  1  0.49595798  0.50388612  0.25273462  1
  Te  Te63  1  0.50092026  0.50030066  0.74884276  1
