# generated using pymatgen
data_AgSbTe2
_symmetry_space_group_name_H-M   'P 1'
_cell_length_a   12.22898701
_cell_length_b   12.25811403
_cell_length_c   12.25843044
_cell_angle_alpha   89.99953666
_cell_angle_beta   90.00291123
_cell_angle_gamma   90.00076319
_symmetry_Int_Tables_number   1
_chemical_formula_structural   AgSbTe2
_chemical_formula_sum   'Ag16 Sb16 Te32'
_cell_volume   1837.59164303
_cell_formula_units_Z   16
loop_
 _symmetry_equiv_pos_site_id
 _symmetry_equiv_pos_as_xyz
  1  'x, y, z'
loop_
 _atom_site_type_symbol
 _atom_site_label
 _atom_site_symmetry_multiplicity
 _atom_site_fract_x
 _atom_site_fract_y
 _atom_site_fract_z
 _atom_site_occupancy
  Ag  Ag0  1  0.24409222  0.00202132  0.75379408  1
  Ag  Ag1  1  0.00618236  0.00447569  0.49436206  1
  Ag  Ag2  1  0.01294650  0.24615385  0.25018155  1
  Ag  Ag3  1  0.00725080  0.50159608  0.00345192  1
  Ag  Ag4  1  0.24332178  0.75002782  0.00199678  1
  Ag  Ag5  1  0.00718081  -0.00175386  0.00521189  1
  Ag  Ag6  1  0.24467659  0.24988026  0.01371147  1
  Ag  Ag7  1  0.24359884  0.01400134  0.24690087  1
  Ag  Ag8  1  0.24767813  0.25025826  0.48527082  1
  Ag  Ag9  1  0.24658998  0.49767150  0.75376651  1
  Ag  Ag10  1  0.48419042  0.25122137  0.25299578  1
  Ag  Ag11  1  0.49289993  0.49447695  0.49750470  1
  Ag  Ag12  1  0.24585340  0.48557662  0.24723331  1
  Ag  Ag13  1  0.00744544  0.75331536  0.24516517  1
  Ag  Ag14  1  0.75463829  0.24992218  0.49584306  1
  Ag  Ag15  1  0.00666437  0.75184692  0.75536556  1
  Sb  Sb16  1  0.75615801  0.24980479  0.00374015  1
  Sb  Sb17  1  0.00558178  0.24850109  0.75036082  1
  Sb  Sb18  1  0.48892822  0.74948896  0.24996639  1
  Sb  Sb19  1  0.76006100  0.00202017  0.25101373  1
  Sb  Sb20  1  0.75872054  0.00097885  0.74791270  1
  Sb  Sb21  1  0.75591704  0.74949464  0.49924421  1
  Sb  Sb22  1  0.24690403  0.75032349  0.49852680  1
  Sb  Sb23  1  0.75459242  0.49778123  0.25090611  1
  Sb  Sb24  1  0.49277714  0.25108686  0.74728740  1
  Sb  Sb25  1  0.48986768  0.74802460  0.75011733  1
  Sb  Sb26  1  0.00549896  0.49556900  0.49770888  1
  Sb  Sb27  1  0.48818683  0.00245580  0.00150178  1
  Sb  Sb28  1  0.75555684  0.49901082  0.74749875  1
  Sb  Sb29  1  0.49227046  0.00471670  0.49753373  1
  Sb  Sb30  1  0.48878754  0.49731986  0.00113438  1
  Sb  Sb31  1  0.76093403  0.75016719  0.00103024  1
  Te  Te32  1  0.24751136  0.25084726  0.25003877  1
  Te  Te33  1  0.25042460  0.25094085  0.75123439  1
  Te  Te34  1  0.24555216  0.74974507  0.24805292  1
  Te  Te35  1  0.24586581  0.74979635  0.75154381  1
  Te  Te36  1  0.75024037  0.25005239  0.25486518  1
  Te  Te37  1  0.74680915  0.25001598  0.74200449  1
  Te  Te38  1  0.75904949  0.75047545  0.24951103  1
  Te  Te39  1  0.75837482  0.75010935  0.75062684  1
  Te  Te40  1  0.24725444  0.00176210  0.00020247  1
  Te  Te41  1  0.24690593  0.00065243  0.49976337  1
  Te  Te42  1  0.24748789  0.49810576  0.00012054  1
  Te  Te43  1  0.25024004  0.49905388  0.49932302  1
  Te  Te44  1  0.75931488  0.00028457  -0.00110965  1
  Te  Te45  1  0.75571508  0.00481569  0.50105888  1
  Te  Te46  1  0.75968479  0.49969135  -0.00166775  1
  Te  Te47  1  0.74340173  0.49449083  0.50106808  1
  Te  Te48  1  0.00223806  0.25009068  0.00118269  1
  Te  Te49  1  0.00502159  0.24822530  0.49891294  1
  Te  Te50  1  0.00320318  0.75044844  0.00179442  1
  Te  Te51  1  -0.00130794  0.75556834  0.49818650  1
  Te  Te52  1  0.49792138  0.24992372  0.00690091  1
  Te  Te53  1  0.49346646  0.25167851  0.49713764  1
  Te  Te54  1  0.49527666  0.75025026  0.00013580  1
  Te  Te55  1  0.50364521  0.74243813  0.49983687  1
  Te  Te56  1  0.00290823  0.00238472  0.25020788  1
  Te  Te57  1  0.00474712  -0.00115245  0.75031460  1
  Te  Te58  1  0.00366608  0.49813515  0.24972656  1
  Te  Te59  1  0.00540678  0.50292886  0.75119691  1
  Te  Te60  1  0.49288639  0.00235587  0.25004605  1
  Te  Te61  1  0.49208294  -0.00158107  0.75005362  1
  Te  Te62  1  0.49573956  0.49844631  0.25206475  1
  Te  Te63  1  0.49331338  0.50158420  0.74742652  1
