# generated using pymatgen
data_AgSbTe2
_symmetry_space_group_name_H-M   'P 1'
_cell_length_a   12.23761190
_cell_length_b   12.22466081
_cell_length_c   12.22764386
_cell_angle_alpha   90.00071709
_cell_angle_beta   90.00159368
_cell_angle_gamma   89.99778648
_symmetry_Int_Tables_number   1
_chemical_formula_structural   AgSbTe2
_chemical_formula_sum   'Ag16 Sb16 Te32'
_cell_volume   1829.26352307
_cell_formula_units_Z   16
loop_
 _symmetry_equiv_pos_site_id
 _symmetry_equiv_pos_as_xyz
  1  'x, y, z'
loop_
 _atom_site_type_symbol
 _atom_site_label
 _atom_site_symmetry_multiplicity
 _atom_site_fract_x
 _atom_site_fract_y
 _atom_site_fract_z
 _atom_site_occupancy
  Ag  Ag0  1  0.00343247  0.75320500  0.74740391  1
  Ag  Ag1  1  0.75051712  0.24528431  0.48710297  1
  Ag  Ag2  1  0.24872515  0.00241715  0.25591858  1
  Ag  Ag3  1  0.50497696  0.00647550  0.49717567  1
  Ag  Ag4  1  0.24736442  0.75209708  -0.00333988  1
  Ag  Ag5  1  -0.00496854  0.00388076  0.49954614  1
  Ag  Ag6  1  0.75065683  0.48510983  0.25601273  1
  Ag  Ag7  1  0.75304891  0.00266214  0.74044730  1
  Ag  Ag8  1  0.51441097  0.24740248  0.25526814  1
  Ag  Ag9  1  0.75098935  0.24813823  0.01505088  1
  Ag  Ag10  1  0.24636981  -0.00247614  0.74534279  1
  Ag  Ag11  1  0.24735676  0.50237490  0.74659315  1
  Ag  Ag12  1  -0.01423705  0.24696834  0.25515917  1
  Ag  Ag13  1  0.50356134  0.49402663  0.49786251  1
  Ag  Ag14  1  0.75134825  0.01388479  0.25863050  1
  Ag  Ag15  1  -0.00323426  0.49597957  0.49949280  1
  Sb  Sb16  1  0.00023091  0.75286204  0.25309601  1
  Sb  Sb17  1  0.75242380  0.75134273  -0.00029368  1
  Sb  Sb18  1  0.50119608  0.49676921  0.00206026  1
  Sb  Sb19  1  0.75100026  0.75626661  0.50011375  1
  Sb  Sb20  1  -0.00149970  0.24735924  0.74389488  1
  Sb  Sb21  1  -0.00084196  0.49860390  0.00011358  1
  Sb  Sb22  1  0.75177975  0.49800745  0.74243806  1
  Sb  Sb23  1  0.50170601  0.24853906  0.74370050  1
  Sb  Sb24  1  0.49983600  0.75283489  0.25166911  1
  Sb  Sb25  1  0.24923719  0.24756568  0.49830078  1
  Sb  Sb26  1  0.50042021  0.00294326  0.00370744  1
  Sb  Sb27  1  0.24927569  0.49838557  0.25333197  1
  Sb  Sb28  1  0.49736753  0.75173839  0.74893597  1
  Sb  Sb29  1  0.24874648  0.24935540  0.00209400  1
  Sb  Sb30  1  0.24866185  0.75286603  0.50258799  1
  Sb  Sb31  1  -0.00011206  0.00078952  0.00016591  1
  Te  Te32  1  0.24936826  0.24483752  0.24805331  1
  Te  Te33  1  0.25024312  0.24720693  0.75264086  1
  Te  Te34  1  0.24940335  0.75623433  0.24336942  1
  Te  Te35  1  0.24770897  0.75372307  0.75195272  1
  Te  Te36  1  0.75086599  0.24934826  0.25253622  1
  Te  Te37  1  0.74992987  0.24485127  0.74908386  1
  Te  Te38  1  0.75027257  0.75043107  0.24715753  1
  Te  Te39  1  0.75548211  0.75676970  0.75252648  1
  Te  Te40  1  0.25060301  -0.00177623  -0.00346263  1
  Te  Te41  1  0.24940379  0.00014546  0.50043040  1
  Te  Te42  1  0.25049680  0.50255279  -0.00643393  1
  Te  Te43  1  0.24900806  0.49985763  0.50350872  1
  Te  Te44  1  0.74937908  0.00299276  0.00128161  1
  Te  Te45  1  0.75077637  0.00073847  0.49892985  1
  Te  Te46  1  0.74905606  0.49615562  0.00592698  1
  Te  Te47  1  0.75061410  0.49723032  0.49831334  1
  Te  Te48  1  -0.00524294  0.25067850  0.00984720  1
  Te  Te49  1  -0.00214122  0.24864130  0.49656868  1
  Te  Te50  1  0.00445842  0.74947626  -0.00776399  1
  Te  Te51  1  0.00008354  0.74979803  0.50463820  1
  Te  Te52  1  0.50583784  0.25048265  0.00917225  1
  Te  Te53  1  0.50275240  0.24853772  0.49654129  1
  Te  Te54  1  0.49217990  0.74900921  -0.00014046  1
  Te  Te55  1  0.49980111  0.74807900  0.49995901  1
  Te  Te56  1  -0.00034995  0.00030726  0.25333905  1
  Te  Te57  1  0.00191880  0.00056717  0.74685841  1
  Te  Te58  1  -0.00051287  0.49923944  0.25532370  1
  Te  Te59  1  0.00280377  0.50089452  0.74517445  1
  Te  Te60  1  0.50034874  0.00159918  0.25397641  1
  Te  Te61  1  0.49892833  0.00000328  0.74282896  1
  Te  Te62  1  0.50070008  0.49748051  0.25529206  1
  Te  Te63  1  0.49607607  0.50024743  0.74298615  1
