# generated using pymatgen
data_AgSbTe2
_symmetry_space_group_name_H-M   'P 1'
_cell_length_a   12.21422850
_cell_length_b   12.22083906
_cell_length_c   12.21661589
_cell_angle_alpha   89.99528789
_cell_angle_beta   89.99765261
_cell_angle_gamma   90.00418468
_symmetry_Int_Tables_number   1
_chemical_formula_structural   AgSbTe2
_chemical_formula_sum   'Ag16 Sb16 Te32'
_cell_volume   1823.55128170
_cell_formula_units_Z   16
loop_
 _symmetry_equiv_pos_site_id
 _symmetry_equiv_pos_as_xyz
  1  'x, y, z'
loop_
 _atom_site_type_symbol
 _atom_site_label
 _atom_site_symmetry_multiplicity
 _atom_site_fract_x
 _atom_site_fract_y
 _atom_site_fract_z
 _atom_site_occupancy
  Ag  Ag0  1  0.75345227  0.00014610  0.75485323  1
  Ag  Ag1  1  -0.00553875  0.00007772  0.00165174  1
  Ag  Ag2  1  0.74869757  0.75715198  0.00459515  1
  Ag  Ag3  1  0.49869201  0.24926160  0.24745217  1
  Ag  Ag4  1  0.75033992  -0.00352980  0.24451958  1
  Ag  Ag5  1  0.50228781  0.75119437  0.24822391  1
  Ag  Ag6  1  0.24814116  0.25122922  0.49846594  1
  Ag  Ag7  1  0.00084050  0.24547799  0.74850761  1
  Ag  Ag8  1  0.24770986  0.74922119  0.49580405  1
  Ag  Ag9  1  0.00398005  0.50010560  0.49817311  1
  Ag  Ag10  1  -0.00163267  0.75472061  0.25258133  1
  Ag  Ag11  1  0.50011693  0.49891622  0.00542159  1
  Ag  Ag12  1  0.00044672  -0.00003126  0.49822152  1
  Ag  Ag13  1  0.49651694  0.49990819  0.49513656  1
  Ag  Ag14  1  0.25254561  0.24763542  0.00176472  1
  Ag  Ag15  1  0.50488735  0.00027475  0.00504934  1
  Sb  Sb16  1  0.25234226  0.49930730  0.25238926  1
  Sb  Sb17  1  0.74749725  0.50273902  0.24877897  1
  Sb  Sb18  1  -0.00243906  0.75423270  0.74750418  1
  Sb  Sb19  1  0.25211303  0.75129619  0.00400368  1
  Sb  Sb20  1  0.24967601  0.00009587  0.24980109  1
  Sb  Sb21  1  0.24633536  0.00197924  0.75038521  1
  Sb  Sb22  1  0.74731724  0.24187876  0.00118279  1
  Sb  Sb23  1  0.49945403  0.24769644  0.75084606  1
  Sb  Sb24  1  0.49895879  0.00012895  0.49407409  1
  Sb  Sb25  1  0.50195180  0.75207544  0.75076570  1
  Sb  Sb26  1  0.24896413  0.49839950  0.74797266  1
  Sb  Sb27  1  0.75105035  0.75211784  0.49494493  1
  Sb  Sb28  1  0.00108872  0.24470891  0.25157011  1
  Sb  Sb29  1  0.75102360  0.49972960  0.75182322  1
  Sb  Sb30  1  0.00033433  0.49907834  0.00190520  1
  Sb  Sb31  1  0.75135546  0.24870539  0.49891443  1
  Te  Te32  1  0.25564310  0.24968321  0.25069184  1
  Te  Te33  1  0.24453095  0.24919088  0.74847849  1
  Te  Te34  1  0.25019594  0.75032755  0.25570432  1
  Te  Te35  1  0.24991165  0.75076799  0.73924344  1
  Te  Te36  1  0.74256509  0.24212249  0.25012505  1
  Te  Te37  1  0.75681942  0.24325231  0.74988558  1
  Te  Te38  1  0.74860349  0.75470853  0.24601398  1
  Te  Te39  1  0.75050226  0.75716378  0.75877600  1
  Te  Te40  1  0.24990765  0.00360658  -0.00097083  1
  Te  Te41  1  0.24525109  0.00174245  0.50081802  1
  Te  Te42  1  0.25546923  0.49529848  -0.00182378  1
  Te  Te43  1  0.25027412  0.49796740  0.50100009  1
  Te  Te44  1  0.75113384  -0.00154967  0.00191773  1
  Te  Te45  1  0.75511869  -0.00086718  0.50001571  1
  Te  Te46  1  0.74472910  0.50851613  -0.00107366  1
  Te  Te47  1  0.74844792  0.50019313  0.50086493  1
  Te  Te48  1  0.00450236  0.24890914  0.00041438  1
  Te  Te49  1  0.00381975  0.24908805  0.49820282  1
  Te  Te50  1  0.00132023  0.75194270  0.00354456  1
  Te  Te51  1  0.00112257  0.75090416  0.49742403  1
  Te  Te52  1  0.49735052  0.24993362  0.00151026  1
  Te  Te53  1  0.49468302  0.25219386  0.49834881  1
  Te  Te54  1  0.49741707  0.75105627  0.00412660  1
  Te  Te55  1  0.49778256  0.74784402  0.49523526  1
  Te  Te56  1  -0.00420643  -0.00196336  0.24964879  1
  Te  Te57  1  -0.00342010  0.00295368  0.75063956  1
  Te  Te58  1  -0.00300468  0.50627195  0.25580497  1
  Te  Te59  1  -0.00178379  0.49323864  0.74400234  1
  Te  Te60  1  0.50424163  -0.00163453  0.24787426  1
  Te  Te61  1  0.50813109  0.00054225  0.75735007  1
  Te  Te62  1  0.50223716  0.50069834  0.25042857  1
  Te  Te63  1  0.50219694  0.49996776  0.74849469  1
