# generated using pymatgen
data_AgSbTe2
_symmetry_space_group_name_H-M   'P 1'
_cell_length_a   12.22226905
_cell_length_b   12.23543030
_cell_length_c   12.23613075
_cell_angle_alpha   89.99448135
_cell_angle_beta   90.01071288
_cell_angle_gamma   89.99129657
_symmetry_Int_Tables_number   1
_chemical_formula_structural   AgSbTe2
_chemical_formula_sum   'Ag16 Sb16 Te32'
_cell_volume   1829.84869690
_cell_formula_units_Z   16
loop_
 _symmetry_equiv_pos_site_id
 _symmetry_equiv_pos_as_xyz
  1  'x, y, z'
loop_
 _atom_site_type_symbol
 _atom_site_label
 _atom_site_symmetry_multiplicity
 _atom_site_fract_x
 _atom_site_fract_y
 _atom_site_fract_z
 _atom_site_occupancy
  Ag  Ag0  1  0.49743930  0.48615908  0.49654237  1
  Ag  Ag1  1  0.49996321  0.24630744  0.73506284  1
  Ag  Ag2  1  0.73474035  0.24546385  0.50132043  1
  Ag  Ag3  1  0.49582735  0.50234143  0.00387422  1
  Ag  Ag4  1  0.00239449  0.75688985  0.75004867  1
  Ag  Ag5  1  0.49809294  0.01387071  0.50085928  1
  Ag  Ag6  1  0.49535974  0.25116215  0.26423468  1
  Ag  Ag7  1  0.25451569  0.75193226  0.00166557  1
  Ag  Ag8  1  0.00195130  0.00071362  0.50283974  1
  Ag  Ag9  1  0.49390867  0.74759829  0.25210726  1
  Ag  Ag10  1  0.25566066  0.00039868  0.25380109  1
  Ag  Ag11  1  0.26405672  0.24633172  0.49698019  1
  Ag  Ag12  1  0.25818811  0.50007690  0.25141181  1
  Ag  Ag13  1  0.00329192  -0.00317086  -0.00317236  1
  Ag  Ag14  1  0.49803892  0.75278385  0.74787258  1
  Ag  Ag15  1  0.74645976  0.00007644  0.74570880  1
  Sb  Sb16  1  0.00484211  0.50298275  -0.00013619  1
  Sb  Sb17  1  0.25378919  0.24845553  0.00220928  1
  Sb  Sb18  1  0.74555652  0.75375243  0.50193977  1
  Sb  Sb19  1  0.74520416  0.00201700  0.25283968  1
  Sb  Sb20  1  0.00003715  0.24390498  0.74636208  1
  Sb  Sb21  1  0.00216028  0.49993041  0.50006978  1
  Sb  Sb22  1  0.74636093  0.75181941  -0.00166176  1
  Sb  Sb23  1  0.74043309  0.49827703  0.25242572  1
  Sb  Sb24  1  0.25449956  0.50081990  0.74794354  1
  Sb  Sb25  1  0.49747932  -0.00167106  -0.00065367  1
  Sb  Sb26  1  0.00588843  0.75389689  0.25004658  1
  Sb  Sb27  1  0.74529777  0.24701408  -0.00076530  1
  Sb  Sb28  1  0.25485178  0.75276530  0.49807750  1
  Sb  Sb29  1  0.74572539  0.49905553  0.74801900  1
  Sb  Sb30  1  0.25197553  -0.00085352  0.74621574  1
  Sb  Sb31  1  0.00413857  0.24802377  0.25251413  1
  Te  Te32  1  0.25338270  0.24740338  0.25179022  1
  Te  Te33  1  0.25504651  0.25058425  0.74513635  1
  Te  Te34  1  0.25471352  0.75206442  0.24800677  1
  Te  Te35  1  0.25377040  0.74975652  0.75490127  1
  Te  Te36  1  0.74334115  0.24985585  0.25466112  1
  Te  Te37  1  0.74602766  0.24544180  0.74702453  1
  Te  Te38  1  0.74018324  0.74987253  0.24996746  1
  Te  Te39  1  0.74653355  0.75527600  0.74980393  1
  Te  Te40  1  0.24672696  -0.00274070  0.00506085  1
  Te  Te41  1  0.25251499  0.00190107  0.49679331  1
  Te  Te42  1  0.25393923  0.50274556  0.00404324  1
  Te  Te43  1  0.25304164  0.49590706  0.49638658  1
  Te  Te44  1  0.75802700  -0.00031290  -0.00551128  1
  Te  Te45  1  0.74830992  0.00284787  0.50241248  1
  Te  Te46  1  0.74418180  0.49951687  0.00082127  1
  Te  Te47  1  0.74693382  0.49181028  0.49938606  1
  Te  Te48  1  -0.00072447  0.24473260  -0.00068899  1
  Te  Te49  1  0.00093227  0.24597360  0.50109767  1
  Te  Te50  1  0.00367965  0.75297522  -0.00220816  1
  Te  Te51  1  -0.00081306  0.75435807  0.50387681  1
  Te  Te52  1  0.49975895  0.25436031  -0.00080375  1
  Te  Te53  1  0.49809435  0.24780905  0.50089374  1
  Te  Te54  1  0.49683885  0.74860241  -0.00211352  1
  Te  Te55  1  0.49972195  0.75094579  0.50258859  1
  Te  Te56  1  0.00395104  -0.00096660  0.25327917  1
  Te  Te57  1  0.00013144  -0.00273644  0.74670402  1
  Te  Te58  1  0.00899459  0.50054306  0.24975179  1
  Te  Te59  1  -0.00109355  0.51015609  0.75048304  1
  Te  Te60  1  0.49743336  -0.00020779  0.24975864  1
  Te  Te61  1  0.50098371  -0.00164229  0.74994444  1
  Te  Te62  1  0.49727875  0.50114349  0.25246520  1
  Te  Te63  1  0.50002916  0.50289772  0.74768408  1
