# generated using pymatgen
data_AgSbTe2
_symmetry_space_group_name_H-M   'P 1'
_cell_length_a   12.32841920
_cell_length_b   12.31891033
_cell_length_c   12.29716957
_cell_angle_alpha   90.00094651
_cell_angle_beta   89.99411769
_cell_angle_gamma   89.99949790
_symmetry_Int_Tables_number   1
_chemical_formula_structural   AgSbTe2
_chemical_formula_sum   'Ag16 Sb16 Te32'
_cell_volume   1867.60421915
_cell_formula_units_Z   16
loop_
 _symmetry_equiv_pos_site_id
 _symmetry_equiv_pos_as_xyz
  1  'x, y, z'
loop_
 _atom_site_type_symbol
 _atom_site_label
 _atom_site_symmetry_multiplicity
 _atom_site_fract_x
 _atom_site_fract_y
 _atom_site_fract_z
 _atom_site_occupancy
  Ag  Ag0  1  0.24486157  0.49228705  0.76271330  1
  Ag  Ag1  1  0.74623086  0.02025574  0.24623630  1
  Ag  Ag2  1  0.75017022  0.26272837  0.01438924  1
  Ag  Ag3  1  -0.00864907  0.49359180  0.00249785  1
  Ag  Ag4  1  0.51010208  0.49403325  0.01011854  1
  Ag  Ag5  1  0.50941148  0.25981388  0.75996421  1
  Ag  Ag6  1  0.25350205  0.01359488  0.24810998  1
  Ag  Ag7  1  -0.01917207  0.25925023  0.24090428  1
  Ag  Ag8  1  0.75037284  0.25281279  0.47867128  1
  Ag  Ag9  1  -0.00671555  0.25733329  0.76083136  1
  Ag  Ag10  1  0.51872632  0.25978606  0.24101807  1
  Ag  Ag11  1  0.25659231  0.49226862  0.24088500  1
  Ag  Ag12  1  0.50764453  0.73634318  0.24205083  1
  Ag  Ag13  1  0.74157286  0.48375076  0.24044622  1
  Ag  Ag14  1  0.75040727  0.73519550  0.00983445  1
  Ag  Ag15  1  -0.00310328  0.73248796  0.76036661  1
  Sb  Sb16  1  -0.00353176  0.00796383  0.00299526  1
  Sb  Sb17  1  0.24985998  0.25369259  0.00400902  1
  Sb  Sb18  1  0.49956775  0.49905280  0.49160250  1
  Sb  Sb19  1  0.50332125  0.00762945  0.00286473  1
  Sb  Sb20  1  -0.00342812  0.74128262  0.24217096  1
  Sb  Sb21  1  0.24980648  0.25110655  0.49659790  1
  Sb  Sb22  1  0.50234903  0.00326653  0.49606029  1
  Sb  Sb23  1  -0.00241816  0.00197361  0.49725059  1
  Sb  Sb24  1  -0.00078152  0.49850919  0.49888334  1
  Sb  Sb25  1  0.75376184  0.49499656  0.75846321  1
  Sb  Sb26  1  0.24937959  0.74780435  0.49668826  1
  Sb  Sb27  1  0.50150616  0.73480922  0.76124637  1
  Sb  Sb28  1  0.75053078  0.00493729  0.75415214  1
  Sb  Sb29  1  0.24920459  0.00512983  0.75304840  1
  Sb  Sb30  1  0.24833381  0.74431504  0.00249136  1
  Sb  Sb31  1  0.75065426  0.74618780  0.49367325  1
  Te  Te32  1  0.25106847  0.25479630  0.25052239  1
  Te  Te33  1  0.24636356  0.25171014  0.74774120  1
  Te  Te34  1  0.25097986  0.74143142  0.24999300  1
  Te  Te35  1  0.24914964  0.75035208  0.74910036  1
  Te  Te36  1  0.75153047  0.25000353  0.24864861  1
  Te  Te37  1  0.75044002  0.24981774  0.75650403  1
  Te  Te38  1  0.75046604  0.74690689  0.24735244  1
  Te  Te39  1  0.75127477  0.75339449  0.74994438  1
  Te  Te40  1  0.24977478  -0.00280625  0.00910935  1
  Te  Te41  1  0.24982574  -0.00163698  0.48613834  1
  Te  Te42  1  0.24743896  0.49883623  0.00077267  1
  Te  Te43  1  0.24976480  0.50050945  0.49782561  1
  Te  Te44  1  0.74974177  0.00026200  0.00256334  1
  Te  Te45  1  0.74966347  0.00404748  0.49082449  1
  Te  Te46  1  0.75135833  0.49810563  0.00184432  1
  Te  Te47  1  0.74948623  0.49784226  0.48272522  1
  Te  Te48  1  0.00107127  0.25420499  0.00173505  1
  Te  Te49  1  -0.00481069  0.25021563  0.50022089  1
  Te  Te50  1  -0.00376928  0.74170977  -0.00363826  1
  Te  Te51  1  0.00026677  0.75005600  0.52001701  1
  Te  Te52  1  0.49914093  0.25378228  0.00132387  1
  Te  Te53  1  0.50523360  0.25179152  0.50276058  1
  Te  Te54  1  0.50525796  0.74251100  0.00405906  1
  Te  Te55  1  0.49962107  0.75080890  0.49028409  1
  Te  Te56  1  0.00145130  0.00508162  0.24799061  1
  Te  Te57  1  0.00243743  0.01223727  0.75053811  1
  Te  Te58  1  0.00551009  0.49825217  0.24920491  1
  Te  Te59  1  -0.00005413  0.49530806  0.75166028  1
  Te  Te60  1  0.49995770  0.00718853  0.24759844  1
  Te  Te61  1  0.49615389  0.01273960  0.74975893  1
  Te  Te62  1  0.49731030  0.49671887  0.24875423  1
  Te  Te63  1  0.49682454  0.49563078  0.75488736  1
