# generated using pymatgen
data_AgSbTe2
_symmetry_space_group_name_H-M   'P 1'
_cell_length_a   12.25206393
_cell_length_b   12.21727926
_cell_length_c   12.24666138
_cell_angle_alpha   90.01079115
_cell_angle_beta   90.00650729
_cell_angle_gamma   90.00251881
_symmetry_Int_Tables_number   1
_chemical_formula_structural   AgSbTe2
_chemical_formula_sum   'Ag16 Sb16 Te32'
_cell_volume   1833.16456770
_cell_formula_units_Z   16
loop_
 _symmetry_equiv_pos_site_id
 _symmetry_equiv_pos_as_xyz
  1  'x, y, z'
loop_
 _atom_site_type_symbol
 _atom_site_label
 _atom_site_symmetry_multiplicity
 _atom_site_fract_x
 _atom_site_fract_y
 _atom_site_fract_z
 _atom_site_occupancy
  Ag  Ag0  1  0.50122688  0.25112833  0.24859113  1
  Ag  Ag1  1  0.50350940  0.01072123  0.00252685  1
  Ag  Ag2  1  0.24725075  0.25170160  0.00627034  1
  Ag  Ag3  1  0.24715030  0.49013107  0.25160816  1
  Ag  Ag4  1  0.50088182  0.49018975  0.49917837  1
  Ag  Ag5  1  -0.00311154  0.01280773  0.00258163  1
  Ag  Ag6  1  -0.00114702  0.48882754  0.00081650  1
  Ag  Ag7  1  0.74788058  0.25500632  0.49587580  1
  Ag  Ag8  1  -0.00071057  0.25362503  0.24423975  1
  Ag  Ag9  1  -0.00261785  0.74470589  0.75171646  1
  Ag  Ag10  1  0.75222464  0.24847814  0.00569682  1
  Ag  Ag11  1  0.75054581  0.01091974  0.24505676  1
  Ag  Ag12  1  0.25168806  0.25611859  0.49275490  1
  Ag  Ag13  1  -0.00096948  0.49136294  0.49989453  1
  Ag  Ag14  1  0.75360654  0.49298171  0.74855995  1
  Ag  Ag15  1  0.50357965  0.25264377  0.75092230  1
  Sb  Sb16  1  -0.00327849  0.25272998  0.75491541  1
  Sb  Sb17  1  0.75184027  0.74911136  -0.00092440  1
  Sb  Sb18  1  0.75037567  0.00713076  0.75310888  1
  Sb  Sb19  1  0.50104352  0.74781853  0.24978781  1
  Sb  Sb20  1  0.50126952  0.49019227  0.00069430  1
  Sb  Sb21  1  0.24936550  0.01034652  0.24709165  1
  Sb  Sb22  1  0.24772723  0.49470557  0.74900656  1
  Sb  Sb23  1  0.50226096  0.74717311  0.75051028  1
  Sb  Sb24  1  -0.00103387  0.74690473  0.24934995  1
  Sb  Sb25  1  0.24934197  0.00600618  0.75206068  1
  Sb  Sb26  1  0.75252193  0.74418580  0.50104011  1
  Sb  Sb27  1  0.50251264  0.01090418  0.49816714  1
  Sb  Sb28  1  0.24725440  0.74724720  0.00081378  1
  Sb  Sb29  1  -0.00266422  0.00957976  0.49881569  1
  Sb  Sb30  1  0.75194124  0.49117672  0.25094528  1
  Sb  Sb31  1  0.24723236  0.74340402  0.49946223  1
  Te  Te32  1  0.24846143  0.25269499  0.24872402  1
  Te  Te33  1  0.25864889  0.25003916  0.75144838  1
  Te  Te34  1  0.25096019  0.73778714  0.25095466  1
  Te  Te35  1  0.24255611  0.75115520  0.74954693  1
  Te  Te36  1  0.75105338  0.24939605  0.24779151  1
  Te  Te37  1  0.74603171  0.25436432  0.74990603  1
  Te  Te38  1  0.74896484  0.76477700  0.25059919  1
  Te  Te39  1  0.75477641  0.74055778  0.74871494  1
  Te  Te40  1  0.24678090  0.00535736  0.00071147  1
  Te  Te41  1  0.25009396  0.00783091  0.49989659  1
  Te  Te42  1  0.24692066  0.49544143  0.00322746  1
  Te  Te43  1  0.24775152  0.49480981  0.49867700  1
  Te  Te44  1  0.75272922  0.00362194  0.00078642  1
  Te  Te45  1  0.75007436  0.00704232  0.49671231  1
  Te  Te46  1  0.75279444  0.49667300  -0.00189236  1
  Te  Te47  1  0.75219979  0.49519467  0.50008583  1
  Te  Te48  1  -0.00092472  0.25119821  -0.00082732  1
  Te  Te49  1  -0.00080711  0.25306926  0.49960906  1
  Te  Te50  1  0.00101700  0.74799694  -0.00240553  1
  Te  Te51  1  0.00029434  0.74252070  0.50356035  1
  Te  Te52  1  0.50121919  0.24945155  0.00289445  1
  Te  Te53  1  0.50139706  0.25239764  0.49759745  1
  Te  Te54  1  0.49920551  0.76297195  -0.00056864  1
  Te  Te55  1  0.49947429  0.74021775  0.50113490  1
  Te  Te56  1  -0.00126186  0.00285887  0.24694136  1
  Te  Te57  1  -0.00110058  -0.00566006  0.75426137  1
  Te  Te58  1  0.00052946  0.49648850  0.24917149  1
  Te  Te59  1  -0.00276386  0.49962092  0.75036343  1
  Te  Te60  1  0.50177797  0.00381770  0.24742280  1
  Te  Te61  1  0.50015231  0.00316529  0.75372425  1
  Te  Te62  1  0.49803381  0.49642073  0.25182642  1
  Te  Te63  1  0.50426079  0.49675489  0.74826818  1
