# generated using pymatgen
data_AgSbTe2
_symmetry_space_group_name_H-M   'P 1'
_cell_length_a   12.25094450
_cell_length_b   12.24267017
_cell_length_c   12.23614801
_cell_angle_alpha   90.00277869
_cell_angle_beta   89.99376097
_cell_angle_gamma   89.99553554
_symmetry_Int_Tables_number   1
_chemical_formula_structural   AgSbTe2
_chemical_formula_sum   'Ag16 Sb16 Te32'
_cell_volume   1835.22974307
_cell_formula_units_Z   16
loop_
 _symmetry_equiv_pos_site_id
 _symmetry_equiv_pos_as_xyz
  1  'x, y, z'
loop_
 _atom_site_type_symbol
 _atom_site_label
 _atom_site_symmetry_multiplicity
 _atom_site_fract_x
 _atom_site_fract_y
 _atom_site_fract_z
 _atom_site_occupancy
  Ag  Ag0  1  -0.00147079  0.23628304  0.74642889  1
  Ag  Ag1  1  0.50140650  0.24385210  0.74768022  1
  Ag  Ag2  1  0.24925118  0.24556774  0.50784539  1
  Ag  Ag3  1  0.24752608  0.49371803  0.74723409  1
  Ag  Ag4  1  0.75040550  0.24418262  0.50792545  1
  Ag  Ag5  1  0.24639409  0.75699252  0.50689807  1
  Ag  Ag6  1  0.00019737  0.00348699  0.51378065  1
  Ag  Ag7  1  -0.00041895  0.76471165  0.74944666  1
  Ag  Ag8  1  0.50269242  0.24447734  0.25228977  1
  Ag  Ag9  1  0.74949672  0.00386696  0.24575475  1
  Ag  Ag10  1  0.75284591  0.49228131  0.74988606  1
  Ag  Ag11  1  0.76351649  0.00505929  0.75301890  1
  Ag  Ag12  1  -0.00761377  -0.00013023  -0.01526323  1
  Ag  Ag13  1  0.75192208  0.75767805  -0.00606935  1
  Ag  Ag14  1  0.23550981  0.00492033  0.74602355  1
  Ag  Ag15  1  0.50781094  0.00212834  -0.00623453  1
  Sb  Sb16  1  0.74975640  0.24266428  -0.00911047  1
  Sb  Sb17  1  0.74857841  0.49570394  0.24946709  1
  Sb  Sb18  1  0.49985568  0.75669128  0.75128967  1
  Sb  Sb19  1  0.50000041  0.49662312  0.50441120  1
  Sb  Sb20  1  0.00012238  0.49630677  0.50551695  1
  Sb  Sb21  1  -0.00211086  0.49868070  -0.00784304  1
  Sb  Sb22  1  0.50224378  0.75655881  0.24852037  1
  Sb  Sb23  1  0.25173183  0.49614584  0.25442083  1
  Sb  Sb24  1  0.25152782  0.00200710  0.25297392  1
  Sb  Sb25  1  0.25051504  0.24759308  -0.00979850  1
  Sb  Sb26  1  0.24793421  0.75457737  -0.00640529  1
  Sb  Sb27  1  -0.00103913  0.75574422  0.25044507  1
  Sb  Sb28  1  0.50048367  0.00384554  0.50546891  1
  Sb  Sb29  1  -0.00159049  0.24460782  0.25325549  1
  Sb  Sb30  1  0.50220825  0.49725911  -0.00533429  1
  Sb  Sb31  1  0.75368023  0.75607444  0.50487667  1
  Te  Te32  1  0.25405870  0.25142735  0.25983337  1
  Te  Te33  1  0.24909518  0.24772430  0.74882594  1
  Te  Te34  1  0.25089940  0.74787052  0.25953626  1
  Te  Te35  1  0.24986070  0.75225353  0.74722324  1
  Te  Te36  1  0.74708519  0.24785831  0.25715073  1
  Te  Te37  1  0.75093697  0.24835894  0.74944223  1
  Te  Te38  1  0.74895846  0.75321523  0.24755744  1
  Te  Te39  1  0.75044424  0.75228731  0.75015037  1
  Te  Te40  1  0.24878421  -0.00030632  -0.00207108  1
  Te  Te41  1  0.24920105  0.00277914  0.50174295  1
  Te  Te42  1  0.25017585  0.50128143  -0.00707343  1
  Te  Te43  1  0.25006705  0.49627834  0.50516930  1
  Te  Te44  1  0.75123160  0.00039311  -0.00263696  1
  Te  Te45  1  0.75084721  0.00193844  0.50278515  1
  Te  Te46  1  0.74989926  0.51027874  -0.00480305  1
  Te  Te47  1  0.74966431  0.49507573  0.50528275  1
  Te  Te48  1  0.00052565  0.24477572  -0.00394118  1
  Te  Te49  1  -0.00036303  0.24719691  0.50310007  1
  Te  Te50  1  -0.00270614  0.75456592  -0.00327475  1
  Te  Te51  1  0.00259710  0.75470830  0.50363949  1
  Te  Te52  1  0.49974651  0.24550749  -0.00219471  1
  Te  Te53  1  0.50053016  0.24930043  0.50452274  1
  Te  Te54  1  0.50341696  0.75654119  0.00174838  1
  Te  Te55  1  0.49197648  0.74871176  0.49812255  1
  Te  Te56  1  -0.00518423  0.00027098  0.24917081  1
  Te  Te57  1  0.00090485  0.00006012  0.74846542  1
  Te  Te58  1  0.00051883  0.50028065  0.24763107  1
  Te  Te59  1  -0.00088020  0.49931732  0.74993707  1
  Te  Te60  1  0.50318529  0.00437251  0.24422077  1
  Te  Te61  1  0.50080267  0.00372376  0.75322661  1
  Te  Te62  1  0.49990606  0.48997022  0.24753993  1
  Te  Te63  1  0.50044444  0.49182309  0.75117062  1
