# generated using pymatgen
data_AgSbTe2
_symmetry_space_group_name_H-M   'P 1'
_cell_length_a   12.20530147
_cell_length_b   12.21124845
_cell_length_c   12.21274004
_cell_angle_alpha   89.99940451
_cell_angle_beta   89.99833938
_cell_angle_gamma   89.98943496
_symmetry_Int_Tables_number   1
_chemical_formula_structural   AgSbTe2
_chemical_formula_sum   'Ag16 Sb16 Te32'
_cell_volume   1820.21078483
_cell_formula_units_Z   16
loop_
 _symmetry_equiv_pos_site_id
 _symmetry_equiv_pos_as_xyz
  1  'x, y, z'
loop_
 _atom_site_type_symbol
 _atom_site_label
 _atom_site_symmetry_multiplicity
 _atom_site_fract_x
 _atom_site_fract_y
 _atom_site_fract_z
 _atom_site_occupancy
  Ag  Ag0  1  0.25080666  0.50440354  0.24999928  1
  Ag  Ag1  1  0.50015319  0.50167074  0.49851081  1
  Ag  Ag2  1  0.25046649  0.74981123  0.00135121  1
  Ag  Ag3  1  -0.00143804  -0.00344267  0.49328822  1
  Ag  Ag4  1  0.00279342  0.75202267  0.74993766  1
  Ag  Ag5  1  0.49863300  0.50351413  0.00121722  1
  Ag  Ag6  1  0.74952306  0.49925927  0.25142936  1
  Ag  Ag7  1  -0.00028910  -0.00454094  0.00677050  1
  Ag  Ag8  1  0.24804309  0.74855677  0.49827102  1
  Ag  Ag9  1  -0.00335127  0.24628590  0.25122586  1
  Ag  Ag10  1  0.49742461  0.74837074  0.75226557  1
  Ag  Ag11  1  0.75590244  0.00042822  0.25017206  1
  Ag  Ag12  1  0.49970154  -0.00369102  0.00084751  1
  Ag  Ag13  1  0.75002211  0.25023047  0.49550984  1
  Ag  Ag14  1  0.00214223  0.75408423  0.24995296  1
  Ag  Ag15  1  0.50132367  0.25140730  0.75005964  1
  Sb  Sb16  1  0.49606051  0.74835137  0.24733083  1
  Sb  Sb17  1  0.00196101  0.50627495  0.00440117  1
  Sb  Sb18  1  -0.00156136  0.24741019  0.74838430  1
  Sb  Sb19  1  0.74875453  0.75032404  0.00231156  1
  Sb  Sb20  1  0.24236648  -0.00514751  0.24906336  1
  Sb  Sb21  1  0.25001555  0.25207355  0.49656016  1
  Sb  Sb22  1  0.50359502  0.25218299  0.25070373  1
  Sb  Sb23  1  0.75139646  0.74962945  0.49680795  1
  Sb  Sb24  1  0.74644614  0.49973763  0.74867760  1
  Sb  Sb25  1  0.50128000  -0.00209718  0.49858394  1
  Sb  Sb26  1  0.00004875  0.50375875  0.49616912  1
  Sb  Sb27  1  0.25049449  -0.00359586  0.75088320  1
  Sb  Sb28  1  0.74931193  0.00003595  0.74981100  1
  Sb  Sb29  1  0.25095884  0.25100376  0.00299392  1
  Sb  Sb30  1  0.74978815  0.25006683  0.00528925  1
  Sb  Sb31  1  0.25293705  0.50424045  0.74999137  1
  Te  Te32  1  0.24227341  0.25900135  0.25061195  1
  Te  Te33  1  0.25691479  0.25183742  0.74963336  1
  Te  Te34  1  0.24668816  0.74594586  0.25005973  1
  Te  Te35  1  0.25000894  0.74884643  0.75019574  1
  Te  Te36  1  0.75404998  0.25094617  0.25400860  1
  Te  Te37  1  0.74555797  0.25043948  0.74140111  1
  Te  Te38  1  0.75718447  0.74960983  0.25118057  1
  Te  Te39  1  0.74996269  0.74975181  0.74909046  1
  Te  Te40  1  0.25122718  -0.00608797  0.00133160  1
  Te  Te41  1  0.24513510  -0.00642059  0.49858507  1
  Te  Te42  1  0.25490946  0.50528803  0.00541503  1
  Te  Te43  1  0.25446908  0.50424433  0.49471248  1
  Te  Te44  1  0.75009727  0.00055844  0.00612508  1
  Te  Te45  1  0.75327152  0.00365278  0.49410599  1
  Te  Te46  1  0.74267350  0.49912762  0.00794232  1
  Te  Te47  1  0.74546267  0.49635021  0.49390921  1
  Te  Te48  1  0.00035232  0.24189060  0.00131234  1
  Te  Te49  1  -0.00203294  0.24590162  0.49976980  1
  Te  Te50  1  0.00328671  0.75304357  0.00031858  1
  Te  Te51  1  0.00265560  0.75229785  0.49984636  1
  Te  Te52  1  0.49959592  0.24955727  -0.00485856  1
  Te  Te53  1  0.50142958  0.25159426  0.50322037  1
  Te  Te54  1  0.49719539  0.75012191  -0.00216232  1
  Te  Te55  1  0.49618369  0.74814285  0.50426144  1
  Te  Te56  1  -0.00076097  -0.00141475  0.24907095  1
  Te  Te57  1  -0.00079643  -0.00442745  0.75129219  1
  Te  Te58  1  -0.00161877  0.50063187  0.24947094  1
  Te  Te59  1  -0.00138001  0.50639905  0.75088904  1
  Te  Te60  1  0.50673960  0.00016221  0.24485381  1
  Te  Te61  1  0.50112139  -0.00224663  0.75503511  1
  Te  Te62  1  0.50121911  0.50009935  0.24997544  1
  Te  Te63  1  0.50121297  0.50253529  0.75062498  1
