# generated using pymatgen
data_AgSbTe2
_symmetry_space_group_name_H-M   'P 1'
_cell_length_a   12.20149966
_cell_length_b   12.21473419
_cell_length_c   12.20495706
_cell_angle_alpha   90.00378123
_cell_angle_beta   90.00000000
_cell_angle_gamma   90.00000002
_symmetry_Int_Tables_number   1
_chemical_formula_structural   AgSbTe2
_chemical_formula_sum   'Ag16 Sb16 Te32'
_cell_volume   1819.00330392
_cell_formula_units_Z   16
loop_
 _symmetry_equiv_pos_site_id
 _symmetry_equiv_pos_as_xyz
  1  'x, y, z'
loop_
 _atom_site_type_symbol
 _atom_site_label
 _atom_site_symmetry_multiplicity
 _atom_site_fract_x
 _atom_site_fract_y
 _atom_site_fract_z
 _atom_site_occupancy
  Ag  Ag0  1  0.50157883  0.74993863  0.25216148  1
  Ag  Ag1  1  0.74694174  0.74995747  0.49982876  1
  Ag  Ag2  1  0.00157884  0.50006136  -0.00216147  1
  Ag  Ag3  1  0.49989718  -0.00118571  0.00196474  1
  Ag  Ag4  1  0.00022130  0.75026466  0.75358919  1
  Ag  Ag5  1  0.49992511  0.25021043  0.25322877  1
  Ag  Ag6  1  0.00145182  0.24994775  0.75217132  1
  Ag  Ag7  1  0.24694173  0.50004253  0.75017126  1
  Ag  Ag8  1  0.50145184  0.00005225  0.49782869  1
  Ag  Ag9  1  0.50022132  0.49973533  0.49641082  1
  Ag  Ag10  1  0.24792703  0.74974391  -0.00131444  1
  Ag  Ag11  1  -0.00007489  -0.00021043  -0.00322876  1
  Ag  Ag12  1  0.74792705  0.50025610  0.25131445  1
  Ag  Ag13  1  0.75234659  -0.00100985  0.74982931  1
  Ag  Ag14  1  -0.00010282  0.25118570  0.24803526  1
  Ag  Ag15  1  0.25234659  0.25100985  0.50017069  1
  Sb  Sb16  1  0.49846641  0.50105694  0.00336076  1
  Sb  Sb17  1  0.25129604  0.49863727  0.25033596  1
  Sb  Sb18  1  0.24701420  0.25077217  -0.00092159  1
  Sb  Sb19  1  0.75294041  0.50106195  0.74861681  1
  Sb  Sb20  1  0.24674289  -0.00019785  0.75103029  1
  Sb  Sb21  1  0.75213616  0.24928314  0.00045028  1
  Sb  Sb22  1  -0.00153357  0.74894305  0.24663923  1
  Sb  Sb23  1  -0.00198410  0.00113938  0.50230990  1
  Sb  Sb24  1  0.74701421  -0.00077216  0.25092159  1
  Sb  Sb25  1  0.00007430  0.49857987  0.50122405  1
  Sb  Sb26  1  0.25294040  0.74893806  0.50138320  1
  Sb  Sb27  1  0.75129605  0.75136273  -0.00033598  1
  Sb  Sb28  1  0.25213612  0.00071686  0.24954972  1
  Sb  Sb29  1  0.50007431  0.75142011  0.74877595  1
  Sb  Sb30  1  0.49801589  0.24886062  0.74769010  1
  Sb  Sb31  1  0.74674291  0.25019788  0.49896971  1
  Te  Te32  1  0.24988382  0.25066361  0.25545195  1
  Te  Te33  1  0.24517242  0.25455125  0.74621411  1
  Te  Te34  1  0.25548898  0.74940001  0.24543707  1
  Te  Te35  1  0.24450624  0.74567212  0.75287611  1
  Te  Te36  1  0.75026715  0.25534133  0.25112315  1
  Te  Te37  1  0.75786760  0.24541507  0.74896263  1
  Te  Te38  1  0.74611543  0.74589971  0.25534091  1
  Te  Te39  1  0.75505192  0.75251160  0.74532507  1
  Te  Te40  1  0.25026716  -0.00534135  -0.00112314  1
  Te  Te41  1  0.25786759  0.00458494  0.50103736  1
  Te  Te42  1  0.24611542  0.50410030  -0.00534093  1
  Te  Te43  1  0.25505194  0.49748837  0.50467495  1
  Te  Te44  1  0.74988381  -0.00066362  -0.00545195  1
  Te  Te45  1  0.74517241  -0.00455127  0.50378589  1
  Te  Te46  1  0.75548900  0.50060000  0.00456291  1
  Te  Te47  1  0.74450622  0.50432788  0.49712390  1
  Te  Te48  1  0.00185364  0.24880870  0.00034078  1
  Te  Te49  1  0.00470968  0.24904222  0.49871229  1
  Te  Te50  1  0.00225721  0.75135670  -0.00141533  1
  Te  Te51  1  -0.00301541  0.75140290  0.50343945  1
  Te  Te52  1  0.49787008  0.24410571  0.00644242  1
  Te  Te53  1  0.49735979  0.24938097  0.49668658  1
  Te  Te54  1  0.49681549  0.75359540  0.00343942  1
  Te  Te55  1  0.50082000  0.75092629  0.49734180  1
  Te  Te56  1  -0.00212991  0.00589429  0.24355760  1
  Te  Te57  1  -0.00264018  0.00061905  0.75331341  1
  Te  Te58  1  -0.00318451  0.49640462  0.24656055  1
  Te  Te59  1  0.00082000  0.49907370  0.75265820  1
  Te  Te60  1  0.50185365  0.00119131  0.24965921  1
  Te  Te61  1  0.50470968  0.00095778  0.75128770  1
  Te  Te62  1  0.50225722  0.49864328  0.25141534  1
  Te  Te63  1  0.49698459  0.49859711  0.74656055  1
