# generated using pymatgen
data_AgSbTe2
_symmetry_space_group_name_H-M   'P 1'
_cell_length_a   12.22180782
_cell_length_b   12.24040156
_cell_length_c   12.24165502
_cell_angle_alpha   90.00143402
_cell_angle_beta   89.99706773
_cell_angle_gamma   89.99515919
_symmetry_Int_Tables_number   1
_chemical_formula_structural   AgSbTe2
_chemical_formula_sum   'Ag16 Sb16 Te32'
_cell_volume   1831.34956845
_cell_formula_units_Z   16
loop_
 _symmetry_equiv_pos_site_id
 _symmetry_equiv_pos_as_xyz
  1  'x, y, z'
loop_
 _atom_site_type_symbol
 _atom_site_label
 _atom_site_symmetry_multiplicity
 _atom_site_fract_x
 _atom_site_fract_y
 _atom_site_fract_z
 _atom_site_occupancy
  Ag  Ag0  1  0.24325690  0.49918775  0.25352782  1
  Ag  Ag1  1  0.00163533  0.74792733  0.24581907  1
  Ag  Ag2  1  0.00529271  0.74540984  0.75352403  1
  Ag  Ag3  1  0.24450510  0.25550141  0.51379584  1
  Ag  Ag4  1  0.75690314  0.25117881  0.50304444  1
  Ag  Ag5  1  0.75861229  0.75094405  0.00014529  1
  Ag  Ag6  1  0.24459444  0.01386884  0.75029728  1
  Ag  Ag7  1  0.24317452  0.48681354  0.74666479  1
  Ag  Ag8  1  0.48558057  0.25046081  0.74912491  1
  Ag  Ag9  1  0.75641513  -0.00085521  0.24818873  1
  Ag  Ag10  1  0.24395769  0.25260612  -0.01431642  1
  Ag  Ag11  1  0.01238184  0.25477348  0.74933934  1
  Ag  Ag12  1  0.00418193  0.50256469  -0.00517735  1
  Ag  Ag13  1  0.24283741  0.74270918  0.50398743  1
  Ag  Ag14  1  0.00669454  0.49839871  0.50539002  1
  Ag  Ag15  1  0.00138962  -0.00296934  -0.00291030  1
  Sb  Sb16  1  0.49113840  0.49810865  0.50204301  1
  Sb  Sb17  1  0.24147425  0.74707917  -0.00334208  1
  Sb  Sb18  1  0.75775318  0.50056183  0.25015929  1
  Sb  Sb19  1  0.49707968  0.25011144  0.25046949  1
  Sb  Sb20  1  0.00179204  0.00236983  0.50322735  1
  Sb  Sb21  1  0.75690954  0.25029046  -0.00210179  1
  Sb  Sb22  1  0.00197074  0.25239915  0.25128380  1
  Sb  Sb23  1  0.24404452  0.00025521  0.24965210  1
  Sb  Sb24  1  0.75628774  0.00155021  0.75138068  1
  Sb  Sb25  1  0.49913729  0.00155177  0.50189384  1
  Sb  Sb26  1  0.75953927  0.74869647  0.50055493  1
  Sb  Sb27  1  0.49719680  0.74963713  0.24943963  1
  Sb  Sb28  1  0.49386729  0.49852369  -0.00286714  1
  Sb  Sb29  1  0.49698450  0.00160593  -0.00250524  1
  Sb  Sb30  1  0.49277110  0.74902611  0.75078696  1
  Sb  Sb31  1  0.75959816  0.49903732  0.75000856  1
  Te  Te32  1  0.25120530  0.25173003  0.25180159  1
  Te  Te33  1  0.24589011  0.25002133  0.74981823  1
  Te  Te34  1  0.24661633  0.74850649  0.25337137  1
  Te  Te35  1  0.24635374  0.74951333  0.74800977  1
  Te  Te36  1  0.74881114  0.24741478  0.25418397  1
  Te  Te37  1  0.75191296  0.24969168  0.74575141  1
  Te  Te38  1  0.75329911  0.75140047  0.24929649  1
  Te  Te39  1  0.75439942  0.75016018  0.75170498  1
  Te  Te40  1  0.24616304  0.00313019  -0.00159446  1
  Te  Te41  1  0.24967388  0.00337538  0.50140815  1
  Te  Te42  1  0.24545844  0.49863807  -0.00085322  1
  Te  Te43  1  0.24692058  0.49802112  0.50164559  1
  Te  Te44  1  0.75490967  -0.00106035  0.00179917  1
  Te  Te45  1  0.74992469  0.00432438  0.49625972  1
  Te  Te46  1  0.75764100  0.50230478  0.00066670  1
  Te  Te47  1  0.75726704  0.49547684  0.49922070  1
  Te  Te48  1  0.00240134  0.25111969  -0.00113578  1
  Te  Te49  1  0.00238355  0.25162978  0.50110364  1
  Te  Te50  1  0.00012819  0.74916759  -0.00149986  1
  Te  Te51  1  0.00322994  0.74785714  0.50187775  1
  Te  Te52  1  0.49427716  0.25064312  -0.00466796  1
  Te  Te53  1  0.49804037  0.25059276  0.50419244  1
  Te  Te54  1  0.51449307  0.74995282  -0.00043217  1
  Te  Te55  1  0.49110884  0.74993048  0.50075725  1
  Te  Te56  1  -0.00246394  -0.00515479  0.24458450  1
  Te  Te57  1  0.00350959  -0.00030193  0.75296063  1
  Te  Te58  1  0.00438831  0.50267942  0.24914336  1
  Te  Te59  1  0.00226151  0.50022321  0.75028978  1
  Te  Te60  1  0.51033856  -0.00111058  0.24940220  1
  Te  Te61  1  0.49131060  0.00407998  0.75046744  1
  Te  Te62  1  0.48899848  0.50063083  0.24937583  1
  Te  Te63  1  0.49019032  0.49608741  0.75056247  1
