# generated using pymatgen
data_AgSbTe2
_symmetry_space_group_name_H-M   'P 1'
_cell_length_a   12.21649324
_cell_length_b   12.21560838
_cell_length_c   12.21828685
_cell_angle_alpha   90.00480936
_cell_angle_beta   89.99506444
_cell_angle_gamma   90.00222406
_symmetry_Int_Tables_number   1
_chemical_formula_structural   AgSbTe2
_chemical_formula_sum   'Ag16 Sb16 Te32'
_cell_volume   1823.35811243
_cell_formula_units_Z   16
loop_
 _symmetry_equiv_pos_site_id
 _symmetry_equiv_pos_as_xyz
  1  'x, y, z'
loop_
 _atom_site_type_symbol
 _atom_site_label
 _atom_site_symmetry_multiplicity
 _atom_site_fract_x
 _atom_site_fract_y
 _atom_site_fract_z
 _atom_site_occupancy
  Ag  Ag0  1  -0.00516234  0.49854602  -0.00351496  1
  Ag  Ag1  1  0.75096406  0.24639809  0.49797687  1
  Ag  Ag2  1  0.50722935  0.00459291  0.50072082  1
  Ag  Ag3  1  -0.00410562  0.00194780  0.00050313  1
  Ag  Ag4  1  -0.00669678  0.24763554  0.25303038  1
  Ag  Ag5  1  -0.00514141  0.49631432  0.50272994  1
  Ag  Ag6  1  0.24916429  0.49691542  0.75035578  1
  Ag  Ag7  1  0.50230980  0.25165645  0.74792642  1
  Ag  Ag8  1  -0.00780462  0.00420308  0.49885653  1
  Ag  Ag9  1  0.50491093  0.49795356  -0.00383998  1
  Ag  Ag10  1  0.75170643  0.74789419  -0.00104285  1
  Ag  Ag11  1  0.75110093  0.49819744  0.75062829  1
  Ag  Ag12  1  0.75239686  0.00425226  0.25491940  1
  Ag  Ag13  1  0.75136953  0.75319924  0.50050298  1
  Ag  Ag14  1  0.50629948  0.24874799  0.25293020  1
  Ag  Ag15  1  0.24921460  0.00347571  0.74857465  1
  Sb  Sb16  1  -0.00396549  0.25238158  0.74631650  1
  Sb  Sb17  1  0.75057664  0.00339345  0.74510982  1
  Sb  Sb18  1  0.24824058  0.24980939  0.50271788  1
  Sb  Sb19  1  0.50642731  0.49393540  0.50434489  1
  Sb  Sb20  1  0.24787101  0.00276739  0.25076215  1
  Sb  Sb21  1  0.75075738  0.49480510  0.24944010  1
  Sb  Sb22  1  0.24799931  0.74944332  -0.00236538  1
  Sb  Sb23  1  0.50504682  0.00155235  -0.00071040  1
  Sb  Sb24  1  0.24868850  0.75006894  0.50244253  1
  Sb  Sb25  1  0.24884680  0.25052896  -0.00325675  1
  Sb  Sb26  1  -0.00323964  0.74822601  0.74942625  1
  Sb  Sb27  1  -0.00476121  0.75334321  0.25049345  1
  Sb  Sb28  1  0.50533296  0.75066192  0.25136463  1
  Sb  Sb29  1  0.50313685  0.74876864  0.74935592  1
  Sb  Sb30  1  0.75127344  0.25161265  0.00167767  1
  Sb  Sb31  1  0.24855917  0.49714672  0.25053866  1
  Te  Te32  1  0.25200910  0.24999792  0.25050906  1
  Te  Te33  1  0.25761159  0.25086936  0.74965457  1
  Te  Te34  1  0.25208009  0.75008641  0.24999339  1
  Te  Te35  1  0.25178082  0.74899637  0.74973872  1
  Te  Te36  1  0.75026836  0.24596189  0.25320093  1
  Te  Te37  1  0.74584122  0.25461397  0.74492170  1
  Te  Te38  1  0.74965794  0.75850342  0.25130532  1
  Te  Te39  1  0.74944005  0.74255737  0.74966575  1
  Te  Te40  1  0.24280046  -0.00239013  -0.00573441  1
  Te  Te41  1  0.24808260  -0.00177936  0.50476426  1
  Te  Te42  1  0.24675754  0.50152656  -0.00638518  1
  Te  Te43  1  0.24193783  0.50236330  0.50663992  1
  Te  Te44  1  0.75376922  -0.00294245  0.00130032  1
  Te  Te45  1  0.75205260  0.00076577  0.50187392  1
  Te  Te46  1  0.75305895  0.50112229  -0.00023120  1
  Te  Te47  1  0.75287956  0.49995154  0.50049586  1
  Te  Te48  1  -0.00092575  0.25050337  0.00486480  1
  Te  Te49  1  -0.00319360  0.24920112  0.49794144  1
  Te  Te50  1  -0.00604315  0.74810553  0.00078699  1
  Te  Te51  1  -0.00674784  0.75033478  0.49922180  1
  Te  Te52  1  0.50060650  0.25445917  -0.00004914  1
  Te  Te53  1  0.50356120  0.24793504  0.49906899  1
  Te  Te54  1  0.50692619  0.74396353  0.00091367  1
  Te  Te55  1  0.50729360  0.75745276  0.49864860  1
  Te  Te56  1  -0.00129968  0.00397177  0.25128354  1
  Te  Te57  1  0.00283966  0.00236125  0.74987994  1
  Te  Te58  1  0.00124866  0.49353940  0.24934146  1
  Te  Te59  1  -0.00065877  0.49771007  0.75143386  1
  Te  Te60  1  0.50137612  0.00599031  0.25140978  1
  Te  Te61  1  0.49753250  0.00504771  0.74836729  1
  Te  Te62  1  0.49864488  0.49266452  0.24488338  1
  Te  Te63  1  0.50026560  0.49618037  0.75137516  1
