# generated using pymatgen
data_AgSbTe2
_symmetry_space_group_name_H-M   'P 1'
_cell_length_a   12.23119263
_cell_length_b   12.22915182
_cell_length_c   12.22383946
_cell_angle_alpha   90.00637271
_cell_angle_beta   90.00216087
_cell_angle_gamma   89.99989624
_symmetry_Int_Tables_number   1
_chemical_formula_structural   AgSbTe2
_chemical_formula_sum   'Ag16 Sb16 Te32'
_cell_volume   1828.40658655
_cell_formula_units_Z   16
loop_
 _symmetry_equiv_pos_site_id
 _symmetry_equiv_pos_as_xyz
  1  'x, y, z'
loop_
 _atom_site_type_symbol
 _atom_site_label
 _atom_site_symmetry_multiplicity
 _atom_site_fract_x
 _atom_site_fract_y
 _atom_site_fract_z
 _atom_site_occupancy
  Ag  Ag0  1  0.73670637  -0.00089355  0.74341484  1
  Ag  Ag1  1  0.74560823  0.50407001  0.25325440  1
  Ag  Ag2  1  0.49694321  0.23721943  0.75049663  1
  Ag  Ag3  1  0.50041548  0.00067515  -0.01377376  1
  Ag  Ag4  1  0.50277248  0.76341479  0.74748361  1
  Ag  Ag5  1  0.50621483  -0.00354045  0.51305889  1
  Ag  Ag6  1  0.74410856  -0.00463926  0.25731394  1
  Ag  Ag7  1  0.25315062  0.24919742  -0.00682913  1
  Ag  Ag8  1  0.50449070  0.75271812  0.25296261  1
  Ag  Ag9  1  0.74539071  0.75569512  0.50121172  1
  Ag  Ag10  1  0.25448756  0.50007641  0.24979693  1
  Ag  Ag11  1  0.74366630  0.50043133  0.74655447  1
  Ag  Ag12  1  -0.00663390  0.00020382  0.50516674  1
  Ag  Ag13  1  0.00243790  0.24629287  0.74928121  1
  Ag  Ag14  1  0.26346994  0.00509830  0.74982324  1
  Ag  Ag15  1  0.25589844  0.49370027  0.75103793  1
  Sb  Sb16  1  0.74843851  0.24263995  0.50333827  1
  Sb  Sb17  1  0.25695846  -0.00005104  0.25020616  1
  Sb  Sb18  1  0.74568563  0.24822643  -0.00414622  1
  Sb  Sb19  1  0.25589566  0.75164377  0.50138354  1
  Sb  Sb20  1  -0.00320194  0.75372954  0.74669005  1
  Sb  Sb21  1  -0.00531365  0.75150849  0.25387046  1
  Sb  Sb22  1  0.25174631  0.24916111  0.50786432  1
  Sb  Sb23  1  0.49867455  0.49795484  -0.00300438  1
  Sb  Sb24  1  0.49948208  0.24866502  0.25042823  1
  Sb  Sb25  1  -0.00064881  0.00347404  -0.00548715  1
  Sb  Sb26  1  0.74573645  0.75138128  -0.00180785  1
  Sb  Sb27  1  0.25475255  0.75111212  -0.00177825  1
  Sb  Sb28  1  0.00087179  0.49726794  -0.00211896  1
  Sb  Sb29  1  -0.00295042  0.49850011  0.50309663  1
  Sb  Sb30  1  0.50259891  0.50389090  0.50283413  1
  Sb  Sb31  1  0.00101424  0.24753031  0.25161942  1
  Te  Te32  1  0.24952829  0.25693688  0.24285332  1
  Te  Te33  1  0.25284061  0.25116979  0.75075484  1
  Te  Te34  1  0.25641153  0.74343272  0.25008307  1
  Te  Te35  1  0.25475062  0.74864847  0.74933976  1
  Te  Te36  1  0.75064625  0.25376723  0.24815709  1
  Te  Te37  1  0.74829734  0.25218523  0.75092226  1
  Te  Te38  1  0.74642571  0.74942100  0.25132818  1
  Te  Te39  1  0.74716687  0.74905638  0.74906369  1
  Te  Te40  1  0.25259003  0.00298058  -0.00301136  1
  Te  Te41  1  0.25086142  -0.00085925  0.50327515  1
  Te  Te42  1  0.25033212  0.49592316  -0.00301608  1
  Te  Te43  1  0.24905562  0.50039327  0.50053324  1
  Te  Te44  1  0.74666287  0.00082897  -0.00038341  1
  Te  Te45  1  0.74731584  -0.00100712  0.50140207  1
  Te  Te46  1  0.75003297  0.49974345  0.00024776  1
  Te  Te47  1  0.75028660  0.50682323  0.50058439  1
  Te  Te48  1  0.00890386  0.24941840  -0.00782248  1
  Te  Te49  1  0.00033198  0.24257723  0.50652770  1
  Te  Te50  1  0.00183617  0.75040011  0.00077850  1
  Te  Te51  1  -0.00947038  0.75848268  0.50004420  1
  Te  Te52  1  0.49601031  0.24486698  -0.00429907  1
  Te  Te53  1  0.49983545  0.24100003  0.50579268  1
  Te  Te54  1  0.49976195  0.75750540  -0.00059735  1
  Te  Te55  1  0.50423720  0.75304580  0.50063113  1
  Te  Te56  1  -0.00708599  0.00107088  0.25550810  1
  Te  Te57  1  -0.00093233  0.00193906  0.74781087  1
  Te  Te58  1  -0.00186813  0.49950958  0.25064992  1
  Te  Te59  1  -0.00037717  0.49555683  0.74861515  1
  Te  Te60  1  0.50255544  -0.00169283  0.25137417  1
  Te  Te61  1  0.50059165  -0.00147663  0.74967798  1
  Te  Te62  1  0.50239277  0.50163406  0.25006699  1
  Te  Te63  1  0.50120476  0.50036384  0.74986485  1
