# generated using pymatgen
data_AgSbTe2
_symmetry_space_group_name_H-M   'P 1'
_cell_length_a   12.21853877
_cell_length_b   12.21467395
_cell_length_c   12.21857731
_cell_angle_alpha   90.01048822
_cell_angle_beta   89.99717649
_cell_angle_gamma   90.00128339
_symmetry_Int_Tables_number   1
_chemical_formula_structural   AgSbTe2
_chemical_formula_sum   'Ag16 Sb16 Te32'
_cell_volume   1823.56724488
_cell_formula_units_Z   16
loop_
 _symmetry_equiv_pos_site_id
 _symmetry_equiv_pos_as_xyz
  1  'x, y, z'
loop_
 _atom_site_type_symbol
 _atom_site_label
 _atom_site_symmetry_multiplicity
 _atom_site_fract_x
 _atom_site_fract_y
 _atom_site_fract_z
 _atom_site_occupancy
  Ag  Ag0  1  0.74484564  0.74790441  0.49416904  1
  Ag  Ag1  1  0.74603654  0.74081354  0.00642646  1
  Ag  Ag2  1  0.49911586  0.00006024  0.49641653  1
  Ag  Ag3  1  0.74599435  0.25906814  0.00154401  1
  Ag  Ag4  1  0.50089952  0.25109773  0.24899059  1
  Ag  Ag5  1  0.50191347  0.74566069  0.75114809  1
  Ag  Ag6  1  0.50633720  0.49979977  0.00042636  1
  Ag  Ag7  1  0.74637163  0.50491408  0.24320108  1
  Ag  Ag8  1  0.00083345  0.25450087  0.75212691  1
  Ag  Ag9  1  -0.00679098  0.74720649  0.24786314  1
  Ag  Ag10  1  0.50670082  0.74834016  0.24929012  1
  Ag  Ag11  1  0.25427484  0.49654542  0.75113415  1
  Ag  Ag12  1  0.25493826  0.24995036  0.50129554  1
  Ag  Ag13  1  -0.00672602  0.49961400  0.00063800  1
  Ag  Ag14  1  0.25522103  0.00063819  0.25265738  1
  Ag  Ag15  1  0.49819665  0.25494900  0.75117000  1
  Sb  Sb16  1  0.00037395  -0.00034053  0.49761638  1
  Sb  Sb17  1  0.74532535  0.25254986  0.49873170  1
  Sb  Sb18  1  0.74541280  0.49954218  0.75853892  1
  Sb  Sb19  1  0.25388067  0.00277945  0.74691691  1
  Sb  Sb20  1  0.25510785  0.74993510  0.49872638  1
  Sb  Sb21  1  0.74750597  -0.00008167  0.74922051  1
  Sb  Sb22  1  -0.00086132  0.25247773  0.24764460  1
  Sb  Sb23  1  0.74557886  -0.00579604  0.25110448  1
  Sb  Sb24  1  0.25396109  0.49953792  0.24954555  1
  Sb  Sb25  1  0.25373676  0.25284970  -0.00184262  1
  Sb  Sb26  1  -0.00154383  0.74502831  0.75235753  1
  Sb  Sb27  1  0.25449153  0.74747367  0.00073223  1
  Sb  Sb28  1  0.50082793  0.50070235  0.50089595  1
  Sb  Sb29  1  -0.00134010  0.50019555  0.49999816  1
  Sb  Sb30  1  -0.00186454  -0.00005014  0.00212702  1
  Sb  Sb31  1  0.50151922  -0.00001634  0.00295017  1
  Te  Te32  1  0.25318246  0.24913678  0.25338216  1
  Te  Te33  1  0.25474181  0.25212368  0.74828922  1
  Te  Te34  1  0.25243082  0.75125163  0.25134312  1
  Te  Te35  1  0.25516923  0.74605538  0.74891057  1
  Te  Te36  1  0.74660496  0.25345974  0.24779624  1
  Te  Te37  1  0.74703299  0.25038352  0.75189297  1
  Te  Te38  1  0.74681931  0.74943308  0.24778809  1
  Te  Te39  1  0.74491118  0.74956756  0.75088201  1
  Te  Te40  1  0.24925785  -0.00032556  0.00903270  1
  Te  Te41  1  0.25527760  0.00443062  0.49604577  1
  Te  Te42  1  0.25097912  0.49999087  -0.00427240  1
  Te  Te43  1  0.24914624  0.49384836  0.50586446  1
  Te  Te44  1  0.75068491  0.00068491  -0.00025862  1
  Te  Te45  1  0.74340546  -0.00577896  0.50007727  1
  Te  Te46  1  0.74765736  0.50016683  0.00193231  1
  Te  Te47  1  0.75105563  0.50517085  0.48992454  1
  Te  Te48  1  -0.00523490  0.25386126  -0.00245144  1
  Te  Te49  1  0.00324615  0.24910396  0.50503381  1
  Te  Te50  1  -0.00574553  0.74620753  0.00179202  1
  Te  Te51  1  -0.00629866  0.75087700  0.49662459  1
  Te  Te52  1  0.50362133  0.25136255  -0.00023332  1
  Te  Te53  1  0.49941876  0.24832794  0.50030947  1
  Te  Te54  1  0.50353696  0.74847329  0.00072102  1
  Te  Te55  1  0.50238403  0.75131770  0.49871123  1
  Te  Te56  1  0.00766765  -0.00539090  0.25019901  1
  Te  Te57  1  0.00232127  0.00796905  0.74998210  1
  Te  Te58  1  -0.00155164  0.50377148  0.24476045  1
  Te  Te59  1  0.00447506  0.49679668  0.75493394  1
  Te  Te60  1  0.49694600  0.00029218  0.25312832  1
  Te  Te61  1  0.49811666  0.00033911  0.74462787  1
  Te  Te62  1  0.50051149  0.50060171  0.24658051  1
  Te  Te63  1  0.49795401  0.49863996  0.75288872  1
