# generated using pymatgen
data_AgSbTe2
_symmetry_space_group_name_H-M   'P 1'
_cell_length_a   12.21989287
_cell_length_b   12.22391740
_cell_length_c   12.23316213
_cell_angle_alpha   89.99631328
_cell_angle_beta   90.00082015
_cell_angle_gamma   90.00891167
_symmetry_Int_Tables_number   1
_chemical_formula_structural   AgSbTe2
_chemical_formula_sum   'Ag16 Sb16 Te32'
_cell_volume   1827.32809203
_cell_formula_units_Z   16
loop_
 _symmetry_equiv_pos_site_id
 _symmetry_equiv_pos_as_xyz
  1  'x, y, z'
loop_
 _atom_site_type_symbol
 _atom_site_label
 _atom_site_symmetry_multiplicity
 _atom_site_fract_x
 _atom_site_fract_y
 _atom_site_fract_z
 _atom_site_occupancy
  Ag  Ag0  1  0.24318583  0.75473042  0.49858685  1
  Ag  Ag1  1  0.00224738  -0.01105079  0.00173898  1
  Ag  Ag2  1  0.00784794  -0.00877247  0.49846684  1
  Ag  Ag3  1  0.00386037  0.75217183  0.75070262  1
  Ag  Ag4  1  0.24611886  -0.00637299  0.74475141  1
  Ag  Ag5  1  0.49817826  0.74725109  0.24667167  1
  Ag  Ag6  1  0.00222370  0.74944788  0.24883316  1
  Ag  Ag7  1  0.75460307  0.74670580  0.00379670  1
  Ag  Ag8  1  0.24623444  -0.00500019  0.25524769  1
  Ag  Ag9  1  0.24838408  0.24486719  0.49661021  1
  Ag  Ag10  1  0.75134499  0.50508845  0.24658485  1
  Ag  Ag11  1  0.50195923  0.50699401  0.00510088  1
  Ag  Ag12  1  -0.00220585  0.51060788  0.00424912  1
  Ag  Ag13  1  0.49574046  0.75002251  0.75248171  1
  Ag  Ag14  1  0.00221112  0.50923672  0.49639597  1
  Ag  Ag15  1  0.49661011  0.25170026  0.25002783  1
  Sb  Sb16  1  0.25082667  0.24822718  0.00438923  1
  Sb  Sb17  1  0.49862834  -0.00827995  0.00156576  1
  Sb  Sb18  1  0.00353739  0.25053355  0.25143719  1
  Sb  Sb19  1  0.75346949  -0.00424301  0.24872629  1
  Sb  Sb20  1  0.24878492  0.50581977  0.25086562  1
  Sb  Sb21  1  0.75724398  0.74857470  0.49605296  1
  Sb  Sb22  1  0.75092730  0.25124057  0.49579911  1
  Sb  Sb23  1  0.49886379  0.50370217  0.49521730  1
  Sb  Sb24  1  0.75152365  0.50416233  0.75356566  1
  Sb  Sb25  1  0.49428399  0.25070175  0.75029575  1
  Sb  Sb26  1  0.24410122  0.75089708  0.00245326  1
  Sb  Sb27  1  0.24892908  0.50803736  0.74842593  1
  Sb  Sb28  1  0.75007877  0.25329291  0.00363419  1
  Sb  Sb29  1  0.75407522  -0.00495279  0.75092715  1
  Sb  Sb30  1  0.49091443  -0.00278067  0.49901247  1
  Sb  Sb31  1  0.00397823  0.24752530  0.74889367  1
  Te  Te32  1  0.25459106  0.24324955  0.25444104  1
  Te  Te33  1  0.25111076  0.23999656  0.74174860  1
  Te  Te34  1  0.24888902  0.75349763  0.25275808  1
  Te  Te35  1  0.24827009  0.75366122  0.74585873  1
  Te  Te36  1  0.74052705  0.25690896  0.25055523  1
  Te  Te37  1  0.74754958  0.24941946  0.74949324  1
  Te  Te38  1  0.74986521  0.74669087  0.24680247  1
  Te  Te39  1  0.74977792  0.75017826  0.75638293  1
  Te  Te40  1  0.24425624  0.00154287  0.00143777  1
  Te  Te41  1  0.24739607  -0.00334679  0.49775135  1
  Te  Te42  1  0.24765094  0.49777453  -0.00073742  1
  Te  Te43  1  0.24444605  0.50163792  0.50025435  1
  Te  Te44  1  0.75807392  -0.00558863  0.00054468  1
  Te  Te45  1  0.76239211  0.00113350  0.49972818  1
  Te  Te46  1  0.75282337  0.50327056  0.00329018  1
  Te  Te47  1  0.75774511  0.49960114  0.49338181  1
  Te  Te48  1  -0.00032492  0.25257742  -0.00061355  1
  Te  Te49  1  0.00482119  0.25065854  0.50014569  1
  Te  Te50  1  0.00122233  0.74863786  0.00172066  1
  Te  Te51  1  0.00048944  0.74960155  0.49878965  1
  Te  Te52  1  0.50024143  0.25736510  0.00454032  1
  Te  Te53  1  0.49480393  0.25083947  0.49586328  1
  Te  Te54  1  0.50185311  0.74753494  0.00261693  1
  Te  Te55  1  0.49596521  0.74896442  0.49931465  1
  Te  Te56  1  0.00179062  -0.00110738  0.24931210  1
  Te  Te57  1  0.00312379  -0.00328178  0.75053792  1
  Te  Te58  1  0.00008679  0.50121247  0.24800097  1
  Te  Te59  1  0.00004500  0.50528846  0.75133395  1
  Te  Te60  1  0.49721959  -0.00357396  0.24911779  1
  Te  Te61  1  0.49491103  -0.00648908  0.75030115  1
  Te  Te62  1  0.49966044  0.50576467  0.24767332  1
  Te  Te63  1  0.50001608  0.50629383  0.75614592  1
