# generated using pymatgen
data_AgSbTe2
_symmetry_space_group_name_H-M   'P 1'
_cell_length_a   12.28735871
_cell_length_b   12.31782909
_cell_length_c   12.31555437
_cell_angle_alpha   90.00000000
_cell_angle_beta   89.99999995
_cell_angle_gamma   89.99281113
_symmetry_Int_Tables_number   1
_chemical_formula_structural   AgSbTe2
_chemical_formula_sum   'Ag16 Sb16 Te32'
_cell_volume   1864.00328603
_cell_formula_units_Z   16
loop_
 _symmetry_equiv_pos_site_id
 _symmetry_equiv_pos_as_xyz
  1  'x, y, z'
loop_
 _atom_site_type_symbol
 _atom_site_label
 _atom_site_symmetry_multiplicity
 _atom_site_fract_x
 _atom_site_fract_y
 _atom_site_fract_z
 _atom_site_occupancy
  Ag  Ag0  1  -0.00729773  0.47721571  0.50000018  1
  Ag  Ag1  1  0.76629846  0.24849492  0.50000070  1
  Ag  Ag2  1  0.75964502  0.48540487  0.74740796  1
  Ag  Ag3  1  0.75562871  0.25359457  -0.00000034  1
  Ag  Ag4  1  0.76756202  0.01415293  0.25846666  1
  Ag  Ag5  1  -0.00269857  0.76469590  0.25950152  1
  Ag  Ag6  1  -0.00944861  0.23568026  0.27011889  1
  Ag  Ag7  1  0.22863681  0.24317176  0.50000023  1
  Ag  Ag8  1  0.76756154  0.01415396  0.74153329  1
  Ag  Ag9  1  -0.00269860  0.76469552  0.74049845  1
  Ag  Ag10  1  -0.00944749  0.23567957  0.72988059  1
  Ag  Ag11  1  0.22897001  0.00622381  0.73918371  1
  Ag  Ag12  1  0.50917433  0.49471305  -0.00000002  1
  Ag  Ag13  1  -0.00204970  0.01790378  0.50000020  1
  Ag  Ag14  1  0.75964693  0.48540540  0.25259203  1
  Ag  Ag15  1  0.22896965  0.00622393  0.26081618  1
  Sb  Sb16  1  0.75429081  0.75475271  0.49999999  1
  Sb  Sb17  1  0.23650938  0.49296742  0.25341923  1
  Sb  Sb18  1  0.50385872  0.00384241  0.49999998  1
  Sb  Sb19  1  0.24221411  0.24939142  0.00000017  1
  Sb  Sb20  1  0.23650989  0.49296761  0.74658081  1
  Sb  Sb21  1  -0.00201568  0.00245130  0.00000007  1
  Sb  Sb22  1  0.51218478  0.49441193  0.50000006  1
  Sb  Sb23  1  0.50999162  0.25004393  0.74962179  1
  Sb  Sb24  1  0.24169577  0.76035357  0.50000003  1
  Sb  Sb25  1  -0.00348557  0.49709000  -0.00000004  1
  Sb  Sb26  1  0.50999213  0.25004413  0.25037822  1
  Sb  Sb27  1  0.50383699  0.75007306  0.24912631  1
  Sb  Sb28  1  0.24614926  0.75082512  -0.00000001  1
  Sb  Sb29  1  0.75216727  0.74709176  -0.00000002  1
  Sb  Sb30  1  0.50383699  0.75007310  0.75087364  1
  Sb  Sb31  1  0.50435497  0.00468363  0.00000004  1
  Te  Te32  1  0.24402590  0.24691524  0.24619166  1
  Te  Te33  1  0.24402557  0.24691496  0.75380813  1
  Te  Te34  1  0.24056783  0.75845637  0.24915031  1
  Te  Te35  1  0.24056775  0.75845651  0.75084967  1
  Te  Te36  1  0.75219695  0.24867296  0.25366027  1
  Te  Te37  1  0.75219630  0.24867267  0.74633979  1
  Te  Te38  1  0.75658042  0.75385588  0.25014422  1
  Te  Te39  1  0.75658051  0.75385565  0.74985579  1
  Te  Te40  1  0.25764324  -0.00015355  -0.00000003  1
  Te  Te41  1  0.24822214  0.00567798  0.50000014  1
  Te  Te42  1  0.26260865  0.49930614  -0.00000000  1
  Te  Te43  1  0.24366031  0.48784874  0.49999996  1
  Te  Te44  1  0.74701883  0.00666491  0.00000009  1
  Te  Te45  1  0.75317263  0.00156154  0.49999991  1
  Te  Te46  1  0.75046293  0.49823309  -0.00000008  1
  Te  Te47  1  0.75559958  0.49661680  0.50000013  1
  Te  Te48  1  -0.00671588  0.25227458  -0.00000028  1
  Te  Te49  1  -0.00103274  0.24735375  0.50000011  1
  Te  Te50  1  -0.00018997  0.74455269  -0.00000008  1
  Te  Te51  1  -0.00205047  0.75421086  0.50000007  1
  Te  Te52  1  0.51080217  0.25445046  -0.00000023  1
  Te  Te53  1  0.49527512  0.24902042  0.50000016  1
  Te  Te54  1  0.49934814  0.73905855  -0.00000006  1
  Te  Te55  1  0.49541816  0.74761771  0.50000008  1
  Te  Te56  1  -0.00303147  0.00127528  0.24226174  1
  Te  Te57  1  -0.00303112  0.00127657  0.75773817  1
  Te  Te58  1  -0.00404027  0.49916953  0.25125266  1
  Te  Te59  1  -0.00403903  0.49916934  0.74874723  1
  Te  Te60  1  0.50167371  -0.00187798  0.25099782  1
  Te  Te61  1  0.50167366  -0.00187773  0.74900215  1
  Te  Te62  1  0.51213304  0.50214863  0.25171680  1
  Te  Te63  1  0.51213319  0.50214844  0.74828323  1
