# generated using pymatgen
data_AgSbTe2
_symmetry_space_group_name_H-M   'P 1'
_cell_length_a   12.21496419
_cell_length_b   12.21405919
_cell_length_c   12.22178541
_cell_angle_alpha   89.99953336
_cell_angle_beta   90.00015150
_cell_angle_gamma   89.99898201
_symmetry_Int_Tables_number   1
_chemical_formula_structural   AgSbTe2
_chemical_formula_sum   'Ag16 Sb16 Te32'
_cell_volume   1823.42066463
_cell_formula_units_Z   16
loop_
 _symmetry_equiv_pos_site_id
 _symmetry_equiv_pos_as_xyz
  1  'x, y, z'
loop_
 _atom_site_type_symbol
 _atom_site_label
 _atom_site_symmetry_multiplicity
 _atom_site_fract_x
 _atom_site_fract_y
 _atom_site_fract_z
 _atom_site_occupancy
  Ag  Ag0  1  0.75156261  -0.00547057  0.75748149  1
  Ag  Ag1  1  0.74989945  0.75717309  0.00381802  1
  Ag  Ag2  1  0.74770280  -0.00731019  0.24325964  1
  Ag  Ag3  1  0.49614147  0.24960807  0.24484689  1
  Ag  Ag4  1  0.49541826  0.50089600  0.00405152  1
  Ag  Ag5  1  0.50240556  -0.00178276  0.00295831  1
  Ag  Ag6  1  0.75021263  0.75336078  0.49638696  1
  Ag  Ag7  1  0.50374067  0.75166945  0.24448621  1
  Ag  Ag8  1  0.25396531  0.24968366  0.00093117  1
  Ag  Ag9  1  0.25054126  0.49938947  0.75439590  1
  Ag  Ag10  1  -0.00224539  -0.00494117  -0.00173168  1
  Ag  Ag11  1  0.25404868  0.49863788  0.24518048  1
  Ag  Ag12  1  -0.00140075  0.75467001  0.75467196  1
  Ag  Ag13  1  -0.00443870  0.75278055  0.24552188  1
  Ag  Ag14  1  0.25232236  0.24962504  0.49910321  1
  Ag  Ag15  1  0.24828469  0.00010201  0.75541096  1
  Sb  Sb16  1  0.00288963  0.24736182  0.24638030  1
  Sb  Sb17  1  0.00309952  0.24509955  0.75324531  1
  Sb  Sb18  1  0.00497630  0.50561597  0.00065530  1
  Sb  Sb19  1  0.00170157  0.50210332  0.49962802  1
  Sb  Sb20  1  0.50161700  0.75195596  0.75567305  1
  Sb  Sb21  1  0.49669928  0.24874532  0.75517264  1
  Sb  Sb22  1  0.25113374  0.75104410  0.00021321  1
  Sb  Sb23  1  0.74984975  0.50587382  0.75468634  1
  Sb  Sb24  1  0.74704031  0.24677127  0.49711255  1
  Sb  Sb25  1  0.25157121  0.00088575  0.24361519  1
  Sb  Sb26  1  0.00032275  -0.00234100  0.50093007  1
  Sb  Sb27  1  0.49747413  0.50096105  0.49600184  1
  Sb  Sb28  1  0.74603848  0.24181833  0.00159899  1
  Sb  Sb29  1  0.25088973  0.75134763  0.49954307  1
  Sb  Sb30  1  0.49936290  -0.00086530  0.49579887  1
  Sb  Sb31  1  0.74642904  0.50875701  0.24659984  1
  Te  Te32  1  0.25240213  0.25140533  0.24776029  1
  Te  Te33  1  0.25006461  0.24977109  0.75161085  1
  Te  Te34  1  0.25033005  0.74726272  0.25254527  1
  Te  Te35  1  0.24641847  0.75113127  0.74760772  1
  Te  Te36  1  0.74545248  0.24331577  0.25200041  1
  Te  Te37  1  0.75052549  0.24207503  0.74759933  1
  Te  Te38  1  0.75008903  0.75154649  0.24732071  1
  Te  Te39  1  0.75217787  0.75373226  0.75183976  1
  Te  Te40  1  0.25136823  0.00168597  -0.00272909  1
  Te  Te41  1  0.25066090  0.00473980  0.50953299  1
  Te  Te42  1  0.25284821  0.49774459  0.00026628  1
  Te  Te43  1  0.25093378  0.49540296  0.50163993  1
  Te  Te44  1  0.74867939  -0.00111622  0.00013885  1
  Te  Te45  1  0.74968282  -0.00462736  0.50050098  1
  Te  Te46  1  0.74339045  0.50532159  -0.00115201  1
  Te  Te47  1  0.74978868  0.50644717  0.50136073  1
  Te  Te48  1  0.00637838  0.24294337  0.00077985  1
  Te  Te49  1  0.00742014  0.25039070  0.49926175  1
  Te  Te50  1  -0.00249701  0.75366979  0.00058475  1
  Te  Te51  1  -0.00479921  0.75064751  0.49836313  1
  Te  Te52  1  0.49664791  0.24897447  0.00428844  1
  Te  Te53  1  0.49502429  0.25027588  0.49133539  1
  Te  Te54  1  0.50177043  0.75239598  0.00377190  1
  Te  Te55  1  0.50532902  0.75004182  0.49108089  1
  Te  Te56  1  -0.00215118  -0.00445372  0.24559037  1
  Te  Te57  1  0.00074594  -0.00398255  0.75381553  1
  Te  Te58  1  0.00612211  0.50528013  0.24893744  1
  Te  Te59  1  0.00589043  0.50714492  0.75090941  1
  Te  Te60  1  0.50083124  -0.00236583  0.24585056  1
  Te  Te61  1  0.49913878  -0.00066686  0.75698530  1
  Te  Te62  1  0.49679420  0.50062984  0.24599732  1
  Te  Te63  1  0.49328570  0.50001017  0.75697745  1
