# generated using pymatgen
data_AgSbTe2
_symmetry_space_group_name_H-M   'P 1'
_cell_length_a   12.28513350
_cell_length_b   12.28211835
_cell_length_c   12.29371165
_cell_angle_alpha   89.99522896
_cell_angle_beta   89.99797828
_cell_angle_gamma   89.99342477
_symmetry_Int_Tables_number   1
_chemical_formula_structural   AgSbTe2
_chemical_formula_sum   'Ag16 Sb16 Te32'
_cell_volume   1854.96694926
_cell_formula_units_Z   16
loop_
 _symmetry_equiv_pos_site_id
 _symmetry_equiv_pos_as_xyz
  1  'x, y, z'
loop_
 _atom_site_type_symbol
 _atom_site_label
 _atom_site_symmetry_multiplicity
 _atom_site_fract_x
 _atom_site_fract_y
 _atom_site_fract_z
 _atom_site_occupancy
  Ag  Ag0  1  0.50582180  0.01259263  0.49597670  1
  Ag  Ag1  1  0.25981066  0.25387587  0.50056600  1
  Ag  Ag2  1  0.74006585  0.49765147  0.74205630  1
  Ag  Ag3  1  0.49802330  0.48894099  0.49339471  1
  Ag  Ag4  1  -0.00269592  0.75644087  0.74796637  1
  Ag  Ag5  1  0.50874372  0.00262366  0.00488257  1
  Ag  Ag6  1  0.50039648  0.25052489  0.73715371  1
  Ag  Ag7  1  0.50273021  0.74958472  0.25400590  1
  Ag  Ag8  1  0.26329890  0.49568041  0.73968191  1
  Ag  Ag9  1  0.50075224  0.25108955  0.26311810  1
  Ag  Ag10  1  0.73539434  0.49851524  0.25925601  1
  Ag  Ag11  1  -0.00849413  -0.00257526  -0.00406359  1
  Ag  Ag12  1  -0.00915262  0.00193097  0.50327978  1
  Ag  Ag13  1  0.26801253  0.49583474  0.26161954  1
  Ag  Ag14  1  0.74569808  0.00082922  0.74535023  1
  Ag  Ag15  1  0.73948022  0.00128383  0.25486549  1
  Sb  Sb16  1  0.25454263  0.00466153  0.74774320  1
  Sb  Sb17  1  0.74827697  0.75239691  0.00025406  1
  Sb  Sb18  1  0.74932087  0.75164583  0.49979405  1
  Sb  Sb19  1  0.00054645  0.75446169  0.25114490  1
  Sb  Sb20  1  -0.00102000  0.24632313  0.25307798  1
  Sb  Sb21  1  0.25358951  0.25075932  -0.00040943  1
  Sb  Sb22  1  0.25181365  0.74608597  0.49986965  1
  Sb  Sb23  1  0.25265629  0.75055533  0.00013584  1
  Sb  Sb24  1  0.49898941  0.75050420  0.74783851  1
  Sb  Sb25  1  0.74812475  0.24785778  0.00042269  1
  Sb  Sb26  1  -0.00059899  0.49565005  0.50071084  1
  Sb  Sb27  1  0.74285879  0.24848688  0.49995944  1
  Sb  Sb28  1  -0.00095358  0.50277971  -0.00238728  1
  Sb  Sb29  1  0.50004908  0.49843079  0.00212224  1
  Sb  Sb30  1  0.26111217  0.00485839  0.25227394  1
  Sb  Sb31  1  -0.00231956  0.24676680  0.74759900  1
  Te  Te32  1  0.25436268  0.25396673  0.25156827  1
  Te  Te33  1  0.25683226  0.25411923  0.74901008  1
  Te  Te34  1  0.25342280  0.73818193  0.24972366  1
  Te  Te35  1  0.24818950  0.73829530  0.75043498  1
  Te  Te36  1  0.74554464  0.25180654  0.25118893  1
  Te  Te37  1  0.74366570  0.25172926  0.74884450  1
  Te  Te38  1  0.74614261  0.74788743  0.25034617  1
  Te  Te39  1  0.75211133  0.74980928  0.74971805  1
  Te  Te40  1  0.24935419  -0.00016785  0.00067858  1
  Te  Te41  1  0.25729458  0.00498456  0.49933617  1
  Te  Te42  1  0.24796451  0.49981868  -0.00175655  1
  Te  Te43  1  0.24932468  0.49779219  0.50031633  1
  Te  Te44  1  0.74718737  0.00041523  -0.00169645  1
  Te  Te45  1  0.74580797  0.00132752  0.50149024  1
  Te  Te46  1  0.75187725  0.49932477  -0.00199500  1
  Te  Te47  1  0.74873211  0.49859188  0.50017664  1
  Te  Te48  1  0.00104569  0.23696602  0.00092616  1
  Te  Te49  1  0.01678642  0.24287304  0.49909821  1
  Te  Te50  1  0.00035509  0.75779582  -0.00517506  1
  Te  Te51  1  0.00130973  0.76142055  0.50430762  1
  Te  Te52  1  0.50062690  0.24156682  -0.00231753  1
  Te  Te53  1  0.49746172  0.25338650  0.50188298  1
  Te  Te54  1  0.49988606  0.76310318  0.00874627  1
  Te  Te55  1  0.50008116  0.74760480  0.49528829  1
  Te  Te56  1  -0.01175807  -0.00004996  0.25297855  1
  Te  Te57  1  -0.00236353  0.00065238  0.74652749  1
  Te  Te58  1  -0.00908429  0.50009851  0.24896210  1
  Te  Te59  1  -0.00960125  0.50072025  0.75029700  1
  Te  Te60  1  0.50310846  0.00392697  0.25649348  1
  Te  Te61  1  0.50174204  -0.00495986  0.74298368  1
  Te  Te62  1  0.50357747  0.49552943  0.24637458  1
  Te  Te63  1  0.50413809  0.50443477  0.75598223  1
