# generated using pymatgen
data_AgSbTe2
_symmetry_space_group_name_H-M   'P 1'
_cell_length_a   12.30367475
_cell_length_b   12.29500056
_cell_length_c   12.31156978
_cell_angle_alpha   90.00049372
_cell_angle_beta   89.99753732
_cell_angle_gamma   89.98043232
_symmetry_Int_Tables_number   1
_chemical_formula_structural   AgSbTe2
_chemical_formula_sum   'Ag16 Sb16 Te32'
_cell_volume   1862.41645422
_cell_formula_units_Z   16
loop_
 _symmetry_equiv_pos_site_id
 _symmetry_equiv_pos_as_xyz
  1  'x, y, z'
loop_
 _atom_site_type_symbol
 _atom_site_label
 _atom_site_symmetry_multiplicity
 _atom_site_fract_x
 _atom_site_fract_y
 _atom_site_fract_z
 _atom_site_occupancy
  Ag  Ag0  1  0.75371822  0.48487219  0.24035075  1
  Ag  Ag1  1  0.75349173  0.25618807  0.48748393  1
  Ag  Ag2  1  0.77028601  0.26172691  0.01081495  1
  Ag  Ag3  1  0.75297778  0.49050236  0.76211840  1
  Ag  Ag4  1  0.01052269  0.02025741  0.00580057  1
  Ag  Ag5  1  0.50480260  0.49517980  0.49377493  1
  Ag  Ag6  1  -0.00139101  0.48054790  0.00603353  1
  Ag  Ag7  1  -0.00630884  0.25138861  0.23245719  1
  Ag  Ag8  1  0.50093968  0.49455781  0.00453521  1
  Ag  Ag9  1  0.76108639  0.01840700  0.24109783  1
  Ag  Ag10  1  0.24682779  0.74907900  0.00223622  1
  Ag  Ag11  1  0.23029632  0.24988667  0.00892093  1
  Ag  Ag12  1  0.24280177  0.00728209  0.76877499  1
  Ag  Ag13  1  0.24002239  0.01295121  0.23744228  1
  Ag  Ag14  1  -0.00154829  0.25142676  0.77218890  1
  Ag  Ag15  1  0.24590516  0.48746252  0.23863612  1
  Sb  Sb16  1  0.24652572  0.49311746  0.76260761  1
  Sb  Sb17  1  0.49587862  0.00836187  0.00138913  1
  Sb  Sb18  1  0.49888401  0.74762257  0.24633326  1
  Sb  Sb19  1  0.25243214  0.74712998  0.49847811  1
  Sb  Sb20  1  0.50282076  0.00776221  0.49763989  1
  Sb  Sb21  1  0.75918611  0.01176779  0.76134052  1
  Sb  Sb22  1  -0.00231276  0.49552500  0.49387990  1
  Sb  Sb23  1  0.50527394  0.25215241  0.24703579  1
  Sb  Sb24  1  -0.00049363  0.00526002  0.49172729  1
  Sb  Sb25  1  0.75202172  0.74257023  0.00061083  1
  Sb  Sb26  1  0.49814194  0.74698131  0.75469112  1
  Sb  Sb27  1  0.74730880  0.74415751  0.49766887  1
  Sb  Sb28  1  0.00145141  0.74754262  0.75683344  1
  Sb  Sb29  1  0.24867587  0.25208635  0.49292218  1
  Sb  Sb30  1  0.00064338  0.74719557  0.24642174  1
  Sb  Sb31  1  0.50045808  0.25134832  0.75309199  1
  Te  Te32  1  0.24726451  0.25151679  0.25092930  1
  Te  Te33  1  0.24407587  0.24825102  0.74753728  1
  Te  Te34  1  0.24891972  0.75118487  0.24542370  1
  Te  Te35  1  0.24840769  0.75901648  0.75431405  1
  Te  Te36  1  0.75027983  0.25151469  0.24391382  1
  Te  Te37  1  0.75338895  0.25298291  0.75713206  1
  Te  Te38  1  0.75039575  0.75228603  0.24960742  1
  Te  Te39  1  0.74959358  0.73835841  0.74898780  1
  Te  Te40  1  0.25289534  0.00922048  0.00444799  1
  Te  Te41  1  0.25262012  -0.00079443  0.49049500  1
  Te  Te42  1  0.24625029  0.49149420  0.00154609  1
  Te  Te43  1  0.25499516  0.50047558  0.48882896  1
  Te  Te44  1  0.74576897  -0.00241737  0.00287827  1
  Te  Te45  1  0.74741685  0.00463412  0.49232977  1
  Te  Te46  1  0.75395210  0.50075290  0.00495225  1
  Te  Te47  1  0.75024349  0.49747865  0.49177615  1
  Te  Te48  1  0.00018822  0.24934166  0.00176895  1
  Te  Te49  1  -0.00667521  0.25057342  0.49919397  1
  Te  Te50  1  0.00611543  0.75131527  0.00031877  1
  Te  Te51  1  -0.00004938  0.75109640  0.50334592  1
  Te  Te52  1  0.49931941  0.25592940  -0.00010493  1
  Te  Te53  1  0.50893034  0.25677400  0.50184121  1
  Te  Te54  1  0.49079674  0.73640289  -0.00016396  1
  Te  Te55  1  0.50078928  0.73534686  0.50199338  1
  Te  Te56  1  0.00038405  0.00212067  0.24643564  1
  Te  Te57  1  0.00094970  0.00435634  0.75623260  1
  Te  Te58  1  -0.00014796  0.49882246  0.24752967  1
  Te  Te59  1  -0.00151500  0.49571255  0.75296407  1
  Te  Te60  1  0.49814536  -0.00148910  0.24993042  1
  Te  Te61  1  0.48986169  -0.00077297  0.74877735  1
  Te  Te62  1  0.50070273  0.49728304  0.24415475  1
  Te  Te63  1  0.50440991  0.49893424  0.75534391  1
