# generated using pymatgen
data_AgSbTe2
_symmetry_space_group_name_H-M   'P 1'
_cell_length_a   12.20576641
_cell_length_b   12.20846367
_cell_length_c   12.21286323
_cell_angle_alpha   90.00037753
_cell_angle_beta   90.00110491
_cell_angle_gamma   89.99768633
_symmetry_Int_Tables_number   1
_chemical_formula_structural   AgSbTe2
_chemical_formula_sum   'Ag16 Sb16 Te32'
_cell_volume   1819.88339532
_cell_formula_units_Z   16
loop_
 _symmetry_equiv_pos_site_id
 _symmetry_equiv_pos_as_xyz
  1  'x, y, z'
loop_
 _atom_site_type_symbol
 _atom_site_label
 _atom_site_symmetry_multiplicity
 _atom_site_fract_x
 _atom_site_fract_y
 _atom_site_fract_z
 _atom_site_occupancy
  Ag  Ag0  1  0.24659940  0.49391646  0.24708658  1
  Ag  Ag1  1  0.74579081  0.00416139  0.25337946  1
  Ag  Ag2  1  0.25291679  0.00144099  0.75413946  1
  Ag  Ag3  1  0.49751835  0.75491765  0.74988451  1
  Ag  Ag4  1  0.50119856  0.00124217  0.49556038  1
  Ag  Ag5  1  0.25137557  0.75451341  0.00069643  1
  Ag  Ag6  1  0.00053132  0.49551822  0.49711532  1
  Ag  Ag7  1  0.00497874  0.49568188  0.00350120  1
  Ag  Ag8  1  0.00265633  0.24975319  0.74983684  1
  Ag  Ag9  1  0.24789259  0.24619216  0.00608029  1
  Ag  Ag10  1  0.49571215  0.24307109  0.25020994  1
  Ag  Ag11  1  0.49308808  0.00107539  0.00394974  1
  Ag  Ag12  1  0.74856310  0.75334466  0.49870006  1
  Ag  Ag13  1  0.75201775  0.24694582  0.49591816  1
  Ag  Ag14  1  0.00480981  0.25147488  0.24995564  1
  Ag  Ag15  1  0.25483276  0.00639208  0.24530217  1
  Sb  Sb16  1  0.24802775  0.49743652  0.75271163  1
  Sb  Sb17  1  0.74722251  0.00105981  0.74703292  1
  Sb  Sb18  1  0.49434428  0.49879109  0.00347887  1
  Sb  Sb19  1  0.49863110  0.75929025  0.25017011  1
  Sb  Sb20  1  0.49877635  0.49865006  0.49669531  1
  Sb  Sb21  1  0.74852607  0.75370576  0.00150952  1
  Sb  Sb22  1  -0.00231970  0.00436283  0.49790753  1
  Sb  Sb23  1  0.75116767  0.49911320  0.74882410  1
  Sb  Sb24  1  0.75338066  0.49584926  0.25183003  1
  Sb  Sb25  1  0.00149003  0.74804852  0.25011508  1
  Sb  Sb26  1  0.24721809  0.24898733  0.49205700  1
  Sb  Sb27  1  0.00935038  0.00461548  0.00181446  1
  Sb  Sb28  1  0.00189163  0.75186889  0.74986026  1
  Sb  Sb29  1  0.25146778  0.75254992  0.50026459  1
  Sb  Sb30  1  0.75194013  0.24709139  0.00390357  1
  Sb  Sb31  1  0.49623658  0.24480386  0.74960916  1
  Te  Te32  1  0.24912906  0.24774607  0.24954752  1
  Te  Te33  1  0.24697976  0.24640507  0.75562385  1
  Te  Te34  1  0.25041926  0.75161936  0.24489685  1
  Te  Te35  1  0.25262606  0.75438780  0.75389454  1
  Te  Te36  1  0.75048140  0.24642522  0.25285549  1
  Te  Te37  1  0.75573348  0.24875552  0.74378826  1
  Te  Te38  1  0.74977159  0.75608441  0.25520419  1
  Te  Te39  1  0.74604807  0.75108199  0.74468769  1
  Te  Te40  1  0.25150899  0.00102090  0.00218622  1
  Te  Te41  1  0.25521084  -0.00113932  0.49899407  1
  Te  Te42  1  0.24694336  0.49851949  0.00322080  1
  Te  Te43  1  0.24485863  0.50087421  0.49412940  1
  Te  Te44  1  0.74146625  -0.00102672  0.00616876  1
  Te  Te45  1  0.74752860  0.00096711  0.49674698  1
  Te  Te46  1  0.75895878  0.50078463  0.00073764  1
  Te  Te47  1  0.75449673  0.49934963  0.49849745  1
  Te  Te48  1  0.00221905  0.25245671  0.00162723  1
  Te  Te49  1  -0.00237266  0.25275431  0.49839207  1
  Te  Te50  1  0.00482062  0.74297410  -0.00173030  1
  Te  Te51  1  -0.00572444  0.74321292  0.50183890  1
  Te  Te52  1  0.49713153  0.24735126  0.00185491  1
  Te  Te53  1  0.50496419  0.24746280  0.49816438  1
  Te  Te54  1  0.49664386  0.75277855  -0.00310758  1
  Te  Te55  1  0.50341377  0.75233281  0.50281341  1
  Te  Te56  1  0.00135428  0.00592593  0.25001660  1
  Te  Te57  1  0.00593611  0.00521911  0.75020725  1
  Te  Te58  1  0.00308882  0.49603116  0.25044580  1
  Te  Te59  1  0.00128342  0.49422006  0.74857829  1
  Te  Te60  1  0.49754331  0.00230671  0.25064140  1
  Te  Te61  1  0.49650287  -0.00171883  0.74980339  1
  Te  Te62  1  0.49385704  0.49109207  0.25015846  1
  Te  Te63  1  0.49934395  0.50787938  0.75001575  1
