# generated using pymatgen
data_AgSbTe2
_symmetry_space_group_name_H-M   'P 1'
_cell_length_a   12.23803012
_cell_length_b   12.24166022
_cell_length_c   12.23527332
_cell_angle_alpha   89.99985866
_cell_angle_beta   90.00271777
_cell_angle_gamma   89.99924755
_symmetry_Int_Tables_number   1
_chemical_formula_structural   AgSbTe2
_chemical_formula_sum   'Ag16 Sb16 Te32'
_cell_volume   1833.01286742
_cell_formula_units_Z   16
loop_
 _symmetry_equiv_pos_site_id
 _symmetry_equiv_pos_as_xyz
  1  'x, y, z'
loop_
 _atom_site_type_symbol
 _atom_site_label
 _atom_site_symmetry_multiplicity
 _atom_site_fract_x
 _atom_site_fract_y
 _atom_site_fract_z
 _atom_site_occupancy
  Ag  Ag0  1  0.25381044  0.76264279  0.00411243  1
  Ag  Ag1  1  0.74964661  0.00458568  0.24450322  1
  Ag  Ag2  1  0.25419188  0.23761753  0.00678061  1
  Ag  Ag3  1  0.25067370  0.00585224  0.23547769  1
  Ag  Ag4  1  0.49193165  0.49469520  0.00720357  1
  Ag  Ag5  1  0.74519344  0.24591834  0.00591661  1
  Ag  Ag6  1  0.49532066  0.49840700  0.49176910  1
  Ag  Ag7  1  0.25755675  0.49483653  0.24138864  1
  Ag  Ag8  1  0.49331623  0.24919570  0.24241526  1
  Ag  Ag9  1  0.01551094  0.00440532  0.00715935  1
  Ag  Ag10  1  0.00420801  0.00277907  0.49142140  1
  Ag  Ag11  1  0.25314657  0.49809206  0.75946332  1
  Ag  Ag12  1  0.48563745  0.00529426  0.00800803  1
  Ag  Ag13  1  0.00645389  0.24276309  0.24516379  1
  Ag  Ag14  1  0.49460631  0.75042815  0.24527744  1
  Ag  Ag15  1  0.25033384  0.00166908  0.76648761  1
  Sb  Sb16  1  0.74821311  0.24741730  0.49079375  1
  Sb  Sb17  1  0.25105879  0.24891926  0.48853324  1
  Sb  Sb18  1  0.49452639  0.75008073  0.75697645  1
  Sb  Sb19  1  0.25223392  0.75118515  0.49358420  1
  Sb  Sb20  1  0.00689973  0.49514556  0.49390980  1
  Sb  Sb21  1  0.00846537  0.76084541  0.24667527  1
  Sb  Sb22  1  0.73883972  0.49319170  0.24602490  1
  Sb  Sb23  1  0.49402838  0.25013016  0.76171469  1
  Sb  Sb24  1  0.00614348  0.24780567  0.75720533  1
  Sb  Sb25  1  0.01425920  0.49312207  0.00444028  1
  Sb  Sb26  1  0.74864916  0.00272891  0.75749485  1
  Sb  Sb27  1  0.49537851  0.00257333  0.48756070  1
  Sb  Sb28  1  0.74739698  0.75195853  0.49345048  1
  Sb  Sb29  1  0.00615944  0.75191147  0.75361853  1
  Sb  Sb30  1  0.74427812  0.75524820  0.00548074  1
  Sb  Sb31  1  0.74366805  0.49669933  0.75536023  1
  Te  Te32  1  0.25180220  0.24890404  0.24762299  1
  Te  Te33  1  0.24976171  0.24942886  0.75962236  1
  Te  Te34  1  0.25446576  0.74982299  0.24497741  1
  Te  Te35  1  0.25102014  0.75041182  0.75928660  1
  Te  Te36  1  0.74942058  0.24536256  0.24381335  1
  Te  Te37  1  0.75170685  0.25014657  0.76222972  1
  Te  Te38  1  0.73974218  0.75947455  0.24849368  1
  Te  Te39  1  0.75027840  0.74936158  0.75032471  1
  Te  Te40  1  0.25160450  0.00168159  0.00133866  1
  Te  Te41  1  0.24556429  -0.00056951  0.50059228  1
  Te  Te42  1  0.25063520  0.49855053  0.00209424  1
  Te  Te43  1  0.25467331  0.50056239  0.49993834  1
  Te  Te44  1  0.74821891  0.00363555  0.00317146  1
  Te  Te45  1  0.75706471  0.00089051  0.49468039  1
  Te  Te46  1  0.74042633  0.49370175  -0.00120989  1
  Te  Te47  1  0.74143844  0.50017007  0.50238113  1
  Te  Te48  1  0.00253346  0.24626396  0.00506194  1
  Te  Te49  1  -0.00106003  0.24401949  0.49043145  1
  Te  Te50  1  0.00655912  0.75905775  0.00122417  1
  Te  Te51  1  -0.00106305  0.75902775  0.49937515  1
  Te  Te52  1  0.49635326  0.24895836  0.00338814  1
  Te  Te53  1  0.50141819  0.25570290  0.48893188  1
  Te  Te54  1  0.49609509  0.75041166  0.00461889  1
  Te  Te55  1  0.49990446  0.74272506  0.49061093  1
  Te  Te56  1  0.00291246  0.00127667  0.24719597  1
  Te  Te57  1  0.00600103  0.00080975  0.75153695  1
  Te  Te58  1  0.00794958  0.49187517  0.25254248  1
  Te  Te59  1  0.01044555  0.50018788  0.74660356  1
  Te  Te60  1  0.49682911  0.00258763  0.25006272  1
  Te  Te61  1  0.49413590  -0.00040755  0.75540770  1
  Te  Te62  1  0.49811944  0.49779368  0.24659477  1
  Te  Te63  1  0.49330619  0.50002919  0.75168434  1
