# generated using pymatgen
data_AgSbTe2
_symmetry_space_group_name_H-M   'P 1'
_cell_length_a   12.22210781
_cell_length_b   12.22238228
_cell_length_c   12.22328068
_cell_angle_alpha   90.00112825
_cell_angle_beta   90.00556010
_cell_angle_gamma   89.99963985
_symmetry_Int_Tables_number   1
_chemical_formula_structural   AgSbTe2
_chemical_formula_sum   'Ag16 Sb16 Te32'
_cell_volume   1825.95367726
_cell_formula_units_Z   16
loop_
 _symmetry_equiv_pos_site_id
 _symmetry_equiv_pos_as_xyz
  1  'x, y, z'
loop_
 _atom_site_type_symbol
 _atom_site_label
 _atom_site_symmetry_multiplicity
 _atom_site_fract_x
 _atom_site_fract_y
 _atom_site_fract_z
 _atom_site_occupancy
  Ag  Ag0  1  0.49480978  0.75265911  0.75856142  1
  Ag  Ag1  1  0.25370794  0.00574978  0.75845877  1
  Ag  Ag2  1  0.49395715  0.24760748  0.75799608  1
  Ag  Ag3  1  0.75189814  0.24552246  0.49946575  1
  Ag  Ag4  1  0.74907300  0.00512978  0.24753887  1
  Ag  Ag5  1  0.25543299  0.24406155  -0.00595940  1
  Ag  Ag6  1  0.25198915  0.00260521  0.24215126  1
  Ag  Ag7  1  0.00510202  0.24657507  0.75162684  1
  Ag  Ag8  1  0.25803178  0.75652500  -0.00219165  1
  Ag  Ag9  1  0.74551172  0.24618969  0.00011962  1
  Ag  Ag10  1  0.49588192  0.49769820  -0.00353442  1
  Ag  Ag11  1  0.49747578  0.75534550  0.24119732  1
  Ag  Ag12  1  0.49342976  0.00187915  -0.00093217  1
  Ag  Ag13  1  0.00014975  0.00611090  0.49904667  1
  Ag  Ag14  1  -0.00028836  0.24402267  0.24907748  1
  Ag  Ag15  1  0.25420670  0.49408995  0.75596499  1
  Sb  Sb16  1  0.24874868  0.24647600  0.50590181  1
  Sb  Sb17  1  0.74033475  0.75493659  0.00151364  1
  Sb  Sb18  1  0.00279140  0.75730494  0.24787598  1
  Sb  Sb19  1  0.74842914  0.75546866  0.49870516  1
  Sb  Sb20  1  0.00742141  0.00505698  0.00040822  1
  Sb  Sb21  1  0.50016586  0.00271484  0.50085981  1
  Sb  Sb22  1  0.49911054  0.49683976  0.50314231  1
  Sb  Sb23  1  0.74552958  0.49590662  0.75324305  1
  Sb  Sb24  1  0.00453816  0.49487875  -0.00185819  1
  Sb  Sb25  1  0.49950421  0.24362533  0.24062591  1
  Sb  Sb26  1  0.25312032  0.49711281  0.24327935  1
  Sb  Sb27  1  0.74718623  0.49440865  0.24657808  1
  Sb  Sb28  1  0.74725565  0.00434344  0.75349412  1
  Sb  Sb29  1  0.00021397  0.49317539  0.50235219  1
  Sb  Sb30  1  0.00608864  0.75426573  0.75175392  1
  Sb  Sb31  1  0.25134987  0.75348200  0.50167404  1
  Te  Te32  1  0.24850149  0.24644304  0.24716501  1
  Te  Te33  1  0.25099195  0.24620135  0.75064340  1
  Te  Te34  1  0.25328354  0.75326187  0.24600310  1
  Te  Te35  1  0.25360670  0.75333291  0.75327662  1
  Te  Te36  1  0.75078082  0.24552302  0.24740157  1
  Te  Te37  1  0.75110224  0.24904939  0.75318739  1
  Te  Te38  1  0.74624820  0.75719902  0.24960849  1
  Te  Te39  1  0.74294679  0.74918463  0.75015991  1
  Te  Te40  1  0.25177725  0.00260894  -0.00041429  1
  Te  Te41  1  0.24565194  0.00020527  0.49796535  1
  Te  Te42  1  0.25460727  0.49756787  -0.00385879  1
  Te  Te43  1  0.24953758  0.50118909  0.50941392  1
  Te  Te44  1  0.74440142  0.00462573  0.00372740  1
  Te  Te45  1  0.75375957  0.00529896  0.49550471  1
  Te  Te46  1  0.74199428  0.49299243  0.00041898  1
  Te  Te47  1  0.75090676  0.49116324  0.49953089  1
  Te  Te48  1  -0.00016409  0.24997319  -0.00189253  1
  Te  Te49  1  -0.00274487  0.24578689  0.50065417  1
  Te  Te50  1  0.00773669  0.74728370  -0.00047761  1
  Te  Te51  1  -0.00169843  0.75763634  0.50013078  1
  Te  Te52  1  0.49773006  0.24717770  -0.00152890  1
  Te  Te53  1  0.50625229  0.25036779  0.50849580  1
  Te  Te54  1  0.49793574  0.75282494  -0.00161805  1
  Te  Te55  1  0.50131766  0.74922261  0.50131318  1
  Te  Te56  1  0.00094149  0.00417968  0.25124561  1
  Te  Te57  1  0.00316868  0.00433566  0.74703152  1
  Te  Te58  1  0.00020202  0.49185533  0.25084660  1
  Te  Te59  1  0.00687134  0.49445069  0.74963228  1
  Te  Te60  1  0.49737411  -0.00178655  0.24889334  1
  Te  Te61  1  0.49761507  0.00124584  0.75115949  1
  Te  Te62  1  0.49887872  0.50891887  0.24485285  1
  Te  Te63  1  0.49632814  0.49891257  0.75339100  1
