# generated using pymatgen
data_AgSbTe2
_symmetry_space_group_name_H-M   'P 1'
_cell_length_a   12.28351505
_cell_length_b   12.28681636
_cell_length_c   12.29471802
_cell_angle_alpha   90.00468034
_cell_angle_beta   90.01205302
_cell_angle_gamma   89.99989921
_symmetry_Int_Tables_number   1
_chemical_formula_structural   AgSbTe2
_chemical_formula_sum   'Ag16 Sb16 Te32'
_cell_volume   1855.58388000
_cell_formula_units_Z   16
loop_
 _symmetry_equiv_pos_site_id
 _symmetry_equiv_pos_as_xyz
  1  'x, y, z'
loop_
 _atom_site_type_symbol
 _atom_site_label
 _atom_site_symmetry_multiplicity
 _atom_site_fract_x
 _atom_site_fract_y
 _atom_site_fract_z
 _atom_site_occupancy
  Ag  Ag0  1  -0.00981016  -0.00398824  0.51095055  1
  Ag  Ag1  1  0.74626542  0.75208159  -0.00835690  1
  Ag  Ag2  1  -0.01267948  0.75593801  0.24715082  1
  Ag  Ag3  1  0.25145575  -0.00113831  0.75242847  1
  Ag  Ag4  1  0.25247380  0.24473493  -0.00684136  1
  Ag  Ag5  1  0.74756727  -0.01379746  0.75099691  1
  Ag  Ag6  1  0.75141231  -0.01287293  0.24793668  1
  Ag  Ag7  1  0.51378655  0.75812268  0.75403686  1
  Ag  Ag8  1  0.50756100  -0.00646829  0.51460860  1
  Ag  Ag9  1  0.74159821  0.51459837  0.75463383  1
  Ag  Ag10  1  0.50670891  0.50815116  0.51089809  1
  Ag  Ag11  1  -0.01508048  0.76040530  0.75135036  1
  Ag  Ag12  1  0.50692067  -0.00668749  -0.01500161  1
  Ag  Ag13  1  0.50848405  0.50748936  -0.01027886  1
  Ag  Ag14  1  -0.00212887  0.23548408  0.75107657  1
  Ag  Ag15  1  0.74808005  0.51271360  0.24497739  1
  Sb  Sb16  1  0.24806473  0.24710945  0.50496389  1
  Sb  Sb17  1  -0.00800005  -0.00121262  -0.00742607  1
  Sb  Sb18  1  0.74824943  0.24840963  -0.00273444  1
  Sb  Sb19  1  0.75054586  0.24848778  0.50284681  1
  Sb  Sb20  1  0.25689187  0.49947480  0.75209627  1
  Sb  Sb21  1  0.74885501  0.75214102  0.50861449  1
  Sb  Sb22  1  -0.00240084  0.24466892  0.24955109  1
  Sb  Sb23  1  -0.00750555  0.50448840  0.50387763  1
  Sb  Sb24  1  0.51089088  0.75176711  0.24538681  1
  Sb  Sb25  1  0.24863731  -0.00248671  0.24706181  1
  Sb  Sb26  1  0.25306349  0.50345264  0.24614232  1
  Sb  Sb27  1  0.50164360  0.24417528  0.75069313  1
  Sb  Sb28  1  0.25478572  0.75167519  -0.00251570  1
  Sb  Sb29  1  0.50077393  0.24901812  0.24897667  1
  Sb  Sb30  1  0.25113671  0.75013164  0.50196836  1
  Sb  Sb31  1  -0.00966908  0.50214787  -0.00132368  1
  Te  Te32  1  0.24868388  0.25171437  0.23855236  1
  Te  Te33  1  0.24321393  0.24681586  0.75306043  1
  Te  Te34  1  0.22727708  0.74889853  0.24875933  1
  Te  Te35  1  0.24813556  0.75611769  0.75066107  1
  Te  Te36  1  0.75064085  0.24997856  0.24827896  1
  Te  Te37  1  0.75791872  0.25029133  0.75106409  1
  Te  Te38  1  0.75331355  0.75272025  0.24170654  1
  Te  Te39  1  0.74742053  0.75140071  0.75300612  1
  Te  Te40  1  0.26116627  -0.00067234  -0.00270901  1
  Te  Te41  1  0.25746257  0.00027051  0.50519022  1
  Te  Te42  1  0.26527879  0.49874581  0.00108213  1
  Te  Te43  1  0.26715278  0.49884201  0.49790516  1
  Te  Te44  1  0.74693012  -0.00035371  -0.00178404  1
  Te  Te45  1  0.74662855  -0.00053467  0.50189702  1
  Te  Te46  1  0.74676568  0.49896751  -0.00385485  1
  Te  Te47  1  0.74364714  0.49807268  0.50231344  1
  Te  Te48  1  0.00503827  0.24979150  -0.00512516  1
  Te  Te49  1  0.00040783  0.24169172  0.50559969  1
  Te  Te50  1  -0.00634635  0.75001381  -0.00616321  1
  Te  Te51  1  -0.00012831  0.75460947  0.50773803  1
  Te  Te52  1  0.49838041  0.24804989  -0.00074136  1
  Te  Te53  1  0.49966183  0.24535033  0.50011060  1
  Te  Te54  1  0.50496098  0.75211267  -0.00256673  1
  Te  Te55  1  0.50024284  0.75414516  0.50718988  1
  Te  Te56  1  -0.00329054  -0.00112774  0.25485116  1
  Te  Te57  1  -0.00619168  -0.00462113  0.75028322  1
  Te  Te58  1  -0.00816578  0.50270792  0.25246603  1
  Te  Te59  1  -0.00473323  0.50897474  0.74725062  1
  Te  Te60  1  0.50471112  -0.00142883  0.25464299  1
  Te  Te61  1  0.50680130  0.00058129  0.74923406  1
  Te  Te62  1  0.50582424  0.50092725  0.25063970  1
  Te  Te63  1  0.50261305  0.49873195  0.75071571  1
