# generated using pymatgen
data_AgSbTe2
_symmetry_space_group_name_H-M   'P 1'
_cell_length_a   12.21007473
_cell_length_b   12.21667410
_cell_length_c   12.21806224
_cell_angle_alpha   89.99666169
_cell_angle_beta   90.01183165
_cell_angle_gamma   89.99534576
_symmetry_Int_Tables_number   1
_chemical_formula_structural   AgSbTe2
_chemical_formula_sum   'Ag16 Sb16 Te32'
_cell_volume   1822.52557876
_cell_formula_units_Z   16
loop_
 _symmetry_equiv_pos_site_id
 _symmetry_equiv_pos_as_xyz
  1  'x, y, z'
loop_
 _atom_site_type_symbol
 _atom_site_label
 _atom_site_symmetry_multiplicity
 _atom_site_fract_x
 _atom_site_fract_y
 _atom_site_fract_z
 _atom_site_occupancy
  Ag  Ag0  1  0.75189038  0.24670223  0.49797483  1
  Ag  Ag1  1  0.25052121  0.26487958  0.00196857  1
  Ag  Ag2  1  0.75435052  0.75389846  0.49918777  1
  Ag  Ag3  1  0.50058927  0.25350118  0.24785327  1
  Ag  Ag4  1  0.24919724  0.73500441  0.00100915  1
  Ag  Ag5  1  -0.00255527  0.74677965  0.75017727  1
  Ag  Ag6  1  -0.00098731  0.50355449  0.50130357  1
  Ag  Ag7  1  0.01415801  0.50435428  -0.00070117  1
  Ag  Ag8  1  0.25173762  0.50123408  0.23520719  1
  Ag  Ag9  1  0.50279712  0.74681011  0.24606849  1
  Ag  Ag10  1  0.75362944  -0.00443542  0.74480808  1
  Ag  Ag11  1  0.74986022  -0.00370403  0.25475644  1
  Ag  Ag12  1  0.48617223  0.50312438  0.00384430  1
  Ag  Ag13  1  0.75059841  0.74779097  0.00118089  1
  Ag  Ag14  1  -0.00793586  -0.00330767  0.50093310  1
  Ag  Ag15  1  0.24612487  0.50212540  0.76463279  1
  Sb  Sb16  1  -0.00092382  0.25159480  0.24973871  1
  Sb  Sb17  1  -0.00295106  0.74837162  0.24956325  1
  Sb  Sb18  1  0.24916844  0.25368987  0.49817039  1
  Sb  Sb19  1  0.50198969  0.74725898  0.75299975  1
  Sb  Sb20  1  0.50106374  0.25305454  0.75232317  1
  Sb  Sb21  1  0.75414583  0.50427360  0.75052333  1
  Sb  Sb22  1  0.24644410  -0.00239429  0.75078291  1
  Sb  Sb23  1  -0.00213046  -0.00521929  -0.00131176  1
  Sb  Sb24  1  0.50090455  0.50154097  0.49684747  1
  Sb  Sb25  1  0.50878492  -0.00070816  0.49803673  1
  Sb  Sb26  1  0.50111800  -0.00377928  0.00200051  1
  Sb  Sb27  1  0.74753626  0.50330592  0.24916374  1
  Sb  Sb28  1  0.74952087  0.25200233  0.00187142  1
  Sb  Sb29  1  0.24586838  0.74684847  0.49866044  1
  Sb  Sb30  1  -0.00050294  0.25383906  0.75014165  1
  Sb  Sb31  1  0.24989621  -0.00126073  0.24912950  1
  Te  Te32  1  0.25513259  0.25146909  0.24652034  1
  Te  Te33  1  0.25092525  0.25371811  0.75511292  1
  Te  Te34  1  0.25527458  0.74816280  0.24656696  1
  Te  Te35  1  0.24737549  0.74719437  0.75360773  1
  Te  Te36  1  0.74550391  0.24636909  0.25224371  1
  Te  Te37  1  0.74928484  0.24319559  0.74549648  1
  Te  Te38  1  0.74713376  0.75167227  0.24903686  1
  Te  Te39  1  0.75204044  0.75201480  0.75017959  1
  Te  Te40  1  0.24883708  -0.00027712  -0.00021191  1
  Te  Te41  1  0.23941975  0.00069160  0.50096077  1
  Te  Te42  1  0.24868868  0.50218521  0.00190546  1
  Te  Te43  1  0.24433179  0.49925674  0.49967683  1
  Te  Te44  1  0.75144460  -0.00447435  0.00158187  1
  Te  Te45  1  0.75292913  -0.00215736  0.49866171  1
  Te  Te46  1  0.75126799  0.50485086  -0.00057315  1
  Te  Te47  1  0.75493790  0.50086533  0.50044518  1
  Te  Te48  1  0.00378510  0.25717130  0.00005750  1
  Te  Te49  1  -0.00458430  0.25227419  0.49992102  1
  Te  Te50  1  -0.00091942  0.74691185  -0.00167136  1
  Te  Te51  1  -0.00328392  0.74725335  0.50160852  1
  Te  Te52  1  0.49808193  0.25491246  0.00423185  1
  Te  Te53  1  0.50504256  0.25066467  0.49380910  1
  Te  Te54  1  0.50111747  0.74709551  0.00298623  1
  Te  Te55  1  0.50674884  0.74895350  0.49411063  1
  Te  Te56  1  -0.00549682  0.00038483  0.25524743  1
  Te  Te57  1  -0.00437741  -0.00552489  0.74672032  1
  Te  Te58  1  0.00525817  0.49987038  0.24974754  1
  Te  Te59  1  0.00277452  0.50369261  0.74999931  1
  Te  Te60  1  0.50394775  -0.00079930  0.25017351  1
  Te  Te61  1  0.50710618  0.00025595  0.74959172  1
  Te  Te62  1  0.49784925  0.50111955  0.24740917  1
  Te  Te63  1  0.49234149  0.50029652  0.75600037  1
