# generated using pymatgen
data_AgSbTe2
_symmetry_space_group_name_H-M   'P 1'
_cell_length_a   12.21007058
_cell_length_b   12.20919525
_cell_length_c   12.21267023
_cell_angle_alpha   89.99976836
_cell_angle_beta   90.00039295
_cell_angle_gamma   90.00521696
_symmetry_Int_Tables_number   1
_chemical_formula_structural   AgSbTe2
_chemical_formula_sum   'Ag16 Sb16 Te32'
_cell_volume   1820.60546496
_cell_formula_units_Z   16
loop_
 _symmetry_equiv_pos_site_id
 _symmetry_equiv_pos_as_xyz
  1  'x, y, z'
loop_
 _atom_site_type_symbol
 _atom_site_label
 _atom_site_symmetry_multiplicity
 _atom_site_fract_x
 _atom_site_fract_y
 _atom_site_fract_z
 _atom_site_occupancy
  Ag  Ag0  1  0.49735397  0.25655592  0.74959764  1
  Ag  Ag1  1  0.00286211  0.25288503  0.74978307  1
  Ag  Ag2  1  0.00073072  0.75467923  0.24971912  1
  Ag  Ag3  1  0.24751533  0.25054945  -0.00208679  1
  Ag  Ag4  1  0.49941951  0.49950885  -0.00446945  1
  Ag  Ag5  1  0.49782851  0.00055762  0.49866099  1
  Ag  Ag6  1  0.49961475  0.75014738  0.25006193  1
  Ag  Ag7  1  0.00104670  0.49694474  0.50198975  1
  Ag  Ag8  1  0.74803473  0.49855277  0.75021625  1
  Ag  Ag9  1  0.49889113  0.49866074  0.50563552  1
  Ag  Ag10  1  0.00367233  0.24515345  0.25016252  1
  Ag  Ag11  1  0.75038995  0.74806881  0.00123305  1
  Ag  Ag12  1  0.00196329  0.00240559  0.00518924  1
  Ag  Ag13  1  0.24482009  0.00103745  0.25028508  1
  Ag  Ag14  1  0.00252244  0.00288058  0.49379618  1
  Ag  Ag15  1  0.25197155  0.49473404  0.74998890  1
  Sb  Sb16  1  0.75024728  0.50216089  0.24906471  1
  Sb  Sb17  1  0.24886254  0.49751595  0.24994173  1
  Sb  Sb18  1  0.49543360  0.24901920  0.25063575  1
  Sb  Sb19  1  0.75036774  0.74771075  0.49899811  1
  Sb  Sb20  1  0.24930495  0.00560245  0.75014246  1
  Sb  Sb21  1  0.75234980  0.25233746  -0.00244377  1
  Sb  Sb22  1  0.24761667  0.25030511  0.50280640  1
  Sb  Sb23  1  0.75188127  0.25192495  0.50204966  1
  Sb  Sb24  1  0.49818215  -0.00001051  0.00149263  1
  Sb  Sb25  1  0.00090706  0.49843022  -0.00202642  1
  Sb  Sb26  1  0.50128422  0.74261761  0.74984784  1
  Sb  Sb27  1  0.24910061  0.74925716  0.00245660  1
  Sb  Sb28  1  -0.00114522  0.74758163  0.74991229  1
  Sb  Sb29  1  0.75015724  0.00081192  0.75087737  1
  Sb  Sb30  1  0.24986967  0.75010206  0.49781793  1
  Sb  Sb31  1  0.75639903  -0.00157449  0.24931348  1
  Te  Te32  1  0.24461645  0.24627374  0.24254203  1
  Te  Te33  1  0.24910645  0.25379900  0.75492953  1
  Te  Te34  1  0.24907881  0.75547093  0.24879146  1
  Te  Te35  1  0.24950567  0.73992073  0.75189065  1
  Te  Te36  1  0.76040820  0.25086845  0.24786948  1
  Te  Te37  1  0.75024035  0.25623354  0.75137908  1
  Te  Te38  1  0.75000447  0.74891897  0.24390610  1
  Te  Te39  1  0.75043306  0.74282660  0.75764313  1
  Te  Te40  1  0.24557776  0.00415692  0.00247387  1
  Te  Te41  1  0.24856017  -0.00021220  0.49629656  1
  Te  Te42  1  0.25358311  0.49582535  -0.00293628  1
  Te  Te43  1  0.25071121  0.50041136  0.50401274  1
  Te  Te44  1  0.75574191  -0.00615757  -0.00169583  1
  Te  Te45  1  0.75005189  -0.00165661  0.50127458  1
  Te  Te46  1  0.74575207  0.50319677  -0.00429246  1
  Te  Te47  1  0.74929396  0.50158288  0.50602615  1
  Te  Te48  1  0.00178187  0.24828476  -0.00112198  1
  Te  Te49  1  0.00000339  0.24983481  0.50096559  1
  Te  Te50  1  -0.00178393  0.75242451  0.00430768  1
  Te  Te51  1  -0.00112452  0.75085982  0.49488288  1
  Te  Te52  1  0.49751527  0.25258051  -0.00189981  1
  Te  Te53  1  0.50060371  0.25184876  0.50268299  1
  Te  Te54  1  0.50237181  0.74787452  0.00428409  1
  Te  Te55  1  0.50105574  0.74970204  0.49480141  1
  Te  Te56  1  0.00145236  -0.00049424  0.25255692  1
  Te  Te57  1  0.00073605  0.00498842  0.74773447  1
  Te  Te58  1  0.00123547  0.50096014  0.25572932  1
  Te  Te59  1  0.00036359  0.49685229  0.74656930  1
  Te  Te60  1  0.49543332  -0.00149162  0.25424463  1
  Te  Te61  1  0.49932934  0.00615587  0.74386757  1
  Te  Te62  1  0.49915566  0.50226995  0.25188548  1
  Te  Te63  1  0.49974959  0.49877663  0.74774892  1
