# generated using pymatgen
data_AgSbTe2
_symmetry_space_group_name_H-M   'P 1'
_cell_length_a   12.28791976
_cell_length_b   12.27943886
_cell_length_c   12.29954235
_cell_angle_alpha   89.99470837
_cell_angle_beta   89.99600331
_cell_angle_gamma   89.98121243
_symmetry_Int_Tables_number   1
_chemical_formula_structural   AgSbTe2
_chemical_formula_sum   'Ag16 Sb16 Te32'
_cell_volume   1855.86257498
_cell_formula_units_Z   16
loop_
 _symmetry_equiv_pos_site_id
 _symmetry_equiv_pos_as_xyz
  1  'x, y, z'
loop_
 _atom_site_type_symbol
 _atom_site_label
 _atom_site_symmetry_multiplicity
 _atom_site_fract_x
 _atom_site_fract_y
 _atom_site_fract_z
 _atom_site_occupancy
  Ag  Ag0  1  0.25664868  -0.00853392  0.25243237  1
  Ag  Ag1  1  0.00058626  -0.00164017  0.00358217  1
  Ag  Ag2  1  0.25979900  0.75720011  -0.00026798  1
  Ag  Ag3  1  0.26993427  0.75431950  0.50102394  1
  Ag  Ag4  1  0.74580274  0.25525316  0.49998985  1
  Ag  Ag5  1  0.73001935  0.74450224  0.49999606  1
  Ag  Ag6  1  -0.00156667  -0.00445863  0.49665868  1
  Ag  Ag7  1  0.74749614  0.24839749  0.00009962  1
  Ag  Ag8  1  0.49747746  -0.00881980  0.00437081  1
  Ag  Ag9  1  0.74027910  0.50411117  0.73809726  1
  Ag  Ag10  1  0.49757147  0.74608999  0.73045292  1
  Ag  Ag11  1  0.26241019  0.51037780  0.74422651  1
  Ag  Ag12  1  0.51115427  0.51990497  0.50442108  1
  Ag  Ag13  1  0.74198702  0.50387065  0.26292346  1
  Ag  Ag14  1  0.50032544  -0.01972857  0.49605926  1
  Ag  Ag15  1  0.49879980  0.75414880  0.27021036  1
  Sb  Sb16  1  0.50184041  0.25431714  0.74926005  1
  Sb  Sb17  1  0.00160429  0.74934213  0.74904030  1
  Sb  Sb18  1  0.25216214  0.24377378  -0.00215992  1
  Sb  Sb19  1  0.74768897  -0.00554269  0.74739889  1
  Sb  Sb20  1  0.50104482  0.24665176  0.25047222  1
  Sb  Sb21  1  0.25462673  0.24777853  0.50111208  1
  Sb  Sb22  1  0.74490847  -0.00438117  0.25233293  1
  Sb  Sb23  1  0.50071592  0.50818959  -0.00126610  1
  Sb  Sb24  1  0.00041576  0.75165523  0.25093372  1
  Sb  Sb25  1  -0.00509159  0.50569109  0.49993765  1
  Sb  Sb26  1  0.74369775  0.75057116  -0.00032855  1
  Sb  Sb27  1  -0.00275616  0.24965035  0.74904825  1
  Sb  Sb28  1  0.25961201  0.50850936  0.25409966  1
  Sb  Sb29  1  0.25326204  -0.00762516  0.74843135  1
  Sb  Sb30  1  -0.00078010  0.50472103  0.00018369  1
  Sb  Sb31  1  -0.00348802  0.24641192  0.25089905  1
  Te  Te32  1  0.24967086  0.24044506  0.24936846  1
  Te  Te33  1  0.25015191  0.27174022  0.74982585  1
  Te  Te34  1  0.25356003  0.75315893  0.25259820  1
  Te  Te35  1  0.25160661  0.74603825  0.74627468  1
  Te  Te36  1  0.74762345  0.25770946  0.25214716  1
  Te  Te37  1  0.74880554  0.25963660  0.74752532  1
  Te  Te38  1  0.74473907  0.74730522  0.24985557  1
  Te  Te39  1  0.74588651  0.74647299  0.74969617  1
  Te  Te40  1  0.25419533  -0.00235204  -0.00432455  1
  Te  Te41  1  0.25505457  0.00042976  0.50300846  1
  Te  Te42  1  0.24915855  0.50383263  0.00173431  1
  Te  Te43  1  0.24821178  0.49921296  0.49788866  1
  Te  Te44  1  0.74964977  0.00112418  0.00023235  1
  Te  Te45  1  0.74619872  -0.00306411  0.49980885  1
  Te  Te46  1  0.74993619  0.49803556  -0.00239633  1
  Te  Te47  1  0.75064561  0.50286719  0.50125043  1
  Te  Te48  1  -0.00503943  0.23992684  0.00017974  1
  Te  Te49  1  -0.00834561  0.23795647  0.49994723  1
  Te  Te50  1  0.00763036  0.75637361  -0.00008399  1
  Te  Te51  1  0.00058725  0.75600274  0.49990257  1
  Te  Te52  1  0.50417616  0.23753956  -0.00030296  1
  Te  Te53  1  0.50456916  0.24813066  0.50013688  1
  Te  Te54  1  0.49737103  0.75351265  0.00004246  1
  Te  Te55  1  0.49988493  0.74886939  0.50009894  1
  Te  Te56  1  0.00747931  -0.00225058  0.25058680  1
  Te  Te57  1  -0.00038664  -0.00095042  0.74990329  1
  Te  Te58  1  -0.01191474  0.50013258  0.24897732  1
  Te  Te59  1  -0.00312728  0.50045624  0.75042331  1
  Te  Te60  1  0.49804973  -0.00341915  0.25260020  1
  Te  Te61  1  0.50133236  -0.00859240  0.74734010  1
  Te  Te62  1  0.50267991  0.50527027  0.25273209  1
  Te  Te63  1  0.50177100  0.50373985  0.74935082  1
