# generated using pymatgen
data_AgSbTe2
_symmetry_space_group_name_H-M   'P 1'
_cell_length_a   12.30130543
_cell_length_b   12.25495187
_cell_length_c   12.30310620
_cell_angle_alpha   89.99770395
_cell_angle_beta   90.00808255
_cell_angle_gamma   89.99815633
_symmetry_Int_Tables_number   1
_chemical_formula_structural   AgSbTe2
_chemical_formula_sum   'Ag16 Sb16 Te32'
_cell_volume   1854.71668851
_cell_formula_units_Z   16
loop_
 _symmetry_equiv_pos_site_id
 _symmetry_equiv_pos_as_xyz
  1  'x, y, z'
loop_
 _atom_site_type_symbol
 _atom_site_label
 _atom_site_symmetry_multiplicity
 _atom_site_fract_x
 _atom_site_fract_y
 _atom_site_fract_z
 _atom_site_occupancy
  Ag  Ag0  1  0.00409504  -0.01084484  0.49183720  1
  Ag  Ag1  1  0.23935871  -0.01669436  0.25444345  1
  Ag  Ag2  1  0.76143892  -0.01212663  0.25297619  1
  Ag  Ag3  1  0.49797254  0.50895728  0.00096592  1
  Ag  Ag4  1  0.24914521  0.75281679  0.49243822  1
  Ag  Ag5  1  0.00964316  0.75884182  0.25549982  1
  Ag  Ag6  1  0.00154075  0.51360697  0.00191262  1
  Ag  Ag7  1  0.00277246  -0.01425457  0.00748777  1
  Ag  Ag8  1  0.00384378  0.75282893  0.74490929  1
  Ag  Ag9  1  0.25126995  0.51765598  0.25128297  1
  Ag  Ag10  1  0.49857327  0.51189778  0.49898014  1
  Ag  Ag11  1  0.74878275  0.51049636  0.74897077  1
  Ag  Ag12  1  0.48911826  0.74576760  0.25957323  1
  Ag  Ag13  1  0.49737863  0.74515941  0.74039962  1
  Ag  Ag14  1  0.75033255  0.75032312  0.49853308  1
  Ag  Ag15  1  0.24330318  -0.01221244  0.74557889  1
  Sb  Sb16  1  0.75032810  0.24990056  0.00044664  1
  Sb  Sb17  1  0.24968227  0.51486301  0.74800268  1
  Sb  Sb18  1  0.75565611  -0.01228901  0.74604915  1
  Sb  Sb19  1  0.00209800  0.51303319  0.49690186  1
  Sb  Sb20  1  0.49518776  -0.01182089  0.49926958  1
  Sb  Sb21  1  0.25032009  0.24804508  0.49974312  1
  Sb  Sb22  1  0.49679978  -0.01265024  0.00210209  1
  Sb  Sb23  1  0.49850196  0.25617301  0.74857136  1
  Sb  Sb24  1  0.24607420  0.74957994  0.01145782  1
  Sb  Sb25  1  0.75063625  0.51145657  0.25210425  1
  Sb  Sb26  1  0.24997603  0.25004481  -0.00020695  1
  Sb  Sb27  1  0.00019777  0.25024387  0.74980805  1
  Sb  Sb28  1  0.75052116  0.24944786  0.50000699  1
  Sb  Sb29  1  0.49974865  0.25584034  0.25108962  1
  Sb  Sb30  1  0.75226743  0.75056291  0.00233025  1
  Sb  Sb31  1  0.00068593  0.24344655  0.24968549  1
  Te  Te32  1  0.25067284  0.24786039  0.25088364  1
  Te  Te33  1  0.25058228  0.22746871  0.74873069  1
  Te  Te34  1  0.24906194  0.75002120  0.25276452  1
  Te  Te35  1  0.24787200  0.75346831  0.74028808  1
  Te  Te36  1  0.74855348  0.22921248  0.25111298  1
  Te  Te37  1  0.74870387  0.26650223  0.74911374  1
  Te  Te38  1  0.75126307  0.75478545  0.25674792  1
  Te  Te39  1  0.75029475  0.74654679  0.74218453  1
  Te  Te40  1  0.24501060  -0.00171751  0.00544792  1
  Te  Te41  1  0.25005695  -0.00391833  0.49498409  1
  Te  Te42  1  0.24648618  0.50192055  0.00575828  1
  Te  Te43  1  0.24940916  0.50336157  0.49621976  1
  Te  Te44  1  0.75801741  -0.00073167  0.00386940  1
  Te  Te45  1  0.75263200  -0.00518862  0.49965603  1
  Te  Te46  1  0.75392981  0.50108904  -0.00187095  1
  Te  Te47  1  0.74979135  0.50529244  0.50038927  1
  Te  Te48  1  0.00001393  0.25427124  -0.00031511  1
  Te  Te49  1  -0.00054895  0.22965407  0.50105223  1
  Te  Te50  1  -0.00106597  0.74901060  -0.00056600  1
  Te  Te51  1  0.00222548  0.75280332  0.49925263  1
  Te  Te52  1  0.50055795  0.27083072  -0.00052659  1
  Te  Te53  1  0.50082631  0.27214543  0.50055546  1
  Te  Te54  1  0.50339721  0.74426705  -0.00056597  1
  Te  Te55  1  0.49849813  0.74701574  0.49877746  1
  Te  Te56  1  0.00549359  -0.00293175  0.24662341  1
  Te  Te57  1  -0.00092989  -0.00534403  0.75486076  1
  Te  Te58  1  -0.00087037  0.50406258  0.24760529  1
  Te  Te59  1  0.00389998  0.50469356  0.75348667  1
  Te  Te60  1  0.49368749  -0.00739534  0.24718022  1
  Te  Te61  1  0.49793107  -0.00886089  0.75266017  1
  Te  Te62  1  0.50190703  0.50547394  0.24820404  1
  Te  Te63  1  0.49538868  0.50623396  0.75228425  1
