# generated using pymatgen
data_AgSbTe2
_symmetry_space_group_name_H-M   'P 1'
_cell_length_a   12.22474166
_cell_length_b   12.22631696
_cell_length_c   12.22423246
_cell_angle_alpha   89.99474190
_cell_angle_beta   89.99920908
_cell_angle_gamma   89.99800463
_symmetry_Int_Tables_number   1
_chemical_formula_structural   AgSbTe2
_chemical_formula_sum   'Ag16 Sb16 Te32'
_cell_volume   1827.07737016
_cell_formula_units_Z   16
loop_
 _symmetry_equiv_pos_site_id
 _symmetry_equiv_pos_as_xyz
  1  'x, y, z'
loop_
 _atom_site_type_symbol
 _atom_site_label
 _atom_site_symmetry_multiplicity
 _atom_site_fract_x
 _atom_site_fract_y
 _atom_site_fract_z
 _atom_site_occupancy
  Ag  Ag0  1  0.75303503  0.49814326  0.25221387  1
  Ag  Ag1  1  -0.00687717  0.00520901  0.50421688  1
  Ag  Ag2  1  -0.00700790  0.49452595  0.50281688  1
  Ag  Ag3  1  0.24441588  -0.00069020  0.74522007  1
  Ag  Ag4  1  0.74942900  0.74874594  -0.00606670  1
  Ag  Ag5  1  0.50894219  0.75274683  0.75051109  1
  Ag  Ag6  1  -0.00541084  0.24473120  0.74154991  1
  Ag  Ag7  1  0.50699248  0.00007884  0.50316434  1
  Ag  Ag8  1  0.75456771  0.00253953  0.25858947  1
  Ag  Ag9  1  0.24584683  0.00156627  0.25445912  1
  Ag  Ag10  1  0.75291204  0.50486960  0.74839676  1
  Ag  Ag11  1  -0.00528848  0.24594360  0.25832929  1
  Ag  Ag12  1  -0.00846611  0.75544930  0.74738297  1
  Ag  Ag13  1  0.75544464  -0.00384232  0.74239490  1
  Ag  Ag14  1  0.75641559  0.24514741  0.50071740  1
  Ag  Ag15  1  0.50661940  0.50336249  -0.00270540  1
  Sb  Sb16  1  0.24524282  0.49737747  0.25147813  1
  Sb  Sb17  1  0.23988956  0.24495941  0.50044749  1
  Sb  Sb18  1  -0.00521316  0.75537752  0.25447870  1
  Sb  Sb19  1  0.24879641  0.24862703  -0.00089646  1
  Sb  Sb20  1  0.24999176  0.75122820  -0.00280969  1
  Sb  Sb21  1  -0.00324852  -0.00060209  -0.00617429  1
  Sb  Sb22  1  0.24893785  0.75432808  0.50198435  1
  Sb  Sb23  1  0.50564790  0.75205687  0.25058361  1
  Sb  Sb24  1  0.75139804  0.25132199  -0.00097670  1
  Sb  Sb25  1  0.51213908  0.50054952  0.50282666  1
  Sb  Sb26  1  0.24678054  0.49992438  0.74822859  1
  Sb  Sb27  1  0.50437333  -0.00405069  -0.00412465  1
  Sb  Sb28  1  0.75113037  0.75835791  0.50926775  1
  Sb  Sb29  1  -0.00717948  0.50151140  -0.00224795  1
  Sb  Sb30  1  0.50670403  0.24659840  0.74740073  1
  Sb  Sb31  1  0.50656398  0.24806298  0.25237585  1
  Te  Te32  1  0.24100385  0.24337450  0.24960738  1
  Te  Te33  1  0.24119213  0.24345461  0.75044993  1
  Te  Te34  1  0.24983084  0.75905736  0.24821175  1
  Te  Te35  1  0.24892807  0.75590702  0.75124033  1
  Te  Te36  1  0.75411640  0.24856190  0.25102770  1
  Te  Te37  1  0.75371974  0.24935704  0.74895105  1
  Te  Te38  1  0.75018257  0.74975065  0.24048060  1
  Te  Te39  1  0.75074347  0.74999081  0.75082262  1
  Te  Te40  1  0.25260457  -0.00043124  0.00079254  1
  Te  Te41  1  0.24913056  0.00096732  0.50090950  1
  Te  Te42  1  0.26105452  0.50003311  0.00168280  1
  Te  Te43  1  0.24049185  0.49953707  0.49831208  1
  Te  Te44  1  0.74799088  -0.00465199  0.00060825  1
  Te  Te45  1  0.75239478  0.00043360  0.50034554  1
  Te  Te46  1  0.74743156  0.50214624  -0.00111148  1
  Te  Te47  1  0.75237612  0.49488135  0.50027425  1
  Te  Te48  1  -0.00018977  0.25105980  0.00021807  1
  Te  Te49  1  -0.00398095  0.24742873  0.50106090  1
  Te  Te50  1  -0.00593293  0.74879497  -0.00956212  1
  Te  Te51  1  0.00020775  0.75092387  0.50600451  1
  Te  Te52  1  0.49948818  0.26010997  -0.00025890  1
  Te  Te53  1  0.51037914  0.24379692  0.50046514  1
  Te  Te54  1  0.50491677  0.74620085  -0.00602268  1
  Te  Te55  1  0.49876390  0.75590073  0.50709141  1
  Te  Te56  1  -0.00328839  0.00073305  0.25338737  1
  Te  Te57  1  -0.00243407  0.00035688  0.74974663  1
  Te  Te58  1  -0.00367998  0.49737712  0.25356880  1
  Te  Te59  1  -0.00202126  0.49934382  0.74749771  1
  Te  Te60  1  0.50177131  -0.00026676  0.25512341  1
  Te  Te61  1  0.50170417  -0.00193193  0.74743398  1
  Te  Te62  1  0.50515248  0.50010526  0.24873112  1
  Te  Te63  1  0.50242697  0.50354227  0.74987686  1
