# generated using pymatgen
data_AgSbTe2
_symmetry_space_group_name_H-M   'P 1'
_cell_length_a   12.20676799
_cell_length_b   12.21159640
_cell_length_c   12.20844215
_cell_angle_alpha   89.99955308
_cell_angle_beta   90.00209402
_cell_angle_gamma   90.00240850
_symmetry_Int_Tables_number   1
_chemical_formula_structural   AgSbTe2
_chemical_formula_sum   'Ag16 Sb16 Te32'
_cell_volume   1819.84073285
_cell_formula_units_Z   16
loop_
 _symmetry_equiv_pos_site_id
 _symmetry_equiv_pos_as_xyz
  1  'x, y, z'
loop_
 _atom_site_type_symbol
 _atom_site_label
 _atom_site_symmetry_multiplicity
 _atom_site_fract_x
 _atom_site_fract_y
 _atom_site_fract_z
 _atom_site_occupancy
  Ag  Ag0  1  0.00356717  0.49623690  0.00071585  1
  Ag  Ag1  1  0.50002052  0.25078866  0.25092513  1
  Ag  Ag2  1  0.50388140  -0.00263391  0.49730588  1
  Ag  Ag3  1  0.25075921  0.25470795  0.00063680  1
  Ag  Ag4  1  0.25206063  0.74536136  0.00206715  1
  Ag  Ag5  1  0.49989867  0.74912232  0.25520673  1
  Ag  Ag6  1  -0.00333519  0.00070278  0.49931127  1
  Ag  Ag7  1  0.49971608  0.74902223  0.74439819  1
  Ag  Ag8  1  0.25287505  0.49960295  0.24789431  1
  Ag  Ag9  1  0.00007634  0.49886894  0.49936784  1
  Ag  Ag10  1  0.49997756  0.25097600  0.74947683  1
  Ag  Ag11  1  0.00001124  0.25185865  0.75097523  1
  Ag  Ag12  1  0.50014091  0.50234463  0.49771116  1
  Ag  Ag13  1  0.74438821  0.75187874  0.49838769  1
  Ag  Ag14  1  0.74648449  0.00050454  0.25410330  1
  Ag  Ag15  1  0.74865404  0.25116732  0.00049509  1
  Sb  Sb16  1  0.74865326  0.49856689  0.74878923  1
  Sb  Sb17  1  0.00093252  0.74840011  0.74736525  1
  Sb  Sb18  1  0.25780929  0.74712234  0.49807103  1
  Sb  Sb19  1  0.25147630  0.00047269  0.74946352  1
  Sb  Sb20  1  0.74807243  0.74831315  0.00181788  1
  Sb  Sb21  1  0.50112841  0.00237497  0.00313917  1
  Sb  Sb22  1  0.25212974  0.25276709  0.49879152  1
  Sb  Sb23  1  -0.00159482  0.00379881  0.00003908  1
  Sb  Sb24  1  0.00099525  0.74908322  0.25131870  1
  Sb  Sb25  1  0.74584898  0.49912779  0.25169282  1
  Sb  Sb26  1  0.25380746  0.00087871  0.25035356  1
  Sb  Sb27  1  0.74765727  0.24735284  0.49813551  1
  Sb  Sb28  1  0.25094302  0.49945032  0.75345709  1
  Sb  Sb29  1  0.74868722  0.00124500  0.74481898  1
  Sb  Sb30  1  0.49566871  0.49739003  0.00315807  1
  Sb  Sb31  1  0.00031870  0.25148457  0.24878662  1
  Te  Te32  1  0.25560941  0.25287813  0.24439730  1
  Te  Te33  1  0.25233651  0.24999867  0.75756294  1
  Te  Te34  1  0.25558694  0.74673220  0.24493914  1
  Te  Te35  1  0.25705244  0.75015257  0.75789652  1
  Te  Te36  1  0.74415770  0.24717666  0.24629891  1
  Te  Te37  1  0.74757731  0.24918880  0.75667111  1
  Te  Te38  1  0.74367952  0.75353887  0.25235443  1
  Te  Te39  1  0.74237453  0.75088207  0.74654180  1
  Te  Te40  1  0.24832784  0.00053206  0.00116762  1
  Te  Te41  1  0.24841282  -0.00057140  0.49874879  1
  Te  Te42  1  0.24696788  0.49831357  0.00395272  1
  Te  Te43  1  0.24844509  0.50048733  0.49296307  1
  Te  Te44  1  0.75188173  0.00451165  0.00853183  1
  Te  Te45  1  0.74850858  -0.00197923  0.49570970  1
  Te  Te46  1  0.75871150  0.49543508  0.00157458  1
  Te  Te47  1  0.75122445  0.50481764  0.49856180  1
  Te  Te48  1  0.00131260  0.25213324  -0.00215866  1
  Te  Te49  1  -0.00048104  0.25256511  0.50395872  1
  Te  Te50  1  0.00332977  0.74525747  -0.00164135  1
  Te  Te51  1  -0.00494923  0.74818730  0.50230114  1
  Te  Te52  1  0.49952175  0.25103329  -0.00174469  1
  Te  Te53  1  0.50067867  0.25094192  0.50093387  1
  Te  Te54  1  0.49816277  0.74928737  -0.00010188  1
  Te  Te55  1  0.50023871  0.74929270  0.49953867  1
  Te  Te56  1  -0.00486269  0.00015108  0.25768176  1
  Te  Te57  1  -0.00058359  0.00561989  0.74289443  1
  Te  Te58  1  0.00530713  0.49953651  0.25287522  1
  Te  Te59  1  0.00042115  0.49557875  0.74672943  1
  Te  Te60  1  0.50209758  0.00089291  0.25424520  1
  Te  Te61  1  0.50061582  0.00248292  0.74233350  1
  Te  Te62  1  0.49717009  0.49911840  0.25315531  1
  Te  Te63  1  0.49945619  0.49748787  0.74295058  1
