# generated using pymatgen
data_AgSbTe2
_symmetry_space_group_name_H-M   'P 1'
_cell_length_a   12.21917192
_cell_length_b   12.21087625
_cell_length_c   12.21717486
_cell_angle_alpha   89.99580436
_cell_angle_beta   89.99997114
_cell_angle_gamma   89.99793819
_symmetry_Int_Tables_number   1
_chemical_formula_structural   AgSbTe2
_chemical_formula_sum   'Ag16 Sb16 Te32'
_cell_volume   1822.88551391
_cell_formula_units_Z   16
loop_
 _symmetry_equiv_pos_site_id
 _symmetry_equiv_pos_as_xyz
  1  'x, y, z'
loop_
 _atom_site_type_symbol
 _atom_site_label
 _atom_site_symmetry_multiplicity
 _atom_site_fract_x
 _atom_site_fract_y
 _atom_site_fract_z
 _atom_site_occupancy
  Ag  Ag0  1  0.75068230  0.74742088  0.00019197  1
  Ag  Ag1  1  0.24864479  0.74163526  0.00012280  1
  Ag  Ag2  1  0.24575893  0.50076357  0.24926338  1
  Ag  Ag3  1  0.74943366  0.50178413  0.74824183  1
  Ag  Ag4  1  -0.00077146  -0.00253210  0.49657862  1
  Ag  Ag5  1  0.00405879  0.50364785  0.49933465  1
  Ag  Ag6  1  0.00621374  0.50126509  0.00095802  1
  Ag  Ag7  1  0.49980033  -0.00071846  0.00017948  1
  Ag  Ag8  1  0.25024288  0.50050118  0.75012237  1
  Ag  Ag9  1  0.75217693  -0.00176329  0.25019211  1
  Ag  Ag10  1  0.75352996  0.74629981  0.49990494  1
  Ag  Ag11  1  0.49799734  0.25515092  0.75139050  1
  Ag  Ag12  1  0.00168999  0.25370764  0.24996068  1
  Ag  Ag13  1  0.24947154  0.25802703  -0.00008773  1
  Ag  Ag14  1  0.49672456  0.50184767  0.50372893  1
  Ag  Ag15  1  0.24657303  0.74159040  0.49993138  1
  Sb  Sb16  1  0.25109450  -0.00010370  0.74974728  1
  Sb  Sb17  1  0.49423355  0.50039758  -0.00342975  1
  Sb  Sb18  1  0.75022883  0.25311525  -0.00040747  1
  Sb  Sb19  1  0.00047878  0.74633461  0.25212250  1
  Sb  Sb20  1  -0.00025842  -0.00111110  0.00344791  1
  Sb  Sb21  1  0.49978393  0.74781336  0.24949731  1
  Sb  Sb22  1  0.49932792  0.74508602  0.74989636  1
  Sb  Sb23  1  0.24769953  -0.00012449  0.25065320  1
  Sb  Sb24  1  0.24841926  0.25970732  0.50007711  1
  Sb  Sb25  1  0.74857142  -0.00257406  0.74976753  1
  Sb  Sb26  1  0.00226838  0.25559488  0.75167514  1
  Sb  Sb27  1  0.75141543  0.25435473  0.50023814  1
  Sb  Sb28  1  0.49782457  0.25223944  0.24854971  1
  Sb  Sb29  1  0.00085422  0.74668461  0.74831425  1
  Sb  Sb30  1  0.75389160  0.50144924  0.25049166  1
  Sb  Sb31  1  0.50041023  -0.00132165  0.49987040  1
  Te  Te32  1  0.24664797  0.25351018  0.24541390  1
  Te  Te33  1  0.25304279  0.25472352  0.75472871  1
  Te  Te34  1  0.25062198  0.74512171  0.24852349  1
  Te  Te35  1  0.25070924  0.74417547  0.75142518  1
  Te  Te36  1  0.75500921  0.24479494  0.24903580  1
  Te  Te37  1  0.74459732  0.25746116  0.75101720  1
  Te  Te38  1  0.74936568  0.75390002  0.24919269  1
  Te  Te39  1  0.74900309  0.74428098  0.75053221  1
  Te  Te40  1  0.25163495  -0.00386983  0.00025168  1
  Te  Te41  1  0.24734932  -0.00998117  0.49957851  1
  Te  Te42  1  0.25060428  0.50284996  -0.00092640  1
  Te  Te43  1  0.24667199  0.50231752  0.50137418  1
  Te  Te44  1  0.74921700  -0.00571927  0.00078738  1
  Te  Te45  1  0.75151237  -0.00709732  0.49893975  1
  Te  Te46  1  0.75207356  0.50505385  -0.00061898  1
  Te  Te47  1  0.75264859  0.50449461  0.50072666  1
  Te  Te48  1  0.00398865  0.25252764  0.00285442  1
  Te  Te49  1  0.00119781  0.25158055  0.49547718  1
  Te  Te50  1  0.00131524  0.74645458  0.00004298  1
  Te  Te51  1  0.00016804  0.74619835  0.49976091  1
  Te  Te52  1  0.49646366  0.24763020  -0.00248398  1
  Te  Te53  1  0.49943862  0.25325460  0.50464952  1
  Te  Te54  1  0.49974578  0.75377405  -0.00040922  1
  Te  Te55  1  0.49978472  0.74614547  0.50008068  1
  Te  Te56  1  -0.00349716  0.00755927  0.25410354  1
  Te  Te57  1  -0.00057983  0.00378498  0.74031085  1
  Te  Te58  1  0.00263037  0.49518095  0.25016630  1
  Te  Te59  1  0.00076103  0.49768024  0.74955345  1
  Te  Te60  1  0.50582618  0.00266986  0.24623122  1
  Te  Te61  1  0.50028108  0.00931425  0.75429377  1
  Te  Te62  1  0.49398966  0.49796106  0.25801416  1
  Te  Te63  1  0.49930578  0.49609798  0.74684705  1
