# generated using pymatgen
data_AgSbTe2
_symmetry_space_group_name_H-M   'P 1'
_cell_length_a   12.21507983
_cell_length_b   12.20710095
_cell_length_c   12.22112896
_cell_angle_alpha   89.99828040
_cell_angle_beta   90.00374298
_cell_angle_gamma   89.99754756
_symmetry_Int_Tables_number   1
_chemical_formula_structural   AgSbTe2
_chemical_formula_sum   'Ag16 Sb16 Te32'
_cell_volume   1822.30123995
_cell_formula_units_Z   16
loop_
 _symmetry_equiv_pos_site_id
 _symmetry_equiv_pos_as_xyz
  1  'x, y, z'
loop_
 _atom_site_type_symbol
 _atom_site_label
 _atom_site_symmetry_multiplicity
 _atom_site_fract_x
 _atom_site_fract_y
 _atom_site_fract_z
 _atom_site_occupancy
  Ag  Ag0  1  -0.00389265  0.00057826  0.49982941  1
  Ag  Ag1  1  0.24908593  0.49276697  0.24881831  1
  Ag  Ag2  1  -0.00193741  0.75337371  0.74977519  1
  Ag  Ag3  1  0.75324068  -0.00321698  0.74565787  1
  Ag  Ag4  1  0.24812936  0.75267712  -0.00082619  1
  Ag  Ag5  1  0.49813979  0.00199867  0.00239960  1
  Ag  Ag6  1  0.00189444  0.00070486  0.00023730  1
  Ag  Ag7  1  0.75256201  0.50267109  0.74815912  1
  Ag  Ag8  1  0.49363419  0.24476030  0.25003712  1
  Ag  Ag9  1  0.24780110  0.49998136  0.75169100  1
  Ag  Ag10  1  0.75162501  0.75725494  0.50372463  1
  Ag  Ag11  1  0.24930939  0.24782817  0.49428540  1
  Ag  Ag12  1  0.00645053  0.24509017  0.25013506  1
  Ag  Ag13  1  0.50361673  0.00215517  0.49762927  1
  Ag  Ag14  1  0.75039968  0.00118625  0.25360893  1
  Ag  Ag15  1  0.24939973  0.24769384  0.00549028  1
  Sb  Sb16  1  0.75059973  0.24174820  0.49928205  1
  Sb  Sb17  1  0.00032029  0.49845966  0.50091416  1
  Sb  Sb18  1  0.00225241  0.24624359  0.75008923  1
  Sb  Sb19  1  0.49840307  0.75680856  0.24923186  1
  Sb  Sb20  1  0.49639913  0.49756678  0.00105853  1
  Sb  Sb21  1  0.50139979  0.75178656  0.75019613  1
  Sb  Sb22  1  0.49787486  0.24701267  0.75021631  1
  Sb  Sb23  1  0.75054490  0.24575165  0.00072152  1
  Sb  Sb24  1  0.24662621  -0.00152180  0.75268530  1
  Sb  Sb25  1  0.00322875  0.49911042  -0.00086980  1
  Sb  Sb26  1  0.24889426  0.75198849  0.50024822  1
  Sb  Sb27  1  0.00216510  0.75651414  0.24971439  1
  Sb  Sb28  1  0.75248506  0.75491638  -0.00344400  1
  Sb  Sb29  1  0.75066755  0.49968495  0.25209810  1
  Sb  Sb30  1  0.24963069  0.00865734  0.24835353  1
  Sb  Sb31  1  0.49975146  0.49644585  0.49900465  1
  Te  Te32  1  0.24916941  0.25083513  0.24927438  1
  Te  Te33  1  0.24916136  0.25617726  0.75091327  1
  Te  Te34  1  0.24921308  0.73905107  0.24610526  1
  Te  Te35  1  0.24600707  0.74558620  0.75232696  1
  Te  Te36  1  0.75067314  0.24730194  0.25013239  1
  Te  Te37  1  0.75013776  0.25157286  0.74983237  1
  Te  Te38  1  0.75025170  0.75278097  0.25523451  1
  Te  Te39  1  0.75329836  0.75209928  0.74780195  1
  Te  Te40  1  0.24955295  0.00084183  -0.00153835  1
  Te  Te41  1  0.24991398  0.00291919  0.50148265  1
  Te  Te42  1  0.25027611  0.49856443  -0.00147241  1
  Te  Te43  1  0.25043258  0.49688392  0.50101865  1
  Te  Te44  1  0.75054499  -0.00072220  -0.00010203  1
  Te  Te45  1  0.75103722  -0.00031262  0.50079317  1
  Te  Te46  1  0.74925247  0.50115462  -0.00715710  1
  Te  Te47  1  0.74940021  0.50731092  0.50539817  1
  Te  Te48  1  0.00482314  0.24400161  0.00337529  1
  Te  Te49  1  0.00442834  0.24420948  0.49664270  1
  Te  Te50  1  0.00407630  0.75622878  -0.00313210  1
  Te  Te51  1  -0.00186993  0.75664344  0.50330174  1
  Te  Te52  1  0.49483621  0.24400335  0.00412039  1
  Te  Te53  1  0.49526640  0.24465181  0.49585009  1
  Te  Te54  1  0.49280533  0.75846746  0.00054981  1
  Te  Te55  1  0.50318841  0.75887607  0.49937682  1
  Te  Te56  1  -0.00255353  0.00326918  0.24954715  1
  Te  Te57  1  -0.00336226  -0.00248357  0.75051392  1
  Te  Te58  1  0.00286258  0.49164185  0.24980110  1
  Te  Te59  1  -0.00004875  0.50442083  0.75016191  1
  Te  Te60  1  0.50276631  0.00433240  0.24957172  1
  Te  Te61  1  0.50649171  0.00077336  0.75024019  1
  Te  Te62  1  0.49730723  0.49057413  0.24998478  1
  Te  Te63  1  0.49995834  0.49966767  0.74989816  1
