# generated using pymatgen
data_AgSbTe2
_symmetry_space_group_name_H-M   'P 1'
_cell_length_a   12.30528540
_cell_length_b   12.29005286
_cell_length_c   12.30123333
_cell_angle_alpha   89.99717602
_cell_angle_beta   90.02192699
_cell_angle_gamma   90.00455280
_symmetry_Int_Tables_number   1
_chemical_formula_structural   AgSbTe2
_chemical_formula_sum   'Ag16 Sb16 Te32'
_cell_volume   1860.34745310
_cell_formula_units_Z   16
loop_
 _symmetry_equiv_pos_site_id
 _symmetry_equiv_pos_as_xyz
  1  'x, y, z'
loop_
 _atom_site_type_symbol
 _atom_site_label
 _atom_site_symmetry_multiplicity
 _atom_site_fract_x
 _atom_site_fract_y
 _atom_site_fract_z
 _atom_site_occupancy
  Ag  Ag0  1  0.76373035  0.24455236  0.01193933  1
  Ag  Ag1  1  -0.00013896  0.49425024  0.00181765  1
  Ag  Ag2  1  0.25099367  0.00086229  0.24675948  1
  Ag  Ag3  1  0.75549352  0.00338603  0.74245286  1
  Ag  Ag4  1  0.51231399  0.23493816  0.24925237  1
  Ag  Ag5  1  0.51041386  0.00027112  0.49019089  1
  Ag  Ag6  1  -0.00349445  0.76061624  0.24239639  1
  Ag  Ag7  1  0.75147133  0.76490884  0.49025724  1
  Ag  Ag8  1  0.74694850  0.00679215  0.25765526  1
  Ag  Ag9  1  0.23961923  0.75549702  0.00791340  1
  Ag  Ag10  1  -0.00990424  0.23959671  0.23746957  1
  Ag  Ag11  1  0.50668672  0.76542048  0.25079468  1
  Ag  Ag12  1  0.75176011  0.23486459  0.48834377  1
  Ag  Ag13  1  -0.00721605  0.24497278  0.76408587  1
  Ag  Ag14  1  -0.00447497  0.75580006  0.75811166  1
  Ag  Ag15  1  0.23615824  0.24710698  0.00779805  1
  Sb  Sb16  1  0.24501409  0.00073204  0.75262012  1
  Sb  Sb17  1  0.24739527  0.75655171  0.49277382  1
  Sb  Sb18  1  0.50152271  -0.00033516  0.00841041  1
  Sb  Sb19  1  0.50396040  0.49934532  0.49619034  1
  Sb  Sb20  1  -0.00247633  0.49897301  0.49671198  1
  Sb  Sb21  1  0.75291092  0.49805136  0.75084473  1
  Sb  Sb22  1  -0.00107796  0.00661145  0.00428439  1
  Sb  Sb23  1  0.24522207  0.49874373  0.75555626  1
  Sb  Sb24  1  0.24665495  0.24312894  0.49132921  1
  Sb  Sb25  1  0.75864802  0.75679969  0.00646199  1
  Sb  Sb26  1  0.50720619  0.24347770  0.75139147  1
  Sb  Sb27  1  0.24912398  0.49819650  0.24759988  1
  Sb  Sb28  1  0.50592850  0.75720539  0.75111967  1
  Sb  Sb29  1  -0.00766764  0.00030440  0.49737045  1
  Sb  Sb30  1  0.50400190  0.49972935  0.00291596  1
  Sb  Sb31  1  0.75049307  0.49296438  0.24981159  1
  Te  Te32  1  0.24474851  0.24684614  0.24794233  1
  Te  Te33  1  0.24096785  0.24709839  0.75895045  1
  Te  Te34  1  0.24324680  0.75406512  0.24775290  1
  Te  Te35  1  0.24059807  0.75325592  0.75774617  1
  Te  Te36  1  0.75273220  0.24871117  0.25088557  1
  Te  Te37  1  0.75275345  0.24700668  0.74856292  1
  Te  Te38  1  0.75309701  0.75353413  0.24756809  1
  Te  Te39  1  0.75360340  0.75434602  0.75350557  1
  Te  Te40  1  0.25138249  0.00030565  0.00449233  1
  Te  Te41  1  0.26658481  0.00099506  0.49077387  1
  Te  Te42  1  0.24374602  0.49625542  0.00054464  1
  Te  Te43  1  0.25056935  0.49986509  0.50246359  1
  Te  Te44  1  0.74852163  0.00625906  0.00084049  1
  Te  Te45  1  0.74875001  0.00062937  0.49393715  1
  Te  Te46  1  0.75459166  0.48660676  0.00027733  1
  Te  Te47  1  0.75136350  0.50165921  0.49988124  1
  Te  Te48  1  0.00012122  0.24695195  0.00331295  1
  Te  Te49  1  -0.00416540  0.25092072  0.49783823  1
  Te  Te50  1  -0.00006547  0.74911637  0.00435226  1
  Te  Te51  1  -0.00459077  0.74921474  0.49696146  1
  Te  Te52  1  0.49776466  0.25023884  0.00531803  1
  Te  Te53  1  0.50348006  0.25238928  0.49606264  1
  Te  Te54  1  0.49263414  0.74821337  0.00557846  1
  Te  Te55  1  0.50373208  0.74702405  0.49641073  1
  Te  Te56  1  -0.00181661  -0.00019510  0.25226364  1
  Te  Te57  1  -0.00502745  -0.00013704  0.74515275  1
  Te  Te58  1  -0.00020529  0.50116994  0.24601125  1
  Te  Te59  1  -0.00015418  0.49980503  0.75636392  1
  Te  Te60  1  0.50619033  0.00038256  0.25072917  1
  Te  Te61  1  0.50990210  -0.00023506  0.73624686  1
  Te  Te62  1  0.49997322  0.50214250  0.24855757  1
  Te  Te63  1  0.49774960  0.50124278  0.75008466  1
