# generated using pymatgen
data_AgSbTe2
_symmetry_space_group_name_H-M   'P 1'
_cell_length_a   12.21159483
_cell_length_b   12.20643243
_cell_length_c   12.21094728
_cell_angle_alpha   89.99898674
_cell_angle_beta   89.99681514
_cell_angle_gamma   90.00061199
_symmetry_Int_Tables_number   1
_chemical_formula_structural   AgSbTe2
_chemical_formula_sum   'Ag16 Sb16 Te32'
_cell_volume   1820.16388583
_cell_formula_units_Z   16
loop_
 _symmetry_equiv_pos_site_id
 _symmetry_equiv_pos_as_xyz
  1  'x, y, z'
loop_
 _atom_site_type_symbol
 _atom_site_label
 _atom_site_symmetry_multiplicity
 _atom_site_fract_x
 _atom_site_fract_y
 _atom_site_fract_z
 _atom_site_occupancy
  Ag  Ag0  1  0.00055129  -0.00482134  0.49590394  1
  Ag  Ag1  1  0.50032066  0.74408959  0.74830255  1
  Ag  Ag2  1  0.75114408  -0.00616710  0.74841233  1
  Ag  Ag3  1  0.00236918  0.24589185  0.24899550  1
  Ag  Ag4  1  0.00392004  0.75395824  0.24921245  1
  Ag  Ag5  1  0.75044521  0.74976816  0.50413653  1
  Ag  Ag6  1  0.00288949  0.50424609  0.00004110  1
  Ag  Ag7  1  0.74602088  0.50625807  0.74959463  1
  Ag  Ag8  1  0.49756358  0.25117292  0.25021158  1
  Ag  Ag9  1  0.24387476  -0.00350895  0.24991873  1
  Ag  Ag10  1  0.49742259  0.50306291  -0.00444191  1
  Ag  Ag11  1  0.24913006  0.74930818  0.50000271  1
  Ag  Ag12  1  0.00199989  -0.00405077  0.00492105  1
  Ag  Ag13  1  0.25345101  0.50631192  0.75219778  1
  Ag  Ag14  1  0.24678581  0.74717748  -0.00005990  1
  Ag  Ag15  1  0.49923466  0.50442461  0.50394433  1
  Sb  Sb16  1  0.50009953  -0.00437541  0.49959091  1
  Sb  Sb17  1  0.75761997  -0.00247618  0.25128336  1
  Sb  Sb18  1  0.00054387  0.50551483  0.49977608  1
  Sb  Sb19  1  0.75031552  0.25049724  0.00037045  1
  Sb  Sb20  1  0.49812485  -0.00273394  0.00046308  1
  Sb  Sb21  1  0.00020299  0.25027703  0.75048656  1
  Sb  Sb22  1  0.24932832  0.25376347  0.00260896  1
  Sb  Sb23  1  0.50014785  0.25738779  0.75003837  1
  Sb  Sb24  1  0.75006268  0.50243387  0.25062697  1
  Sb  Sb25  1  0.49652262  0.74932869  0.25046229  1
  Sb  Sb26  1  0.24931754  0.50412884  0.24794744  1
  Sb  Sb27  1  0.24912942  -0.00790112  0.74998914  1
  Sb  Sb28  1  0.75051990  0.25070881  0.49967906  1
  Sb  Sb29  1  0.24962859  0.25088024  0.49709238  1
  Sb  Sb30  1  0.75321796  0.74894316  -0.00466221  1
  Sb  Sb31  1  -0.00115332  0.74970741  0.75102946  1
  Te  Te32  1  0.24815347  0.24348913  0.25052543  1
  Te  Te33  1  0.25077155  0.25947904  0.74926649  1
  Te  Te34  1  0.24705471  0.75323109  0.25050691  1
  Te  Te35  1  0.25333025  0.74672090  0.74964557  1
  Te  Te36  1  0.75076154  0.24951061  0.25074639  1
  Te  Te37  1  0.74917058  0.25038207  0.74938310  1
  Te  Te38  1  0.75566193  0.75028620  0.25810151  1
  Te  Te39  1  0.74757759  0.74824841  0.74665300  1
  Te  Te40  1  0.24588571  -0.00568139  0.00096292  1
  Te  Te41  1  0.24628498  -0.00600508  0.49907619  1
  Te  Te42  1  0.24902750  0.50404431  -0.00153555  1
  Te  Te43  1  0.25196246  0.50619220  0.50314164  1
  Te  Te44  1  0.75556178  -0.00113977  -0.00588684  1
  Te  Te45  1  0.75313279  -0.00512488  0.50412439  1
  Te  Te46  1  0.75027893  0.50165055  -0.00596881  1
  Te  Te47  1  0.74808022  0.50480091  0.50544318  1
  Te  Te48  1  0.00063934  0.25018774  0.00614923  1
  Te  Te49  1  -0.00007433  0.24322838  0.49274452  1
  Te  Te50  1  0.00257385  0.74913986  0.00211777  1
  Te  Te51  1  0.00175759  0.75185327  0.49748639  1
  Te  Te52  1  0.49959752  0.25634935  0.00566857  1
  Te  Te53  1  0.50007302  0.25712697  0.49443592  1
  Te  Te54  1  0.49616431  0.74542543  -0.00106668  1
  Te  Te55  1  0.49896899  0.74647794  0.50116390  1
  Te  Te56  1  0.00084355  -0.00093056  0.24901605  1
  Te  Te57  1  -0.00334358  0.00167779  0.75024548  1
  Te  Te58  1  0.00036400  0.49986318  0.24528788  1
  Te  Te59  1  -0.00060263  0.49811204  0.75465256  1
  Te  Te60  1  0.49412566  0.00497502  0.24903068  1
  Te  Te61  1  0.50488875  -0.00464117  0.75066548  1
  Te  Te62  1  0.49964375  0.49666857  0.24941574  1
  Te  Te63  1  0.50093279  0.50119535  0.75072529  1
