# generated using pymatgen
data_AgSbTe2
_symmetry_space_group_name_H-M   'P 1'
_cell_length_a   12.22157723
_cell_length_b   12.22617186
_cell_length_c   12.22404085
_cell_angle_alpha   90.00139922
_cell_angle_beta   90.00503591
_cell_angle_gamma   90.00016932
_symmetry_Int_Tables_number   1
_chemical_formula_structural   AgSbTe2
_chemical_formula_sum   'Ag16 Sb16 Te32'
_cell_volume   1826.55411338
_cell_formula_units_Z   16
loop_
 _symmetry_equiv_pos_site_id
 _symmetry_equiv_pos_as_xyz
  1  'x, y, z'
loop_
 _atom_site_type_symbol
 _atom_site_label
 _atom_site_symmetry_multiplicity
 _atom_site_fract_x
 _atom_site_fract_y
 _atom_site_fract_z
 _atom_site_occupancy
  Ag  Ag0  1  0.50479349  0.74716621  0.75268982  1
  Ag  Ag1  1  -0.00597577  0.74650881  0.24475904  1
  Ag  Ag2  1  0.24920973  0.49494687  0.75547441  1
  Ag  Ag3  1  0.50258956  0.00119254  0.50238056  1
  Ag  Ag4  1  0.24261030  0.25590825  -0.00298410  1
  Ag  Ag5  1  0.51450894  0.49917688  -0.00349883  1
  Ag  Ag6  1  -0.00191048  0.25454062  0.75832034  1
  Ag  Ag7  1  0.75580227  0.26392686  -0.00101566  1
  Ag  Ag8  1  0.75174379  0.00147461  0.24542880  1
  Ag  Ag9  1  0.75128773  0.73598067  -0.00019580  1
  Ag  Ag10  1  0.24850619  0.25101165  0.50295667  1
  Ag  Ag11  1  0.75020967  0.49778125  0.76442676  1
  Ag  Ag12  1  -0.01367895  0.49377360  0.00003320  1
  Ag  Ag13  1  -0.00452265  0.25292727  0.24138372  1
  Ag  Ag14  1  0.75427053  0.49868833  0.23508495  1
  Ag  Ag15  1  0.74878344  0.00213655  0.75445795  1
  Sb  Sb16  1  -0.00501064  0.74567275  0.75615036  1
  Sb  Sb17  1  0.00010057  0.49801167  0.50013111  1
  Sb  Sb18  1  0.75138489  0.25014619  0.50086900  1
  Sb  Sb19  1  0.50584005  0.25051133  0.24826562  1
  Sb  Sb20  1  0.50629532  0.74891687  0.24696719  1
  Sb  Sb21  1  -0.00193863  0.00255164  0.50014435  1
  Sb  Sb22  1  0.24932260  0.00331240  0.24973077  1
  Sb  Sb23  1  0.74928005  0.75015114  0.50039418  1
  Sb  Sb24  1  0.24607164  0.49705014  0.24434846  1
  Sb  Sb25  1  0.25100298  0.00577682  0.75019013  1
  Sb  Sb26  1  0.24850587  0.74382961  -0.00211473  1
  Sb  Sb27  1  0.50550015  0.00030343  -0.00162890  1
  Sb  Sb28  1  -0.00453387  0.00808084  0.00007388  1
  Sb  Sb29  1  0.25115271  0.74873341  0.50229426  1
  Sb  Sb30  1  0.50013118  0.49919062  0.50287541  1
  Sb  Sb31  1  0.50272756  0.25238167  0.75161329  1
  Te  Te32  1  0.24245215  0.24955194  0.24763930  1
  Te  Te33  1  0.24690555  0.25204560  0.75307293  1
  Te  Te34  1  0.24171387  0.75056715  0.24995322  1
  Te  Te35  1  0.25327823  0.74497535  0.75038648  1
  Te  Te36  1  0.75373595  0.25015366  0.24968070  1
  Te  Te37  1  0.75245790  0.25098642  0.75074162  1
  Te  Te38  1  0.75256261  0.74985204  0.24754252  1
  Te  Te39  1  0.74931749  0.74926877  0.75258621  1
  Te  Te40  1  0.25252390  0.00915249  0.00014719  1
  Te  Te41  1  0.25581686  0.00533281  0.50031733  1
  Te  Te42  1  0.24916871  0.49600136  -0.00343796  1
  Te  Te43  1  0.25139987  0.49457631  0.50696280  1
  Te  Te44  1  0.74895762  0.00046628  -0.00050844  1
  Te  Te45  1  0.74600245  0.00039112  0.50076129  1
  Te  Te46  1  0.75115681  0.49856273  -0.00073944  1
  Te  Te47  1  0.74844209  0.49959258  0.50105145  1
  Te  Te48  1  -0.00288945  0.25220380  -0.00082817  1
  Te  Te49  1  0.00539219  0.24942226  0.50037405  1
  Te  Te50  1  -0.00247253  0.74349753  0.00318780  1
  Te  Te51  1  0.00146063  0.75054998  0.49029742  1
  Te  Te52  1  0.50236638  0.25518945  0.00041729  1
  Te  Te53  1  0.49317060  0.24639439  0.49965262  1
  Te  Te54  1  0.50224934  0.74576135  -0.00399886  1
  Te  Te55  1  0.49853719  0.75420885  0.50538050  1
  Te  Te56  1  -0.00599751  0.00267753  0.24982683  1
  Te  Te57  1  -0.00580953  0.00355570  0.74944953  1
  Te  Te58  1  -0.00312028  0.49674656  0.24872965  1
  Te  Te59  1  -0.00245303  0.49818906  0.75127880  1
  Te  Te60  1  0.50603859  -0.00138750  0.25417283  1
  Te  Te61  1  0.50434049  -0.00375335  0.74780517  1
  Te  Te62  1  0.50598947  0.50154262  0.24570984  1
  Te  Te63  1  0.50324516  0.50196365  0.75238126  1
