# generated using pymatgen
data_AgSbTe2
_symmetry_space_group_name_H-M   'P 1'
_cell_length_a   12.26027670
_cell_length_b   12.27379276
_cell_length_c   12.27208763
_cell_angle_alpha   89.99688878
_cell_angle_beta   89.98983687
_cell_angle_gamma   89.99771094
_symmetry_Int_Tables_number   1
_chemical_formula_structural   AgSbTe2
_chemical_formula_sum   'Ag16 Sb16 Te32'
_cell_volume   1846.70488458
_cell_formula_units_Z   16
loop_
 _symmetry_equiv_pos_site_id
 _symmetry_equiv_pos_as_xyz
  1  'x, y, z'
loop_
 _atom_site_type_symbol
 _atom_site_label
 _atom_site_symmetry_multiplicity
 _atom_site_fract_x
 _atom_site_fract_y
 _atom_site_fract_z
 _atom_site_occupancy
  Ag  Ag0  1  0.25361191  0.50948353  0.76011620  1
  Ag  Ag1  1  0.25663609  0.75051308  0.50709787  1
  Ag  Ag2  1  0.49082524  -0.01341038  -0.00454812  1
  Ag  Ag3  1  0.49244891  0.24974930  0.75727891  1
  Ag  Ag4  1  0.48577150  0.51308855  -0.00577469  1
  Ag  Ag5  1  0.48799725  0.75036560  0.75739151  1
  Ag  Ag6  1  0.00990346  -0.01307897  0.00111503  1
  Ag  Ag7  1  0.01356773  0.51257404  -0.00094325  1
  Ag  Ag8  1  0.25103676  0.74429088  -0.00719641  1
  Ag  Ag9  1  0.25060622  0.25536614  -0.00285606  1
  Ag  Ag10  1  0.49318855  0.75168226  0.24341926  1
  Ag  Ag11  1  0.01267406  0.74807014  0.76328440  1
  Ag  Ag12  1  0.00693078  0.74983691  0.23612145  1
  Ag  Ag13  1  0.74266531  0.75256406  0.50081755  1
  Ag  Ag14  1  0.49650259  -0.01084333  0.50413563  1
  Ag  Ag15  1  0.00530470  0.25003376  0.24167635  1
  Sb  Sb16  1  0.75003923  -0.00321739  0.25127730  1
  Sb  Sb17  1  0.74597907  0.50296515  0.75102276  1
  Sb  Sb18  1  0.00675880  -0.00597165  0.50028677  1
  Sb  Sb19  1  0.01206775  0.25207581  0.76075395  1
  Sb  Sb20  1  0.25325933  0.24824107  0.50519950  1
  Sb  Sb21  1  0.74765118  -0.00361729  0.74868823  1
  Sb  Sb22  1  0.49487449  0.51422540  0.50765105  1
  Sb  Sb23  1  0.74856372  0.74982093  -0.00080245  1
  Sb  Sb24  1  0.24989764  0.50572014  0.23668686  1
  Sb  Sb25  1  0.75011610  0.50290211  0.24976679  1
  Sb  Sb26  1  0.49282262  0.24887801  0.24044765  1
  Sb  Sb27  1  0.00507534  0.50405693  0.50218289  1
  Sb  Sb28  1  0.74641410  0.24550120  0.50007824  1
  Sb  Sb29  1  0.74958559  0.25008494  -0.00036855  1
  Sb  Sb30  1  0.25262283  -0.01311674  0.75480697  1
  Sb  Sb31  1  0.24957271  -0.00466986  0.24539352  1
  Te  Te32  1  0.24379899  0.25297244  0.24341909  1
  Te  Te33  1  0.25475412  0.26236403  0.75414122  1
  Te  Te34  1  0.24918963  0.74689177  0.24668716  1
  Te  Te35  1  0.25134295  0.74636089  0.75658483  1
  Te  Te36  1  0.76372681  0.25199199  0.25245573  1
  Te  Te37  1  0.73538282  0.25297943  0.74717106  1
  Te  Te38  1  0.75119113  0.74980967  0.26243147  1
  Te  Te39  1  0.74948807  0.74805816  0.73854628  1
  Te  Te40  1  0.25163779  -0.00321204  -0.00203113  1
  Te  Te41  1  0.25768807  -0.00786816  0.50110512  1
  Te  Te42  1  0.25030802  0.50606390  -0.00578736  1
  Te  Te43  1  0.25009353  0.50866262  0.51720489  1
  Te  Te44  1  0.74791756  0.00202184  -0.00029954  1
  Te  Te45  1  0.73868347  -0.00811987  0.50034247  1
  Te  Te46  1  0.75121787  0.49798842  -0.00109888  1
  Te  Te47  1  0.75095774  0.51089766  0.50031153  1
  Te  Te48  1  0.00485622  0.24893329  0.00051737  1
  Te  Te49  1  0.00096254  0.24669176  0.49101975  1
  Te  Te50  1  -0.00768254  0.75073002  0.00107185  1
  Te  Te51  1  0.00663797  0.75368995  0.49821916  1
  Te  Te52  1  0.49481821  0.24698226  0.00093062  1
  Te  Te53  1  0.49808338  0.23872906  0.50233900  1
  Te  Te54  1  0.50754012  0.75233645  -0.00195814  1
  Te  Te55  1  0.49331207  0.75176460  0.50059180  1
  Te  Te56  1  -0.00024319  -0.00736613  0.24242318  1
  Te  Te57  1  -0.00159774  -0.00497286  0.75765720  1
  Te  Te58  1  0.00053904  0.50712903  0.24105893  1
  Te  Te59  1  0.00513163  0.50343485  0.75671339  1
  Te  Te60  1  0.50004143  -0.00515445  0.24438307  1
  Te  Te61  1  0.49892549  -0.00488859  0.75637991  1
  Te  Te62  1  0.49940085  0.50450762  0.23814415  1
  Te  Te63  1  0.49692439  0.50542611  0.75511771  1
