# generated using pymatgen
data_AgSbTe2
_symmetry_space_group_name_H-M   'P 1'
_cell_length_a   12.23178251
_cell_length_b   12.21998327
_cell_length_c   12.24726515
_cell_angle_alpha   90.00054630
_cell_angle_beta   90.00365549
_cell_angle_gamma   90.01919738
_symmetry_Int_Tables_number   1
_chemical_formula_structural   AgSbTe2
_chemical_formula_sum   'Ag16 Sb16 Te32'
_cell_volume   1830.62528504
_cell_formula_units_Z   16
loop_
 _symmetry_equiv_pos_site_id
 _symmetry_equiv_pos_as_xyz
  1  'x, y, z'
loop_
 _atom_site_type_symbol
 _atom_site_label
 _atom_site_symmetry_multiplicity
 _atom_site_fract_x
 _atom_site_fract_y
 _atom_site_fract_z
 _atom_site_occupancy
  Ag  Ag0  1  -0.00155409  0.24037828  0.24701523  1
  Ag  Ag1  1  0.25063194  0.75357361  0.00422157  1
  Ag  Ag2  1  0.74931705  0.76100919  0.00110715  1
  Ag  Ag3  1  0.50295612  0.75416454  0.75022264  1
  Ag  Ag4  1  -0.00588069  -0.00047384  0.49495463  1
  Ag  Ag5  1  0.24471061  -0.00449329  0.24757320  1
  Ag  Ag6  1  -0.00756546  0.00148766  0.00437962  1
  Ag  Ag7  1  0.74649012  0.76001892  0.49880410  1
  Ag  Ag8  1  0.24876843  0.50551234  0.24704397  1
  Ag  Ag9  1  0.24891889  0.50408803  0.75349486  1
  Ag  Ag10  1  -0.00265611  0.24354237  0.75339201  1
  Ag  Ag11  1  0.75703439  0.23618612  0.00078916  1
  Ag  Ag12  1  0.50018387  0.75650275  0.24976542  1
  Ag  Ag13  1  0.75358771  -0.00410423  0.75264292  1
  Ag  Ag14  1  0.50781949  -0.00649716  0.49681040  1
  Ag  Ag15  1  0.75572156  -0.00430128  0.24765242  1
  Sb  Sb16  1  0.24896091  -0.00245171  0.75269135  1
  Sb  Sb17  1  0.49955524  0.50591885  0.49915353  1
  Sb  Sb18  1  0.75155098  0.50387074  0.24802141  1
  Sb  Sb19  1  0.75369610  0.23979745  0.49885188  1
  Sb  Sb20  1  0.00033575  0.75814150  0.24894506  1
  Sb  Sb21  1  0.50635423  -0.00482396  0.00228077  1
  Sb  Sb22  1  0.00169452  0.49938791  0.00068287  1
  Sb  Sb23  1  0.25226841  0.75375915  0.49735258  1
  Sb  Sb24  1  0.75110548  0.50241167  0.75205777  1
  Sb  Sb25  1  0.50066624  0.24466742  0.24966400  1
  Sb  Sb26  1  0.24794095  0.24739372  0.49926997  1
  Sb  Sb27  1  -0.00166659  0.75475688  0.75138644  1
  Sb  Sb28  1  0.00030297  0.50150008  0.49858047  1
  Sb  Sb29  1  0.49828442  0.50437830  0.00066904  1
  Sb  Sb30  1  0.50149579  0.24657942  0.75073243  1
  Sb  Sb31  1  0.24508619  0.24528381  0.00133385  1
  Te  Te32  1  0.24819982  0.24761477  0.24871138  1
  Te  Te33  1  0.24695369  0.25482921  0.75164667  1
  Te  Te34  1  0.25150316  0.75272049  0.24745489  1
  Te  Te35  1  0.25262772  0.74767187  0.75349057  1
  Te  Te36  1  0.75273409  0.24846065  0.24701784  1
  Te  Te37  1  0.75322820  0.24767660  0.75326929  1
  Te  Te38  1  0.74793275  0.75155649  0.24612708  1
  Te  Te39  1  0.74813148  0.75241341  0.75397625  1
  Te  Te40  1  0.24519930  -0.00447325  0.00450242  1
  Te  Te41  1  0.24610317  -0.00041281  0.49473463  1
  Te  Te42  1  0.24907310  0.50594403  0.00184495  1
  Te  Te43  1  0.24942198  0.50010916  0.49830450  1
  Te  Te44  1  0.75161226  -0.00270873  0.00069824  1
  Te  Te45  1  0.75200332  -0.00258536  0.49891827  1
  Te  Te46  1  0.75000532  0.50511242  0.00008548  1
  Te  Te47  1  0.74976137  0.51210969  0.49999812  1
  Te  Te48  1  -0.00307419  0.24613060  0.00060467  1
  Te  Te49  1  -0.00075834  0.24396123  0.49943368  1
  Te  Te50  1  -0.00061489  0.75469995  -0.00088576  1
  Te  Te51  1  -0.00664068  0.75667051  0.50057221  1
  Te  Te52  1  0.51081828  0.25159193  -0.00065926  1
  Te  Te53  1  0.50058816  0.24054305  0.50077228  1
  Te  Te54  1  0.50000054  0.75116884  0.00015026  1
  Te  Te55  1  0.50258545  0.75416122  0.49950424  1
  Te  Te56  1  -0.00201158  0.00128980  0.24903699  1
  Te  Te57  1  -0.00187194  0.00313454  0.75111905  1
  Te  Te58  1  0.00555180  0.48920562  0.25156975  1
  Te  Te59  1  0.00496612  0.49179764  0.74880382  1
  Te  Te60  1  0.50076921  -0.00314090  0.25272079  1
  Te  Te61  1  0.50179637  -0.00437940  0.74489869  1
  Te  Te62  1  0.49345375  0.50501816  0.25169415  1
  Te  Te63  1  0.49383581  0.50494332  0.74834114  1
