# generated using pymatgen
data_AgSbTe2
_symmetry_space_group_name_H-M   'P 1'
_cell_length_a   12.22254822
_cell_length_b   12.22477790
_cell_length_c   12.21129054
_cell_angle_alpha   89.99810313
_cell_angle_beta   89.99935422
_cell_angle_gamma   90.00027081
_symmetry_Int_Tables_number   1
_chemical_formula_structural   AgSbTe2
_chemical_formula_sum   'Ag16 Sb16 Te32'
_cell_volume   1824.58584333
_cell_formula_units_Z   16
loop_
 _symmetry_equiv_pos_site_id
 _symmetry_equiv_pos_as_xyz
  1  'x, y, z'
loop_
 _atom_site_type_symbol
 _atom_site_label
 _atom_site_symmetry_multiplicity
 _atom_site_fract_x
 _atom_site_fract_y
 _atom_site_fract_z
 _atom_site_occupancy
  Ag  Ag0  1  0.74953283  0.75293601  0.51111163  1
  Ag  Ag1  1  -0.00275973  0.00005516  -0.00820262  1
  Ag  Ag2  1  0.74694518  0.24900346  -0.00799731  1
  Ag  Ag3  1  0.74779889  0.50167498  0.75363062  1
  Ag  Ag4  1  0.25124941  0.75487106  0.50689095  1
  Ag  Ag5  1  0.75280675  -0.00214587  0.75265782  1
  Ag  Ag6  1  0.25230635  0.50126432  0.75034118  1
  Ag  Ag7  1  -0.00396560  0.24430402  0.75374004  1
  Ag  Ag8  1  0.25261477  0.00005281  0.25143559  1
  Ag  Ag9  1  0.24805097  -0.00161099  0.74791891  1
  Ag  Ag10  1  0.49805441  -0.00063796  0.50516135  1
  Ag  Ag11  1  0.75064496  0.75185442  -0.01103256  1
  Ag  Ag12  1  0.50422953  0.24891779  0.75286475  1
  Ag  Ag13  1  0.50062579  0.24678260  0.24780364  1
  Ag  Ag14  1  -0.00457334  0.75508091  0.75085545  1
  Ag  Ag15  1  0.50351467  0.49686904  -0.00663617  1
  Sb  Sb16  1  0.74715254  0.24637615  0.51062565  1
  Sb  Sb17  1  0.25321262  0.24928496  -0.00411175  1
  Sb  Sb18  1  0.25465913  0.49983212  0.25024926  1
  Sb  Sb19  1  0.74730383  0.00134958  0.24879717  1
  Sb  Sb20  1  -0.00039857  0.24486125  0.24501661  1
  Sb  Sb21  1  0.00148866  -0.00238177  0.50930823  1
  Sb  Sb22  1  -0.00064366  0.50203864  0.50557469  1
  Sb  Sb23  1  0.50089504  0.50012531  0.50721149  1
  Sb  Sb24  1  0.74659427  0.49898141  0.24686198  1
  Sb  Sb25  1  -0.00345741  0.49982214  -0.00577168  1
  Sb  Sb26  1  0.24962946  0.75199903  -0.00866074  1
  Sb  Sb27  1  0.00070596  0.75365240  0.24787539  1
  Sb  Sb28  1  0.50288276  0.00284060  -0.00569839  1
  Sb  Sb29  1  0.49895553  0.75384568  0.24914556  1
  Sb  Sb30  1  0.25207988  0.24492619  0.50437628  1
  Sb  Sb31  1  0.50611674  0.75263124  0.75008967  1
  Te  Te32  1  0.25385680  0.24592860  0.25093035  1
  Te  Te33  1  0.25006115  0.24906405  0.74963833  1
  Te  Te34  1  0.24921935  0.75490206  0.25767372  1
  Te  Te35  1  0.24693244  0.75193525  0.74818091  1
  Te  Te36  1  0.74594700  0.25020033  0.24255960  1
  Te  Te37  1  0.74922511  0.24923909  0.75155306  1
  Te  Te38  1  0.75087493  0.74985349  0.25090512  1
  Te  Te39  1  0.74987219  0.75134622  0.75058646  1
  Te  Te40  1  0.24723047  -0.00123155  -0.00316208  1
  Te  Te41  1  0.25220886  -0.00360532  0.50467527  1
  Te  Te42  1  0.25550913  0.50095170  -0.00598832  1
  Te  Te43  1  0.25053791  0.50845040  0.50616944  1
  Te  Te44  1  0.75075750  -0.00101645  -0.00231343  1
  Te  Te45  1  0.74661581  -0.00424044  0.50270586  1
  Te  Te46  1  0.74732551  0.50017493  -0.00383489  1
  Te  Te47  1  0.74921758  0.50780211  0.50604271  1
  Te  Te48  1  -0.00585614  0.24649203  -0.00564472  1
  Te  Te49  1  -0.00076770  0.25032205  0.50701665  1
  Te  Te50  1  -0.00539399  0.75332300  -0.00471115  1
  Te  Te51  1  -0.00199214  0.75066022  0.50540192  1
  Te  Te52  1  0.50327588  0.25089439  -0.00406767  1
  Te  Te53  1  0.50147329  0.24517894  0.50109776  1
  Te  Te54  1  0.50673673  0.74493814  0.00161755  1
  Te  Te55  1  0.50056525  0.75498010  0.49921714  1
  Te  Te56  1  0.00715274  0.00152664  0.24116750  1
  Te  Te57  1  -0.00042897  -0.00025247  0.75229334  1
  Te  Te58  1  0.00170629  0.49850699  0.24910883  1
  Te  Te59  1  0.00010282  0.49994808  0.75182765  1
  Te  Te60  1  0.49548720  0.00479080  0.25308212  1
  Te  Te61  1  0.49912826  0.00358037  0.74901438  1
  Te  Te62  1  0.49869326  0.49110010  0.24354002  1
  Te  Te63  1  0.50047284  0.49479946  0.75228387  1
