# generated using pymatgen
data_AgSbTe2
_symmetry_space_group_name_H-M   'P 1'
_cell_length_a   12.23423391
_cell_length_b   12.22630734
_cell_length_c   12.24366689
_cell_angle_alpha   90.00042563
_cell_angle_beta   89.99765186
_cell_angle_gamma   90.00658363
_symmetry_Int_Tables_number   1
_chemical_formula_structural   AgSbTe2
_chemical_formula_sum   'Ag16 Sb16 Te32'
_cell_volume   1831.40160422
_cell_formula_units_Z   16
loop_
 _symmetry_equiv_pos_site_id
 _symmetry_equiv_pos_as_xyz
  1  'x, y, z'
loop_
 _atom_site_type_symbol
 _atom_site_label
 _atom_site_symmetry_multiplicity
 _atom_site_fract_x
 _atom_site_fract_y
 _atom_site_fract_z
 _atom_site_occupancy
  Ag  Ag0  1  -0.00201604  0.50145461  0.49523165  1
  Ag  Ag1  1  0.50202025  0.50688967  0.00517573  1
  Ag  Ag2  1  0.25492936  -0.00329740  0.75004192  1
  Ag  Ag3  1  -0.00798940  -0.00147892  0.49656161  1
  Ag  Ag4  1  -0.00764183  -0.00202125  0.00373176  1
  Ag  Ag5  1  0.74306723  0.75725850  0.00213844  1
  Ag  Ag6  1  0.74423814  -0.00377791  0.25008207  1
  Ag  Ag7  1  0.50779410  -0.00698235  0.00316107  1
  Ag  Ag8  1  0.50130380  0.24284381  0.24852138  1
  Ag  Ag9  1  0.50475798  0.75794225  0.75364750  1
  Ag  Ag10  1  -0.00123789  0.24413722  0.25171064  1
  Ag  Ag11  1  0.74522299  -0.00576268  0.74990461  1
  Ag  Ag12  1  0.25304933  0.50055806  0.25017981  1
  Ag  Ag13  1  0.50460275  0.75773712  0.24559019  1
  Ag  Ag14  1  0.50821346  -0.00505927  0.49688151  1
  Ag  Ag15  1  0.74675670  0.75782540  0.49818598  1
  Sb  Sb16  1  0.25389448  -0.00125376  0.24991167  1
  Sb  Sb17  1  0.25791547  0.75235527  0.00074800  1
  Sb  Sb18  1  0.25322208  0.50397578  0.74984239  1
  Sb  Sb19  1  0.24976723  0.24814035  0.49713341  1
  Sb  Sb20  1  0.25133949  0.24752041  0.00278541  1
  Sb  Sb21  1  -0.00195645  0.50187536  0.00487443  1
  Sb  Sb22  1  -0.00403260  0.75416807  0.74944019  1
  Sb  Sb23  1  0.75012429  0.24099987  0.49640534  1
  Sb  Sb24  1  0.74888341  0.24060672  0.00360590  1
  Sb  Sb25  1  -0.00106428  0.24486759  0.74942029  1
  Sb  Sb26  1  0.74868470  0.50377813  0.25006138  1
  Sb  Sb27  1  0.25279661  0.75250963  0.49932535  1
  Sb  Sb28  1  -0.00371660  0.75556941  0.25099422  1
  Sb  Sb29  1  0.74791923  0.50615091  0.74968463  1
  Sb  Sb30  1  0.50189487  0.50394468  0.49579170  1
  Sb  Sb31  1  0.50084046  0.24123633  0.75097885  1
  Te  Te32  1  0.25114029  0.25520645  0.25002609  1
  Te  Te33  1  0.25030914  0.24206186  0.74990329  1
  Te  Te34  1  0.25795920  0.74396114  0.25029602  1
  Te  Te35  1  0.25780542  0.75545148  0.74996440  1
  Te  Te36  1  0.74915865  0.24351804  0.25020265  1
  Te  Te37  1  0.74963721  0.24136734  0.74983567  1
  Te  Te38  1  0.74691486  0.75423346  0.25055651  1
  Te  Te39  1  0.74646566  0.75443450  0.74913752  1
  Te  Te40  1  0.24865222  -0.00073372  -0.00403106  1
  Te  Te41  1  0.24828846  -0.00085419  0.50394951  1
  Te  Te42  1  0.25257277  0.50063158  0.00239716  1
  Te  Te43  1  0.24440632  0.50084229  0.49758284  1
  Te  Te44  1  0.74857499  -0.00265472  0.00345720  1
  Te  Te45  1  0.74937280  -0.00255755  0.49646703  1
  Te  Te46  1  0.74584376  0.50912852  -0.00174309  1
  Te  Te47  1  0.75456368  0.50883566  0.50165324  1
  Te  Te48  1  -0.00029030  0.24641175  0.00603419  1
  Te  Te49  1  -0.00018587  0.24711969  0.49470370  1
  Te  Te50  1  -0.00819492  0.75483198  -0.00019998  1
  Te  Te51  1  -0.00486485  0.75402759  0.49976218  1
  Te  Te52  1  0.50052394  0.24974827  0.00494746  1
  Te  Te53  1  0.50012982  0.24692511  0.49460658  1
  Te  Te54  1  0.50225117  0.75349744  0.00194375  1
  Te  Te55  1  0.50325512  0.75208517  0.49884585  1
  Te  Te56  1  0.00352401  0.00127973  0.25086132  1
  Te  Te57  1  -0.00203397  0.00090081  0.74883615  1
  Te  Te58  1  0.00147158  0.49651836  0.25142377  1
  Te  Te59  1  0.00133153  0.49802935  0.74419012  1
  Te  Te60  1  0.49723628  -0.00040138  0.24988759  1
  Te  Te61  1  0.50279842  -0.00086546  0.74992801  1
  Te  Te62  1  0.49912141  0.49864432  0.24859495  1
  Te  Te63  1  0.49867793  0.50366354  0.75423034  1
