# generated using pymatgen
data_AgSbTe2
_symmetry_space_group_name_H-M   'P 1'
_cell_length_a   12.28789300
_cell_length_b   12.28217393
_cell_length_c   12.27607862
_cell_angle_alpha   89.98884601
_cell_angle_beta   89.99525477
_cell_angle_gamma   89.99582362
_symmetry_Int_Tables_number   1
_chemical_formula_structural   AgSbTe2
_chemical_formula_sum   'Ag16 Sb16 Te32'
_cell_volume   1852.73077090
_cell_formula_units_Z   16
loop_
 _symmetry_equiv_pos_site_id
 _symmetry_equiv_pos_as_xyz
  1  'x, y, z'
loop_
 _atom_site_type_symbol
 _atom_site_label
 _atom_site_symmetry_multiplicity
 _atom_site_fract_x
 _atom_site_fract_y
 _atom_site_fract_z
 _atom_site_occupancy
  Ag  Ag0  1  0.25792999  0.25118096  0.48875107  1
  Ag  Ag1  1  0.74220278  0.25614543  0.01685442  1
  Ag  Ag2  1  0.50644939  0.74968816  0.74740618  1
  Ag  Ag3  1  0.74731563  0.74737325  0.49759741  1
  Ag  Ag4  1  0.74447621  0.48759407  0.24966938  1
  Ag  Ag5  1  0.50803488  0.49488901  0.01038242  1
  Ag  Ag6  1  0.26612970  0.01188774  0.25391374  1
  Ag  Ag7  1  0.50573518  0.00576507  0.48611934  1
  Ag  Ag8  1  0.25572213  0.48988932  0.25226518  1
  Ag  Ag9  1  0.74399299  0.25138089  0.48630615  1
  Ag  Ag10  1  0.73487220  0.01448346  0.25353738  1
  Ag  Ag11  1  0.50796510  0.24387324  0.25189076  1
  Ag  Ag12  1  -0.00741755  0.74469777  0.74617451  1
  Ag  Ag13  1  -0.00671913  0.49939524  0.00769363  1
  Ag  Ag14  1  -0.00646077  0.50017720  0.49395307  1
  Ag  Ag15  1  0.50512406  0.00550067  0.01494603  1
  Sb  Sb16  1  0.25442281  0.00149274  0.74598751  1
  Sb  Sb17  1  0.25188256  0.74933196  0.49948009  1
  Sb  Sb18  1  -0.00147516  0.74700989  0.25257755  1
  Sb  Sb19  1  -0.00619227  0.00142251  0.00275368  1
  Sb  Sb20  1  0.25677314  0.25141075  0.01280927  1
  Sb  Sb21  1  -0.00725301  0.25100838  0.24969497  1
  Sb  Sb22  1  0.50090608  0.75289401  0.25191271  1
  Sb  Sb23  1  -0.00156115  0.25371006  0.74926705  1
  Sb  Sb24  1  0.74840464  0.74754585  0.00466388  1
  Sb  Sb25  1  0.50390400  0.49807838  0.49021579  1
  Sb  Sb26  1  0.74717373  -0.00075072  0.74688539  1
  Sb  Sb27  1  0.25138048  0.49916430  0.74579291  1
  Sb  Sb28  1  -0.00232872  -0.00084750  0.49887853  1
  Sb  Sb29  1  0.74886096  0.50029704  0.74841474  1
  Sb  Sb30  1  0.25098810  0.74985608  0.00022443  1
  Sb  Sb31  1  0.50052724  0.25280312  0.74978682  1
  Te  Te32  1  0.25692146  0.25124978  0.25504653  1
  Te  Te33  1  0.24855254  0.24913076  0.72893996  1
  Te  Te34  1  0.24986398  0.74745288  0.24949265  1
  Te  Te35  1  0.25255258  0.75013814  0.75044447  1
  Te  Te36  1  0.74640523  0.25151447  0.25139580  1
  Te  Te37  1  0.75043999  0.24982169  0.74436615  1
  Te  Te38  1  0.74911125  0.74757209  0.25778061  1
  Te  Te39  1  0.74740330  0.74954403  0.74015003  1
  Te  Te40  1  0.25551725  0.00204013  0.00915847  1
  Te  Te41  1  0.25015556  0.00121799  0.49462375  1
  Te  Te42  1  0.24875174  0.49813796  0.00881117  1
  Te  Te43  1  0.24939395  0.49941902  0.49468864  1
  Te  Te44  1  0.74799321  0.00103284  0.00639485  1
  Te  Te45  1  0.74944728  0.00471444  0.49674592  1
  Te  Te46  1  0.74791491  0.50043248  0.00353373  1
  Te  Te47  1  0.74907727  0.49703162  0.49784299  1
  Te  Te48  1  -0.00966375  0.25561181  -0.00209977  1
  Te  Te49  1  -0.00711288  0.25467583  0.50050959  1
  Te  Te50  1  -0.00062999  0.74357290  -0.00641689  1
  Te  Te51  1  -0.00298747  0.74716952  0.50115027  1
  Te  Te52  1  0.50350791  0.25029348  -0.00114962  1
  Te  Te53  1  0.50530646  0.24994017  0.50047428  1
  Te  Te54  1  0.50095370  0.75066623  -0.00505497  1
  Te  Te55  1  0.50307235  0.75115776  0.50252952  1
  Te  Te56  1  0.00219807  -0.00118497  0.24742434  1
  Te  Te57  1  0.00178346  -0.01193712  0.75244932  1
  Te  Te58  1  -0.00119766  0.49827439  0.24955711  1
  Te  Te59  1  0.00115678  0.50280186  0.74941407  1
  Te  Te60  1  0.50266202  0.00030989  0.25072412  1
  Te  Te61  1  0.49869990  -0.00414349  0.75183295  1
  Te  Te62  1  0.50229044  0.49990490  0.24760868  1
  Te  Te63  1  0.49869294  0.50408820  0.76482529  1
