# generated using pymatgen
data_AgSbTe2
_symmetry_space_group_name_H-M   'P 1'
_cell_length_a   12.22926303
_cell_length_b   12.21707480
_cell_length_c   12.21442865
_cell_angle_alpha   89.99765912
_cell_angle_beta   90.00356866
_cell_angle_gamma   89.99653618
_symmetry_Int_Tables_number   1
_chemical_formula_structural   AgSbTe2
_chemical_formula_sum   'Ag16 Sb16 Te32'
_cell_volume   1824.90673508
_cell_formula_units_Z   16
loop_
 _symmetry_equiv_pos_site_id
 _symmetry_equiv_pos_as_xyz
  1  'x, y, z'
loop_
 _atom_site_type_symbol
 _atom_site_label
 _atom_site_symmetry_multiplicity
 _atom_site_fract_x
 _atom_site_fract_y
 _atom_site_fract_z
 _atom_site_occupancy
  Ag  Ag0  1  0.49905869  0.24720313  0.24934826  1
  Ag  Ag1  1  0.25053393  0.25303555  -0.00207485  1
  Ag  Ag2  1  0.50205026  0.75357729  0.25454133  1
  Ag  Ag3  1  0.00112300  0.49637879  -0.00350543  1
  Ag  Ag4  1  0.00445988  0.25289154  0.75084941  1
  Ag  Ag5  1  0.74336798  -0.00254769  0.25550834  1
  Ag  Ag6  1  0.24809253  0.49700527  0.75250111  1
  Ag  Ag7  1  0.75146320  0.50002504  0.75166645  1
  Ag  Ag8  1  0.25259392  0.75713050  0.49891321  1
  Ag  Ag9  1  0.00508791  -0.00116867  0.49935062  1
  Ag  Ag10  1  0.49545501  -0.00379702  0.49308389  1
  Ag  Ag11  1  0.74693079  0.75197836  0.49535980  1
  Ag  Ag12  1  0.74568589  0.50249979  0.24917394  1
  Ag  Ag13  1  0.49930630  0.49836605  0.00262298  1
  Ag  Ag14  1  0.24970810  0.00198457  0.74344081  1
  Ag  Ag15  1  0.25581282  -0.00045415  0.25741427  1
  Sb  Sb16  1  0.49992623  0.50253042  0.49795186  1
  Sb  Sb17  1  0.74727580  0.74683987  0.00421090  1
  Sb  Sb18  1  0.00064423  0.49964892  0.50181006  1
  Sb  Sb19  1  0.75021212  -0.00043695  0.74418634  1
  Sb  Sb20  1  0.00327691  0.00298357  -0.00001968  1
  Sb  Sb21  1  0.74905820  0.24864537  0.49883309  1
  Sb  Sb22  1  0.49888302  0.74943161  0.74560137  1
  Sb  Sb23  1  0.25084165  0.24332915  0.50143874  1
  Sb  Sb24  1  0.49740940  0.00159364  0.00689580  1
  Sb  Sb25  1  0.00150811  0.24996236  0.24943466  1
  Sb  Sb26  1  0.25260227  0.74819180  0.00139087  1
  Sb  Sb27  1  0.49694605  0.25057108  0.75075274  1
  Sb  Sb28  1  -0.00123672  0.75052681  0.25246365  1
  Sb  Sb29  1  0.00091101  0.74753492  0.74794690  1
  Sb  Sb30  1  0.74922197  0.25323458  0.00102819  1
  Sb  Sb31  1  0.25343441  0.50032030  0.24902120  1
  Te  Te32  1  0.25341995  0.24810561  0.24675190  1
  Te  Te33  1  0.24836050  0.25150006  0.75213175  1
  Te  Te34  1  0.25346573  0.75265741  0.25368175  1
  Te  Te35  1  0.25109848  0.75111144  0.74576295  1
  Te  Te36  1  0.74561034  0.25066455  0.24982239  1
  Te  Te37  1  0.75448147  0.25594859  0.75024921  1
  Te  Te38  1  0.74720067  0.74968621  0.25361079  1
  Te  Te39  1  0.74918564  0.74510947  0.74336333  1
  Te  Te40  1  0.24907329  0.00331862  -0.00157888  1
  Te  Te41  1  0.25025622  -0.00144697  0.49942051  1
  Te  Te42  1  0.25039422  0.49802538  -0.00238444  1
  Te  Te43  1  0.24900080  0.50745529  0.50525798  1
  Te  Te44  1  0.75108789  -0.00020173  0.00694462  1
  Te  Te45  1  0.74934904  -0.00380920  0.49770853  1
  Te  Te46  1  0.74897572  0.49992038  -0.00021486  1
  Te  Te47  1  0.75035555  0.50495693  0.49889345  1
  Te  Te48  1  0.00517821  0.25433076  -0.00422467  1
  Te  Te49  1  -0.00043777  0.24389350  0.50550008  1
  Te  Te50  1  -0.00038241  0.74051915  0.00025098  1
  Te  Te51  1  0.00128713  0.75603183  0.49968044  1
  Te  Te52  1  0.49508891  0.25393359  0.00430909  1
  Te  Te53  1  0.50035745  0.24401544  0.49310931  1
  Te  Te54  1  0.50004238  0.74350196  0.00828102  1
  Te  Te55  1  0.49959209  0.75248588  0.49612316  1
  Te  Te56  1  0.00089522  0.00093559  0.25249609  1
  Te  Te57  1  0.00273293  0.00379599  0.74806540  1
  Te  Te58  1  -0.00687610  0.49835845  0.24666033  1
  Te  Te59  1  0.00089562  0.49724498  0.75142136  1
  Te  Te60  1  0.49949116  -0.00042589  0.25020539  1
  Te  Te61  1  0.49639056  0.00103172  0.74554528  1
  Te  Te62  1  0.50270714  0.49911132  0.24842418  1
  Te  Te63  1  0.50007709  0.49921785  0.75359076  1
