# generated using pymatgen
data_AgSbTe2
_symmetry_space_group_name_H-M   'P 1'
_cell_length_a   12.21901665
_cell_length_b   12.22646704
_cell_length_c   12.22392698
_cell_angle_alpha   89.99972967
_cell_angle_beta   90.00962916
_cell_angle_gamma   90.00040502
_symmetry_Int_Tables_number   1
_chemical_formula_structural   AgSbTe2
_chemical_formula_sum   'Ag16 Sb16 Te32'
_cell_volume   1826.19848738
_cell_formula_units_Z   16
loop_
 _symmetry_equiv_pos_site_id
 _symmetry_equiv_pos_as_xyz
  1  'x, y, z'
loop_
 _atom_site_type_symbol
 _atom_site_label
 _atom_site_symmetry_multiplicity
 _atom_site_fract_x
 _atom_site_fract_y
 _atom_site_fract_z
 _atom_site_occupancy
  Ag  Ag0  1  0.25387485  0.74800798  0.50156694  1
  Ag  Ag1  1  0.26109361  0.49843296  0.74841259  1
  Ag  Ag2  1  0.49995823  0.74496640  0.24921380  1
  Ag  Ag3  1  -0.00008606  0.74680188  0.25172480  1
  Ag  Ag4  1  0.73953880  0.49584592  0.75196739  1
  Ag  Ag5  1  0.74305528  0.25447975  0.00317146  1
  Ag  Ag6  1  0.25649969  0.00180661  0.74883848  1
  Ag  Ag7  1  0.74444956  0.49381901  0.24865887  1
  Ag  Ag8  1  0.50305486  0.49542674  -0.00371679  1
  Ag  Ag9  1  0.49967352  0.25679938  0.75276826  1
  Ag  Ag10  1  0.25512940  0.25146852  0.50196287  1
  Ag  Ag11  1  0.49662741  0.74330127  0.75069992  1
  Ag  Ag12  1  0.49988083  0.00450972  -0.00215463  1
  Ag  Ag13  1  0.74428869  0.25394424  0.49646100  1
  Ag  Ag14  1  -0.00513027  0.25325921  0.25107871  1
  Ag  Ag15  1  0.50547784  0.25516035  0.24720921  1
  Sb  Sb16  1  0.25946112  0.25133591  -0.00339313  1
  Sb  Sb17  1  0.74629921  0.00843230  0.24852746  1
  Sb  Sb18  1  0.74110674  0.00521112  0.75269466  1
  Sb  Sb19  1  0.74544145  0.74495084  0.49766219  1
  Sb  Sb20  1  0.49965647  0.49632552  0.50599359  1
  Sb  Sb21  1  0.00399572  0.74748902  0.74734451  1
  Sb  Sb22  1  0.25370468  0.00088780  0.25053126  1
  Sb  Sb23  1  0.74548956  0.74408931  0.00162383  1
  Sb  Sb24  1  0.00178856  0.00101934  0.49883183  1
  Sb  Sb25  1  -0.00321011  0.49768187  0.00351566  1
  Sb  Sb26  1  0.25863755  0.49872770  0.25186151  1
  Sb  Sb27  1  0.49821610  0.00289347  0.50323778  1
  Sb  Sb28  1  0.00044003  0.00323129  0.00076916  1
  Sb  Sb29  1  -0.00006431  0.25166759  0.74844660  1
  Sb  Sb30  1  0.25389374  0.74874627  -0.00175518  1
  Sb  Sb31  1  0.00039105  0.49892048  0.49664795  1
  Te  Te32  1  0.25143534  0.25088937  0.25686221  1
  Te  Te33  1  0.25091431  0.25260524  0.74699447  1
  Te  Te34  1  0.25304336  0.74948755  0.25573594  1
  Te  Te35  1  0.25267323  0.74711965  0.74647853  1
  Te  Te36  1  0.74665988  0.25177896  0.25140137  1
  Te  Te37  1  0.74914746  0.25316951  0.74892698  1
  Te  Te38  1  0.74679804  0.74329863  0.25235308  1
  Te  Te39  1  0.74517029  0.74328962  0.74808538  1
  Te  Te40  1  0.25660694  0.00010585  -0.00759421  1
  Te  Te41  1  0.24997960  0.00156187  0.50634976  1
  Te  Te42  1  0.25781290  0.49968034  -0.00833300  1
  Te  Te43  1  0.24945314  0.49904370  0.50572368  1
  Te  Te44  1  0.74327744  0.00891450  -0.00129006  1
  Te  Te45  1  0.75102197  0.01127668  0.50123954  1
  Te  Te46  1  0.74547815  0.49612621  -0.00020919  1
  Te  Te47  1  0.75076994  0.49368250  0.49984684  1
  Te  Te48  1  -0.00973326  0.24883013  0.00819026  1
  Te  Te49  1  0.00184642  0.24956377  0.49399254  1
  Te  Te50  1  -0.00093699  0.75132112  0.01043715  1
  Te  Te51  1  0.00640551  0.75094442  0.49275781  1
  Te  Te52  1  0.50103430  0.25224044  -0.00022380  1
  Te  Te53  1  0.49863997  0.24837819  0.49957152  1
  Te  Te54  1  0.50088208  0.74888665  0.00079261  1
  Te  Te55  1  0.49602560  0.75306532  0.49875657  1
  Te  Te56  1  0.00097232  -0.00091514  0.24855723  1
  Te  Te57  1  0.01104325  -0.00190203  0.75173057  1
  Te  Te58  1  -0.00659605  0.49929231  0.24830987  1
  Te  Te59  1  -0.00136453  0.50140575  0.75203946  1
  Te  Te60  1  0.49942575  -0.00128199  0.24163447  1
  Te  Te61  1  0.49676667  0.00000637  0.75440091  1
  Te  Te62  1  0.50193459  0.49952596  0.24544775  1
  Te  Te63  1  0.50077855  0.49896879  0.75063120  1
