# generated using pymatgen
data_AgSbTe2
_symmetry_space_group_name_H-M   'P 1'
_cell_length_a   12.23698515
_cell_length_b   12.23586792
_cell_length_c   12.23123848
_cell_angle_alpha   90.00255147
_cell_angle_beta   89.99984756
_cell_angle_gamma   89.99940983
_symmetry_Int_Tables_number   1
_chemical_formula_structural   AgSbTe2
_chemical_formula_sum   'Ag16 Sb16 Te32'
_cell_volume   1831.38497516
_cell_formula_units_Z   16
loop_
 _symmetry_equiv_pos_site_id
 _symmetry_equiv_pos_as_xyz
  1  'x, y, z'
loop_
 _atom_site_type_symbol
 _atom_site_label
 _atom_site_symmetry_multiplicity
 _atom_site_fract_x
 _atom_site_fract_y
 _atom_site_fract_z
 _atom_site_occupancy
  Ag  Ag0  1  0.75004054  0.73629841  0.51412671  1
  Ag  Ag1  1  0.74837680  0.26431870  0.50452605  1
  Ag  Ag2  1  0.75078278  -0.01477528  0.74782700  1
  Ag  Ag3  1  0.51415250  0.50347825  0.50676540  1
  Ag  Ag4  1  -0.01489598  0.50497889  0.50451732  1
  Ag  Ag5  1  -0.01440539  0.74783226  0.74649695  1
  Ag  Ag6  1  0.74641799  0.51451084  0.73530047  1
  Ag  Ag7  1  -0.00542732  -0.00469052  -0.00132947  1
  Ag  Ag8  1  0.75205561  -0.00507665  0.25228581  1
  Ag  Ag9  1  0.50608481  0.25648672  0.74574799  1
  Ag  Ag10  1  0.24757805  -0.00351923  0.25211414  1
  Ag  Ag11  1  0.74990057  0.50545215  0.26620998  1
  Ag  Ag12  1  0.75164949  0.75167772  -0.01484099  1
  Ag  Ag13  1  0.51437797  0.74443604  0.74523798  1
  Ag  Ag14  1  0.25353195  0.50573385  0.74395257  1
  Ag  Ag15  1  0.24999001  0.74665597  0.50509329  1
  Sb  Sb16  1  0.24996330  0.24847071  -0.00300921  1
  Sb  Sb17  1  0.74993158  0.24793899  -0.00504788  1
  Sb  Sb18  1  -0.00568962  0.50621546  -0.00612161  1
  Sb  Sb19  1  0.50560649  -0.00334806  -0.00170307  1
  Sb  Sb20  1  0.25293156  0.25235604  0.50348463  1
  Sb  Sb21  1  0.25002292  0.50489566  0.25963732  1
  Sb  Sb22  1  0.50427949  0.50307896  -0.01047290  1
  Sb  Sb23  1  -0.00653581  0.25269841  0.74691838  1
  Sb  Sb24  1  -0.00325378  0.24890283  0.25335909  1
  Sb  Sb25  1  0.50431699  0.25155217  0.25697953  1
  Sb  Sb26  1  0.24720075  0.75126768  -0.00469739  1
  Sb  Sb27  1  0.50492067  -0.00499243  0.50187515  1
  Sb  Sb28  1  -0.00536067  -0.00634393  0.50155157  1
  Sb  Sb29  1  0.24924343  -0.00634430  0.74794837  1
  Sb  Sb30  1  0.50551236  0.74873150  0.25689957  1
  Sb  Sb31  1  -0.00496544  0.75054828  0.25525971  1
  Te  Te32  1  0.25167678  0.24110594  0.24934935  1
  Te  Te33  1  0.25818356  0.25605458  0.74904729  1
  Te  Te34  1  0.25101385  0.75415978  0.25507464  1
  Te  Te35  1  0.25021744  0.74769641  0.74618446  1
  Te  Te36  1  0.74837793  0.24789239  0.25562297  1
  Te  Te37  1  0.74704690  0.25003764  0.74710478  1
  Te  Te38  1  0.74962911  0.75173404  0.25154047  1
  Te  Te39  1  0.75053565  0.75119035  0.74894498  1
  Te  Te40  1  0.24304730  -0.00087929  0.00673864  1
  Te  Te41  1  0.24851837  -0.00457782  0.49451453  1
  Te  Te42  1  0.24832810  0.50012635  -0.00634850  1
  Te  Te43  1  0.25022087  0.50366770  0.50208333  1
  Te  Te44  1  0.75261513  -0.00250685  0.00071484  1
  Te  Te45  1  0.75093652  -0.00206646  0.49949819  1
  Te  Te46  1  0.75154790  0.50446048  0.00143266  1
  Te  Te47  1  0.74995161  0.50087850  0.49987149  1
  Te  Te48  1  0.00038887  0.23872757  -0.00067002  1
  Te  Te49  1  -0.00643357  0.25993945  0.50090236  1
  Te  Te50  1  -0.00394909  0.75408872  -0.00733914  1
  Te  Te51  1  -0.00161190  0.74641066  0.50384551  1
  Te  Te52  1  0.49950745  0.24989412  -0.01186980  1
  Te  Te53  1  0.50391019  0.25665953  0.50576526  1
  Te  Te54  1  0.50652913  0.74979880  -0.01049391  1
  Te  Te55  1  0.50159358  0.74678508  0.50472442  1
  Te  Te56  1  -0.00481927  -0.00019378  0.24672130  1
  Te  Te57  1  -0.00342246  -0.00338068  0.75168840  1
  Te  Te58  1  -0.00443811  0.49948553  0.25547983  1
  Te  Te59  1  -0.00194856  0.50247685  0.74768424  1
  Te  Te60  1  0.50386518  0.00049714  0.24954966  1
  Te  Te61  1  0.50381075  -0.00191678  0.74962146  1
  Te  Te62  1  0.50438089  0.49945088  0.25811878  1
  Te  Te63  1  0.50245530  0.50287710  0.74800510  1
