# generated using pymatgen
data_AgSbTe2
_symmetry_space_group_name_H-M   'P 1'
_cell_length_a   12.31479210
_cell_length_b   12.28634988
_cell_length_c   12.31442104
_cell_angle_alpha   89.99469691
_cell_angle_beta   90.01302740
_cell_angle_gamma   90.00188115
_symmetry_Int_Tables_number   1
_chemical_formula_structural   AgSbTe2
_chemical_formula_sum   'Ag16 Sb16 Te32'
_cell_volume   1863.21918821
_cell_formula_units_Z   16
loop_
 _symmetry_equiv_pos_site_id
 _symmetry_equiv_pos_as_xyz
  1  'x, y, z'
loop_
 _atom_site_type_symbol
 _atom_site_label
 _atom_site_symmetry_multiplicity
 _atom_site_fract_x
 _atom_site_fract_y
 _atom_site_fract_z
 _atom_site_occupancy
  Ag  Ag0  1  0.50625457  -0.01028010  0.50174854  1
  Ag  Ag1  1  -0.00137504  0.50508485  0.50868033  1
  Ag  Ag2  1  0.74977197  0.51348461  0.76086052  1
  Ag  Ag3  1  0.50008620  0.50615377  0.51227311  1
  Ag  Ag4  1  0.75329893  0.74322543  -0.00972913  1
  Ag  Ag5  1  0.74628023  -0.01397117  0.75432185  1
  Ag  Ag6  1  -0.00405861  0.74432902  0.24520912  1
  Ag  Ag7  1  0.74981232  -0.00744265  0.24801633  1
  Ag  Ag8  1  0.51070647  0.50565942  -0.01431572  1
  Ag  Ag9  1  0.24704873  0.50798895  0.24910696  1
  Ag  Ag10  1  0.25016561  -0.00940340  0.25208565  1
  Ag  Ag11  1  0.51408859  0.74003274  0.75155563  1
  Ag  Ag12  1  0.74999276  0.26229868  -0.00207480  1
  Ag  Ag13  1  -0.01361693  0.74162371  0.75544184  1
  Ag  Ag14  1  0.25065109  0.50681410  0.75062147  1
  Ag  Ag15  1  -0.01017256  0.50676006  -0.00943410  1
  Sb  Sb16  1  -0.00392200  0.26222890  0.75206049  1
  Sb  Sb17  1  0.75203928  0.50734391  0.24701927  1
  Sb  Sb18  1  -0.00266303  0.25540481  0.24786062  1
  Sb  Sb19  1  0.25058287  0.25367476  0.49961417  1
  Sb  Sb20  1  0.74948091  0.74799406  0.50564086  1
  Sb  Sb21  1  -0.00245417  -0.00655635  0.49978217  1
  Sb  Sb22  1  0.50273007  0.25931962  0.75071696  1
  Sb  Sb23  1  0.25094516  -0.00879157  0.74905899  1
  Sb  Sb24  1  0.74956533  0.25164154  0.49920628  1
  Sb  Sb25  1  0.50445220  -0.00651451  -0.00142508  1
  Sb  Sb26  1  -0.00408583  -0.00640387  0.00062659  1
  Sb  Sb27  1  0.24796589  0.74653490  0.00085488  1
  Sb  Sb28  1  0.50402703  0.74782767  0.24755168  1
  Sb  Sb29  1  0.25074010  0.25776333  0.00098322  1
  Sb  Sb30  1  0.50230184  0.25282977  0.24906577  1
  Sb  Sb31  1  0.25089310  0.74696842  0.49733243  1
  Te  Te32  1  0.24996413  0.24871539  0.24947689  1
  Te  Te33  1  0.24885417  0.25918990  0.75131213  1
  Te  Te34  1  0.24479594  0.74853696  0.24965058  1
  Te  Te35  1  0.24840017  0.74493574  0.75061521  1
  Te  Te36  1  0.75007236  0.23392820  0.24438337  1
  Te  Te37  1  0.75024957  0.24179512  0.75404294  1
  Te  Te38  1  0.75410900  0.75399035  0.24264836  1
  Te  Te39  1  0.75012085  0.74940388  0.74986171  1
  Te  Te40  1  0.24922637  0.00331840  0.00685296  1
  Te  Te41  1  0.25482847  0.00000113  0.49554197  1
  Te  Te42  1  0.25169669  0.50057335  0.00140599  1
  Te  Te43  1  0.25569369  0.50136216  0.49959006  1
  Te  Te44  1  0.75068456  -0.00590394  -0.00640915  1
  Te  Te45  1  0.74744848  -0.00006901  0.50289436  1
  Te  Te46  1  0.74893246  0.50380517  0.00165079  1
  Te  Te47  1  0.74451918  0.49932798  0.50178379  1
  Te  Te48  1  -0.00480893  0.26155913  -0.00079278  1
  Te  Te49  1  0.00056330  0.26658253  0.50014046  1
  Te  Te50  1  0.00068818  0.74826911  -0.00122925  1
  Te  Te51  1  -0.00088853  0.74445136  0.49873444  1
  Te  Te52  1  0.50498785  0.26265552  -0.00020137  1
  Te  Te53  1  0.49989204  0.25395496  0.50008080  1
  Te  Te54  1  0.50323635  0.74567148  -0.00247030  1
  Te  Te55  1  0.50059237  0.74783022  0.50345422  1
  Te  Te56  1  0.00109760  -0.00704021  0.25120949  1
  Te  Te57  1  0.00413663  -0.01138655  0.74813149  1
  Te  Te58  1  -0.00111897  0.50389215  0.25034806  1
  Te  Te59  1  -0.00354882  0.50245815  0.75156856  1
  Te  Te60  1  0.49867483  -0.00140202  0.25151363  1
  Te  Te61  1  0.49638813  -0.00617123  0.74798819  1
  Te  Te62  1  0.49606877  0.50060949  0.25618269  1
  Te  Te63  1  0.50291002  0.50153171  0.74972283  1
