# generated using pymatgen
data_AgSbTe2
_symmetry_space_group_name_H-M   'P 1'
_cell_length_a   12.34031647
_cell_length_b   12.31363751
_cell_length_c   12.34228175
_cell_angle_alpha   89.99519618
_cell_angle_beta   89.99979590
_cell_angle_gamma   89.99424767
_symmetry_Int_Tables_number   1
_chemical_formula_structural   AgSbTe2
_chemical_formula_sum   'Ag16 Sb16 Te32'
_cell_volume   1875.46133371
_cell_formula_units_Z   16
loop_
 _symmetry_equiv_pos_site_id
 _symmetry_equiv_pos_as_xyz
  1  'x, y, z'
loop_
 _atom_site_type_symbol
 _atom_site_label
 _atom_site_symmetry_multiplicity
 _atom_site_fract_x
 _atom_site_fract_y
 _atom_site_fract_z
 _atom_site_occupancy
  Ag  Ag0  1  0.48834310  0.23814549  0.74668018  1
  Ag  Ag1  1  0.26077477  0.01449600  0.75507999  1
  Ag  Ag2  1  0.74059790  0.24729330  0.50776926  1
  Ag  Ag3  1  0.01620036  0.24637170  0.75336651  1
  Ag  Ag4  1  0.73295991  0.00940318  0.74945882  1
  Ag  Ag5  1  0.25844169  0.24676625  -0.00107148  1
  Ag  Ag6  1  0.73553753  0.24666994  -0.00604853  1
  Ag  Ag7  1  0.25773940  0.01622379  0.24553466  1
  Ag  Ag8  1  0.01712938  0.24890130  0.24612106  1
  Ag  Ag9  1  0.25288589  0.47998312  0.24942066  1
  Ag  Ag10  1  0.49594880  0.48146729  0.50116442  1
  Ag  Ag11  1  0.49851660  0.01218464  0.50543883  1
  Ag  Ag12  1  0.00688766  0.75711719  0.25114525  1
  Ag  Ag13  1  0.48710404  0.24221600  0.25322225  1
  Ag  Ag14  1  0.25563951  0.47934916  0.75040649  1
  Ag  Ag15  1  0.49502460  0.00958508  -0.00871816  1
  Sb  Sb16  1  0.25155097  0.75529819  0.00088734  1
  Sb  Sb17  1  0.74789845  0.75923677  -0.00009903  1
  Sb  Sb18  1  0.00290888  0.00711356  0.49855216  1
  Sb  Sb19  1  0.00370507  0.49043921  0.49787175  1
  Sb  Sb20  1  0.49674326  0.48954062  0.00002499  1
  Sb  Sb21  1  0.49609637  0.75324378  0.25181273  1
  Sb  Sb22  1  0.25684733  0.24867497  0.50095508  1
  Sb  Sb23  1  0.74587654  0.00721290  0.24993507  1
  Sb  Sb24  1  0.74676052  0.75411137  0.50014368  1
  Sb  Sb25  1  0.74882209  0.49118988  0.25070080  1
  Sb  Sb26  1  0.00233059  0.49281157  0.00097143  1
  Sb  Sb27  1  0.00154915  0.00694051  0.00133340  1
  Sb  Sb28  1  0.25149157  0.75105819  0.49931965  1
  Sb  Sb29  1  0.74539112  0.48628903  0.74780844  1
  Sb  Sb30  1  0.49871928  0.75517986  0.74941755  1
  Sb  Sb31  1  0.00375896  0.75218649  0.74884057  1
  Te  Te32  1  0.25447177  0.24907027  0.26005963  1
  Te  Te33  1  0.24994539  0.24994127  0.74108322  1
  Te  Te34  1  0.24558422  0.75083396  0.24879553  1
  Te  Te35  1  0.24849557  0.75091648  0.75178824  1
  Te  Te36  1  0.74616424  0.25126399  0.24188372  1
  Te  Te37  1  0.74710786  0.24859006  0.75574940  1
  Te  Te38  1  0.76265411  0.74644411  0.24879991  1
  Te  Te39  1  0.75246669  0.76459515  0.75149319  1
  Te  Te40  1  0.25012344  0.00509733  0.00069803  1
  Te  Te41  1  0.25145062  -0.00209929  0.49983769  1
  Te  Te42  1  0.25001531  0.49184653  0.00042251  1
  Te  Te43  1  0.25449996  0.50273037  0.49946448  1
  Te  Te44  1  0.74719028  0.00521601  -0.00024935  1
  Te  Te45  1  0.74676280  0.00047927  0.50000968  1
  Te  Te46  1  0.75013174  0.49446067  -0.00140543  1
  Te  Te47  1  0.74027110  0.50122088  0.50135473  1
  Te  Te48  1  0.00876091  0.24943133  -0.00319656  1
  Te  Te49  1  -0.02243255  0.25004288  0.50310560  1
  Te  Te50  1  0.00025242  0.74842477  0.00825451  1
  Te  Te51  1  -0.00151693  0.74736685  0.49253475  1
  Te  Te52  1  0.49374671  0.24845652  0.00030332  1
  Te  Te53  1  0.50393088  0.24996471  0.49968197  1
  Te  Te54  1  0.50156628  0.76796733  -0.00037630  1
  Te  Te55  1  0.50061439  0.74996067  0.49993965  1
  Te  Te56  1  0.00660705  0.01105282  0.25064627  1
  Te  Te57  1  0.01068958  0.00180731  0.74917426  1
  Te  Te58  1  0.00550796  0.48355342  0.25062926  1
  Te  Te59  1  0.00699943  0.49944304  0.75007032  1
  Te  Te60  1  0.49738003  -0.00067003  0.25688604  1
  Te  Te61  1  0.49796873  -0.00060644  0.74630336  1
  Te  Te62  1  0.49618103  0.50250939  0.24781994  1
  Te  Te63  1  0.49622768  0.50398805  0.75099265  1
