# generated using pymatgen
data_AgSbTe2
_symmetry_space_group_name_H-M   'P 1'
_cell_length_a   12.21467398
_cell_length_b   12.21128534
_cell_length_c   12.21575888
_cell_angle_alpha   90.00310554
_cell_angle_beta   90.00135794
_cell_angle_gamma   90.00182317
_symmetry_Int_Tables_number   1
_chemical_formula_structural   AgSbTe2
_chemical_formula_sum   'Ag16 Sb16 Te32'
_cell_volume   1822.06434666
_cell_formula_units_Z   16
loop_
 _symmetry_equiv_pos_site_id
 _symmetry_equiv_pos_as_xyz
  1  'x, y, z'
loop_
 _atom_site_type_symbol
 _atom_site_label
 _atom_site_symmetry_multiplicity
 _atom_site_fract_x
 _atom_site_fract_y
 _atom_site_fract_z
 _atom_site_occupancy
  Ag  Ag0  1  0.50132985  0.24065846  0.74857185  1
  Ag  Ag1  1  0.50157456  -0.00646537  -0.00209261  1
  Ag  Ag2  1  0.50008074  0.50647841  0.00078044  1
  Ag  Ag3  1  0.74284105  0.75426526  -0.00170724  1
  Ag  Ag4  1  0.74339260  -0.00374249  0.25580150  1
  Ag  Ag5  1  0.74685596  0.75956447  0.50114180  1
  Ag  Ag6  1  -0.00265571  0.75718456  0.74787931  1
  Ag  Ag7  1  -0.00164146  0.24266498  0.74650022  1
  Ag  Ag8  1  -0.00546563  -0.00091054  0.50474147  1
  Ag  Ag9  1  0.25480728  0.50319074  0.24905682  1
  Ag  Ag10  1  0.50158732  0.75653132  0.24703757  1
  Ag  Ag11  1  0.25755904  -0.00290691  0.25195815  1
  Ag  Ag12  1  0.50540388  -0.00264614  0.50174313  1
  Ag  Ag13  1  0.25444048  -0.00120076  0.74846095  1
  Ag  Ag14  1  0.74852561  0.24017688  0.50240244  1
  Ag  Ag15  1  0.50298870  0.75907879  0.75308684  1
  Sb  Sb16  1  0.25359665  0.24715934  -0.00144628  1
  Sb  Sb17  1  0.25282988  0.24333009  0.50224607  1
  Sb  Sb18  1  0.50140693  0.23974745  0.25365813  1
  Sb  Sb19  1  0.25442607  0.50231018  0.75204117  1
  Sb  Sb20  1  0.74270206  0.50565517  0.24843002  1
  Sb  Sb21  1  0.50016994  0.50318684  0.49767797  1
  Sb  Sb22  1  -0.00364404  -0.00318677  -0.00916585  1
  Sb  Sb23  1  0.74613632  0.50304935  0.75156139  1
  Sb  Sb24  1  -0.00241931  0.75470287  0.25390909  1
  Sb  Sb25  1  0.26171736  0.75273564  0.00035206  1
  Sb  Sb26  1  0.74549072  0.24219207  -0.00415501  1
  Sb  Sb27  1  0.74097794  -0.00354924  0.73943126  1
  Sb  Sb28  1  0.25533056  0.75603345  0.49995688  1
  Sb  Sb29  1  -0.00191872  0.24483935  0.25616372  1
  Sb  Sb30  1  -0.00058838  0.50197098  0.50138439  1
  Sb  Sb31  1  0.00049538  0.50413779  -0.00060625  1
  Te  Te32  1  0.24927381  0.24664997  0.25029433  1
  Te  Te33  1  0.25070891  0.24440427  0.74925307  1
  Te  Te34  1  0.25486371  0.75428223  0.25020044  1
  Te  Te35  1  0.25049772  0.75476973  0.74985013  1
  Te  Te36  1  0.75083536  0.24291153  0.25768179  1
  Te  Te37  1  0.74967429  0.25320135  0.74506818  1
  Te  Te38  1  0.74662557  0.75382650  0.25130977  1
  Te  Te39  1  0.74816265  0.74848432  0.74926508  1
  Te  Te40  1  0.25683158  0.00050646  0.00087510  1
  Te  Te41  1  0.25065316  0.00029680  0.49931377  1
  Te  Te42  1  0.25785859  0.49890658  0.00784502  1
  Te  Te43  1  0.25002580  0.49917836  0.48934250  1
  Te  Te44  1  0.74528606  -0.00447335  0.01063258  1
  Te  Te45  1  0.74895010  -0.00120286  0.49850408  1
  Te  Te46  1  0.74155518  0.50844198  0.00268050  1
  Te  Te47  1  0.75025874  0.50010046  0.49713116  1
  Te  Te48  1  -0.00319201  0.25134601  -0.01319610  1
  Te  Te49  1  -0.00730076  0.24449314  0.50716014  1
  Te  Te50  1  -0.01235363  0.74887946  -0.00989737  1
  Te  Te51  1  -0.00879429  0.75489163  0.50600519  1
  Te  Te52  1  0.50303033  0.24881173  -0.00927103  1
  Te  Te53  1  0.50595035  0.24542409  0.50651126  1
  Te  Te54  1  0.50282219  0.75257185  -0.00076709  1
  Te  Te55  1  0.50489846  0.75331256  0.50066181  1
  Te  Te56  1  0.00210776  -0.00041047  0.25740012  1
  Te  Te57  1  0.00701167  -0.00081748  0.74776914  1
  Te  Te58  1  0.01145359  0.49985569  0.24877845  1
  Te  Te59  1  0.00437668  0.50010240  0.75037909  1
  Te  Te60  1  0.49861924  -0.00082672  0.25088799  1
  Te  Te61  1  0.49955983  -0.00156277  0.74946235  1
  Te  Te62  1  0.49533980  0.50636492  0.24580918  1
  Te  Te63  1  0.49607593  0.50104335  0.75625797  1
