# generated using pymatgen
data_AgSbTe2
_symmetry_space_group_name_H-M   'P 1'
_cell_length_a   12.31164506
_cell_length_b   12.31002151
_cell_length_c   12.31357555
_cell_angle_alpha   89.99632618
_cell_angle_beta   90.00611216
_cell_angle_gamma   89.99835780
_symmetry_Int_Tables_number   1
_chemical_formula_structural   AgSbTe2
_chemical_formula_sum   'Ag16 Sb16 Te32'
_cell_volume   1866.20382067
_cell_formula_units_Z   16
loop_
 _symmetry_equiv_pos_site_id
 _symmetry_equiv_pos_as_xyz
  1  'x, y, z'
loop_
 _atom_site_type_symbol
 _atom_site_label
 _atom_site_symmetry_multiplicity
 _atom_site_fract_x
 _atom_site_fract_y
 _atom_site_fract_z
 _atom_site_occupancy
  Ag  Ag0  1  0.24675542  0.23516626  -0.00437119  1
  Ag  Ag1  1  0.47896509  -0.00192539  -0.00073012  1
  Ag  Ag2  1  0.00457547  0.75375795  0.25086135  1
  Ag  Ag3  1  0.24449234  0.49925039  0.73581287  1
  Ag  Ag4  1  0.00948316  0.50832935  -0.00663781  1
  Ag  Ag5  1  0.01535320  0.50669209  0.50822982  1
  Ag  Ag6  1  0.75874236  0.74932943  -0.00086881  1
  Ag  Ag7  1  0.01452396  -0.00542524  0.00198585  1
  Ag  Ag8  1  0.76174777  0.50568897  0.75077697  1
  Ag  Ag9  1  0.24315339  0.76957185  0.50120101  1
  Ag  Ag10  1  0.47930828  -0.00149677  0.50038767  1
  Ag  Ag11  1  0.24552218  -0.00205308  0.27096506  1
  Ag  Ag12  1  0.24878198  0.23270998  0.50408430  1
  Ag  Ag13  1  0.24711045  0.00085724  0.73520741  1
  Ag  Ag14  1  0.47920208  0.50207579  0.50514945  1
  Ag  Ag15  1  0.01821457  -0.00865301  0.49843710  1
  Sb  Sb16  1  0.00235723  0.74979212  0.74860200  1
  Sb  Sb17  1  0.49714725  0.75014179  0.74895462  1
  Sb  Sb18  1  0.49317822  0.24837225  0.25095832  1
  Sb  Sb19  1  0.75199613  0.25182753  0.50127895  1
  Sb  Sb20  1  0.00488613  0.24776762  0.25043896  1
  Sb  Sb21  1  0.49489689  0.75318860  0.25095641  1
  Sb  Sb22  1  0.75194415  -0.00352877  0.75013460  1
  Sb  Sb23  1  0.49674833  0.24951513  0.74969776  1
  Sb  Sb24  1  0.24786247  0.75556368  -0.00154264  1
  Sb  Sb25  1  0.24724694  0.50328368  0.25846862  1
  Sb  Sb26  1  0.75242545  -0.00394018  0.24978925  1
  Sb  Sb27  1  0.49021097  0.50067303  -0.00417320  1
  Sb  Sb28  1  0.75193686  0.74804391  0.49984484  1
  Sb  Sb29  1  0.75456717  0.50409004  0.24931279  1
  Sb  Sb30  1  0.00226821  0.25110723  0.74998936  1
  Sb  Sb31  1  0.75472629  0.24916222  -0.00179898  1
  Te  Te32  1  0.24882598  0.23999484  0.24832827  1
  Te  Te33  1  0.24977844  0.24900815  0.74967723  1
  Te  Te34  1  0.24558960  0.75422769  0.25561503  1
  Te  Te35  1  0.25095305  0.74905704  0.74266963  1
  Te  Te36  1  0.74928198  0.24991903  0.25077356  1
  Te  Te37  1  0.74863494  0.26660329  0.74875590  1
  Te  Te38  1  0.76103828  0.75039193  0.24242306  1
  Te  Te39  1  0.74832956  0.74354657  0.75655772  1
  Te  Te40  1  0.24814802  -0.00392066  -0.00896695  1
  Te  Te41  1  0.24834579  0.00039188  0.50378261  1
  Te  Te42  1  0.25015278  0.50395357  0.00085399  1
  Te  Te43  1  0.24670165  0.49724275  0.49769725  1
  Te  Te44  1  0.75658749  0.00146424  -0.00205845  1
  Te  Te45  1  0.74913956  0.00169295  0.50325637  1
  Te  Te46  1  0.74898043  0.49848990  -0.00154834  1
  Te  Te47  1  0.75674585  0.49895521  0.50350033  1
  Te  Te48  1  0.00525938  0.24951341  -0.00016057  1
  Te  Te49  1  0.00280771  0.25046244  0.50006109  1
  Te  Te50  1  0.00169100  0.74835410  0.00048514  1
  Te  Te51  1  0.00011865  0.75080338  0.50013194  1
  Te  Te52  1  0.49188788  0.24413241  -0.00034905  1
  Te  Te53  1  0.49572140  0.24640081  0.50025379  1
  Te  Te54  1  0.50604719  0.75419169  0.00166841  1
  Te  Te55  1  0.50212475  0.75273088  0.49961482  1
  Te  Te56  1  0.00172746  -0.00266848  0.24979535  1
  Te  Te57  1  0.00127080  0.00063209  0.74934485  1
  Te  Te58  1  0.00091428  0.50563333  0.24675661  1
  Te  Te59  1  0.00860331  0.49930207  0.75095599  1
  Te  Te60  1  0.49682823  -0.00020531  0.25268811  1
  Te  Te61  1  0.49939876  -0.00054780  0.74857611  1
  Te  Te62  1  0.50122421  0.50082139  0.26217988  1
  Te  Te63  1  0.48681121  0.50048952  0.74527772  1
