# generated using pymatgen
data_AgSbTe2
_symmetry_space_group_name_H-M   'P 1'
_cell_length_a   12.23839072
_cell_length_b   12.22145842
_cell_length_c   12.23422137
_cell_angle_alpha   90.00755211
_cell_angle_beta   90.00708657
_cell_angle_gamma   90.00841960
_symmetry_Int_Tables_number   1
_chemical_formula_structural   AgSbTe2
_chemical_formula_sum   'Ag16 Sb16 Te32'
_cell_volume   1829.88447036
_cell_formula_units_Z   16
loop_
 _symmetry_equiv_pos_site_id
 _symmetry_equiv_pos_as_xyz
  1  'x, y, z'
loop_
 _atom_site_type_symbol
 _atom_site_label
 _atom_site_symmetry_multiplicity
 _atom_site_fract_x
 _atom_site_fract_y
 _atom_site_fract_z
 _atom_site_occupancy
  Ag  Ag0  1  0.48625572  0.25277846  0.25350166  1
  Ag  Ag1  1  0.01478303  0.25040297  0.25030003  1
  Ag  Ag2  1  0.50588101  0.49256621  0.49742764  1
  Ag  Ag3  1  0.25138643  0.48507658  0.25334785  1
  Ag  Ag4  1  0.74597230  0.25852369  0.49871145  1
  Ag  Ag5  1  0.24989776  0.24698531  0.01459466  1
  Ag  Ag6  1  0.50079762  0.25211835  0.74544360  1
  Ag  Ag7  1  0.00423381  0.00635097  0.00079465  1
  Ag  Ag8  1  0.75006214  0.73999452  0.50122872  1
  Ag  Ag9  1  0.74771570  0.49242285  0.25962614  1
  Ag  Ag10  1  -0.00363560  0.74839965  0.74919944  1
  Ag  Ag11  1  0.25014163  0.01495502  0.24653622  1
  Ag  Ag12  1  0.25236723  0.25277632  0.48553080  1
  Ag  Ag13  1  -0.00062638  0.25058553  0.74957009  1
  Ag  Ag14  1  0.75006226  0.49459720  0.74021005  1
  Ag  Ag15  1  0.49542034  0.00779017  0.00228396  1
  Sb  Sb16  1  0.75035348  0.25042780  0.00072150  1
  Sb  Sb17  1  0.25042136  0.49403864  0.74609831  1
  Sb  Sb18  1  0.00084389  0.00443715  0.49952437  1
  Sb  Sb19  1  0.75068761  0.00556473  0.74915751  1
  Sb  Sb20  1  0.50276217  0.74815359  0.74802540  1
  Sb  Sb21  1  0.49837368  0.00862947  0.49862554  1
  Sb  Sb22  1  0.24960583  0.00569243  0.75285531  1
  Sb  Sb23  1  0.24824590  0.75187198  0.00128581  1
  Sb  Sb24  1  0.75175922  0.74867974  -0.00140416  1
  Sb  Sb25  1  0.50164255  0.74788963  0.25115702  1
  Sb  Sb26  1  -0.00588382  0.49624259  0.49962369  1
  Sb  Sb27  1  0.00131005  0.49405062  0.00005234  1
  Sb  Sb28  1  0.49846051  0.49347416  0.00178760  1
  Sb  Sb29  1  0.74955473  0.00830861  0.25083023  1
  Sb  Sb30  1  0.24985958  0.74682746  0.49874893  1
  Sb  Sb31  1  -0.00240830  0.75044854  0.25028503  1
  Te  Te32  1  0.24871753  0.25027862  0.25057812  1
  Te  Te33  1  0.24844946  0.25108834  0.74867665  1
  Te  Te34  1  0.24898780  0.74856346  0.25112286  1
  Te  Te35  1  0.24174256  0.74859915  0.74894545  1
  Te  Te36  1  0.75016667  0.25336565  0.25255644  1
  Te  Te37  1  0.75101075  0.25316423  0.74802670  1
  Te  Te38  1  0.75139465  0.74120462  0.25567567  1
  Te  Te39  1  0.75377649  0.74463040  0.74657211  1
  Te  Te40  1  0.24970469  0.00257010  0.00268475  1
  Te  Te41  1  0.25127528  0.00390153  0.49258901  1
  Te  Te42  1  0.25044200  0.49557781  0.00707975  1
  Te  Te43  1  0.25650011  0.49601156  0.49557560  1
  Te  Te44  1  0.75034545  -0.00190495  0.00021501  1
  Te  Te45  1  0.74922331  -0.00029656  0.49971058  1
  Te  Te46  1  0.74992107  0.50199656  0.00095960  1
  Te  Te47  1  0.74844199  0.49635859  0.49976009  1
  Te  Te48  1  0.00181294  0.24680956  -0.00078765  1
  Te  Te49  1  0.00060292  0.24933038  0.50103982  1
  Te  Te50  1  0.00048359  0.75857273  -0.00491686  1
  Te  Te51  1  -0.00381157  0.75246454  0.50545755  1
  Te  Te52  1  0.49812710  0.24717616  0.00034836  1
  Te  Te53  1  0.50122389  0.25157355  0.50014409  1
  Te  Te54  1  0.49964281  0.76151669  -0.00150530  1
  Te  Te55  1  0.50453808  0.74283275  0.50190577  1
  Te  Te56  1  0.00157476  0.00308281  0.24576520  1
  Te  Te57  1  0.00016609  0.00612029  0.75462474  1
  Te  Te58  1  0.00027985  0.49630435  0.24929864  1
  Te  Te59  1  -0.00354166  0.49542160  0.75093861  1
  Te  Te60  1  0.49846789  0.00336175  0.24748812  1
  Te  Te61  1  0.49979633  0.00590876  0.75435327  1
  Te  Te62  1  0.50129629  0.49765190  0.25056520  1
  Te  Te63  1  0.50293748  0.49570214  0.74887063  1
