# generated using pymatgen
data_AgSbTe2
_symmetry_space_group_name_H-M   'P 1'
_cell_length_a   12.26654873
_cell_length_b   12.31106917
_cell_length_c   12.30229337
_cell_angle_alpha   89.99733704
_cell_angle_beta   90.00114430
_cell_angle_gamma   90.00427536
_symmetry_Int_Tables_number   1
_chemical_formula_structural   AgSbTe2
_chemical_formula_sum   'Ag16 Sb16 Te32'
_cell_volume   1857.82258225
_cell_formula_units_Z   16
loop_
 _symmetry_equiv_pos_site_id
 _symmetry_equiv_pos_as_xyz
  1  'x, y, z'
loop_
 _atom_site_type_symbol
 _atom_site_label
 _atom_site_symmetry_multiplicity
 _atom_site_fract_x
 _atom_site_fract_y
 _atom_site_fract_z
 _atom_site_occupancy
  Ag  Ag0  1  0.51079251  0.25339573  0.76242848  1
  Ag  Ag1  1  -0.01961265  0.26069755  0.24963385  1
  Ag  Ag2  1  0.50958772  -0.00064918  -0.00279194  1
  Ag  Ag3  1  0.74881172  0.49501658  0.24279959  1
  Ag  Ag4  1  0.74937143  0.25762747  0.49439996  1
  Ag  Ag5  1  0.51066116  0.50054979  0.00078204  1
  Ag  Ag6  1  0.51706858  0.25788634  0.23813442  1
  Ag  Ag7  1  0.73994603  0.25910632  0.00406900  1
  Ag  Ag8  1  0.51784196  0.74678228  0.76442875  1
  Ag  Ag9  1  0.74483381  -0.00505847  0.75755711  1
  Ag  Ag10  1  -0.01185365  0.50010627  0.49576147  1
  Ag  Ag11  1  -0.01701951  0.74106389  0.24619183  1
  Ag  Ag12  1  -0.01876501  0.74484261  0.75482977  1
  Ag  Ag13  1  0.74541306  0.50454977  0.75894534  1
  Ag  Ag14  1  0.51731742  0.74235434  0.23556023  1
  Ag  Ag15  1  0.74125337  0.74245094  -0.00491916  1
  Sb  Sb16  1  0.25251359  0.00015323  0.24801630  1
  Sb  Sb17  1  0.75114578  0.74224926  0.50152199  1
  Sb  Sb18  1  0.25190863  0.49979615  0.24944582  1
  Sb  Sb19  1  0.25455108  0.49989661  0.75017782  1
  Sb  Sb20  1  0.50910448  0.49818778  0.49973592  1
  Sb  Sb21  1  0.25599764  -0.00017945  0.75251941  1
  Sb  Sb22  1  0.74847881  0.00120721  0.24224239  1
  Sb  Sb23  1  -0.00912706  0.00134047  0.50055134  1
  Sb  Sb24  1  0.24970463  0.25321150  0.50061929  1
  Sb  Sb25  1  0.25994429  0.74920733  -0.00018114  1
  Sb  Sb26  1  -0.01300061  0.50104311  0.00366800  1
  Sb  Sb27  1  0.50784783  0.00049219  0.50378354  1
  Sb  Sb28  1  -0.01292425  -0.00114575  -0.00271062  1
  Sb  Sb29  1  0.24973481  0.74730349  0.50025584  1
  Sb  Sb30  1  0.26094034  0.25126151  0.00040934  1
  Sb  Sb31  1  -0.01803103  0.25802757  0.75119032  1
  Te  Te32  1  0.25107058  0.25006538  0.24989695  1
  Te  Te33  1  0.26805169  0.24928123  0.74942519  1
  Te  Te34  1  0.24755567  0.74961756  0.24921036  1
  Te  Te35  1  0.24996253  0.74988247  0.75052803  1
  Te  Te36  1  0.74781068  0.24588125  0.24450509  1
  Te  Te37  1  0.74817253  0.25721324  0.75668388  1
  Te  Te38  1  0.74868879  0.75467338  0.25565395  1
  Te  Te39  1  0.74728362  0.74302236  0.74481810  1
  Te  Te40  1  0.26890525  0.00061937  0.00005610  1
  Te  Te41  1  0.24865512  0.00015206  0.50021432  1
  Te  Te42  1  0.27312928  0.49913777  -0.00101960  1
  Te  Te43  1  0.22760445  0.49984813  0.50038414  1
  Te  Te44  1  0.74343895  -0.00254763  -0.00646825  1
  Te  Te45  1  0.74915126  0.01924902  0.51834158  1
  Te  Te46  1  0.74366504  0.50151613  0.00165413  1
  Te  Te47  1  0.75498396  0.49341393  0.49684473  1
  Te  Te48  1  -0.00599200  0.24990687  0.00610417  1
  Te  Te49  1  -0.00356601  0.25118717  0.49540148  1
  Te  Te50  1  -0.00775188  0.74972967  0.00291671  1
  Te  Te51  1  -0.00116057  0.74773498  0.49462002  1
  Te  Te52  1  0.50418443  0.25262525  0.00201591  1
  Te  Te53  1  0.50473657  0.25094707  0.49605217  1
  Te  Te54  1  0.50549754  0.74751899  0.00077322  1
  Te  Te55  1  0.49929186  0.74951368  0.49734087  1
  Te  Te56  1  0.00068392  -0.00545638  0.24876108  1
  Te  Te57  1  -0.00395512  -0.01114015  0.75148515  1
  Te  Te58  1  -0.00389345  0.50201491  0.24581788  1
  Te  Te59  1  -0.00345669  0.50379402  0.75264870  1
  Te  Te60  1  0.50166697  -0.00208286  0.24621525  1
  Te  Te61  1  0.50379857  -0.00346029  0.75073457  1
  Te  Te62  1  0.50379912  0.50069562  0.25367932  1
  Te  Te63  1  0.50355043  0.50267136  0.74564854  1
