# generated using pymatgen
data_AgSbTe2
_symmetry_space_group_name_H-M   'P 1'
_cell_length_a   12.23030293
_cell_length_b   12.22647392
_cell_length_c   12.22182141
_cell_angle_alpha   89.99694437
_cell_angle_beta   90.00253750
_cell_angle_gamma   89.99766229
_symmetry_Int_Tables_number   1
_chemical_formula_structural   AgSbTe2
_chemical_formula_sum   'Ag16 Sb16 Te32'
_cell_volume   1827.57147952
_cell_formula_units_Z   16
loop_
 _symmetry_equiv_pos_site_id
 _symmetry_equiv_pos_as_xyz
  1  'x, y, z'
loop_
 _atom_site_type_symbol
 _atom_site_label
 _atom_site_symmetry_multiplicity
 _atom_site_fract_x
 _atom_site_fract_y
 _atom_site_fract_z
 _atom_site_occupancy
  Ag  Ag0  1  0.50524245  0.00325752  -0.00555025  1
  Ag  Ag1  1  0.25347331  0.24640128  -0.00389595  1
  Ag  Ag2  1  0.74947428  0.75584214  0.00103412  1
  Ag  Ag3  1  -0.00216117  0.75223889  0.24924010  1
  Ag  Ag4  1  0.50234045  0.49706320  -0.00190879  1
  Ag  Ag5  1  0.25089968  0.75324923  0.50201034  1
  Ag  Ag6  1  0.74824953  0.50042045  0.24798119  1
  Ag  Ag7  1  -0.00188703  -0.00161725  0.50282041  1
  Ag  Ag8  1  0.74606699  0.24387862  -0.00098416  1
  Ag  Ag9  1  0.25170128  0.00020974  0.75082021  1
  Ag  Ag10  1  0.74808891  0.00139877  0.75370773  1
  Ag  Ag11  1  0.50194730  0.00061387  0.50542248  1
  Ag  Ag12  1  0.50067117  0.49945702  0.50222337  1
  Ag  Ag13  1  -0.00551537  -0.00045746  -0.00284763  1
  Ag  Ag14  1  0.74717497  0.24508466  0.50063972  1
  Ag  Ag15  1  0.25449183  0.49992280  0.75076831  1
  Sb  Sb16  1  0.25033224  0.75284466  -0.00213961  1
  Sb  Sb17  1  0.49986661  0.75283523  0.74993865  1
  Sb  Sb18  1  0.00017318  0.75437307  0.75036620  1
  Sb  Sb19  1  0.25225209  0.50218985  0.24964543  1
  Sb  Sb20  1  -0.00120147  0.50143884  0.49910403  1
  Sb  Sb21  1  0.50250331  0.25036405  0.24844010  1
  Sb  Sb22  1  0.50257151  0.74940220  0.24901276  1
  Sb  Sb23  1  -0.00168980  0.50050291  0.00067233  1
  Sb  Sb24  1  0.50045689  0.24720964  0.75252800  1
  Sb  Sb25  1  0.24899275  -0.00125608  0.24934613  1
  Sb  Sb26  1  0.74552734  0.49879168  0.75206429  1
  Sb  Sb27  1  0.74956831  0.75467973  0.49904508  1
  Sb  Sb28  1  0.75105502  -0.00076899  0.24440354  1
  Sb  Sb29  1  -0.00048145  0.24644305  0.75116245  1
  Sb  Sb30  1  -0.00336489  0.24815248  0.24922957  1
  Sb  Sb31  1  0.25206657  0.24709015  0.50365696  1
  Te  Te32  1  0.24777607  0.25105227  0.23875208  1
  Te  Te33  1  0.24879504  0.24788560  0.75617603  1
  Te  Te34  1  0.24275285  0.74889913  0.25774999  1
  Te  Te35  1  0.24950585  0.75214941  0.74428412  1
  Te  Te36  1  0.75113907  0.25825292  0.24889582  1
  Te  Te37  1  0.75069792  0.24513673  0.75126784  1
  Te  Te38  1  0.75377559  0.74396144  0.24564865  1
  Te  Te39  1  0.75054479  0.75608968  0.75790941  1
  Te  Te40  1  0.25242965  0.00005798  -0.00371440  1
  Te  Te41  1  0.25204281  0.00193455  0.50367357  1
  Te  Te42  1  0.25401782  0.49950558  -0.00238033  1
  Te  Te43  1  0.25447119  0.49829673  0.50184170  1
  Te  Te44  1  0.74828668  0.00251998  0.00083701  1
  Te  Te45  1  0.74793366  0.00090681  0.50166957  1
  Te  Te46  1  0.74700133  0.49725462  -0.00308239  1
  Te  Te47  1  0.74608449  0.49792588  0.50201991  1
  Te  Te48  1  -0.00267182  0.24416611  0.00111021  1
  Te  Te49  1  -0.00518982  0.24301502  0.49805058  1
  Te  Te50  1  -0.00219879  0.75422921  0.00479265  1
  Te  Te51  1  0.00196900  0.75423350  0.49552844  1
  Te  Te52  1  0.50298735  0.24855789  0.00085865  1
  Te  Te53  1  0.50442315  0.24846040  0.49816904  1
  Te  Te54  1  0.50335120  0.75059159  0.00200084  1
  Te  Te55  1  0.49671289  0.75131798  0.49809354  1
  Te  Te56  1  0.00011268  -0.00513467  0.25010110  1
  Te  Te57  1  0.00064085  -0.00045143  0.75055966  1
  Te  Te58  1  -0.00629130  0.50676332  0.25055800  1
  Te  Te59  1  0.01098650  0.50125928  0.74945210  1
  Te  Te60  1  0.49947086  -0.00091707  0.25147646  1
  Te  Te61  1  0.49973605  -0.00027588  0.75023803  1
  Te  Te62  1  0.50475577  0.50057819  0.24977784  1
  Te  Te63  1  0.49506384  0.50052132  0.74972718  1
