# generated using pymatgen
data_AgSbTe2
_symmetry_space_group_name_H-M   'P 1'
_cell_length_a   12.22225547
_cell_length_b   12.22372903
_cell_length_c   12.23053092
_cell_angle_alpha   89.99964505
_cell_angle_beta   89.99601584
_cell_angle_gamma   90.00559076
_symmetry_Int_Tables_number   1
_chemical_formula_structural   AgSbTe2
_chemical_formula_sum   'Ag16 Sb16 Te32'
_cell_volume   1827.26012908
_cell_formula_units_Z   16
loop_
 _symmetry_equiv_pos_site_id
 _symmetry_equiv_pos_as_xyz
  1  'x, y, z'
loop_
 _atom_site_type_symbol
 _atom_site_label
 _atom_site_symmetry_multiplicity
 _atom_site_fract_x
 _atom_site_fract_y
 _atom_site_fract_z
 _atom_site_occupancy
  Ag  Ag0  1  0.74406746  0.49439936  0.75253287  1
  Ag  Ag1  1  0.25254948  0.73995909  0.50278238  1
  Ag  Ag2  1  0.49361582  0.49955035  -0.00660125  1
  Ag  Ag3  1  0.74677107  0.25234894  -0.00776349  1
  Ag  Ag4  1  0.25659345  0.73935707  -0.00289298  1
  Ag  Ag5  1  0.49549468  0.74177396  0.75298311  1
  Ag  Ag6  1  0.25409987  0.25937879  -0.00814335  1
  Ag  Ag7  1  0.00192877  0.25486291  0.75018120  1
  Ag  Ag8  1  0.74680072  0.00142627  0.24720908  1
  Ag  Ag9  1  0.49565995  0.74616010  0.24722338  1
  Ag  Ag10  1  0.49833425  0.25832247  0.75432572  1
  Ag  Ag11  1  0.00726195  0.49797535  0.50466027  1
  Ag  Ag12  1  0.25320849  0.50185218  0.24963142  1
  Ag  Ag13  1  0.74731749  0.00640697  0.75271892  1
  Ag  Ag14  1  0.24981474  0.26039740  0.50859696  1
  Ag  Ag15  1  0.25496945  0.49556208  0.75086150  1
  Sb  Sb16  1  0.74336862  0.74703642  -0.00264177  1
  Sb  Sb17  1  0.50074978  0.00145021  -0.00116233  1
  Sb  Sb18  1  0.50007579  -0.00003676  0.50112172  1
  Sb  Sb19  1  0.00479168  0.74605331  0.74852069  1
  Sb  Sb20  1  0.74690909  0.74721102  0.50215932  1
  Sb  Sb21  1  0.25306995  0.00398092  0.75033445  1
  Sb  Sb22  1  -0.00117613  0.00167315  -0.00265851  1
  Sb  Sb23  1  0.00703980  0.49788976  -0.00425694  1
  Sb  Sb24  1  0.49872969  0.25413833  0.24621765  1
  Sb  Sb25  1  0.00081542  0.25211144  0.25046806  1
  Sb  Sb26  1  0.74894219  0.25259437  0.50854936  1
  Sb  Sb27  1  0.00059731  0.00220793  0.50311507  1
  Sb  Sb28  1  0.00376818  0.74738731  0.25126168  1
  Sb  Sb29  1  0.49171494  0.50003243  0.50912677  1
  Sb  Sb30  1  0.25312102  -0.00161662  0.24944489  1
  Sb  Sb31  1  0.74633647  0.49941063  0.24801443  1
  Te  Te32  1  0.25100081  0.25269673  0.24843442  1
  Te  Te33  1  0.25200468  0.24809262  0.75140636  1
  Te  Te34  1  0.25344536  0.74808851  0.24956967  1
  Te  Te35  1  0.25244005  0.75150048  0.75040725  1
  Te  Te36  1  0.74891108  0.24690888  0.24386904  1
  Te  Te37  1  0.74744114  0.25256236  0.75084226  1
  Te  Te38  1  0.74440307  0.75248468  0.24976205  1
  Te  Te39  1  0.74534247  0.74804141  0.75023248  1
  Te  Te40  1  0.24904602  0.00240059  0.00177623  1
  Te  Te41  1  0.24923793  -0.00054864  0.49814944  1
  Te  Te42  1  0.25076527  0.49828067  -0.00295006  1
  Te  Te43  1  0.25002475  0.49918369  0.50250203  1
  Te  Te44  1  0.75054270  0.00432753  -0.00239706  1
  Te  Te45  1  0.75057264  -0.00004141  0.50093263  1
  Te  Te46  1  0.74665104  0.49657888  -0.00323037  1
  Te  Te47  1  0.75886535  0.49986181  0.50372867  1
  Te  Te48  1  0.00076924  0.25074095  -0.00488081  1
  Te  Te49  1  0.00510028  0.25301417  0.50412090  1
  Te  Te50  1  0.01065716  0.75025991  -0.00033456  1
  Te  Te51  1  0.00839959  0.74556940  0.50049754  1
  Te  Te52  1  0.49823284  0.25274268  -0.00271576  1
  Te  Te53  1  0.49412666  0.24982587  0.50546044  1
  Te  Te54  1  0.49649130  0.74670064  -0.00296057  1
  Te  Te55  1  0.49484765  0.74980666  0.50189811  1
  Te  Te56  1  -0.01005730  -0.00042362  0.25066924  1
  Te  Te57  1  -0.00922453  0.00708116  0.74966920  1
  Te  Te58  1  0.00562047  0.50004890  0.25730028  1
  Te  Te59  1  0.00205601  0.49676071  0.74767450  1
  Te  Te60  1  0.50539653  -0.00690090  0.25007792  1
  Te  Te61  1  0.50527955  -0.00079127  0.74996825  1
  Te  Te62  1  0.49662936  0.50404878  0.24276179  1
  Te  Te63  1  0.49763942  0.49984002  0.75183819  1
