# generated using pymatgen
data_AgSbTe2
_symmetry_space_group_name_H-M   'P 1'
_cell_length_a   12.20952077
_cell_length_b   12.21162440
_cell_length_c   12.20917031
_cell_angle_alpha   89.99879744
_cell_angle_beta   90.00168519
_cell_angle_gamma   90.00410892
_symmetry_Int_Tables_number   1
_chemical_formula_structural   AgSbTe2
_chemical_formula_sum   'Ag16 Sb16 Te32'
_cell_volume   1820.36386812
_cell_formula_units_Z   16
loop_
 _symmetry_equiv_pos_site_id
 _symmetry_equiv_pos_as_xyz
  1  'x, y, z'
loop_
 _atom_site_type_symbol
 _atom_site_label
 _atom_site_symmetry_multiplicity
 _atom_site_fract_x
 _atom_site_fract_y
 _atom_site_fract_z
 _atom_site_occupancy
  Ag  Ag0  1  0.49705895  0.25044338  0.25873676  1
  Ag  Ag1  1  0.25429349  -0.00040403  0.25117581  1
  Ag  Ag2  1  0.00555586  -0.00314160  -0.00156919  1
  Ag  Ag3  1  0.25393156  0.50002051  0.25333617  1
  Ag  Ag4  1  0.25745622  0.24865589  0.49803522  1
  Ag  Ag5  1  0.49885791  0.24820773  0.74094173  1
  Ag  Ag6  1  0.74844128  0.49953203  0.74440880  1
  Ag  Ag7  1  0.49570379  0.74923854  0.25217878  1
  Ag  Ag8  1  0.25036536  0.75324787  -0.00066703  1
  Ag  Ag9  1  0.49605712  0.00511416  0.50031923  1
  Ag  Ag10  1  0.74330034  0.25402750  0.49998793  1
  Ag  Ag11  1  -0.00117160  0.49972129  0.50014756  1
  Ag  Ag12  1  0.00336851  0.75049004  0.75023129  1
  Ag  Ag13  1  0.74675254  0.49856062  0.25515432  1
  Ag  Ag14  1  0.49625853  0.75160268  0.74744012  1
  Ag  Ag15  1  0.25293576  -0.00261620  0.74917072  1
  Sb  Sb16  1  0.74801162  0.25075913  0.00038015  1
  Sb  Sb17  1  0.25123675  0.24698884  0.00154726  1
  Sb  Sb18  1  0.74728663  0.74402570  0.50007325  1
  Sb  Sb19  1  0.00485131  -0.00071423  0.50106465  1
  Sb  Sb20  1  0.49757730  0.50162669  0.00145742  1
  Sb  Sb21  1  0.25144839  0.50181794  0.74512152  1
  Sb  Sb22  1  0.00152174  0.24993806  0.74703781  1
  Sb  Sb23  1  0.49509354  -0.00242553  -0.00042776  1
  Sb  Sb24  1  0.74656202  0.00109502  0.74725304  1
  Sb  Sb25  1  0.00321043  0.25064547  0.25228925  1
  Sb  Sb26  1  0.25373230  0.75043389  0.49985239  1
  Sb  Sb27  1  0.00509400  0.74949531  0.24990831  1
  Sb  Sb28  1  0.50139382  0.49220517  0.49818327  1
  Sb  Sb29  1  0.74440791  0.00188726  0.25324716  1
  Sb  Sb30  1  0.00246623  0.50287169  -0.00141778  1
  Sb  Sb31  1  0.74950647  0.75009295  -0.00005796  1
  Te  Te32  1  0.25392973  0.24959768  0.25172016  1
  Te  Te33  1  0.25437918  0.24840894  0.74770481  1
  Te  Te34  1  0.25359273  0.75070900  0.24931446  1
  Te  Te35  1  0.25317362  0.75076211  0.75086755  1
  Te  Te36  1  0.74416839  0.25385747  0.25314438  1
  Te  Te37  1  0.74519468  0.25376064  0.74682081  1
  Te  Te38  1  0.74234267  0.74421540  0.24941813  1
  Te  Te39  1  0.74714256  0.74530698  0.75040482  1
  Te  Te40  1  0.24678469  -0.00306095  -0.00033402  1
  Te  Te41  1  0.25218454  0.00389418  0.49974803  1
  Te  Te42  1  0.24764027  0.50627406  0.00863200  1
  Te  Te43  1  0.24484019  0.49484757  0.49571158  1
  Te  Te44  1  0.76099747  -0.00028894  0.00037090  1
  Te  Te45  1  0.74506040  0.00942176  0.49939953  1
  Te  Te46  1  0.75287732  0.49948159  0.00133719  1
  Te  Te47  1  0.75326842  0.49562779  0.49944552  1
  Te  Te48  1  0.00030407  0.24250153  -0.00044484  1
  Te  Te49  1  -0.00025697  0.25401227  0.50082331  1
  Te  Te50  1  0.00487522  0.75351848  -0.00494399  1
  Te  Te51  1  -0.00110316  0.74614137  0.50621107  1
  Te  Te52  1  0.49975626  0.24905795  -0.00055989  1
  Te  Te53  1  0.49833377  0.24896459  0.49995672  1
  Te  Te54  1  0.49442201  0.75144921  -0.00114129  1
  Te  Te55  1  0.50032067  0.75797058  0.50148828  1
  Te  Te56  1  0.00680246  -0.00149214  0.24838528  1
  Te  Te57  1  0.00405370  -0.00425706  0.75029576  1
  Te  Te58  1  -0.00093686  0.50131478  0.25370263  1
  Te  Te59  1  -0.00270269  0.50351189  0.74735350  1
  Te  Te60  1  0.49641246  -0.00025307  0.25177795  1
  Te  Te61  1  0.49713511  -0.00104238  0.74822406  1
  Te  Te62  1  0.49913269  0.50067257  0.25033861  1
  Te  Te63  1  0.50330833  0.50167041  0.75028678  1
