# generated using pymatgen
data_AgSbTe2
_symmetry_space_group_name_H-M   'P 1'
_cell_length_a   12.21802047
_cell_length_b   12.21792369
_cell_length_c   12.21921056
_cell_angle_alpha   89.99904585
_cell_angle_beta   89.99421751
_cell_angle_gamma   89.99814460
_symmetry_Int_Tables_number   1
_chemical_formula_structural   AgSbTe2
_chemical_formula_sum   'Ag16 Sb16 Te32'
_cell_volume   1824.06958925
_cell_formula_units_Z   16
loop_
 _symmetry_equiv_pos_site_id
 _symmetry_equiv_pos_as_xyz
  1  'x, y, z'
loop_
 _atom_site_type_symbol
 _atom_site_label
 _atom_site_symmetry_multiplicity
 _atom_site_fract_x
 _atom_site_fract_y
 _atom_site_fract_z
 _atom_site_occupancy
  Ag  Ag0  1  0.50196681  0.50482437  0.50290674  1
  Ag  Ag1  1  0.75006220  0.50072061  0.24966525  1
  Ag  Ag2  1  0.49973997  0.50304483  -0.00320862  1
  Ag  Ag3  1  0.00305704  0.24943436  0.75446821  1
  Ag  Ag4  1  0.24988922  0.50227228  0.75243794  1
  Ag  Ag5  1  0.49851646  0.75043404  0.74844688  1
  Ag  Ag6  1  0.75050499  -0.00053455  0.24968831  1
  Ag  Ag7  1  0.00218253  0.00137215  -0.00084303  1
  Ag  Ag8  1  0.00217844  0.75060872  0.75206534  1
  Ag  Ag9  1  0.50049615  -0.00485004  0.50140964  1
  Ag  Ag10  1  -0.00107480  0.24715926  0.24558533  1
  Ag  Ag11  1  0.00013532  0.49881170  -0.00293789  1
  Ag  Ag12  1  0.24975851  -0.00272708  0.75300513  1
  Ag  Ag13  1  0.74637979  0.75045690  0.50031209  1
  Ag  Ag14  1  0.24990572  0.00120536  0.24704668  1
  Ag  Ag15  1  0.49743972  -0.00293197  -0.00105517  1
  Sb  Sb16  1  -0.00073273  -0.00211608  0.50077410  1
  Sb  Sb17  1  0.74949329  0.50214035  0.75058559  1
  Sb  Sb18  1  0.25458582  0.75087874  0.50435354  1
  Sb  Sb19  1  0.74995720  0.24893653  0.49832495  1
  Sb  Sb20  1  0.24907227  0.49832761  0.24797263  1
  Sb  Sb21  1  0.50041879  0.24743756  0.24890502  1
  Sb  Sb22  1  0.24670864  0.24726528  -0.00089546  1
  Sb  Sb23  1  0.75326036  0.24950501  0.00134355  1
  Sb  Sb24  1  0.75002818  -0.00213377  0.75024672  1
  Sb  Sb25  1  0.25126632  0.75213874  -0.00299887  1
  Sb  Sb26  1  0.49602111  0.24960102  0.75114203  1
  Sb  Sb27  1  -0.00210619  0.75246362  0.24639000  1
  Sb  Sb28  1  0.74898275  0.75048209  -0.00032912  1
  Sb  Sb29  1  0.24959370  0.24902361  0.50053522  1
  Sb  Sb30  1  -0.00256221  0.50269462  0.50261032  1
  Sb  Sb31  1  0.50166461  0.75170655  0.25259109  1
  Te  Te32  1  0.24143086  0.24353893  0.25115574  1
  Te  Te33  1  0.24335729  0.24943687  0.74930635  1
  Te  Te34  1  0.24905532  0.75885606  0.25244052  1
  Te  Te35  1  0.25030122  0.75105653  0.74883930  1
  Te  Te36  1  0.75660772  0.24961610  0.25060088  1
  Te  Te37  1  0.76230307  0.25002300  0.74870251  1
  Te  Te38  1  0.75023654  0.74997229  0.25645241  1
  Te  Te39  1  0.74848609  0.75011254  0.74383264  1
  Te  Te40  1  0.25084722  -0.00026459  -0.00166544  1
  Te  Te41  1  0.25703847  -0.00050746  0.50155989  1
  Te  Te42  1  0.25129463  0.50039205  -0.00308315  1
  Te  Te43  1  0.25779006  0.50054661  0.50349829  1
  Te  Te44  1  0.74916549  -0.00092963  0.00662381  1
  Te  Te45  1  0.74437650  -0.00267525  0.49464721  1
  Te  Te46  1  0.74890676  0.50097259  0.00608349  1
  Te  Te47  1  0.74549861  0.50302922  0.49474446  1
  Te  Te48  1  -0.00079011  0.24954461  -0.00064613  1
  Te  Te49  1  -0.00062299  0.25051539  0.50047380  1
  Te  Te50  1  -0.00193046  0.74988568  -0.00632191  1
  Te  Te51  1  -0.00805180  0.74932804  0.50872226  1
  Te  Te52  1  0.50124206  0.25031443  -0.00050855  1
  Te  Te53  1  0.50061445  0.25013016  0.50021708  1
  Te  Te54  1  0.50144163  0.74993567  -0.00726205  1
  Te  Te55  1  0.50369742  0.75054485  0.50344199  1
  Te  Te56  1  -0.00082547  0.00046226  0.24790499  1
  Te  Te57  1  0.00153207  -0.00151134  0.75187941  1
  Te  Te58  1  0.00024389  0.49858168  0.24592774  1
  Te  Te59  1  0.00170831  0.50141935  0.75279142  1
  Te  Te60  1  0.50019894  0.00077468  0.24704383  1
  Te  Te61  1  0.49842552  0.00049746  0.75228257  1
  Te  Te62  1  0.50098763  0.49931989  0.24728549  1
  Te  Te63  1  0.49864307  0.49942894  0.75248498  1
