# generated using pymatgen
data_AgSbTe2
_symmetry_space_group_name_H-M   'P 1'
_cell_length_a   12.21809557
_cell_length_b   12.21809565
_cell_length_c   12.21191953
_cell_angle_alpha   89.99308981
_cell_angle_beta   90.00691014
_cell_angle_gamma   90.00980668
_symmetry_Int_Tables_number   1
_chemical_formula_structural   AgSbTe2
_chemical_formula_sum   'Ag16 Sb16 Te32'
_cell_volume   1823.01801223
_cell_formula_units_Z   16
loop_
 _symmetry_equiv_pos_site_id
 _symmetry_equiv_pos_as_xyz
  1  'x, y, z'
loop_
 _atom_site_type_symbol
 _atom_site_label
 _atom_site_symmetry_multiplicity
 _atom_site_fract_x
 _atom_site_fract_y
 _atom_site_fract_z
 _atom_site_occupancy
  Ag  Ag0  1  0.74632855  -0.00135588  0.24632784  1
  Ag  Ag1  1  0.25416427  0.74958557  0.00376321  1
  Ag  Ag2  1  0.25135588  0.50367146  0.24632783  1
  Ag  Ag3  1  0.73455100  0.74996264  0.49848946  1
  Ag  Ag4  1  0.00213230  0.49648063  0.00276562  1
  Ag  Ag5  1  0.50041443  -0.00416430  0.00376320  1
  Ag  Ag6  1  0.49793677  0.75206324  0.26305113  1
  Ag  Ag7  1  0.75351937  0.24786770  0.00276562  1
  Ag  Ag8  1  0.74735891  0.50264111  0.75123541  1
  Ag  Ag9  1  -0.00060054  0.00408178  0.00442262  1
  Ag  Ag10  1  0.24591823  0.25060054  0.00442262  1
  Ag  Ag11  1  0.50003732  0.51544795  0.49848945  1
  Ag  Ag12  1  0.50072698  0.74927301  0.73637357  1
  Ag  Ag13  1  0.00020042  0.24979957  0.24189056  1
  Ag  Ag14  1  0.26524088  0.74895951  0.49622998  1
  Ag  Ag15  1  0.50104042  -0.01524113  0.49622997  1
  Sb  Sb16  1  0.74677763  -0.00233334  0.75268088  1
  Sb  Sb17  1  0.00220024  0.75032353  0.24725319  1
  Sb  Sb18  1  0.74869979  0.50130020  0.24917195  1
  Sb  Sb19  1  -0.00177053  0.25177050  0.75871396  1
  Sb  Sb20  1  0.49881689  0.50524664  0.00132634  1
  Sb  Sb21  1  0.50165301  0.25159208  0.75270920  1
  Sb  Sb22  1  0.00015076  0.50182725  0.49771248  1
  Sb  Sb23  1  0.74817275  0.24984924  0.49771249  1
  Sb  Sb24  1  0.25220105  -0.00220106  0.75257609  1
  Sb  Sb25  1  -0.00104705  -0.00196601  0.49496547  1
  Sb  Sb26  1  -0.00159209  0.74834703  0.75270922  1
  Sb  Sb27  1  0.25196602  0.25104707  0.49496547  1
  Sb  Sb28  1  0.74475337  0.75118308  0.00132632  1
  Sb  Sb29  1  0.49967649  0.24779976  0.24725320  1
  Sb  Sb30  1  0.25233335  0.50322239  0.75268090  1
  Sb  Sb31  1  0.25355920  -0.00355922  0.24718381  1
  Te  Te32  1  0.24718298  0.25509790  0.24462660  1
  Te  Te33  1  0.24988640  0.25060670  0.75911894  1
  Te  Te34  1  0.25235137  0.74674711  0.24883503  1
  Te  Te35  1  0.25560134  0.74890469  0.75004929  1
  Te  Te36  1  0.75267124  0.24714507  0.24567296  1
  Te  Te37  1  0.74977690  0.25658175  0.75542929  1
  Te  Te38  1  0.74632501  0.75296925  0.25318959  1
  Te  Te39  1  0.74557428  0.74628142  0.74638647  1
  Te  Te40  1  0.25123879  -0.00123880  0.00123408  1
  Te  Te41  1  0.25448452  -0.00448456  0.49963872  1
  Te  Te42  1  0.24878886  0.50127309  0.00236427  1
  Te  Te43  1  0.25188356  0.50294413  0.49707904  1
  Te  Te44  1  0.74872691  0.00121115  0.00236429  1
  Te  Te45  1  0.74705596  -0.00188348  0.49707904  1
  Te  Te46  1  0.75166443  0.49833560  -0.00125225  1
  Te  Te47  1  0.74815741  0.50184255  0.50139124  1
  Te  Te48  1  0.00049805  0.24950195  0.00302293  1
  Te  Te49  1  0.00144204  0.24855796  0.49174220  1
  Te  Te50  1  0.00653631  0.74991616  -0.00007101  1
  Te  Te51  1  0.00146505  0.75077157  0.50048399  1
  Te  Te52  1  0.50008384  0.24346367  -0.00007101  1
  Te  Te53  1  0.49922841  0.24853513  0.50048400  1
  Te  Te54  1  0.49706492  0.75293512  0.00173701  1
  Te  Te55  1  0.49976919  0.75023187  0.49866807  1
  Te  Te56  1  -0.00509790  0.00281703  0.24462657  1
  Te  Te57  1  -0.00060669  0.00011359  0.75911896  1
  Te  Te58  1  0.00285494  0.49732874  0.24567296  1
  Te  Te59  1  -0.00658174  0.50022310  0.75542929  1
  Te  Te60  1  0.50325290  -0.00235137  0.24883496  1
  Te  Te61  1  0.50109531  -0.00560132  0.75004937  1
  Te  Te62  1  0.49703077  0.50367500  0.25318969  1
  Te  Te63  1  0.50371854  0.50442572  0.74638636  1
