# generated using pymatgen
data_AgSbTe2
_symmetry_space_group_name_H-M   'P 1'
_cell_length_a   12.20419823
_cell_length_b   12.20405955
_cell_length_c   12.20051817
_cell_angle_alpha   90.00085225
_cell_angle_beta   89.99666021
_cell_angle_gamma   90.00221400
_symmetry_Int_Tables_number   1
_chemical_formula_structural   AgSbTe2
_chemical_formula_sum   'Ag16 Sb16 Te32'
_cell_volume   1817.15446897
_cell_formula_units_Z   16
loop_
 _symmetry_equiv_pos_site_id
 _symmetry_equiv_pos_as_xyz
  1  'x, y, z'
loop_
 _atom_site_type_symbol
 _atom_site_label
 _atom_site_symmetry_multiplicity
 _atom_site_fract_x
 _atom_site_fract_y
 _atom_site_fract_z
 _atom_site_occupancy
  Ag  Ag0  1  0.49764003  0.00012636  0.00432438  1
  Ag  Ag1  1  0.24945452  0.74996215  -0.00005965  1
  Ag  Ag2  1  0.00270465  0.25515222  0.75323850  1
  Ag  Ag3  1  0.24468767  0.49740872  0.75324339  1
  Ag  Ag4  1  0.24771806  0.25048287  0.50149013  1
  Ag  Ag5  1  0.00015590  0.49727426  -0.00558287  1
  Ag  Ag6  1  0.74949008  0.49902150  0.24674526  1
  Ag  Ag7  1  0.24698989  0.25053952  -0.00216011  1
  Ag  Ag8  1  0.00179062  0.00211594  0.49951747  1
  Ag  Ag9  1  0.75561914  0.49804821  0.75369458  1
  Ag  Ag10  1  0.25091997  0.00045418  0.24674570  1
  Ag  Ag11  1  0.49929074  0.49942846  0.49916695  1
  Ag  Ag12  1  0.00184028  0.74453768  0.75264193  1
  Ag  Ag13  1  0.49946405  0.75117549  0.24779872  1
  Ag  Ag14  1  0.75242603  0.25280637  -0.00001014  1
  Ag  Ag15  1  0.74865375  0.00064620  0.24726482  1
  Sb  Sb16  1  0.24912674  0.74905943  0.50068138  1
  Sb  Sb17  1  0.49783033  0.74692794  0.75249405  1
  Sb  Sb18  1  0.75319495  0.25133209  0.50125520  1
  Sb  Sb19  1  0.00024862  0.25048334  0.24646361  1
  Sb  Sb20  1  0.50016701  0.50004234  0.00171082  1
  Sb  Sb21  1  0.00190853  0.00254363  0.00114814  1
  Sb  Sb22  1  0.75073941  0.74901981  0.49976625  1
  Sb  Sb23  1  0.00141231  0.49788269  0.50688597  1
  Sb  Sb24  1  0.00158528  0.74916723  0.24735515  1
  Sb  Sb25  1  0.49804364  0.00075982  0.49454401  1
  Sb  Sb26  1  0.75095600  0.74751419  0.00079327  1
  Sb  Sb27  1  0.24772366  0.00281424  0.75269230  1
  Sb  Sb28  1  0.49675657  0.25246809  0.75121984  1
  Sb  Sb29  1  0.25098288  0.49973693  0.24740335  1
  Sb  Sb30  1  0.75306638  0.00240409  0.75285064  1
  Sb  Sb31  1  0.50018818  0.24919540  0.24904988  1
  Te  Te32  1  0.24969333  0.24597044  0.24804439  1
  Te  Te33  1  0.24684456  0.25295001  0.75295062  1
  Te  Te34  1  0.25274381  0.75348350  0.24519400  1
  Te  Te35  1  0.24647573  0.74552832  0.75468148  1
  Te  Te36  1  0.75032951  0.25038682  0.24463197  1
  Te  Te37  1  0.75488883  0.25424928  0.75451355  1
  Te  Te38  1  0.74575481  0.75051333  0.24896377  1
  Te  Te39  1  0.75555721  0.74380646  0.75077427  1
  Te  Te40  1  0.25075910  0.00204502  0.00307578  1
  Te  Te41  1  0.24840176  0.00444882  0.49598189  1
  Te  Te42  1  0.24919184  0.49733181  -0.00150759  1
  Te  Te43  1  0.25215071  0.49590833  0.50199642  1
  Te  Te44  1  0.74829901  0.00388261  0.00492586  1
  Te  Te45  1  0.75278893  0.00190197  0.49321109  1
  Te  Te46  1  0.75055655  0.49702448  -0.00022061  1
  Te  Te47  1  0.74647261  0.49782058  0.49906435  1
  Te  Te48  1  0.00172307  0.25244019  -0.00369091  1
  Te  Te49  1  0.00472721  0.24681373  0.50574533  1
  Te  Te50  1  0.00525406  0.74676175  -0.00450590  1
  Te  Te51  1  0.00125580  0.75574190  0.50677567  1
  Te  Te52  1  0.49880124  0.24546815  -0.00058360  1
  Te  Te53  1  0.49259497  0.25448977  0.50050581  1
  Te  Te54  1  0.49459350  0.75391115  0.00376117  1
  Te  Te55  1  0.49907680  0.74542116  0.49439990  1
  Te  Te56  1  -0.00044572  -0.00069994  0.25379513  1
  Te  Te57  1  -0.00111333  0.00026850  0.74559347  1
  Te  Te58  1  -0.00685687  0.50168907  0.24465095  1
  Te  Te59  1  0.00036177  0.49909390  0.75030494  1
  Te  Te60  1  0.50035788  -0.00380503  0.24786408  1
  Te  Te61  1  0.50148419  -0.00188391  0.75620047  1
  Te  Te62  1  0.50418335  0.50467032  0.25303798  1
  Te  Te63  1  0.50031792  0.50183615  0.74549135  1
