# generated using pymatgen
data_AgSbTe2
_symmetry_space_group_name_H-M   'P 1'
_cell_length_a   12.20946708
_cell_length_b   12.22203109
_cell_length_c   12.21789854
_cell_angle_alpha   90.00817450
_cell_angle_beta   90.00644457
_cell_angle_gamma   89.99576850
_symmetry_Int_Tables_number   1
_chemical_formula_structural   AgSbTe2
_chemical_formula_sum   'Ag16 Sb16 Te32'
_cell_volume   1823.20959646
_cell_formula_units_Z   16
loop_
 _symmetry_equiv_pos_site_id
 _symmetry_equiv_pos_as_xyz
  1  'x, y, z'
loop_
 _atom_site_type_symbol
 _atom_site_label
 _atom_site_symmetry_multiplicity
 _atom_site_fract_x
 _atom_site_fract_y
 _atom_site_fract_z
 _atom_site_occupancy
  Ag  Ag0  1  0.50395554  0.75097139  0.74779833  1
  Ag  Ag1  1  0.74568364  0.75231943  0.50457738  1
  Ag  Ag2  1  0.74730539  0.49680779  0.24904974  1
  Ag  Ag3  1  0.50413376  0.49752406  -0.00648553  1
  Ag  Ag4  1  0.25517626  0.25074912  0.50268320  1
  Ag  Ag5  1  0.50216695  0.24960217  0.74966870  1
  Ag  Ag6  1  -0.00584954  0.24806503  0.24875389  1
  Ag  Ag7  1  0.50181108  0.49863534  0.50674973  1
  Ag  Ag8  1  -0.00974391  0.00240367  -0.00177270  1
  Ag  Ag9  1  -0.00501646  0.75224758  0.74986680  1
  Ag  Ag10  1  0.74320506  -0.00135852  0.75372590  1
  Ag  Ag11  1  0.74629855  0.24432070  0.00093389  1
  Ag  Ag12  1  0.74891039  0.00337879  0.24532162  1
  Ag  Ag13  1  0.50521984  0.00092267  0.50703826  1
  Ag  Ag14  1  0.50910787  0.00328689  -0.00699534  1
  Ag  Ag15  1  0.25739565  0.49856704  0.74872256  1
  Sb  Sb16  1  -0.00592595  0.49824240  -0.00196499  1
  Sb  Sb17  1  0.50548391  0.24939365  0.24927136  1
  Sb  Sb18  1  0.74222617  0.50161437  0.75087588  1
  Sb  Sb19  1  0.74498687  0.24875011  0.50004340  1
  Sb  Sb20  1  -0.00237956  0.24796563  0.75053696  1
  Sb  Sb21  1  0.25089648  0.00329388  0.25133187  1
  Sb  Sb22  1  0.25158681  0.74955727  -0.00321869  1
  Sb  Sb23  1  0.25468463  0.74864577  0.50433593  1
  Sb  Sb24  1  0.50413437  0.75073754  0.25274148  1
  Sb  Sb25  1  0.25384179  0.25076348  -0.00235191  1
  Sb  Sb26  1  0.74853509  0.75700263  -0.00543350  1
  Sb  Sb27  1  -0.00577862  0.00034836  0.50183172  1
  Sb  Sb28  1  0.25265980  0.49576548  0.25121721  1
  Sb  Sb29  1  -0.00320846  0.49964699  0.50134177  1
  Sb  Sb30  1  -0.00657794  0.75220454  0.24935798  1
  Sb  Sb31  1  0.25719779  0.00190083  0.74888291  1
  Te  Te32  1  0.24134247  0.25036919  0.25565997  1
  Te  Te33  1  0.25326648  0.25392369  0.74623028  1
  Te  Te34  1  0.24755929  0.74926438  0.25105229  1
  Te  Te35  1  0.25217861  0.74442594  0.74861853  1
  Te  Te36  1  0.75253567  0.24804322  0.24855796  1
  Te  Te37  1  0.74664640  0.24629648  0.75281349  1
  Te  Te38  1  0.75091413  0.75085198  0.25766289  1
  Te  Te39  1  0.74727638  0.75192943  0.74588864  1
  Te  Te40  1  0.25194013  0.00065903  0.00105275  1
  Te  Te41  1  0.25878263  0.00454543  0.49936445  1
  Te  Te42  1  0.25812205  0.49931233  -0.00324460  1
  Te  Te43  1  0.25646969  0.49745834  0.50231980  1
  Te  Te44  1  0.74747523  0.00033206  -0.00043515  1
  Te  Te45  1  0.74554155  -0.00082246  0.50103990  1
  Te  Te46  1  0.74558663  0.49531623  0.00295738  1
  Te  Te47  1  0.74518132  0.50155071  0.49720092  1
  Te  Te48  1  -0.00354304  0.24650052  0.00187714  1
  Te  Te49  1  0.00610771  0.24964061  0.49737967  1
  Te  Te50  1  0.00039635  0.75530535  -0.00605928  1
  Te  Te51  1  -0.00500308  0.75060661  0.50647428  1
  Te  Te52  1  0.50300556  0.24841898  -0.00139784  1
  Te  Te53  1  0.49880927  0.25024493  0.50158850  1
  Te  Te54  1  0.50049795  0.75033871  -0.00595693  1
  Te  Te55  1  0.50324259  0.75050155  0.50325496  1
  Te  Te56  1  -0.00515357  0.00259576  0.24652950  1
  Te  Te57  1  -0.00356899  -0.00231764  0.75318133  1
  Te  Te58  1  -0.00586235  0.49653969  0.24911504  1
  Te  Te59  1  0.00654789  0.50405012  0.75105279  1
  Te  Te60  1  0.50554164  -0.00013835  0.24829516  1
  Te  Te61  1  0.50078334  0.00035904  0.75068219  1
  Te  Te62  1  0.50473424  0.50027060  0.24943836  1
  Te  Te63  1  0.50052254  0.49935148  0.74936982  1
