# generated using pymatgen
data_AgSbTe2
_symmetry_space_group_name_H-M   'P 1'
_cell_length_a   12.33738703
_cell_length_b   12.31423532
_cell_length_c   12.33081237
_cell_angle_alpha   89.98877437
_cell_angle_beta   90.00191095
_cell_angle_gamma   89.99631588
_symmetry_Int_Tables_number   1
_chemical_formula_structural   AgSbTe2
_chemical_formula_sum   'Ag16 Sb16 Te32'
_cell_volume   1873.36463450
_cell_formula_units_Z   16
loop_
 _symmetry_equiv_pos_site_id
 _symmetry_equiv_pos_as_xyz
  1  'x, y, z'
loop_
 _atom_site_type_symbol
 _atom_site_label
 _atom_site_symmetry_multiplicity
 _atom_site_fract_x
 _atom_site_fract_y
 _atom_site_fract_z
 _atom_site_occupancy
  Ag  Ag0  1  0.75694511  0.25305419  0.50717509  1
  Ag  Ag1  1  0.48788483  0.76157367  0.76227451  1
  Ag  Ag2  1  0.00133221  0.49407998  0.51225196  1
  Ag  Ag3  1  0.48367643  0.23867051  0.75429452  1
  Ag  Ag4  1  0.00404253  0.74872334  0.22802317  1
  Ag  Ag5  1  0.49392283  0.24465410  0.24105875  1
  Ag  Ag6  1  0.24713810  0.24832429  0.51788716  1
  Ag  Ag7  1  0.23718918  0.76364271  -0.01087642  1
  Ag  Ag8  1  0.00470232  0.51677825  -0.00650447  1
  Ag  Ag9  1  0.01363779  -0.01565271  -0.00751675  1
  Ag  Ag10  1  0.01211734  0.24734621  0.76122142  1
  Ag  Ag11  1  0.77108808  0.75396683  -0.00524127  1
  Ag  Ag12  1  0.24838110  0.00660332  0.75656566  1
  Ag  Ag13  1  0.00971376  0.75308251  0.76000035  1
  Ag  Ag14  1  0.48566537  0.00297639  -0.00792865  1
  Ag  Ag15  1  0.24217980  0.23780390  -0.01049835  1
  Sb  Sb16  1  0.75459441  0.74766101  0.50390581  1
  Sb  Sb17  1  0.49782937  0.00277291  0.50733863  1
  Sb  Sb18  1  0.75355522  0.49898345  0.24804471  1
  Sb  Sb19  1  0.75130486  0.00169149  0.24526839  1
  Sb  Sb20  1  0.75208781  0.00058503  0.75261557  1
  Sb  Sb21  1  0.24868956  0.00279341  0.24280643  1
  Sb  Sb22  1  0.24798313  0.49676296  0.75220971  1
  Sb  Sb23  1  0.49794653  0.75382591  0.23853732  1
  Sb  Sb24  1  0.00120742  0.00054012  0.50484091  1
  Sb  Sb25  1  0.49687899  0.49508723  0.50291969  1
  Sb  Sb26  1  0.00227375  0.24950302  0.24577472  1
  Sb  Sb27  1  0.49607614  0.49765704  -0.00065771  1
  Sb  Sb28  1  0.24725914  0.49913848  0.24763269  1
  Sb  Sb29  1  0.75267875  0.49902505  0.75114072  1
  Sb  Sb30  1  0.75286344  0.25033983  -0.00147190  1
  Sb  Sb31  1  0.24722894  0.75199614  0.50877136  1
  Te  Te32  1  0.25543997  0.24966802  0.24307760  1
  Te  Te33  1  0.24480677  0.24969594  0.75540056  1
  Te  Te34  1  0.24871785  0.75076404  0.24844716  1
  Te  Te35  1  0.24964157  0.75097369  0.75283052  1
  Te  Te36  1  0.74333715  0.24979524  0.25476425  1
  Te  Te37  1  0.75441299  0.25039446  0.74529158  1
  Te  Te38  1  0.74995555  0.74982191  0.24950059  1
  Te  Te39  1  0.75171274  0.74936985  0.75192812  1
  Te  Te40  1  0.25081122  0.00289589  -0.00211803  1
  Te  Te41  1  0.25150670  0.00329657  0.51128946  1
  Te  Te42  1  0.24667337  0.49793607  0.00047693  1
  Te  Te43  1  0.24534189  0.49483882  0.49941388  1
  Te  Te44  1  0.75022861  -0.00277424  0.00105841  1
  Te  Te45  1  0.74799687  0.00961032  0.49816730  1
  Te  Te46  1  0.75845736  0.50591920  0.00067793  1
  Te  Te47  1  0.75743864  0.49475016  0.49916295  1
  Te  Te48  1  -0.00085351  0.24683836  -0.00142481  1
  Te  Te49  1  0.00411266  0.24902030  0.49423232  1
  Te  Te50  1  0.00038077  0.75044800  -0.00067544  1
  Te  Te51  1  0.00037889  0.74824231  0.50889404  1
  Te  Te52  1  0.50542191  0.25366343  -0.00773800  1
  Te  Te53  1  0.49162767  0.24998445  0.51289706  1
  Te  Te54  1  0.49072548  0.74662458  -0.00467002  1
  Te  Te55  1  0.50053349  0.74875789  0.50459501  1
  Te  Te56  1  0.00064179  -0.00541397  0.24225120  1
  Te  Te57  1  -0.00136200  0.00467458  0.75203677  1
  Te  Te58  1  -0.00015150  0.50298631  0.24359658  1
  Te  Te59  1  0.00080483  0.49698016  0.75128625  1
  Te  Te60  1  0.49958175  0.00544840  0.23991755  1
  Te  Te61  1  0.50062549  -0.00064570  0.75321687  1
  Te  Te62  1  0.50004752  0.48881377  0.25305796  1
  Te  Te63  1  0.50093130  0.50263063  0.74729373  1
