# generated using pymatgen
data_AgSbTe2
_symmetry_space_group_name_H-M   'P 1'
_cell_length_a   12.23094938
_cell_length_b   12.22470877
_cell_length_c   12.22290218
_cell_angle_alpha   90.00257084
_cell_angle_beta   90.00202065
_cell_angle_gamma   89.99661974
_symmetry_Int_Tables_number   1
_chemical_formula_structural   AgSbTe2
_chemical_formula_sum   'Ag16 Sb16 Te32'
_cell_volume   1827.56581154
_cell_formula_units_Z   16
loop_
 _symmetry_equiv_pos_site_id
 _symmetry_equiv_pos_as_xyz
  1  'x, y, z'
loop_
 _atom_site_type_symbol
 _atom_site_label
 _atom_site_symmetry_multiplicity
 _atom_site_fract_x
 _atom_site_fract_y
 _atom_site_fract_z
 _atom_site_occupancy
  Ag  Ag0  1  0.25092425  0.50784073  0.24781811  1
  Ag  Ag1  1  0.00191681  0.24404758  0.74773315  1
  Ag  Ag2  1  0.49877264  0.75791466  0.25083301  1
  Ag  Ag3  1  0.74915853  0.50717017  0.25322337  1
  Ag  Ag4  1  0.25485548  -0.00699887  0.24610925  1
  Ag  Ag5  1  -0.00357651  -0.00126967  0.49576008  1
  Ag  Ag6  1  0.25065316  0.24061937  0.00208540  1
  Ag  Ag7  1  0.49284218  -0.00446517  0.00510454  1
  Ag  Ag8  1  0.25405017  0.75819736  0.00742017  1
  Ag  Ag9  1  0.49797875  0.75717094  0.74936412  1
  Ag  Ag10  1  0.25277079  -0.00198988  0.75358258  1
  Ag  Ag11  1  0.00101936  0.75515142  0.25178270  1
  Ag  Ag12  1  0.50346322  -0.00472035  0.49392548  1
  Ag  Ag13  1  0.75093100  0.24092076  0.49699126  1
  Ag  Ag14  1  0.74713753  0.75801353  0.49199199  1
  Ag  Ag15  1  0.74588752  -0.00631540  0.25745998  1
  Sb  Sb16  1  0.74671297  0.75449784  0.00850927  1
  Sb  Sb17  1  0.74953881  0.24447979  0.00185971  1
  Sb  Sb18  1  0.49793260  0.50460950  0.00416937  1
  Sb  Sb19  1  0.00756114  -0.00126747  0.00412300  1
  Sb  Sb20  1  0.49882767  0.24271383  0.74907600  1
  Sb  Sb21  1  0.00062286  0.24450893  0.25146297  1
  Sb  Sb22  1  0.49968064  0.24029917  0.25025161  1
  Sb  Sb23  1  0.00140157  0.50063979  0.00314450  1
  Sb  Sb24  1  0.74914665  0.50175133  0.74744195  1
  Sb  Sb25  1  0.50174000  0.50503520  0.49585286  1
  Sb  Sb26  1  0.25313640  0.75525288  0.49193777  1
  Sb  Sb27  1  0.25060477  0.50168541  0.75218139  1
  Sb  Sb28  1  -0.00118936  0.50255632  0.49655615  1
  Sb  Sb29  1  0.74754161  -0.00128216  0.74230741  1
  Sb  Sb30  1  0.24946268  0.24379489  0.49847864  1
  Sb  Sb31  1  0.00250879  0.75557019  0.74758508  1
  Te  Te32  1  0.24930914  0.24868507  0.24600321  1
  Te  Te33  1  0.24755190  0.24837636  0.75331925  1
  Te  Te34  1  0.25120780  0.75319618  0.25003774  1
  Te  Te35  1  0.25213143  0.75276811  0.75468571  1
  Te  Te36  1  0.75041559  0.24919925  0.25356961  1
  Te  Te37  1  0.75389757  0.25184031  0.74594785  1
  Te  Te38  1  0.74928555  0.75275607  0.25059683  1
  Te  Te39  1  0.74711931  0.74796179  0.74447597  1
  Te  Te40  1  0.25109043  -0.00095754  0.00211027  1
  Te  Te41  1  0.25075420  0.00040146  0.49908012  1
  Te  Te42  1  0.25037050  0.50022313  0.00599491  1
  Te  Te43  1  0.25038505  0.49713389  0.49076014  1
  Te  Te44  1  0.74212376  0.00071387  0.00789306  1
  Te  Te45  1  0.74909297  -0.00101429  0.49842635  1
  Te  Te46  1  0.74983137  0.49834676  0.00931194  1
  Te  Te47  1  0.74969539  0.50012689  0.49408923  1
  Te  Te48  1  0.00480787  0.24979011  -0.00532082  1
  Te  Te49  1  -0.00357939  0.24457439  0.50239236  1
  Te  Te50  1  0.00573840  0.75032582  0.00408968  1
  Te  Te51  1  -0.00518042  0.75472652  0.49641102  1
  Te  Te52  1  0.49441891  0.24362030  -0.00144482  1
  Te  Te53  1  0.50614899  0.24293554  0.50157535  1
  Te  Te54  1  0.49750911  0.75370290  0.00219573  1
  Te  Te55  1  0.50196273  0.75390444  0.49719561  1
  Te  Te56  1  0.00088211  -0.00365417  0.25342493  1
  Te  Te57  1  0.00409708  0.00213482  0.74548890  1
  Te  Te58  1  0.00055221  0.50697520  0.25100005  1
  Te  Te59  1  0.00015696  0.49258862  0.74925671  1
  Te  Te60  1  0.49800479  -0.00232039  0.25207434  1
  Te  Te61  1  0.49698249  -0.00453631  0.74911448  1
  Te  Te62  1  0.49937221  0.50878805  0.25030628  1
  Te  Te63  1  0.49984926  0.51055424  0.74981515  1
