# generated using pymatgen
data_AgSbTe2
_symmetry_space_group_name_H-M   'P 1'
_cell_length_a   12.32947901
_cell_length_b   12.31482579
_cell_length_c   12.27102813
_cell_angle_alpha   90.00476384
_cell_angle_beta   89.99783376
_cell_angle_gamma   89.99872156
_symmetry_Int_Tables_number   1
_chemical_formula_structural   AgSbTe2
_chemical_formula_sum   'Ag16 Sb16 Te32'
_cell_volume   1863.17628613
_cell_formula_units_Z   16
loop_
 _symmetry_equiv_pos_site_id
 _symmetry_equiv_pos_as_xyz
  1  'x, y, z'
loop_
 _atom_site_type_symbol
 _atom_site_label
 _atom_site_symmetry_multiplicity
 _atom_site_fract_x
 _atom_site_fract_y
 _atom_site_fract_z
 _atom_site_occupancy
  Ag  Ag0  1  0.49705253  0.23724627  0.76262043  1
  Ag  Ag1  1  0.25318699  -0.00545937  0.23529317  1
  Ag  Ag2  1  0.49786861  0.76504918  0.76566187  1
  Ag  Ag3  1  0.00634380  0.23850535  0.23964189  1
  Ag  Ag4  1  0.25839244  -0.00116951  0.76562120  1
  Ag  Ag5  1  0.01005251  -0.00281320  0.00035322  1
  Ag  Ag6  1  0.49362601  0.76597141  0.23349861  1
  Ag  Ag7  1  0.25921518  0.76101135  -0.00105280  1
  Ag  Ag8  1  0.00746447  0.76565499  0.23641140  1
  Ag  Ag9  1  0.49112044  -0.00871663  -0.00701594  1
  Ag  Ag10  1  0.74500205  0.50035174  0.75702785  1
  Ag  Ag11  1  0.73991809  0.75849350  -0.00489201  1
  Ag  Ag12  1  0.00378056  0.24243319  0.76132001  1
  Ag  Ag13  1  0.73977316  -0.00130689  0.76125719  1
  Ag  Ag14  1  0.25435649  0.49855659  0.75789411  1
  Ag  Ag15  1  0.49344124  0.23519209  0.23743163  1
  Sb  Sb16  1  0.49950600  0.50043833  0.50251734  1
  Sb  Sb17  1  0.25073162  0.50274378  0.23970714  1
  Sb  Sb18  1  0.75025620  0.75137913  0.50523559  1
  Sb  Sb19  1  0.49966531  -0.00083237  0.50531925  1
  Sb  Sb20  1  0.00049222  0.49922252  -0.00321264  1
  Sb  Sb21  1  0.25024917  0.24903921  0.50152666  1
  Sb  Sb22  1  0.00073552  0.76045754  0.76023301  1
  Sb  Sb23  1  0.74913497  0.50260530  0.24009623  1
  Sb  Sb24  1  0.74962944  0.24850353  0.50189301  1
  Sb  Sb25  1  0.24977783  0.75170149  0.50185229  1
  Sb  Sb26  1  0.25180097  0.24074144  -0.00142297  1
  Sb  Sb27  1  0.74785287  -0.00172250  0.24093345  1
  Sb  Sb28  1  0.74872786  0.24316310  -0.00278544  1
  Sb  Sb29  1  0.49893338  0.50728841  -0.00325822  1
  Sb  Sb30  1  0.00062399  0.50097547  0.50337565  1
  Sb  Sb31  1  0.00059208  -0.00097290  0.49877343  1
  Te  Te32  1  0.25185633  0.25107709  0.24754203  1
  Te  Te33  1  0.25263371  0.24451739  0.75358899  1
  Te  Te34  1  0.25491692  0.74897889  0.24983081  1
  Te  Te35  1  0.24851126  0.75888661  0.75005954  1
  Te  Te36  1  0.74864749  0.25184987  0.24936266  1
  Te  Te37  1  0.74629386  0.24914325  0.75296274  1
  Te  Te38  1  0.74378335  0.74831656  0.24647876  1
  Te  Te39  1  0.75308705  0.75308988  0.75182866  1
  Te  Te40  1  0.25028479  -0.00343483  0.00240258  1
  Te  Te41  1  0.25020540  0.00081178  0.49650335  1
  Te  Te42  1  0.25000388  0.52001982  -0.00730352  1
  Te  Te43  1  0.25002792  0.49929756  0.52096511  1
  Te  Te44  1  0.74949561  -0.00408321  -0.00413916  1
  Te  Te45  1  0.75007111  0.00041799  0.52490531  1
  Te  Te46  1  0.75082209  0.51469986  -0.00565691  1
  Te  Te47  1  0.74990163  0.49950418  0.51842475  1
  Te  Te48  1  -0.00012058  0.24343032  0.00008748  1
  Te  Te49  1  0.00023977  0.25095093  0.49404758  1
  Te  Te50  1  0.00126459  0.75526743  0.00319021  1
  Te  Te51  1  -0.00136698  0.74917583  0.47336532  1
  Te  Te52  1  0.49924480  0.24082945  -0.00029185  1
  Te  Te53  1  0.50000128  0.24989431  0.49400283  1
  Te  Te54  1  0.49876248  0.75309596  -0.00218960  1
  Te  Te55  1  0.50118995  0.75030180  0.49266467  1
  Te  Te56  1  -0.00486681  0.00276786  0.24802164  1
  Te  Te57  1  0.00768083  0.00231770  0.75218138  1
  Te  Te58  1  0.00022316  0.48845611  0.25075197  1
  Te  Te59  1  0.00194601  0.48810629  0.75130523  1
  Te  Te60  1  0.50306472  0.00059037  0.24875240  1
  Te  Te61  1  0.49438944  -0.00002656  0.75101744  1
  Te  Te62  1  0.49982918  0.49339863  0.24991260  1
  Te  Te63  1  0.49867175  0.49461934  0.75356935  1
