# generated using pymatgen
data_AgSbTe2
_symmetry_space_group_name_H-M   'P 1'
_cell_length_a   12.24606029
_cell_length_b   12.24519317
_cell_length_c   12.26177423
_cell_angle_alpha   89.99758205
_cell_angle_beta   90.00682404
_cell_angle_gamma   90.00112008
_symmetry_Int_Tables_number   1
_chemical_formula_structural   AgSbTe2
_chemical_formula_sum   'Ag16 Sb16 Te32'
_cell_volume   1838.71892437
_cell_formula_units_Z   16
loop_
 _symmetry_equiv_pos_site_id
 _symmetry_equiv_pos_as_xyz
  1  'x, y, z'
loop_
 _atom_site_type_symbol
 _atom_site_label
 _atom_site_symmetry_multiplicity
 _atom_site_fract_x
 _atom_site_fract_y
 _atom_site_fract_z
 _atom_site_occupancy
  Ag  Ag0  1  0.24926651  0.75537010  0.49767938  1
  Ag  Ag1  1  0.75056996  0.75697056  0.51222948  1
  Ag  Ag2  1  0.50973101  -0.00690161  0.49963598  1
  Ag  Ag3  1  0.75247219  -0.01346742  0.74450411  1
  Ag  Ag4  1  0.75042454  0.50806164  0.25225958  1
  Ag  Ag5  1  0.75075364  0.24234561  0.50155822  1
  Ag  Ag6  1  0.51104967  0.75324679  0.25866518  1
  Ag  Ag7  1  -0.00729956  -0.00557122  0.00086617  1
  Ag  Ag8  1  0.75312850  0.75391676  -0.01332202  1
  Ag  Ag9  1  -0.01016620  0.75430694  0.25643266  1
  Ag  Ag10  1  -0.00874436  -0.00708525  0.49987188  1
  Ag  Ag11  1  0.75205162  0.24514687  -0.00109722  1
  Ag  Ag12  1  0.51563395  0.75318796  0.74126952  1
  Ag  Ag13  1  0.75036570  0.51499248  0.74813373  1
  Ag  Ag14  1  -0.01436487  0.75460513  0.74376794  1
  Ag  Ag15  1  0.24744258  -0.00614519  0.25401149  1
  Sb  Sb16  1  0.50765528  0.24398654  0.25243319  1
  Sb  Sb17  1  -0.00648154  0.24328671  0.25100046  1
  Sb  Sb18  1  0.24844593  0.24105876  0.49817549  1
  Sb  Sb19  1  0.50793240  0.24514663  0.74766426  1
  Sb  Sb20  1  0.51023857  -0.00376754  0.00142386  1
  Sb  Sb21  1  0.24837297  -0.00468626  0.74720997  1
  Sb  Sb22  1  0.75227044  -0.01134468  0.25640496  1
  Sb  Sb23  1  -0.00639585  0.24409348  0.74903216  1
  Sb  Sb24  1  0.24536624  0.24240688  0.00204304  1
  Sb  Sb25  1  0.24710713  0.75374373  0.00197872  1
  Sb  Sb26  1  0.50600301  0.51073192  0.50001116  1
  Sb  Sb27  1  0.50606415  0.50364022  -0.00008813  1
  Sb  Sb28  1  -0.00581194  0.51113785  0.50006517  1
  Sb  Sb29  1  0.24939956  0.50882276  0.25258100  1
  Sb  Sb30  1  0.24932203  0.50826951  0.74780931  1
  Sb  Sb31  1  -0.00630008  0.50687034  -0.00009636  1
  Te  Te32  1  0.25085266  0.24551382  0.24972601  1
  Te  Te33  1  0.25134288  0.25430173  0.75053222  1
  Te  Te34  1  0.24956586  0.75287197  0.25307473  1
  Te  Te35  1  0.25038082  0.74957225  0.74490941  1
  Te  Te36  1  0.74965080  0.26320656  0.25014855  1
  Te  Te37  1  0.74992558  0.25104098  0.74869202  1
  Te  Te38  1  0.75028085  0.74975902  0.25090611  1
  Te  Te39  1  0.75040354  0.75151869  0.75050593  1
  Te  Te40  1  0.24039373  0.00107069  0.00560768  1
  Te  Te41  1  0.24845292  -0.00402484  0.49749821  1
  Te  Te42  1  0.24942589  0.49552473  0.00034621  1
  Te  Te43  1  0.25020664  0.50508471  0.49987626  1
  Te  Te44  1  0.75256977  -0.00225973  -0.00341151  1
  Te  Te45  1  0.75048965  -0.00189632  0.49931262  1
  Te  Te46  1  0.75119643  0.50163829  -0.00157110  1
  Te  Te47  1  0.75008307  0.49804510  0.50102298  1
  Te  Te48  1  -0.00565901  0.24119287  0.00009912  1
  Te  Te49  1  -0.00395171  0.23880379  0.49977320  1
  Te  Te50  1  -0.00227481  0.75373134  0.00052459  1
  Te  Te51  1  -0.00384493  0.75232091  0.49915877  1
  Te  Te52  1  0.50774744  0.24946020  -0.00000720  1
  Te  Te53  1  0.50410870  0.23868687  0.49975151  1
  Te  Te54  1  0.50331013  0.75144813  0.00031455  1
  Te  Te55  1  0.50383420  0.75267007  0.49938711  1
  Te  Te56  1  0.00035372  -0.00417672  0.25215562  1
  Te  Te57  1  -0.00177209  -0.00385183  0.74783545  1
  Te  Te58  1  -0.00306395  0.50820315  0.25033052  1
  Te  Te59  1  -0.00444272  0.50816895  0.74968353  1
  Te  Te60  1  0.49574863  -0.00536989  0.25217218  1
  Te  Te61  1  0.50146423  -0.00443504  0.74755820  1
  Te  Te62  1  0.50309532  0.50818915  0.25011466  1
  Te  Te63  1  0.50462259  0.50761338  0.74985754  1
