# generated using pymatgen
data_AgSbTe2
_symmetry_space_group_name_H-M   'P 1'
_cell_length_a   12.21564819
_cell_length_b   12.22801808
_cell_length_c   12.23107715
_cell_angle_alpha   90.00032806
_cell_angle_beta   90.00309549
_cell_angle_gamma   89.99000962
_symmetry_Int_Tables_number   1
_chemical_formula_structural   AgSbTe2
_chemical_formula_sum   'Ag16 Sb16 Te32'
_cell_volume   1826.99469744
_cell_formula_units_Z   16
loop_
 _symmetry_equiv_pos_site_id
 _symmetry_equiv_pos_as_xyz
  1  'x, y, z'
loop_
 _atom_site_type_symbol
 _atom_site_label
 _atom_site_symmetry_multiplicity
 _atom_site_fract_x
 _atom_site_fract_y
 _atom_site_fract_z
 _atom_site_occupancy
  Ag  Ag0  1  0.24217739  0.25254043  0.50310352  1
  Ag  Ag1  1  0.49797501  0.25277996  0.74898761  1
  Ag  Ag2  1  0.49997223  0.25060031  0.25121299  1
  Ag  Ag3  1  0.24311650  0.49721773  0.74665276  1
  Ag  Ag4  1  0.00251131  0.25442663  0.74297830  1
  Ag  Ag5  1  0.75548757  0.74904978  -0.00070892  1
  Ag  Ag6  1  -0.00023611  0.00112144  0.50053656  1
  Ag  Ag7  1  0.50012999  0.49804904  -0.00262441  1
  Ag  Ag8  1  0.00021879  0.74535013  0.74528254  1
  Ag  Ag9  1  -0.00020626  0.50132082  -0.00472582  1
  Ag  Ag10  1  0.75598183  0.00069326  0.74927229  1
  Ag  Ag11  1  0.24093529  0.74691177  0.50228099  1
  Ag  Ag12  1  0.75562267  0.00072691  0.25085346  1
  Ag  Ag13  1  -0.00159006  0.74984417  0.25466599  1
  Ag  Ag14  1  0.00504685  0.49898329  0.50482234  1
  Ag  Ag15  1  0.00000580  0.24987000  0.25719372  1
  Sb  Sb16  1  0.50097431  0.00258922  0.50052169  1
  Sb  Sb17  1  0.75949857  0.24826469  0.50045005  1
  Sb  Sb18  1  0.75940522  0.75250009  0.50108114  1
  Sb  Sb19  1  0.24459973  0.00214304  0.74620056  1
  Sb  Sb20  1  -0.00331903  -0.00115869  -0.00052456  1
  Sb  Sb21  1  0.50475252  0.00228021  -0.00079999  1
  Sb  Sb22  1  0.75729554  0.49950066  0.75197925  1
  Sb  Sb23  1  0.24667231  0.49921301  0.25439700  1
  Sb  Sb24  1  0.75160031  0.25164986  -0.00040668  1
  Sb  Sb25  1  0.49511830  0.49582077  0.50173351  1
  Sb  Sb26  1  0.24452749  0.00141300  0.25347203  1
  Sb  Sb27  1  0.50181878  0.74913150  0.24918340  1
  Sb  Sb28  1  0.24841686  0.25371094  -0.00340183  1
  Sb  Sb29  1  0.75341073  0.49952518  0.24790177  1
  Sb  Sb30  1  0.24422248  0.74456615  -0.00199509  1
  Sb  Sb31  1  0.50076881  0.74779911  0.75075551  1
  Te  Te32  1  0.24764696  0.24926138  0.25505761  1
  Te  Te33  1  0.24726302  0.25154924  0.74733910  1
  Te  Te34  1  0.24415057  0.75078683  0.25483563  1
  Te  Te35  1  0.24641330  0.74780687  0.74692011  1
  Te  Te36  1  0.75217910  0.24502282  0.24972902  1
  Te  Te37  1  0.75106401  0.24503981  0.75046043  1
  Te  Te38  1  0.75409266  0.75427464  0.24756985  1
  Te  Te39  1  0.75290352  0.75452899  0.75208694  1
  Te  Te40  1  0.25196677  -0.00140528  0.00021306  1
  Te  Te41  1  0.24324069  0.00116030  0.50042870  1
  Te  Te42  1  0.24845652  0.50056276  -0.00752997  1
  Te  Te43  1  0.24521827  0.49831513  0.50408740  1
  Te  Te44  1  0.74963988  -0.00628820  -0.00037571  1
  Te  Te45  1  0.75600147  -0.00029222  0.50028604  1
  Te  Te46  1  0.75201092  0.50570116  -0.00041021  1
  Te  Te47  1  0.75837114  0.50119693  0.49976491  1
  Te  Te48  1  -0.00011482  0.25647185  0.00061950  1
  Te  Te49  1  0.00217612  0.25030266  0.50014114  1
  Te  Te50  1  -0.00231841  0.74612618  -0.00021000  1
  Te  Te51  1  0.00221838  0.74973854  0.50064176  1
  Te  Te52  1  0.50010628  0.25527271  -0.00004755  1
  Te  Te53  1  0.49172578  0.25080216  0.50020081  1
  Te  Te54  1  0.50463562  0.74342077  0.00105305  1
  Te  Te55  1  0.48849107  0.74961944  0.49888525  1
  Te  Te56  1  -0.00352338  0.00184756  0.25070004  1
  Te  Te57  1  -0.00301915  0.00137388  0.74922135  1
  Te  Te58  1  0.00012224  0.49850798  0.24908636  1
  Te  Te59  1  0.00035048  0.49905217  0.75033671  1
  Te  Te60  1  0.50737370  0.00643557  0.25004773  1
  Te  Te61  1  0.50694303  0.00610629  0.74992117  1
  Te  Te62  1  0.50040352  0.49372353  0.24606577  1
  Te  Te63  1  0.49689902  0.49554317  0.75254232  1
