# generated using pymatgen
data_AgSbTe2
_symmetry_space_group_name_H-M   'P 1'
_cell_length_a   12.21081078
_cell_length_b   12.20659555
_cell_length_c   12.20792994
_cell_angle_alpha   89.99733698
_cell_angle_beta   89.99489352
_cell_angle_gamma   90.00318304
_symmetry_Int_Tables_number   1
_chemical_formula_structural   AgSbTe2
_chemical_formula_sum   'Ag16 Sb16 Te32'
_cell_volume   1819.62159286
_cell_formula_units_Z   16
loop_
 _symmetry_equiv_pos_site_id
 _symmetry_equiv_pos_as_xyz
  1  'x, y, z'
loop_
 _atom_site_type_symbol
 _atom_site_label
 _atom_site_symmetry_multiplicity
 _atom_site_fract_x
 _atom_site_fract_y
 _atom_site_fract_z
 _atom_site_occupancy
  Ag  Ag0  1  -0.00191958  0.50081481  0.50060986  1
  Ag  Ag1  1  0.50393375  0.49960590  0.00026221  1
  Ag  Ag2  1  0.74949142  0.50271694  0.75154712  1
  Ag  Ag3  1  -0.00388538  0.74864844  0.74755158  1
  Ag  Ag4  1  0.74867422  0.25049164  0.49906355  1
  Ag  Ag5  1  0.00117149  -0.00078150  0.49795530  1
  Ag  Ag6  1  0.49849603  0.24806142  0.25026914  1
  Ag  Ag7  1  -0.00121285  0.75149466  0.25280898  1
  Ag  Ag8  1  0.49899829  0.00221479  0.49607430  1
  Ag  Ag9  1  0.25267732  0.00260976  0.25361959  1
  Ag  Ag10  1  0.50136129  0.75239832  0.24902822  1
  Ag  Ag11  1  0.74662464  0.74624916  -0.00151629  1
  Ag  Ag12  1  0.25188979  0.24660124  0.49579700  1
  Ag  Ag13  1  0.74564869  0.25358406  0.00121083  1
  Ag  Ag14  1  0.25423419  0.25024745  0.00395999  1
  Ag  Ag15  1  0.50429249  0.74882012  0.75145416  1
  Sb  Sb16  1  0.24883376  0.75396667  0.49767729  1
  Sb  Sb17  1  0.00118283  -0.00169403  0.00276678  1
  Sb  Sb18  1  0.25049667  0.50036042  0.74913213  1
  Sb  Sb19  1  0.25029708  0.49604102  0.25060475  1
  Sb  Sb20  1  0.75190564  0.74753558  0.50204673  1
  Sb  Sb21  1  -0.00232803  0.25092633  0.74702756  1
  Sb  Sb22  1  0.74691929  -0.00017889  0.25223659  1
  Sb  Sb23  1  -0.00392815  0.50141333  -0.00108108  1
  Sb  Sb24  1  0.00179120  0.24741782  0.25323421  1
  Sb  Sb25  1  0.74991401  0.49992272  0.24840247  1
  Sb  Sb26  1  0.25391577  0.74913616  0.00295099  1
  Sb  Sb27  1  0.25071958  0.00038401  0.74586851  1
  Sb  Sb28  1  0.74964454  -0.00385627  0.74833439  1
  Sb  Sb29  1  0.49920466  0.00071646  0.00433946  1
  Sb  Sb30  1  0.50234047  0.25058039  0.75037527  1
  Sb  Sb31  1  0.50172997  0.49827565  0.50047743  1
  Te  Te32  1  0.25240314  0.24725573  0.25107990  1
  Te  Te33  1  0.24973591  0.24967595  0.75075924  1
  Te  Te34  1  0.25184282  0.75536704  0.24863528  1
  Te  Te35  1  0.24991309  0.74979853  0.75117817  1
  Te  Te36  1  0.74543303  0.25001391  0.24864121  1
  Te  Te37  1  0.74980514  0.25566807  0.75158787  1
  Te  Te38  1  0.74788269  0.75009098  0.24522148  1
  Te  Te39  1  0.74936802  0.74685205  0.75220155  1
  Te  Te40  1  0.24928074  0.00773345  0.00648328  1
  Te  Te41  1  0.24986480  0.00424713  0.49665176  1
  Te  Te42  1  0.25614904  0.49283644  -0.00031228  1
  Te  Te43  1  0.24382617  0.49077385  0.50070236  1
  Te  Te44  1  0.75088655  0.00281691  -0.00066365  1
  Te  Te45  1  0.75037113  0.00771668  0.50046833  1
  Te  Te46  1  0.74713984  0.49900115  -0.00328962  1
  Te  Te47  1  0.75376911  0.49492435  0.50474431  1
  Te  Te48  1  -0.00241813  0.25078513  0.00030264  1
  Te  Te49  1  -0.00116140  0.24865527  0.49906009  1
  Te  Te50  1  -0.00403038  0.74933427  0.00026903  1
  Te  Te51  1  -0.00090366  0.75086909  0.49907081  1
  Te  Te52  1  0.50247198  0.25048052  0.00108576  1
  Te  Te53  1  0.50046560  0.24928820  0.49855102  1
  Te  Te54  1  0.50239494  0.74917042  0.00177805  1
  Te  Te55  1  0.50038712  0.75144014  0.49702787  1
  Te  Te56  1  0.00477016  -0.00506038  0.25520288  1
  Te  Te57  1  0.00049883  -0.00826455  0.74220952  1
  Te  Te58  1  0.00057235  0.50864811  0.25579719  1
  Te  Te59  1  -0.00430167  0.50623353  0.74646592  1
  Te  Te60  1  0.49727025  -0.00067366  0.25418620  1
  Te  Te61  1  0.49927766  -0.00816014  0.74161818  1
  Te  Te62  1  0.49965365  0.50150944  0.24651101  1
  Te  Te63  1  0.50426643  0.50624781  0.75268564  1
