# generated using pymatgen
data_AgSbTe2
_symmetry_space_group_name_H-M   'P 1'
_cell_length_a   12.21061227
_cell_length_b   12.21087519
_cell_length_c   12.21334941
_cell_angle_alpha   89.99986124
_cell_angle_beta   89.99903541
_cell_angle_gamma   90.00274998
_symmetry_Int_Tables_number   1
_chemical_formula_structural   AgSbTe2
_chemical_formula_sum   'Ag16 Sb16 Te32'
_cell_volume   1821.03802703
_cell_formula_units_Z   16
loop_
 _symmetry_equiv_pos_site_id
 _symmetry_equiv_pos_as_xyz
  1  'x, y, z'
loop_
 _atom_site_type_symbol
 _atom_site_label
 _atom_site_symmetry_multiplicity
 _atom_site_fract_x
 _atom_site_fract_y
 _atom_site_fract_z
 _atom_site_occupancy
  Ag  Ag0  1  0.00314437  0.25259056  0.74461543  1
  Ag  Ag1  1  -0.00018744  0.00209664  0.00083229  1
  Ag  Ag2  1  0.75148451  0.74721290  0.50263129  1
  Ag  Ag3  1  0.49716512  0.25030668  0.25563908  1
  Ag  Ag4  1  -0.00211058  0.75083853  0.25354859  1
  Ag  Ag5  1  0.00316759  0.24855173  0.25550352  1
  Ag  Ag6  1  0.24572145  0.25262721  0.50075599  1
  Ag  Ag7  1  0.24591792  0.25063853  -0.00072855  1
  Ag  Ag8  1  -0.00002526  0.49561038  0.50278406  1
  Ag  Ag9  1  0.75262245  0.74942020  -0.00244172  1
  Ag  Ag10  1  0.75081087  0.50290800  0.74529052  1
  Ag  Ag11  1  0.50339164  0.74675831  0.74550703  1
  Ag  Ag12  1  -0.00011771  0.00424115  0.49857654  1
  Ag  Ag13  1  0.24824301  0.49636142  0.74548960  1
  Ag  Ag14  1  0.50027550  0.00185859  0.50040619  1
  Ag  Ag15  1  0.50041168  0.49849181  0.50366969  1
  Sb  Sb16  1  0.75341487  -0.00053231  0.25243443  1
  Sb  Sb17  1  0.75072704  -0.00335284  0.74751655  1
  Sb  Sb18  1  0.75128850  0.50106681  0.25557054  1
  Sb  Sb19  1  0.24922841  0.49574403  0.25545782  1
  Sb  Sb20  1  0.75630964  0.25364379  0.50141055  1
  Sb  Sb21  1  0.24719054  0.00344988  0.25210639  1
  Sb  Sb22  1  0.50029860  0.00141772  0.00000062  1
  Sb  Sb23  1  0.24849694  0.74662189  0.50233921  1
  Sb  Sb24  1  0.50032072  0.49922954  -0.00368194  1
  Sb  Sb25  1  0.24866232  0.00462419  0.74777462  1
  Sb  Sb26  1  0.49702763  0.25330448  0.74287763  1
  Sb  Sb27  1  0.75409359  0.25026296  -0.00218169  1
  Sb  Sb28  1  -0.00377118  0.74692875  0.74642070  1
  Sb  Sb29  1  0.50208995  0.74995646  0.25566076  1
  Sb  Sb30  1  0.24633521  0.74951875  -0.00337723  1
  Sb  Sb31  1  -0.00018135  0.49795969  -0.00281557  1
  Te  Te32  1  0.24706660  0.25176147  0.25139160  1
  Te  Te33  1  0.24707559  0.25411891  0.74780453  1
  Te  Te34  1  0.24192658  0.74781636  0.24800037  1
  Te  Te35  1  0.25675802  0.74123702  0.75129771  1
  Te  Te36  1  0.75137000  0.25120688  0.24792500  1
  Te  Te37  1  0.75548548  0.25787451  0.75217368  1
  Te  Te38  1  0.75514783  0.74885874  0.25039666  1
  Te  Te39  1  0.74786216  0.74598343  0.74769429  1
  Te  Te40  1  0.24361541  0.00627862  -0.00198814  1
  Te  Te41  1  0.24827782  0.00629937  0.50161682  1
  Te  Te42  1  0.25022712  0.49374976  -0.00880807  1
  Te  Te43  1  0.24902660  0.49661415  0.50435407  1
  Te  Te44  1  0.75590571  -0.00629510  -0.00228140  1
  Te  Te45  1  0.75128034  -0.00740580  0.50194391  1
  Te  Te46  1  0.74969525  0.50668417  -0.00836628  1
  Te  Te47  1  0.75054192  0.50351243  0.50420489  1
  Te  Te48  1  0.00245667  0.24752831  0.00213946  1
  Te  Te49  1  -0.00120411  0.24937227  0.49859833  1
  Te  Te50  1  -0.00248394  0.75367555  0.00242529  1
  Te  Te51  1  -0.00136921  0.75110183  0.49926141  1
  Te  Te52  1  0.49481439  0.24711597  0.00670929  1
  Te  Te53  1  0.49791902  0.25006858  0.49865118  1
  Te  Te54  1  0.50485697  0.75225090  -0.00159958  1
  Te  Te55  1  0.50124532  0.74945103  0.49964129  1
  Te  Te56  1  -0.00003863  0.00259813  0.25307097  1
  Te  Te57  1  -0.00006465  0.00465846  0.74756693  1
  Te  Te58  1  -0.00045856  0.49820836  0.25636269  1
  Te  Te59  1  0.00032954  0.49812719  0.74615111  1
  Te  Te60  1  0.50000810  0.00453942  0.25729696  1
  Te  Te61  1  0.49999230  -0.00463139  0.74346444  1
  Te  Te62  1  0.50033267  0.49584734  0.25790191  1
  Te  Te63  1  0.50095516  0.50143667  0.74540576  1
