# generated using pymatgen
data_AgSbTe2
_symmetry_space_group_name_H-M   'P 1'
_cell_length_a   12.26263170
_cell_length_b   12.32416265
_cell_length_c   12.32008436
_cell_angle_alpha   90.00147956
_cell_angle_beta   90.00262757
_cell_angle_gamma   90.00981761
_symmetry_Int_Tables_number   1
_chemical_formula_structural   AgSbTe2
_chemical_formula_sum   'Ag16 Sb16 Te32'
_cell_volume   1861.89326440
_cell_formula_units_Z   16
loop_
 _symmetry_equiv_pos_site_id
 _symmetry_equiv_pos_as_xyz
  1  'x, y, z'
loop_
 _atom_site_type_symbol
 _atom_site_label
 _atom_site_symmetry_multiplicity
 _atom_site_fract_x
 _atom_site_fract_y
 _atom_site_fract_z
 _atom_site_occupancy
  Ag  Ag0  1  0.26318733  0.76090684  0.49504700  1
  Ag  Ag1  1  0.73687019  0.00455061  0.74250283  1
  Ag  Ag2  1  0.49038009  0.76187489  0.25637726  1
  Ag  Ag3  1  0.73655721  0.75964577  0.50271959  1
  Ag  Ag4  1  0.26218561  -0.00461638  0.73988401  1
  Ag  Ag5  1  0.25715510  0.50612495  0.25908766  1
  Ag  Ag6  1  0.73749545  0.24110136  0.50446431  1
  Ag  Ag7  1  0.26471202  0.23872789  0.49642801  1
  Ag  Ag8  1  0.49565706  0.00045895  0.00553521  1
  Ag  Ag9  1  0.49159965  0.00007223  0.49485584  1
  Ag  Ag10  1  0.49486628  0.23795729  0.25664867  1
  Ag  Ag11  1  0.25644868  0.50390843  0.74315903  1
  Ag  Ag12  1  0.25933365  0.75597228  0.00447579  1
  Ag  Ag13  1  0.26052266  -0.00631026  0.26234714  1
  Ag  Ag14  1  0.73824354  0.24358111  -0.00612759  1
  Ag  Ag15  1  0.74212553  0.49584694  0.74604262  1
  Sb  Sb16  1  0.26048687  0.24581356  0.00053554  1
  Sb  Sb17  1  0.50017134  0.24676446  0.74144521  1
  Sb  Sb18  1  0.73966269  0.00101095  0.25991875  1
  Sb  Sb19  1  0.00139733  0.49947114  -0.00058065  1
  Sb  Sb20  1  -0.00001811  0.24910350  0.74990806  1
  Sb  Sb21  1  0.00097933  0.75056375  0.74952081  1
  Sb  Sb22  1  0.49805243  0.49983915  0.49906055  1
  Sb  Sb23  1  0.73678127  0.75536214  -0.00212176  1
  Sb  Sb24  1  0.49841392  0.75298699  0.74135054  1
  Sb  Sb25  1  0.49903244  0.49928379  0.00123855  1
  Sb  Sb26  1  0.00927971  0.75098928  0.25151341  1
  Sb  Sb27  1  0.00198003  0.49990682  0.50010099  1
  Sb  Sb28  1  0.00650460  0.24899407  0.25033894  1
  Sb  Sb29  1  0.00212866  0.00030194  -0.00055272  1
  Sb  Sb30  1  0.00624126  0.00010152  0.49957248  1
  Sb  Sb31  1  0.74195946  0.49923834  0.25513309  1
  Te  Te32  1  0.25262351  0.24970994  0.25013436  1
  Te  Te33  1  0.25103004  0.25111206  0.74803320  1
  Te  Te34  1  0.25298508  0.75078932  0.25781688  1
  Te  Te35  1  0.25178539  0.75031864  0.74243408  1
  Te  Te36  1  0.74586839  0.25219681  0.25930731  1
  Te  Te37  1  0.74887489  0.24892925  0.74236646  1
  Te  Te38  1  0.74564053  0.74733640  0.25473770  1
  Te  Te39  1  0.74897606  0.75008368  0.74578923  1
  Te  Te40  1  0.25290322  0.00154341  -0.00937257  1
  Te  Te41  1  0.25153966  0.00085849  0.50540716  1
  Te  Te42  1  0.25120296  0.50055365  -0.00997181  1
  Te  Te43  1  0.25176348  0.49997381  0.50633358  1
  Te  Te44  1  0.74819781  -0.00285298  -0.00620038  1
  Te  Te45  1  0.74837070  0.00048472  0.50082868  1
  Te  Te46  1  0.74938542  0.50105776  -0.00908491  1
  Te  Te47  1  0.74880652  0.49823811  0.50436666  1
  Te  Te48  1  -0.02358320  0.25019020  0.00107132  1
  Te  Te49  1  -0.00613542  0.24963192  0.49983793  1
  Te  Te50  1  0.01609979  0.74899798  0.00077512  1
  Te  Te51  1  -0.00626476  0.75030559  0.49961693  1
  Te  Te52  1  0.50454559  0.24357132  0.01084616  1
  Te  Te53  1  0.49761341  0.24619518  0.49690781  1
  Te  Te54  1  0.49433516  0.75692557  0.01137553  1
  Te  Te55  1  0.49839456  0.75388108  0.49654956  1
  Te  Te56  1  0.02256066  -0.00045646  0.24915628  1
  Te  Te57  1  0.00102518  0.00040277  0.74934763  1
  Te  Te58  1  0.01926236  0.50007046  0.24998732  1
  Te  Te59  1  0.00444436  0.49985640  0.74985478  1
  Te  Te60  1  0.49709810  0.00078624  0.25385541  1
  Te  Te61  1  0.49831459  0.00042001  0.74737265  1
  Te  Te62  1  0.49475393  0.49939768  0.24994537  1
  Te  Te63  1  0.49718876  0.49995675  0.75074540  1
