# generated using pymatgen
data_AgSbTe2
_symmetry_space_group_name_H-M   'P 1'
_cell_length_a   12.21204624
_cell_length_b   12.21204528
_cell_length_c   12.20842058
_cell_angle_alpha   90.00047507
_cell_angle_beta   90.00018702
_cell_angle_gamma   89.99822713
_symmetry_Int_Tables_number   1
_chemical_formula_structural   AgSbTe2
_chemical_formula_sum   'Ag16 Sb16 Te32'
_cell_volume   1820.69134782
_cell_formula_units_Z   16
loop_
 _symmetry_equiv_pos_site_id
 _symmetry_equiv_pos_as_xyz
  1  'x, y, z'
loop_
 _atom_site_type_symbol
 _atom_site_label
 _atom_site_symmetry_multiplicity
 _atom_site_fract_x
 _atom_site_fract_y
 _atom_site_fract_z
 _atom_site_occupancy
  Ag  Ag0  1  -0.00147597  0.00157855  0.00605022  1
  Ag  Ag1  1  0.24960690  0.50356763  0.25195522  1
  Ag  Ag2  1  0.75263027  0.00265058  0.75178627  1
  Ag  Ag3  1  0.75450794  0.00614406  0.24803177  1
  Ag  Ag4  1  0.49833863  0.49819396  0.00520449  1
  Ag  Ag5  1  0.24733796  -0.00096039  0.75000390  1
  Ag  Ag6  1  0.00371431  0.49957107  0.49512195  1
  Ag  Ag7  1  0.24560094  -0.00330588  0.25005780  1
  Ag  Ag8  1  0.00538625  0.75343353  0.25156942  1
  Ag  Ag9  1  0.49440838  0.74963160  0.24978790  1
  Ag  Ag10  1  0.24820009  0.74875227  0.49356897  1
  Ag  Ag11  1  0.24941142  0.50091109  0.74809835  1
  Ag  Ag12  1  0.75201861  0.24815699  0.49235675  1
  Ag  Ag13  1  0.75058594  0.24610834  0.00724408  1
  Ag  Ag14  1  0.50301402  0.25004716  0.24858614  1
  Ag  Ag15  1  -0.00337286  0.24583950  0.25000064  1
  Sb  Sb16  1  0.00108655  0.49806066  0.00539176  1
  Sb  Sb17  1  0.00063137  0.00103082  0.49110543  1
  Sb  Sb18  1  0.24939906  0.24900910  0.00479746  1
  Sb  Sb19  1  0.49587390  0.49925308  0.49459118  1
  Sb  Sb20  1  0.00293711  0.75201881  0.74814892  1
  Sb  Sb21  1  0.75024024  0.75444050  0.00377856  1
  Sb  Sb22  1  0.75219447  0.75123989  0.49528218  1
  Sb  Sb23  1  0.74978787  0.49170718  0.25016093  1
  Sb  Sb24  1  0.49641118  0.74960484  0.75047109  1
  Sb  Sb25  1  0.25003975  0.75086954  0.00902702  1
  Sb  Sb26  1  0.75082471  0.49759141  0.74987249  1
  Sb  Sb27  1  0.49951714  0.00099435  0.49606721  1
  Sb  Sb28  1  0.50184314  0.00241259  0.00455784  1
  Sb  Sb29  1  0.50006064  0.25061023  0.75105838  1
  Sb  Sb30  1  0.24712276  0.25152439  0.49538570  1
  Sb  Sb31  1  -0.00033269  0.24816493  0.74982544  1
  Te  Te32  1  0.25001229  0.24850065  0.25089547  1
  Te  Te33  1  0.25092762  0.24747851  0.74836382  1
  Te  Te34  1  0.24961427  0.75116162  0.25209874  1
  Te  Te35  1  0.25080057  0.75221682  0.74188563  1
  Te  Te36  1  0.75054271  0.24847994  0.24999569  1
  Te  Te37  1  0.74948570  0.24399432  0.74993845  1
  Te  Te38  1  0.75015783  0.75813356  0.25155714  1
  Te  Te39  1  0.74942374  0.75930109  0.74861217  1
  Te  Te40  1  0.24607486  0.00094055  -0.00035007  1
  Te  Te41  1  0.24945158  -0.00303277  0.50032947  1
  Te  Te42  1  0.25262227  0.49903092  0.00028196  1
  Te  Te43  1  0.24696963  0.50082574  0.49813171  1
  Te  Te44  1  0.75178067  0.00369276  0.00193818  1
  Te  Te45  1  0.75025683  0.00385953  0.49969180  1
  Te  Te46  1  0.74672403  0.49307541  -0.00247420  1
  Te  Te47  1  0.75631647  0.49529788  0.50250091  1
  Te  Te48  1  -0.00512390  0.24667272  0.00578194  1
  Te  Te49  1  -0.00391794  0.25471236  0.49425508  1
  Te  Te50  1  -0.00131895  0.75479377  0.00798055  1
  Te  Te51  1  0.00334657  0.74436197  0.49378097  1
  Te  Te52  1  0.50514099  0.25341191  0.00599893  1
  Te  Te53  1  0.50791364  0.25134866  0.49251916  1
  Te  Te54  1  0.50132289  0.74280183  0.00776705  1
  Te  Te55  1  0.49464273  0.74846666  0.49216389  1
  Te  Te56  1  0.00127780  0.00144924  0.24959295  1
  Te  Te57  1  0.00239045  -0.00009184  0.75646342  1
  Te  Te58  1  0.00327305  0.49969863  0.25031185  1
  Te  Te59  1  0.00702445  0.50020710  0.74731180  1
  Te  Te60  1  0.49826825  0.00104859  0.24790189  1
  Te  Te61  1  0.49722551  -0.00050302  0.75230643  1
  Te  Te62  1  0.49701250  0.49928776  0.24775935  1
  Te  Te63  1  0.49281090  0.50052472  0.75576241  1
