# generated using pymatgen
data_AgSbTe2
_symmetry_space_group_name_H-M   'P 1'
_cell_length_a   12.22925460
_cell_length_b   12.21660964
_cell_length_c   12.23408724
_cell_angle_alpha   89.99918512
_cell_angle_beta   89.99620723
_cell_angle_gamma   89.99815946
_symmetry_Int_Tables_number   1
_chemical_formula_structural   AgSbTe2
_chemical_formula_sum   'Ag16 Sb16 Te32'
_cell_volume   1827.77299164
_cell_formula_units_Z   16
loop_
 _symmetry_equiv_pos_site_id
 _symmetry_equiv_pos_as_xyz
  1  'x, y, z'
loop_
 _atom_site_type_symbol
 _atom_site_label
 _atom_site_symmetry_multiplicity
 _atom_site_fract_x
 _atom_site_fract_y
 _atom_site_fract_z
 _atom_site_occupancy
  Ag  Ag0  1  0.74790820  0.25612726  0.50058148  1
  Ag  Ag1  1  0.50217483  0.00563549  0.50396984  1
  Ag  Ag2  1  -0.00144443  0.49237031  0.00247145  1
  Ag  Ag3  1  0.75392296  0.49485621  0.24851067  1
  Ag  Ag4  1  0.50175569  0.49482164  0.50373933  1
  Ag  Ag5  1  0.50050821  0.25306088  0.75007752  1
  Ag  Ag6  1  0.75194285  0.25528910  -0.00043793  1
  Ag  Ag7  1  -0.00170081  0.49335299  0.49730627  1
  Ag  Ag8  1  -0.00042152  0.25726103  0.75405133  1
  Ag  Ag9  1  0.74795994  0.74458683  -0.00075139  1
  Ag  Ag10  1  -0.00239504  0.25768136  0.24658689  1
  Ag  Ag11  1  0.24626145  0.49477934  0.24868794  1
  Ag  Ag12  1  0.24853933  0.25554472  -0.00252874  1
  Ag  Ag13  1  0.25129314  0.49489078  0.75104178  1
  Ag  Ag14  1  0.50150756  0.00479244  -0.00454199  1
  Ag  Ag15  1  0.50081856  0.74690315  0.75143013  1
  Sb  Sb16  1  0.74696906  0.74233529  0.50051976  1
  Sb  Sb17  1  0.50232787  0.25368300  0.25020721  1
  Sb  Sb18  1  0.74912876  0.00561976  0.24908546  1
  Sb  Sb19  1  0.50127941  0.49528945  -0.00469012  1
  Sb  Sb20  1  0.74673792  0.00359943  0.75064347  1
  Sb  Sb21  1  0.25134905  0.00769039  0.24776404  1
  Sb  Sb22  1  -0.00207054  0.73949176  0.24868044  1
  Sb  Sb23  1  0.25258975  0.25411933  0.50245900  1
  Sb  Sb24  1  -0.00100093  0.73989273  0.75263584  1
  Sb  Sb25  1  0.25414169  0.00632007  0.75140634  1
  Sb  Sb26  1  0.74842541  0.49590297  0.75177111  1
  Sb  Sb27  1  -0.00301360  0.00966415  0.50081937  1
  Sb  Sb28  1  0.25192919  0.74602486  0.50125731  1
  Sb  Sb29  1  -0.00177989  0.00861525  -0.00074687  1
  Sb  Sb30  1  0.50145113  0.74643625  0.24679353  1
  Sb  Sb31  1  0.25194300  0.74360000  -0.00213024  1
  Te  Te32  1  0.24581470  0.25578775  0.24501757  1
  Te  Te33  1  0.25210251  0.25491424  0.75264389  1
  Te  Te34  1  0.24936347  0.74041453  0.24942211  1
  Te  Te35  1  0.25541999  0.74151936  0.75092936  1
  Te  Te36  1  0.75184393  0.25445454  0.24863554  1
  Te  Te37  1  0.74816605  0.25040422  0.75113734  1
  Te  Te38  1  0.75062523  0.74260475  0.24356622  1
  Te  Te39  1  0.74486661  0.75083713  0.75581066  1
  Te  Te40  1  0.25514393  0.00618243  0.00104824  1
  Te  Te41  1  0.25799919  -0.00155134  0.49890336  1
  Te  Te42  1  0.24922037  0.49638858  0.00002198  1
  Te  Te43  1  0.24989483  0.49861711  0.49959745  1
  Te  Te44  1  0.74589444  0.00303539  0.00102906  1
  Te  Te45  1  0.74492976  0.00641172  0.49854030  1
  Te  Te46  1  0.75051075  0.49522193  0.00191864  1
  Te  Te47  1  0.74986625  0.49674517  0.49698209  1
  Te  Te48  1  -0.00276640  0.25171679  -0.00249472  1
  Te  Te49  1  -0.00331446  0.25348417  0.50184364  1
  Te  Te50  1  -0.00545464  0.74604309  -0.00168766  1
  Te  Te51  1  -0.00113945  0.74364268  0.50112871  1
  Te  Te52  1  0.50230427  0.24955098  -0.00180084  1
  Te  Te53  1  0.50229330  0.25265045  0.50150393  1
  Te  Te54  1  0.50341226  0.75374628  -0.00392319  1
  Te  Te55  1  0.50172468  0.74911768  0.50640591  1
  Te  Te56  1  0.00129431  0.00899998  0.25172264  1
  Te  Te57  1  0.00255617  0.00891615  0.74842559  1
  Te  Te58  1  -0.00022042  0.49644685  0.24997603  1
  Te  Te59  1  0.00390932  0.49579050  0.75007163  1
  Te  Te60  1  0.49909439  -0.00176777  0.25174059  1
  Te  Te61  1  0.49871691  0.00305586  0.74988888  1
  Te  Te62  1  0.49928896  0.50050478  0.25778107  1
  Te  Te63  1  0.49760057  0.49587579  0.74754370  1
