# generated using pymatgen
data_AgSbTe2
_symmetry_space_group_name_H-M   'P 1'
_cell_length_a   12.20976312
_cell_length_b   12.21645807
_cell_length_c   12.21039448
_cell_angle_alpha   90.00020154
_cell_angle_beta   89.99991729
_cell_angle_gamma   89.99841671
_symmetry_Int_Tables_number   1
_chemical_formula_structural   AgSbTe2
_chemical_formula_sum   'Ag16 Sb16 Te32'
_cell_volume   1821.30316329
_cell_formula_units_Z   16
loop_
 _symmetry_equiv_pos_site_id
 _symmetry_equiv_pos_as_xyz
  1  'x, y, z'
loop_
 _atom_site_type_symbol
 _atom_site_label
 _atom_site_symmetry_multiplicity
 _atom_site_fract_x
 _atom_site_fract_y
 _atom_site_fract_z
 _atom_site_occupancy
  Ag  Ag0  1  0.50019839  0.25061270  0.24900647  1
  Ag  Ag1  1  0.25176406  0.24846614  0.49848832  1
  Ag  Ag2  1  0.00137048  -0.00026934  -0.00158341  1
  Ag  Ag3  1  0.74890454  0.00210057  0.75287943  1
  Ag  Ag4  1  -0.00270894  0.50022290  -0.00144048  1
  Ag  Ag5  1  0.74867643  0.25089240  0.50196008  1
  Ag  Ag6  1  0.74891221  0.49765355  0.75376625  1
  Ag  Ag7  1  0.49956253  0.74992211  0.75674156  1
  Ag  Ag8  1  0.49627826  0.74993811  0.24275936  1
  Ag  Ag9  1  0.25693106  0.75277812  0.00175646  1
  Ag  Ag10  1  -0.00320483  0.25001793  0.75149546  1
  Ag  Ag11  1  0.74556591  0.49838348  0.24562140  1
  Ag  Ag12  1  0.49812782  -0.00586643  0.00166690  1
  Ag  Ag13  1  0.50250281  0.50535805  0.00205733  1
  Ag  Ag14  1  0.25385792  0.75171981  0.49808881  1
  Ag  Ag15  1  0.25390348  -0.00231804  0.24683624  1
  Sb  Sb16  1  0.74101358  0.74815069  0.00005498  1
  Sb  Sb17  1  0.50111646  0.50008354  0.49787620  1
  Sb  Sb18  1  0.74663882  0.75004996  0.50031201  1
  Sb  Sb19  1  0.00102371  0.00150892  0.50218284  1
  Sb  Sb20  1  0.25130972  0.24698371  0.00198897  1
  Sb  Sb21  1  0.25167459  -0.00032486  0.75347511  1
  Sb  Sb22  1  0.25208785  0.50003146  0.75230222  1
  Sb  Sb23  1  -0.00036776  0.25071962  0.24878902  1
  Sb  Sb24  1  0.50299898  0.25022645  0.75076132  1
  Sb  Sb25  1  -0.00071873  0.74949172  0.75418425  1
  Sb  Sb26  1  0.74620471  0.00163188  0.24733524  1
  Sb  Sb27  1  -0.00158703  0.49851531  0.50169924  1
  Sb  Sb28  1  0.49895138  -0.00006136  0.49868240  1
  Sb  Sb29  1  0.74960225  0.25195210  -0.00203276  1
  Sb  Sb30  1  0.00369290  0.74952385  0.24642087  1
  Sb  Sb31  1  0.25453932  0.50175896  0.24758920  1
  Te  Te32  1  0.25338503  0.24754805  0.25450075  1
  Te  Te33  1  0.24561561  0.24940210  0.74217114  1
  Te  Te34  1  0.25408359  0.75153275  0.24920188  1
  Te  Te35  1  0.25594055  0.75037520  0.74986890  1
  Te  Te36  1  0.74628457  0.25207715  0.25625429  1
  Te  Te37  1  0.75090970  0.25102319  0.74604876  1
  Te  Te38  1  0.74242641  0.74604585  0.25392939  1
  Te  Te39  1  0.74459963  0.74943706  0.74658797  1
  Te  Te40  1  0.25153156  -0.00277830  0.00305597  1
  Te  Te41  1  0.24957050  0.00031318  0.49479248  1
  Te  Te42  1  0.25039853  0.50445332  0.00033636  1
  Te  Te43  1  0.24930160  0.49932022  0.49988447  1
  Te  Te44  1  0.75055791  -0.00009437  -0.00375641  1
  Te  Te45  1  0.75046592  0.00520369  0.50504794  1
  Te  Te46  1  0.74959329  0.50016929  -0.00048643  1
  Te  Te47  1  0.75058671  0.49569398  0.50180558  1
  Te  Te48  1  0.00193101  0.25030834  -0.00462131  1
  Te  Te49  1  0.00080023  0.25009639  0.50494538  1
  Te  Te50  1  0.00889964  0.75034759  -0.00068181  1
  Te  Te51  1  0.01046599  0.75001060  0.50003205  1
  Te  Te52  1  0.49827638  0.25053560  0.00457374  1
  Te  Te53  1  0.49845022  0.24997527  0.49591901  1
  Te  Te54  1  0.49800499  0.75000546  0.00056009  1
  Te  Te55  1  0.49442070  0.75003703  0.50030749  1
  Te  Te56  1  0.00328983  0.00029528  0.24132767  1
  Te  Te57  1  -0.00423160  0.00237003  0.75576021  1
  Te  Te58  1  -0.00855633  0.49949691  0.24180774  1
  Te  Te59  1  -0.00590643  0.49769903  0.75553737  1
  Te  Te60  1  0.49865489  -0.00056258  0.24572169  1
  Te  Te61  1  0.50330730  -0.00161268  0.75582739  1
  Te  Te62  1  0.50343508  0.49971965  0.24610613  1
  Te  Te63  1  0.50468411  0.50170174  0.75591285  1
