# generated using pymatgen
data_AgSbTe2
_symmetry_space_group_name_H-M   'P 1'
_cell_length_a   12.23804111
_cell_length_b   12.22428915
_cell_length_c   12.22913680
_cell_angle_alpha   89.99780438
_cell_angle_beta   90.00333645
_cell_angle_gamma   90.00733889
_symmetry_Int_Tables_number   1
_chemical_formula_structural   AgSbTe2
_chemical_formula_sum   'Ag16 Sb16 Te32'
_cell_volume   1829.49539356
_cell_formula_units_Z   16
loop_
 _symmetry_equiv_pos_site_id
 _symmetry_equiv_pos_as_xyz
  1  'x, y, z'
loop_
 _atom_site_type_symbol
 _atom_site_label
 _atom_site_symmetry_multiplicity
 _atom_site_fract_x
 _atom_site_fract_y
 _atom_site_fract_z
 _atom_site_occupancy
  Ag  Ag0  1  0.75101666  0.50543091  0.24867831  1
  Ag  Ag1  1  0.49366304  -0.00245139  0.49720014  1
  Ag  Ag2  1  0.75431150  0.75275335  0.00434972  1
  Ag  Ag3  1  0.00205485  0.75467593  0.75317864  1
  Ag  Ag4  1  0.24857232  0.24323233  0.00394135  1
  Ag  Ag5  1  0.00074513  0.75771789  0.24654844  1
  Ag  Ag6  1  0.49982315  0.50562773  0.00113857  1
  Ag  Ag7  1  0.24367145  -0.00427639  0.25396214  1
  Ag  Ag8  1  0.24898106  0.23845701  0.49610180  1
  Ag  Ag9  1  0.75761279  -0.00398962  0.25191411  1
  Ag  Ag10  1  0.00603781  -0.00407301  0.49174810  1
  Ag  Ag11  1  0.75147710  0.24379879  0.49587124  1
  Ag  Ag12  1  0.49756718  0.75198274  0.75220633  1
  Ag  Ag13  1  0.00444944  -0.00795128  0.00744228  1
  Ag  Ag14  1  0.24518950  0.75640267  0.00185635  1
  Ag  Ag15  1  0.24720503  0.76136105  0.49696024  1
  Sb  Sb16  1  0.25077934  0.50357479  0.75158286  1
  Sb  Sb17  1  0.24927709  -0.00386703  0.74515017  1
  Sb  Sb18  1  0.00078338  0.24208086  0.25050371  1
  Sb  Sb19  1  -0.00051996  0.50324165  0.49746702  1
  Sb  Sb20  1  0.49830776  0.24756768  0.74942880  1
  Sb  Sb21  1  0.00177290  0.24522745  0.74947176  1
  Sb  Sb22  1  0.75118101  -0.00325672  0.74889171  1
  Sb  Sb23  1  0.49912833  0.24897852  0.25075190  1
  Sb  Sb24  1  -0.00029010  0.50786436  0.00225833  1
  Sb  Sb25  1  0.75157864  0.75498094  0.49509895  1
  Sb  Sb26  1  0.24814417  0.50347963  0.24896598  1
  Sb  Sb27  1  0.74862824  0.50429886  0.75079394  1
  Sb  Sb28  1  0.75135056  0.24722727  0.00321619  1
  Sb  Sb29  1  0.49562084  -0.00348310  0.00187459  1
  Sb  Sb30  1  0.50067601  0.50257919  0.49943502  1
  Sb  Sb31  1  0.49891205  0.75144159  0.24854572  1
  Te  Te32  1  0.24931235  0.24685026  0.25089152  1
  Te  Te33  1  0.24969164  0.25199658  0.74918173  1
  Te  Te34  1  0.24853771  0.75215405  0.25034564  1
  Te  Te35  1  0.24930712  0.74985949  0.75167400  1
  Te  Te36  1  0.75088279  0.24616081  0.25440072  1
  Te  Te37  1  0.75027580  0.25116135  0.74127235  1
  Te  Te38  1  0.75121522  0.75381595  0.24725914  1
  Te  Te39  1  0.75086766  0.74937389  0.75733183  1
  Te  Te40  1  0.25037542  -0.00254367  0.00409718  1
  Te  Te41  1  0.24828658  -0.00147581  0.49789768  1
  Te  Te42  1  0.25318444  0.50057303  0.00184029  1
  Te  Te43  1  0.25095206  0.49748032  0.49788185  1
  Te  Te44  1  0.75046853  -0.00100967  0.00460235  1
  Te  Te45  1  0.75181272  0.00107151  0.49644663  1
  Te  Te46  1  0.74787046  0.49992116  0.00417999  1
  Te  Te47  1  0.74891263  0.49335308  0.49411069  1
  Te  Te48  1  0.00547322  0.24331461  -0.00196057  1
  Te  Te49  1  0.00385542  0.24507007  0.50151064  1
  Te  Te50  1  0.00170514  0.75205064  0.00145225  1
  Te  Te51  1  0.00208725  0.75294877  0.49915985  1
  Te  Te52  1  0.49474742  0.25369003  -0.00254692  1
  Te  Te53  1  0.49561011  0.24664678  0.50160424  1
  Te  Te54  1  0.49833093  0.74967043  -0.00242432  1
  Te  Te55  1  0.49703761  0.75237899  0.50347560  1
  Te  Te56  1  0.00142750  -0.00258693  0.25017069  1
  Te  Te57  1  -0.00072981  -0.00552512  0.75135353  1
  Te  Te58  1  -0.00626453  0.51023182  0.24994232  1
  Te  Te59  1  -0.00059271  0.51093695  0.74948244  1
  Te  Te60  1  0.49904320  0.00058061  0.25562060  1
  Te  Te61  1  0.50115058  -0.00634075  0.74280835  1
  Te  Te62  1  0.50667396  0.49950647  0.24522199  1
  Te  Te63  1  0.50078333  0.50804968  0.75518130  1
