# generated using pymatgen
data_AgSbTe2
_symmetry_space_group_name_H-M   'P 1'
_cell_length_a   12.21802304
_cell_length_b   12.21961557
_cell_length_c   12.21760415
_cell_angle_alpha   90.00268614
_cell_angle_beta   90.00219060
_cell_angle_gamma   89.99974637
_symmetry_Int_Tables_number   1
_chemical_formula_structural   AgSbTe2
_chemical_formula_sum   'Ag16 Sb16 Te32'
_cell_volume   1824.08273328
_cell_formula_units_Z   16
loop_
 _symmetry_equiv_pos_site_id
 _symmetry_equiv_pos_as_xyz
  1  'x, y, z'
loop_
 _atom_site_type_symbol
 _atom_site_label
 _atom_site_symmetry_multiplicity
 _atom_site_fract_x
 _atom_site_fract_y
 _atom_site_fract_z
 _atom_site_occupancy
  Ag  Ag0  1  0.50021800  -0.00188819  -0.00792664  1
  Ag  Ag1  1  0.49651465  0.50418955  0.50572983  1
  Ag  Ag2  1  0.00166198  0.74767524  0.75281367  1
  Ag  Ag3  1  0.24959783  0.50203403  0.24947062  1
  Ag  Ag4  1  0.49992422  0.24651722  0.75108739  1
  Ag  Ag5  1  0.00435117  0.50403265  -0.00483334  1
  Ag  Ag6  1  0.49862681  0.75410164  0.74839174  1
  Ag  Ag7  1  0.74375457  -0.00259276  0.75271775  1
  Ag  Ag8  1  0.00059651  -0.00400236  -0.00449769  1
  Ag  Ag9  1  0.24829507  0.74924376  -0.00401175  1
  Ag  Ag10  1  0.74980535  0.50278162  0.74982297  1
  Ag  Ag11  1  0.25088986  0.25040787  -0.00206924  1
  Ag  Ag12  1  0.50000239  -0.00382452  0.50873931  1
  Ag  Ag13  1  0.00332215  0.50491989  0.50483996  1
  Ag  Ag14  1  0.25265521  0.74620204  0.50401748  1
  Ag  Ag15  1  0.74818272  -0.00153342  0.24732962  1
  Sb  Sb16  1  0.74772821  0.24787377  -0.00305230  1
  Sb  Sb17  1  0.00185060  0.24948014  0.24814158  1
  Sb  Sb18  1  0.75123399  0.75196183  -0.00538971  1
  Sb  Sb19  1  0.49507904  0.50259810  -0.00748133  1
  Sb  Sb20  1  0.49732513  0.75062887  0.25118220  1
  Sb  Sb21  1  0.25089390  -0.00102885  0.24663438  1
  Sb  Sb22  1  0.00254674  0.75020569  0.24590560  1
  Sb  Sb23  1  0.74593366  0.74983650  0.50548600  1
  Sb  Sb24  1  0.00001559  -0.00652372  0.50599383  1
  Sb  Sb25  1  0.00116326  0.25135879  0.75298392  1
  Sb  Sb26  1  0.49764933  0.24934797  0.24727605  1
  Sb  Sb27  1  0.25786040  -0.00280686  0.75282409  1
  Sb  Sb28  1  0.74791748  0.24972321  0.50309168  1
  Sb  Sb29  1  0.25311756  0.25327032  0.50293068  1
  Sb  Sb30  1  0.74987421  0.50155075  0.24939467  1
  Sb  Sb31  1  0.24860767  0.50379959  0.74970244  1
  Te  Te32  1  0.25047655  0.25745008  0.24250936  1
  Te  Te33  1  0.25671146  0.24959951  0.75591949  1
  Te  Te34  1  0.25014943  0.74407216  0.24914551  1
  Te  Te35  1  0.24977774  0.75017031  0.75077278  1
  Te  Te36  1  0.74967777  0.24174168  0.24953676  1
  Te  Te37  1  0.74296750  0.24975615  0.75048260  1
  Te  Te38  1  0.74997255  0.75733092  0.24995601  1
  Te  Te39  1  0.74922204  0.74980388  0.75025486  1
  Te  Te40  1  0.24899835  -0.00228104  0.00225900  1
  Te  Te41  1  0.25414365  -0.00414846  0.49631481  1
  Te  Te42  1  0.24841180  0.50301217  0.00253745  1
  Te  Te43  1  0.25095273  0.50201061  0.49757388  1
  Te  Te44  1  0.74951077  0.00027163  -0.00380787  1
  Te  Te45  1  0.74653398  0.00005103  0.50306528  1
  Te  Te46  1  0.75672619  0.49923401  -0.00171542  1
  Te  Te47  1  0.74992886  0.49978562  0.50203022  1
  Te  Te48  1  0.00766654  0.24953584  -0.00179651  1
  Te  Te49  1  0.00247549  0.25908051  0.50068333  1
  Te  Te50  1  0.00410879  0.75036740  -0.00406886  1
  Te  Te51  1  0.00692566  0.74645641  0.50639922  1
  Te  Te52  1  0.49472919  0.24660789  -0.00453717  1
  Te  Te53  1  0.49826444  0.24928633  0.50653919  1
  Te  Te54  1  0.49426573  0.75306513  -0.00506009  1
  Te  Te55  1  0.49608078  0.74980077  0.50387084  1
  Te  Te56  1  -0.00563348  0.00005348  0.24505550  1
  Te  Te57  1  -0.00731737  -0.00205393  0.75240988  1
  Te  Te58  1  0.00056647  0.49982438  0.24951713  1
  Te  Te59  1  -0.00398699  0.50128834  0.75118525  1
  Te  Te60  1  0.50419696  0.00053200  0.24905880  1
  Te  Te61  1  0.50171460  -0.00314349  0.75050646  1
  Te  Te62  1  0.49967134  0.49929287  0.25813521  1
  Te  Te63  1  0.50491520  0.50260548  0.74802168  1
