# generated using pymatgen
data_AgSbTe2
_symmetry_space_group_name_H-M   'P 1'
_cell_length_a   12.20833535
_cell_length_b   12.20687185
_cell_length_c   12.21109107
_cell_angle_alpha   89.99754829
_cell_angle_beta   89.99751540
_cell_angle_gamma   89.99655346
_symmetry_Int_Tables_number   1
_chemical_formula_structural   AgSbTe2
_chemical_formula_sum   'Ag16 Sb16 Te32'
_cell_volume   1819.76498501
_cell_formula_units_Z   16
loop_
 _symmetry_equiv_pos_site_id
 _symmetry_equiv_pos_as_xyz
  1  'x, y, z'
loop_
 _atom_site_type_symbol
 _atom_site_label
 _atom_site_symmetry_multiplicity
 _atom_site_fract_x
 _atom_site_fract_y
 _atom_site_fract_z
 _atom_site_occupancy
  Ag  Ag0  1  0.00175993  -0.00272924  0.00350582  1
  Ag  Ag1  1  0.00237657  0.75167026  0.25392784  1
  Ag  Ag2  1  0.24785117  -0.00511025  0.25095391  1
  Ag  Ag3  1  0.74764949  0.25706561  0.50140643  1
  Ag  Ag4  1  0.74885744  0.74309521  0.49963182  1
  Ag  Ag5  1  0.49846985  -0.00166007  -0.00044231  1
  Ag  Ag6  1  0.26486401  0.50294895  0.74654348  1
  Ag  Ag7  1  0.25065163  0.74650754  0.49754228  1
  Ag  Ag8  1  0.00095620  -0.00440526  0.49620411  1
  Ag  Ag9  1  0.50146253  0.26404679  0.74853167  1
  Ag  Ag10  1  0.50342940  0.50284654  0.51199447  1
  Ag  Ag11  1  0.74658421  0.50276041  0.25729446  1
  Ag  Ag12  1  0.49958019  0.50142882  -0.01245587  1
  Ag  Ag13  1  0.25325558  0.50503812  0.25407301  1
  Ag  Ag14  1  0.73531554  0.50110042  0.74310785  1
  Ag  Ag15  1  0.49969519  0.73594429  0.74733228  1
  Sb  Sb16  1  0.74671252  -0.00233660  0.74771027  1
  Sb  Sb17  1  0.00015753  0.74903813  0.74406757  1
  Sb  Sb18  1  0.25339028  0.25001863  -0.00148292  1
  Sb  Sb19  1  0.75281548  -0.00532412  0.25296003  1
  Sb  Sb20  1  0.25399704  0.25606574  0.50161981  1
  Sb  Sb21  1  0.25393263  -0.00493430  0.74820560  1
  Sb  Sb22  1  0.74748266  0.74765772  0.00028227  1
  Sb  Sb23  1  -0.00652426  0.50612043  0.49707861  1
  Sb  Sb24  1  0.00145911  0.50426678  0.00345253  1
  Sb  Sb25  1  -0.00308049  0.25173725  0.74657405  1
  Sb  Sb26  1  -0.00165276  0.24653054  0.25245579  1
  Sb  Sb27  1  0.50194639  0.25428522  0.25323045  1
  Sb  Sb28  1  0.49655027  0.74537034  0.25479283  1
  Sb  Sb29  1  0.25222815  0.74988651  0.00437928  1
  Sb  Sb30  1  0.49803718  -0.00390012  0.49934260  1
  Sb  Sb31  1  0.74642592  0.25268472  -0.00285874  1
  Te  Te32  1  0.24959050  0.25194230  0.25144386  1
  Te  Te33  1  0.25810709  0.25986011  0.74852352  1
  Te  Te34  1  0.24691354  0.74840864  0.25475436  1
  Te  Te35  1  0.25407752  0.74401840  0.74199860  1
  Te  Te36  1  0.75017477  0.26050104  0.25965404  1
  Te  Te37  1  0.74450760  0.25758036  0.74336608  1
  Te  Te38  1  0.75580280  0.74396118  0.25755473  1
  Te  Te39  1  0.74580056  0.74369883  0.74251926  1
  Te  Te40  1  0.25073931  0.00006534  0.00569249  1
  Te  Te41  1  0.24611880  -0.00511667  0.49554518  1
  Te  Te42  1  0.25581630  0.50018800  0.00107433  1
  Te  Te43  1  0.25301021  0.50233986  0.49851859  1
  Te  Te44  1  0.74872218  0.00067098  0.00073576  1
  Te  Te45  1  0.75504786  -0.00147711  0.49869971  1
  Te  Te46  1  0.74360069  0.49952170  0.00001243  1
  Te  Te47  1  0.75092434  0.50160497  0.49994656  1
  Te  Te48  1  -0.00185293  0.23658135  -0.00090606  1
  Te  Te49  1  -0.00919747  0.23789624  0.50130549  1
  Te  Te50  1  -0.00089931  0.75889283  0.00765353  1
  Te  Te51  1  0.00034364  0.75549675  0.49671783  1
  Te  Te52  1  0.50167946  0.25041445  -0.00909581  1
  Te  Te53  1  0.50567027  0.25427548  0.50634016  1
  Te  Te54  1  0.50079343  0.74953867  -0.00866956  1
  Te  Te55  1  0.50030131  0.74755513  0.50404509  1
  Te  Te56  1  0.00359057  -0.00346777  0.25019713  1
  Te  Te57  1  0.00070055  -0.00035433  0.75157842  1
  Te  Te58  1  0.00185216  0.50625698  0.24690943  1
  Te  Te59  1  0.00043094  0.50002708  0.75333704  1
  Te  Te60  1  0.49313173  0.00039362  0.24196585  1
  Te  Te61  1  0.49866041  -0.00032073  0.75773067  1
  Te  Te62  1  0.49892492  0.50034595  0.25008369  1
  Te  Te63  1  0.50027966  0.50098536  0.74980639  1
