# generated using pymatgen
data_AgSbTe2
_symmetry_space_group_name_H-M   'P 1'
_cell_length_a   12.22185643
_cell_length_b   12.22271873
_cell_length_c   12.20862736
_cell_angle_alpha   90.00625157
_cell_angle_beta   90.00286450
_cell_angle_gamma   89.99806037
_symmetry_Int_Tables_number   1
_chemical_formula_structural   AgSbTe2
_chemical_formula_sum   'Ag16 Sb16 Te32'
_cell_volume   1823.77740282
_cell_formula_units_Z   16
loop_
 _symmetry_equiv_pos_site_id
 _symmetry_equiv_pos_as_xyz
  1  'x, y, z'
loop_
 _atom_site_type_symbol
 _atom_site_label
 _atom_site_symmetry_multiplicity
 _atom_site_fract_x
 _atom_site_fract_y
 _atom_site_fract_z
 _atom_site_occupancy
  Ag  Ag0  1  0.24402427  0.50224472  0.24630801  1
  Ag  Ag1  1  0.00372137  0.74606853  0.24225386  1
  Ag  Ag2  1  0.49678046  0.74979482  0.24773084  1
  Ag  Ag3  1  0.24780183  -0.00195656  0.24865257  1
  Ag  Ag4  1  0.75384151  0.25282432  0.00574820  1
  Ag  Ag5  1  0.00068823  0.50217948  0.00750876  1
  Ag  Ag6  1  0.24918708  0.49801276  0.75231650  1
  Ag  Ag7  1  0.75553422  0.49831544  0.24508240  1
  Ag  Ag8  1  0.74820442  0.25050065  0.49525539  1
  Ag  Ag9  1  0.00098238  -0.00174948  0.00635294  1
  Ag  Ag10  1  0.24467713  0.74691045  0.00775470  1
  Ag  Ag11  1  -0.00005474  0.25433913  0.24606888  1
  Ag  Ag12  1  0.75573672  0.74729661  0.00678145  1
  Ag  Ag13  1  0.25173473  0.25044804  0.49579551  1
  Ag  Ag14  1  0.49848210  0.25064808  0.74776705  1
  Ag  Ag15  1  0.49824445  0.00431229  0.49644477  1
  Sb  Sb16  1  0.25100745  0.00143684  0.75145749  1
  Sb  Sb17  1  0.00069640  0.49826026  0.49050207  1
  Sb  Sb18  1  0.25104258  0.74945086  0.49102037  1
  Sb  Sb19  1  0.49741603  0.74910710  0.75185047  1
  Sb  Sb20  1  0.24647142  0.25322818  0.00485448  1
  Sb  Sb21  1  0.75135898  0.49743384  0.75498803  1
  Sb  Sb22  1  0.00154176  0.25227990  0.75328060  1
  Sb  Sb23  1  0.74847317  0.74889059  0.49147064  1
  Sb  Sb24  1  0.74930550  0.00137071  0.75076535  1
  Sb  Sb25  1  0.49889593  0.49960321  0.00235065  1
  Sb  Sb26  1  0.75280389  0.00184232  0.24844446  1
  Sb  Sb27  1  0.00161192  0.74745198  0.75973095  1
  Sb  Sb28  1  0.00166036  0.00297678  0.49296812  1
  Sb  Sb29  1  0.49932536  0.49571498  0.49806005  1
  Sb  Sb30  1  0.49840550  0.00078801  0.00351232  1
  Sb  Sb31  1  0.50023236  0.24941461  0.25141452  1
  Te  Te32  1  0.24973103  0.25159585  0.25076554  1
  Te  Te33  1  0.25265180  0.25324155  0.74647050  1
  Te  Te34  1  0.24869918  0.74796400  0.24847150  1
  Te  Te35  1  0.25127211  0.74438463  0.75649267  1
  Te  Te36  1  0.75006357  0.25212862  0.24858229  1
  Te  Te37  1  0.74639809  0.25158350  0.74886175  1
  Te  Te38  1  0.75053875  0.74717109  0.24658234  1
  Te  Te39  1  0.74901514  0.74892946  0.75867276  1
  Te  Te40  1  0.24729204  -0.00261009  0.00345587  1
  Te  Te41  1  0.25188643  0.00409018  0.49696366  1
  Te  Te42  1  0.24793270  0.50076485  0.00485428  1
  Te  Te43  1  0.24921494  0.49547809  0.49825180  1
  Te  Te44  1  0.75401008  0.00023280  0.00058782  1
  Te  Te45  1  0.74671149  0.00667378  0.50006206  1
  Te  Te46  1  0.75253588  0.49924422  0.00321816  1
  Te  Te47  1  0.75058838  0.49411488  0.49549007  1
  Te  Te48  1  -0.00310285  0.25061983  0.00388025  1
  Te  Te49  1  -0.00026910  0.24882600  0.49507502  1
  Te  Te50  1  0.00029069  0.74872775  0.00352206  1
  Te  Te51  1  -0.00180159  0.75150189  0.49186374  1
  Te  Te52  1  0.50744164  0.24829960  -0.00440615  1
  Te  Te53  1  0.49988134  0.24689903  0.50094199  1
  Te  Te54  1  0.50047826  0.75099251  0.00400759  1
  Te  Te55  1  0.50148429  0.75752239  0.49520918  1
  Te  Te56  1  0.00374540  0.00108086  0.24573582  1
  Te  Te57  1  0.00053726  -0.00050111  0.75985957  1
  Te  Te58  1  0.00099994  0.49869684  0.24718215  1
  Te  Te59  1  0.00642776  0.50018485  0.75875312  1
  Te  Te60  1  0.49400715  -0.00329240  0.25302188  1
  Te  Te61  1  0.49918103  0.00525600  0.74321378  1
  Te  Te62  1  0.49895886  0.50526715  0.25076156  1
  Te  Te63  1  0.49336353  0.49549197  0.74910294  1
