# generated using pymatgen
data_AgSbTe2
_symmetry_space_group_name_H-M   'P 1'
_cell_length_a   12.30478040
_cell_length_b   12.28106042
_cell_length_c   12.30458748
_cell_angle_alpha   89.98838693
_cell_angle_beta   89.99828805
_cell_angle_gamma   89.99509937
_symmetry_Int_Tables_number   1
_chemical_formula_structural   AgSbTe2
_chemical_formula_sum   'Ag16 Sb16 Te32'
_cell_volume   1859.41693909
_cell_formula_units_Z   16
loop_
 _symmetry_equiv_pos_site_id
 _symmetry_equiv_pos_as_xyz
  1  'x, y, z'
loop_
 _atom_site_type_symbol
 _atom_site_label
 _atom_site_symmetry_multiplicity
 _atom_site_fract_x
 _atom_site_fract_y
 _atom_site_fract_z
 _atom_site_occupancy
  Ag  Ag0  1  0.26489209  0.74260405  -0.00795071  1
  Ag  Ag1  1  0.25701683  -0.01343407  0.74237047  1
  Ag  Ag2  1  0.73616189  0.74408903  -0.01259160  1
  Ag  Ag3  1  0.74111327  -0.01792088  0.74179832  1
  Ag  Ag4  1  0.25775966  0.51215932  0.74652115  1
  Ag  Ag5  1  0.00144555  0.50455840  0.50184325  1
  Ag  Ag6  1  0.00041050  -0.00679239  0.50433626  1
  Ag  Ag7  1  0.74270550  0.50992458  0.25451277  1
  Ag  Ag8  1  0.50178940  0.74393612  0.24635809  1
  Ag  Ag9  1  0.50684476  0.74671299  0.75229413  1
  Ag  Ag10  1  0.49980403  0.50974414  -0.00291225  1
  Ag  Ag11  1  0.25602464  0.50668338  0.25562228  1
  Ag  Ag12  1  0.25093495  0.25444271  0.50235151  1
  Ag  Ag13  1  0.74375880  0.74638127  0.51199395  1
  Ag  Ag14  1  0.74054352  0.51578871  0.74626915  1
  Ag  Ag15  1  0.50010357  -0.01012743  0.50790185  1
  Sb  Sb16  1  0.49980518  0.25410447  0.74801134  1
  Sb  Sb17  1  0.74651174  0.25147084  0.49948478  1
  Sb  Sb18  1  0.25366793  -0.01169793  0.25659522  1
  Sb  Sb19  1  -0.00053785  0.50247632  -0.00439832  1
  Sb  Sb20  1  0.25508315  0.74873909  0.50731867  1
  Sb  Sb21  1  0.74625078  -0.01416389  0.25738288  1
  Sb  Sb22  1  0.49826237  0.25936534  0.25477849  1
  Sb  Sb23  1  0.50023162  -0.01072357  -0.00931265  1
  Sb  Sb24  1  0.00151593  0.25328060  0.25555374  1
  Sb  Sb25  1  0.50130768  0.50652664  0.50102032  1
  Sb  Sb26  1  0.25363473  0.25429850  -0.00172809  1
  Sb  Sb27  1  -0.00506703  0.74986114  0.74626973  1
  Sb  Sb28  1  0.74609636  0.25589556  -0.00097666  1
  Sb  Sb29  1  -0.00064127  -0.00691664  -0.00740596  1
  Sb  Sb30  1  0.00161807  0.74808983  0.25337880  1
  Sb  Sb31  1  0.00019042  0.25057130  0.74687198  1
  Te  Te32  1  0.25087683  0.26210243  0.25274480  1
  Te  Te33  1  0.25044511  0.25232192  0.74653634  1
  Te  Te34  1  0.25478149  0.74625281  0.24496053  1
  Te  Te35  1  0.25230130  0.74780631  0.75015489  1
  Te  Te36  1  0.74977913  0.26867516  0.24756221  1
  Te  Te37  1  0.74971702  0.25202063  0.75139543  1
  Te  Te38  1  0.74567092  0.74581290  0.25011075  1
  Te  Te39  1  0.74947513  0.74827816  0.74812816  1
  Te  Te40  1  0.24911539  -0.00200564  -0.00840517  1
  Te  Te41  1  0.24723129  -0.00687826  0.50326934  1
  Te  Te42  1  0.24621320  0.50345256  -0.00649697  1
  Te  Te43  1  0.25255947  0.50543808  0.50467579  1
  Te  Te44  1  0.75073860  -0.00492890  -0.00779596  1
  Te  Te45  1  0.75133281  0.00475879  0.50262524  1
  Te  Te46  1  0.75362535  0.50370639  -0.00652996  1
  Te  Te47  1  0.74641800  0.49737724  0.50575266  1
  Te  Te48  1  -0.00119667  0.24745291  0.00173109  1
  Te  Te49  1  0.00801512  0.25323374  0.50114280  1
  Te  Te50  1  -0.00067805  0.75136538  0.00289341  1
  Te  Te51  1  -0.01311057  0.74782037  0.50042146  1
  Te  Te52  1  0.50089361  0.26874470  0.00239903  1
  Te  Te53  1  0.49349623  0.23261048  0.50038992  1
  Te  Te54  1  0.50097029  0.74449261  -0.00445593  1
  Te  Te55  1  0.50554547  0.75305391  0.50593377  1
  Te  Te56  1  -0.00026879  0.00106098  0.26361240  1
  Te  Te57  1  0.00229873  -0.00061437  0.74398938  1
  Te  Te58  1  0.00270456  0.50062013  0.25946472  1
  Te  Te59  1  0.00256796  0.50040497  0.74312283  1
  Te  Te60  1  0.50050430  -0.00966900  0.25590195  1
  Te  Te61  1  0.49989193  -0.00340170  0.74908544  1
  Te  Te62  1  0.49906385  0.50613249  0.25379788  1
  Te  Te63  1  0.49978224  0.50257430  0.74831888  1
