# generated using pymatgen
data_AgSbTe2
_symmetry_space_group_name_H-M   'P 1'
_cell_length_a   12.21138545
_cell_length_b   12.21432852
_cell_length_c   12.21418771
_cell_angle_alpha   90.00139577
_cell_angle_beta   90.00211222
_cell_angle_gamma   90.00255885
_symmetry_Int_Tables_number   1
_chemical_formula_structural   AgSbTe2
_chemical_formula_sum   'Ag16 Sb16 Te32'
_cell_volume   1821.79340550
_cell_formula_units_Z   16
loop_
 _symmetry_equiv_pos_site_id
 _symmetry_equiv_pos_as_xyz
  1  'x, y, z'
loop_
 _atom_site_type_symbol
 _atom_site_label
 _atom_site_symmetry_multiplicity
 _atom_site_fract_x
 _atom_site_fract_y
 _atom_site_fract_z
 _atom_site_occupancy
  Ag  Ag0  1  0.50212919  0.74865900  0.75325550  1
  Ag  Ag1  1  -0.00485517  0.25426135  0.75061541  1
  Ag  Ag2  1  0.50065835  -0.00363180  0.50282223  1
  Ag  Ag3  1  -0.00250387  0.50287242  -0.00070529  1
  Ag  Ag4  1  0.50079747  0.50339818  0.50240482  1
  Ag  Ag5  1  -0.00062508  -0.00165092  0.50076989  1
  Ag  Ag6  1  0.74623586  0.74707978  -0.00133024  1
  Ag  Ag7  1  0.74917762  0.49857659  0.75293946  1
  Ag  Ag8  1  0.25360833  0.74723852  0.00312439  1
  Ag  Ag9  1  -0.00077396  0.50156371  0.50065012  1
  Ag  Ag10  1  0.49853099  0.74817735  0.24609874  1
  Ag  Ag11  1  0.74892200  0.25405496  -0.00566991  1
  Ag  Ag12  1  0.00143830  0.74571532  0.24804869  1
  Ag  Ag13  1  0.50154914  -0.00592626  -0.00225212  1
  Ag  Ag14  1  0.50464519  0.25209869  0.75138475  1
  Ag  Ag15  1  0.24933955  0.50554850  0.24875138  1
  Sb  Sb16  1  0.74771405  0.74779062  0.50316501  1
  Sb  Sb17  1  0.25083737  -0.00646180  0.24858183  1
  Sb  Sb18  1  0.74925584  -0.00338612  0.24928161  1
  Sb  Sb19  1  0.75060204  0.50349021  0.24635460  1
  Sb  Sb20  1  0.74761232  0.00141652  0.75125151  1
  Sb  Sb21  1  0.25178105  0.74776464  0.49618652  1
  Sb  Sb22  1  0.25203895  -0.00310138  0.75068457  1
  Sb  Sb23  1  0.25181352  0.25389907  -0.00112807  1
  Sb  Sb24  1  -0.00157434  -0.00242629  -0.00134967  1
  Sb  Sb25  1  0.25124937  0.50262607  0.75146710  1
  Sb  Sb26  1  0.50342840  0.50761023  -0.00321488  1
  Sb  Sb27  1  0.74936114  0.25264215  0.50707674  1
  Sb  Sb28  1  -0.00344665  0.74530412  0.75057462  1
  Sb  Sb29  1  0.50125621  0.25280198  0.24816659  1
  Sb  Sb30  1  -0.00109390  0.25462596  0.24938126  1
  Sb  Sb31  1  0.25032530  0.25148274  0.50107356  1
  Te  Te32  1  0.25004982  0.26110222  0.24842468  1
  Te  Te33  1  0.25129119  0.25093970  0.75136421  1
  Te  Te34  1  0.25058379  0.74512990  0.24570046  1
  Te  Te35  1  0.25838878  0.74888706  0.75936481  1
  Te  Te36  1  0.74991973  0.25082104  0.23650911  1
  Te  Te37  1  0.74867930  0.25460894  0.75508328  1
  Te  Te38  1  0.74937094  0.74889589  0.24171029  1
  Te  Te39  1  0.74514625  0.74387845  0.75570308  1
  Te  Te40  1  0.25641167  -0.00672585  0.00094345  1
  Te  Te41  1  0.25153183  -0.00036049  0.49931388  1
  Te  Te42  1  0.24366098  0.50390237  0.00358636  1
  Te  Te43  1  0.24864547  0.50109608  0.49504187  1
  Te  Te44  1  0.74508396  -0.00197912  0.00003049  1
  Te  Te45  1  0.74843430  0.00038552  0.49968973  1
  Te  Te46  1  0.75312021  0.50111582  -0.00347680  1
  Te  Te47  1  0.75083892  0.49992865  0.50619539  1
  Te  Te48  1  -0.00232467  0.25073936  -0.00332593  1
  Te  Te49  1  -0.00061851  0.25173430  0.50413469  1
  Te  Te50  1  -0.00120903  0.74972371  0.00149806  1
  Te  Te51  1  -0.00058995  0.74826191  0.49803771  1
  Te  Te52  1  0.50200681  0.24516309  -0.00334214  1
  Te  Te53  1  0.50097981  0.24898767  0.50458561  1
  Te  Te54  1  0.50144689  0.74937530  0.00067585  1
  Te  Te55  1  0.50062283  0.75085856  0.50008994  1
  Te  Te56  1  0.00096684  -0.00577660  0.25691488  1
  Te  Te57  1  -0.00057500  0.00569789  0.74379622  1
  Te  Te58  1  0.00052018  0.50301752  0.25165000  1
  Te  Te59  1  -0.00136792  0.49879907  0.74850816  1
  Te  Te60  1  0.49916454  -0.00531770  0.25257575  1
  Te  Te61  1  0.50099602  -0.00022158  0.74744771  1
  Te  Te62  1  0.49832907  0.50379944  0.25629530  1
  Te  Te63  1  0.50106036  0.49941777  0.74681320  1
