# generated using pymatgen
data_AgSbTe2
_symmetry_space_group_name_H-M   'P 1'
_cell_length_a   12.24366180
_cell_length_b   12.23794144
_cell_length_c   12.22301497
_cell_angle_alpha   90.00470270
_cell_angle_beta   90.00441339
_cell_angle_gamma   90.00433733
_symmetry_Int_Tables_number   1
_chemical_formula_structural   AgSbTe2
_chemical_formula_sum   'Ag16 Sb16 Te32'
_cell_volume   1831.46251920
_cell_formula_units_Z   16
loop_
 _symmetry_equiv_pos_site_id
 _symmetry_equiv_pos_as_xyz
  1  'x, y, z'
loop_
 _atom_site_type_symbol
 _atom_site_label
 _atom_site_symmetry_multiplicity
 _atom_site_fract_x
 _atom_site_fract_y
 _atom_site_fract_z
 _atom_site_occupancy
  Ag  Ag0  1  0.50288628  0.74449972  0.25249121  1
  Ag  Ag1  1  0.24735611  -0.00087888  0.25381476  1
  Ag  Ag2  1  0.00189808  0.74735085  0.74527948  1
  Ag  Ag3  1  0.00507966  0.50234874  0.49438067  1
  Ag  Ag4  1  0.00499963  0.25161720  0.25595466  1
  Ag  Ag5  1  0.49568677  0.25650526  0.25452352  1
  Ag  Ag6  1  0.74695543  0.50828487  0.25525810  1
  Ag  Ag7  1  0.00145342  -0.00306208  0.49349426  1
  Ag  Ag8  1  0.75185647  -0.00828795  0.25308634  1
  Ag  Ag9  1  0.75064137  0.74909032  0.01188611  1
  Ag  Ag10  1  0.24742353  0.50320072  0.74201034  1
  Ag  Ag11  1  0.25215602  0.49995369  0.25725515  1
  Ag  Ag12  1  0.75296055  0.74671806  0.48947158  1
  Ag  Ag13  1  0.24770717  0.25631476  0.49217317  1
  Ag  Ag14  1  0.49449444  0.50159548  0.49228944  1
  Ag  Ag15  1  0.24875092  0.74748243  0.00737451  1
  Sb  Sb16  1  0.49541666  0.25535558  0.74293131  1
  Sb  Sb17  1  0.49818357  -0.00231456  0.49461333  1
  Sb  Sb18  1  0.75054604  0.25078292  0.00855110  1
  Sb  Sb19  1  0.75398278  -0.00522508  0.74622276  1
  Sb  Sb20  1  0.75218779  0.50418998  0.74463554  1
  Sb  Sb21  1  0.75131501  0.25162415  0.49510575  1
  Sb  Sb22  1  0.49992239  -0.00240257  0.00568942  1
  Sb  Sb23  1  0.24755432  0.74422860  0.49301499  1
  Sb  Sb24  1  -0.00271860  0.74796335  0.25424475  1
  Sb  Sb25  1  0.24958415  0.25208149  0.00921798  1
  Sb  Sb26  1  0.00063843  0.50344738  0.00680419  1
  Sb  Sb27  1  0.00390481  0.25281547  0.74276674  1
  Sb  Sb28  1  0.00033498  -0.00408016  0.00879281  1
  Sb  Sb29  1  0.49806355  0.74650903  0.74729334  1
  Sb  Sb30  1  0.24598157  -0.00421741  0.74565896  1
  Sb  Sb31  1  0.49944263  0.50214418  0.00960294  1
  Te  Te32  1  0.25025458  0.25154339  0.25170448  1
  Te  Te33  1  0.25025852  0.25530604  0.74530987  1
  Te  Te34  1  0.25040171  0.74929450  0.24942077  1
  Te  Te35  1  0.24808276  0.74683436  0.75530153  1
  Te  Te36  1  0.74840047  0.25015996  0.24961954  1
  Te  Te37  1  0.74899596  0.24919528  0.75450816  1
  Te  Te38  1  0.75125655  0.74906926  0.25120244  1
  Te  Te39  1  0.75228493  0.74993635  0.75078544  1
  Te  Te40  1  0.24960981  -0.00469630  0.00531814  1
  Te  Te41  1  0.24758054  0.00393808  0.49516526  1
  Te  Te42  1  0.24993038  0.50350845  0.00186331  1
  Te  Te43  1  0.24797958  0.50144300  0.49560569  1
  Te  Te44  1  0.74998834  -0.00599887  0.00608477  1
  Te  Te45  1  0.75305726  -0.00257990  0.49515410  1
  Te  Te46  1  0.74972497  0.50591112  0.00483850  1
  Te  Te47  1  0.75234299  0.50190061  0.49672023  1
  Te  Te48  1  -0.00025350  0.24876351  0.00688708  1
  Te  Te49  1  0.00134382  0.25182504  0.49548303  1
  Te  Te50  1  0.00024375  0.74989429  -0.00877398  1
  Te  Te51  1  -0.00159329  0.74834368  0.50318064  1
  Te  Te52  1  0.50012705  0.24983583  0.00797903  1
  Te  Te53  1  0.49712645  0.25406014  0.49430881  1
  Te  Te54  1  0.50061006  0.74911826  0.00416563  1
  Te  Te55  1  0.50542511  0.74703602  0.49541713  1
  Te  Te56  1  0.00096979  0.00217811  0.25464133  1
  Te  Te57  1  0.00023082  -0.00305451  0.74006047  1
  Te  Te58  1  0.00102842  0.49815346  0.25370762  1
  Te  Te59  1  0.00371699  0.50231815  0.74361979  1
  Te  Te60  1  0.49989998  -0.00275486  0.25184929  1
  Te  Te61  1  0.50014010  0.00167187  0.74999191  1
  Te  Te62  1  0.49969945  0.50272335  0.25321709  1
  Te  Te63  1  0.49448974  0.49948680  0.73977367  1
