# generated using pymatgen
data_AgSbTe2
_symmetry_space_group_name_H-M   'P 1'
_cell_length_a   12.30826172
_cell_length_b   12.30849540
_cell_length_c   12.30822076
_cell_angle_alpha   89.99625686
_cell_angle_beta   89.98909715
_cell_angle_gamma   89.97135106
_symmetry_Int_Tables_number   1
_chemical_formula_structural   AgSbTe2
_chemical_formula_sum   'Ag16 Sb16 Te32'
_cell_volume   1864.64819246
_cell_formula_units_Z   16
loop_
 _symmetry_equiv_pos_site_id
 _symmetry_equiv_pos_as_xyz
  1  'x, y, z'
loop_
 _atom_site_type_symbol
 _atom_site_label
 _atom_site_symmetry_multiplicity
 _atom_site_fract_x
 _atom_site_fract_y
 _atom_site_fract_z
 _atom_site_occupancy
  Ag  Ag0  1  0.00062789  0.76417369  0.75373748  1
  Ag  Ag1  1  0.49191743  -0.01198521  -0.01254240  1
  Ag  Ag2  1  0.50510442  0.50714257  0.51245249  1
  Ag  Ag3  1  -0.00326638  0.50270234  0.51152189  1
  Ag  Ag4  1  0.74979388  0.50297598  0.75151311  1
  Ag  Ag5  1  0.00255408  -0.00252857  0.52028687  1
  Ag  Ag6  1  0.25907491  0.75975336  -0.00644127  1
  Ag  Ag7  1  0.00606458  -0.00442863  -0.01670257  1
  Ag  Ag8  1  0.24987251  -0.00606092  0.23556533  1
  Ag  Ag9  1  0.22953811  -0.00705507  0.75981178  1
  Ag  Ag10  1  0.50271550  0.51582036  -0.01060947  1
  Ag  Ag11  1  0.49856573  0.75311435  0.75852092  1
  Ag  Ag12  1  0.74970500  0.24348906  -0.00813928  1
  Ag  Ag13  1  0.76510846  -0.00146082  0.75782661  1
  Ag  Ag14  1  -0.00621138  0.22773359  0.75195262  1
  Ag  Ag15  1  0.49365389  0.75269924  0.23258907  1
  Sb  Sb16  1  -0.00285197  0.50372396  -0.01121035  1
  Sb  Sb17  1  0.24949008  0.75101034  0.50578270  1
  Sb  Sb18  1  0.75109574  0.74913631  0.50293655  1
  Sb  Sb19  1  0.50035260  -0.00582569  0.50868271  1
  Sb  Sb20  1  0.74911694  0.50080978  0.24612089  1
  Sb  Sb21  1  0.24993316  0.50278430  0.75144731  1
  Sb  Sb22  1  0.75258275  0.25091340  0.50549149  1
  Sb  Sb23  1  0.00398567  0.75280513  0.24594756  1
  Sb  Sb24  1  0.50138898  0.24893756  0.75195615  1
  Sb  Sb25  1  0.25175378  0.50566977  0.24728582  1
  Sb  Sb26  1  0.25126111  0.24467021  -0.00340673  1
  Sb  Sb27  1  0.75205883  -0.00045122  0.24367518  1
  Sb  Sb28  1  0.00079409  0.24865944  0.24923448  1
  Sb  Sb29  1  0.24917645  0.24825644  0.50423410  1
  Sb  Sb30  1  0.49840521  0.24878289  0.24667218  1
  Sb  Sb31  1  0.74663798  0.75247588  -0.00382805  1
  Te  Te32  1  0.24888908  0.23564259  0.25055369  1
  Te  Te33  1  0.24006149  0.23909506  0.74961054  1
  Te  Te34  1  0.25435906  0.75430182  0.24262104  1
  Te  Te35  1  0.25255358  0.75191907  0.75222183  1
  Te  Te36  1  0.74979487  0.25082489  0.23596370  1
  Te  Te37  1  0.75181952  0.25016271  0.75182808  1
  Te  Te38  1  0.73633661  0.74837583  0.25185154  1
  Te  Te39  1  0.75085997  0.74846980  0.74970074  1
  Te  Te40  1  0.25335004  -0.00156565  -0.00367704  1
  Te  Te41  1  0.24940179  -0.00028985  0.50486373  1
  Te  Te42  1  0.25753886  0.50528263  0.00169641  1
  Te  Te43  1  0.24893442  0.50015298  0.49870079  1
  Te  Te44  1  0.74972021  -0.00032214  -0.00290685  1
  Te  Te45  1  0.75347160  0.00090125  0.50583316  1
  Te  Te46  1  0.74760193  0.49913298  -0.00416375  1
  Te  Te47  1  0.75051572  0.49956015  0.50615792  1
  Te  Te48  1  -0.00052825  0.25196163  -0.00152873  1
  Te  Te49  1  0.00042381  0.24981594  0.50268427  1
  Te  Te50  1  0.00332333  0.75137759  -0.00123080  1
  Te  Te51  1  0.00040986  0.75155537  0.50218495  1
  Te  Te52  1  0.50024859  0.24715720  0.00013185  1
  Te  Te53  1  0.50052488  0.26605333  0.49853410  1
  Te  Te54  1  0.49937124  0.75357088  -0.00630825  1
  Te  Te55  1  0.50007960  0.74561347  0.51089890  1
  Te  Te56  1  -0.00044708  -0.00200439  0.24967023  1
  Te  Te57  1  -0.00209574  -0.00190347  0.75110520  1
  Te  Te58  1  -0.00059021  0.50096244  0.26740458  1
  Te  Te59  1  0.00202281  0.50779055  0.74933931  1
  Te  Te60  1  0.50033460  -0.00261168  0.25460040  1
  Te  Te61  1  0.50396716  0.00068326  0.74885709  1
  Te  Te62  1  0.50000627  0.50328226  0.24780174  1
  Te  Te63  1  0.49774033  0.49660764  0.75263451  1
