# generated using pymatgen
data_AgSbTe2
_symmetry_space_group_name_H-M   'P 1'
_cell_length_a   12.30872535
_cell_length_b   12.28180409
_cell_length_c   12.31852478
_cell_angle_alpha   89.99205098
_cell_angle_beta   89.99829886
_cell_angle_gamma   89.99529313
_symmetry_Int_Tables_number   1
_chemical_formula_structural   AgSbTe2
_chemical_formula_sum   'Ag16 Sb16 Te32'
_cell_volume   1862.23267272
_cell_formula_units_Z   16
loop_
 _symmetry_equiv_pos_site_id
 _symmetry_equiv_pos_as_xyz
  1  'x, y, z'
loop_
 _atom_site_type_symbol
 _atom_site_label
 _atom_site_symmetry_multiplicity
 _atom_site_fract_x
 _atom_site_fract_y
 _atom_site_fract_z
 _atom_site_occupancy
  Ag  Ag0  1  0.50071948  0.49908542  0.50606107  1
  Ag  Ag1  1  0.50133866  0.49114834  -0.00626304  1
  Ag  Ag2  1  0.00148687  0.25880604  0.24489532  1
  Ag  Ag3  1  0.74028200  0.49434212  0.75333097  1
  Ag  Ag4  1  0.74894343  0.49278576  0.24841438  1
  Ag  Ag5  1  0.25434873  0.74339141  0.00388694  1
  Ag  Ag6  1  0.25622950  0.25717673  0.00594464  1
  Ag  Ag7  1  0.24951270  0.00208461  0.24755502  1
  Ag  Ag8  1  0.50267500  0.26214944  0.76272169  1
  Ag  Ag9  1  0.25057871  0.74374443  0.49210806  1
  Ag  Ag10  1  0.49664562  0.73225072  0.75279736  1
  Ag  Ag11  1  -0.00082328  0.25953899  0.75698379  1
  Ag  Ag12  1  0.00039181  0.49940200  0.49376773  1
  Ag  Ag13  1  0.49726370  0.26009387  0.23615049  1
  Ag  Ag14  1  0.73947040  0.25817664  0.00094779  1
  Ag  Ag15  1  0.00686281  0.73631021  0.25119413  1
  Sb  Sb16  1  0.00189228  0.00161485  0.00018818  1
  Sb  Sb17  1  0.00109717  0.73662087  0.75008664  1
  Sb  Sb18  1  0.00392765  -0.00004825  0.49846084  1
  Sb  Sb19  1  0.49850144  0.00642938  0.00025114  1
  Sb  Sb20  1  0.74819831  0.74135529  0.49872635  1
  Sb  Sb21  1  0.25012319  0.00143261  0.75142280  1
  Sb  Sb22  1  0.49634527  0.73814914  0.24932780  1
  Sb  Sb23  1  0.24716088  0.49946761  0.24905123  1
  Sb  Sb24  1  0.49595380  0.00035391  0.49841695  1
  Sb  Sb25  1  0.74447994  0.74037801  0.00225927  1
  Sb  Sb26  1  0.74889321  0.25328810  0.49889029  1
  Sb  Sb27  1  0.74842407  0.00711381  0.75244158  1
  Sb  Sb28  1  0.74998314  0.00471132  0.24686461  1
  Sb  Sb29  1  -0.00020519  0.49719079  0.00038260  1
  Sb  Sb30  1  0.25600443  0.49883262  0.75096182  1
  Sb  Sb31  1  0.25069580  0.25250271  0.49670629  1
  Te  Te32  1  0.24778709  0.25072670  0.24969765  1
  Te  Te33  1  0.25100144  0.24905871  0.75426852  1
  Te  Te34  1  0.24738998  0.74698807  0.24518306  1
  Te  Te35  1  0.25323044  0.75099584  0.75895216  1
  Te  Te36  1  0.75302306  0.25325613  0.25137173  1
  Te  Te37  1  0.74631762  0.25324664  0.74963191  1
  Te  Te38  1  0.76068992  0.74959487  0.24796947  1
  Te  Te39  1  0.74582584  0.74680849  0.75155159  1
  Te  Te40  1  0.25049874  -0.00140180  0.00472847  1
  Te  Te41  1  0.25053245  -0.01259297  0.49284893  1
  Te  Te42  1  0.25559800  0.49770792  -0.00287177  1
  Te  Te43  1  0.25007723  0.50375356  0.50354245  1
  Te  Te44  1  0.75037858  0.01666556  -0.00083827  1
  Te  Te45  1  0.74984518  -0.00248811  0.50123021  1
  Te  Te46  1  0.74780320  0.49569045  0.00159364  1
  Te  Te47  1  0.74715646  0.49920593  0.49664047  1
  Te  Te48  1  0.00976652  0.25087478  0.00288342  1
  Te  Te49  1  0.00284770  0.25520350  0.49559100  1
  Te  Te50  1  0.00754810  0.75112795  0.00054775  1
  Te  Te51  1  0.00204189  0.74625971  0.49998608  1
  Te  Te52  1  0.49518821  0.25191725  0.00088614  1
  Te  Te53  1  0.49770826  0.25432851  0.50348229  1
  Te  Te54  1  0.49793307  0.74553162  0.00020232  1
  Te  Te55  1  0.49836671  0.74635954  0.49800492  1
  Te  Te56  1  0.00129538  0.00586647  0.25016726  1
  Te  Te57  1  -0.00202199  0.01928401  0.74993562  1
  Te  Te58  1  -0.00146838  0.49853311  0.24947413  1
  Te  Te59  1  -0.00847665  0.49397299  0.74796108  1
  Te  Te60  1  0.49936371  0.01489590  0.25085997  1
  Te  Te61  1  0.50117172  0.00325583  0.74938740  1
  Te  Te62  1  0.50401145  0.49637681  0.25201607  1
  Te  Te63  1  0.50016752  0.49911655  0.74817958  1
