# generated using pymatgen
data_AgSbTe2
_symmetry_space_group_name_H-M   'P 1'
_cell_length_a   12.21848000
_cell_length_b   12.22079179
_cell_length_c   12.20758250
_cell_angle_alpha   89.99289992
_cell_angle_beta   89.98772954
_cell_angle_gamma   89.99859145
_symmetry_Int_Tables_number   1
_chemical_formula_structural   AgSbTe2
_chemical_formula_sum   'Ag16 Sb16 Te32'
_cell_volume   1822.83005947
_cell_formula_units_Z   16
loop_
 _symmetry_equiv_pos_site_id
 _symmetry_equiv_pos_as_xyz
  1  'x, y, z'
loop_
 _atom_site_type_symbol
 _atom_site_label
 _atom_site_symmetry_multiplicity
 _atom_site_fract_x
 _atom_site_fract_y
 _atom_site_fract_z
 _atom_site_occupancy
  Ag  Ag0  1  0.50439050  0.24731644  0.75291419  1
  Ag  Ag1  1  0.74596436  0.75104508  -0.00160125  1
  Ag  Ag2  1  0.24776495  0.50054334  0.24356205  1
  Ag  Ag3  1  0.75012442  0.75312702  0.50120389  1
  Ag  Ag4  1  -0.00179371  0.24906256  0.24845673  1
  Ag  Ag5  1  0.24628757  -0.00069625  0.24478120  1
  Ag  Ag6  1  -0.00132133  -0.00275248  0.00386661  1
  Ag  Ag7  1  0.75139736  0.24706763  0.49965081  1
  Ag  Ag8  1  0.25309175  0.75058723  0.00182197  1
  Ag  Ag9  1  0.50472590  0.75267832  0.75767065  1
  Ag  Ag10  1  -0.00162464  0.50229682  0.00574408  1
  Ag  Ag11  1  0.50150970  0.50583543  0.00088484  1
  Ag  Ag12  1  0.50243862  -0.00591571  -0.00265191  1
  Ag  Ag13  1  0.74706908  -0.00258024  0.75231771  1
  Ag  Ag14  1  -0.00474040  0.00044021  0.49711317  1
  Ag  Ag15  1  0.75213554  0.50062887  0.24500815  1
  Sb  Sb16  1  0.74788955  0.50263299  0.75522778  1
  Sb  Sb17  1  0.75402437  -0.00063196  0.24821121  1
  Sb  Sb18  1  0.50461951  -0.00120032  0.50175255  1
  Sb  Sb19  1  0.25012533  0.24945710  0.00228883  1
  Sb  Sb20  1  0.24899731  0.24814766  0.49726515  1
  Sb  Sb21  1  -0.00518309  0.75176492  0.75348394  1
  Sb  Sb22  1  0.50082916  0.75085050  0.24158554  1
  Sb  Sb23  1  0.50179455  0.50145300  0.49868554  1
  Sb  Sb24  1  0.74946752  0.24912848  0.00013286  1
  Sb  Sb25  1  0.25275483  -0.00200262  0.75546782  1
  Sb  Sb26  1  -0.00373127  0.49978968  0.49257465  1
  Sb  Sb27  1  -0.00029843  0.75120127  0.24664324  1
  Sb  Sb28  1  -0.00392561  0.24745593  0.75059217  1
  Sb  Sb29  1  0.25034237  0.75271048  0.49839166  1
  Sb  Sb30  1  0.25216269  0.50265885  0.75722778  1
  Sb  Sb31  1  0.50249143  0.24935090  0.24833444  1
  Te  Te32  1  0.24490161  0.25060656  0.25125382  1
  Te  Te33  1  0.25960506  0.25049368  0.74796454  1
  Te  Te34  1  0.25066711  0.74947394  0.24572940  1
  Te  Te35  1  0.25848155  0.74981640  0.75539645  1
  Te  Te36  1  0.75379000  0.25351963  0.25429689  1
  Te  Te37  1  0.74610970  0.24616462  0.74535592  1
  Te  Te38  1  0.74949619  0.74539107  0.24950162  1
  Te  Te39  1  0.74647170  0.75252131  0.75236286  1
  Te  Te40  1  0.24772278  -0.00309558  0.00281579  1
  Te  Te41  1  0.24222428  -0.00219255  0.49281561  1
  Te  Te42  1  0.24976001  0.50307626  0.00448652  1
  Te  Te43  1  0.24934435  0.50161782  0.48929227  1
  Te  Te44  1  0.75062929  -0.00211131  -0.00017514  1
  Te  Te45  1  0.75276556  -0.00191374  0.49932260  1
  Te  Te46  1  0.75016478  0.50210668  0.00295668  1
  Te  Te47  1  0.75088278  0.50178182  0.49438874  1
  Te  Te48  1  -0.00038797  0.24867899  0.00285272  1
  Te  Te49  1  -0.00435147  0.24640620  0.49799919  1
  Te  Te50  1  -0.00121916  0.75181680  -0.00176925  1
  Te  Te51  1  -0.00609502  0.75502719  0.50303160  1
  Te  Te52  1  0.50058499  0.24960209  -0.00372873  1
  Te  Te53  1  0.50625137  0.24997937  0.50554206  1
  Te  Te54  1  0.50259845  0.75063578  -0.00149212  1
  Te  Te55  1  0.50624206  0.75011308  0.50945165  1
  Te  Te56  1  0.00109683  0.00325894  0.24599189  1
  Te  Te57  1  -0.00429757  0.00167094  0.75243137  1
  Te  Te58  1  -0.00057912  0.49611406  0.24591658  1
  Te  Te59  1  0.00116130  0.49832387  0.76016225  1
  Te  Te60  1  0.49338231  0.00212085  0.24398316  1
  Te  Te61  1  0.50304613  -0.00063162  0.75317658  1
  Te  Te62  1  0.49982100  0.49821456  0.24369113  1
  Te  Te63  1  0.49994928  0.49996114  0.75638732  1
