# generated using pymatgen
data_AgSbTe2
_symmetry_space_group_name_H-M   'P 1'
_cell_length_a   12.28576756
_cell_length_b   12.30411665
_cell_length_c   12.31437591
_cell_angle_alpha   89.99752723
_cell_angle_beta   90.00254742
_cell_angle_gamma   90.01532804
_symmetry_Int_Tables_number   1
_chemical_formula_structural   AgSbTe2
_chemical_formula_sum   'Ag16 Sb16 Te32'
_cell_volume   1861.50893386
_cell_formula_units_Z   16
loop_
 _symmetry_equiv_pos_site_id
 _symmetry_equiv_pos_as_xyz
  1  'x, y, z'
loop_
 _atom_site_type_symbol
 _atom_site_label
 _atom_site_symmetry_multiplicity
 _atom_site_fract_x
 _atom_site_fract_y
 _atom_site_fract_z
 _atom_site_occupancy
  Ag  Ag0  1  0.51749375  0.74717965  0.26640322  1
  Ag  Ag1  1  0.74739381  0.50974126  0.26096451  1
  Ag  Ag2  1  -0.00905315  -0.00701156  -0.00266921  1
  Ag  Ag3  1  0.74069189  0.74453700  0.50259208  1
  Ag  Ag4  1  0.75305457  0.74860157  -0.00308242  1
  Ag  Ag5  1  0.25971999  0.24765872  0.50330069  1
  Ag  Ag6  1  0.51595514  0.74629309  0.73507517  1
  Ag  Ag7  1  0.74856297  0.25124839  -0.00674864  1
  Ag  Ag8  1  0.51244560  -0.00354144  0.50264655  1
  Ag  Ag9  1  0.50949008  0.50433092  0.50402778  1
  Ag  Ag10  1  -0.01851398  0.75199943  0.74365232  1
  Ag  Ag11  1  -0.01644334  0.75191887  0.25663727  1
  Ag  Ag12  1  -0.01228116  -0.00728081  0.50101927  1
  Ag  Ag13  1  0.51060829  0.25252592  0.73879026  1
  Ag  Ag14  1  0.74371242  0.25522358  0.50842823  1
  Ag  Ag15  1  0.74547697  0.50832415  0.73987539  1
  Sb  Sb16  1  0.50345530  0.50135952  -0.00349837  1
  Sb  Sb17  1  0.25638217  0.50025744  0.74405501  1
  Sb  Sb18  1  0.50916581  -0.00255497  -0.00183677  1
  Sb  Sb19  1  0.25268914  0.24659822  -0.00540735  1
  Sb  Sb20  1  -0.00657677  0.50551914  -0.00017557  1
  Sb  Sb21  1  0.74977901  -0.01133157  0.25366941  1
  Sb  Sb22  1  0.74977637  -0.01100667  0.74580211  1
  Sb  Sb23  1  -0.01496303  0.24882258  0.74625312  1
  Sb  Sb24  1  -0.00708136  0.24786924  0.25333611  1
  Sb  Sb25  1  0.25368630  0.75213018  0.50031650  1
  Sb  Sb26  1  0.25486875  0.50197611  0.25657983  1
  Sb  Sb27  1  -0.00925521  0.50848599  0.50044165  1
  Sb  Sb28  1  0.24973095  -0.00063298  0.25243264  1
  Sb  Sb29  1  0.24704335  0.75135440  -0.00076096  1
  Sb  Sb30  1  0.25013964  0.00084575  0.74778511  1
  Sb  Sb31  1  0.50755007  0.25254464  0.25999820  1
  Te  Te32  1  0.24981330  0.25190632  0.25476394  1
  Te  Te33  1  0.26295030  0.25168041  0.74660030  1
  Te  Te34  1  0.24868334  0.74880146  0.24780313  1
  Te  Te35  1  0.25308492  0.74799032  0.75200150  1
  Te  Te36  1  0.74862180  0.26699499  0.24736690  1
  Te  Te37  1  0.74807393  0.25832870  0.74772980  1
  Te  Te38  1  0.74886856  0.74561850  0.25398542  1
  Te  Te39  1  0.74848016  0.74831850  0.74615305  1
  Te  Te40  1  0.23283305  0.00120402  0.00110599  1
  Te  Te41  1  0.24954281  0.00641406  0.50066845  1
  Te  Te42  1  0.24858006  0.49714539  0.00210695  1
  Te  Te43  1  0.26526967  0.48990693  0.50032717  1
  Te  Te44  1  0.75374784  0.00057007  0.00299287  1
  Te  Te45  1  0.74937361  -0.00147404  0.49904393  1
  Te  Te46  1  0.74897150  0.50139818  -0.00178250  1
  Te  Te47  1  0.74743948  0.50515310  0.50242365  1
  Te  Te48  1  -0.00467808  0.24274204  -0.00015713  1
  Te  Te49  1  -0.00972779  0.24124511  0.50037205  1
  Te  Te50  1  -0.00425209  0.75210186  -0.00213096  1
  Te  Te51  1  0.00625635  0.75170857  0.50176966  1
  Te  Te52  1  0.50494204  0.24655729  -0.00740101  1
  Te  Te53  1  0.51028478  0.24439127  0.50064106  1
  Te  Te54  1  0.50594076  0.75262928  -0.00359044  1
  Te  Te55  1  0.49786860  0.75322611  0.50204928  1
  Te  Te56  1  -0.00061667  -0.00642103  0.25841670  1
  Te  Te57  1  -0.00048682  -0.00624226  0.74325324  1
  Te  Te58  1  -0.00514994  0.50960585  0.25112215  1
  Te  Te59  1  -0.00719475  0.50845053  0.74832047  1
  Te  Te60  1  0.50085092  -0.00866373  0.25626112  1
  Te  Te61  1  0.50076928  -0.00479503  0.74553782  1
  Te  Te62  1  0.50289122  0.50419322  0.25300209  1
  Te  Te63  1  0.50326355  0.50532822  0.74934022  1
