# generated using pymatgen
data_AgSbTe2
_symmetry_space_group_name_H-M   'P 1'
_cell_length_a   12.21963159
_cell_length_b   12.23530604
_cell_length_c   12.23059667
_cell_angle_alpha   90.00086422
_cell_angle_beta   89.99390744
_cell_angle_gamma   89.99110571
_symmetry_Int_Tables_number   1
_chemical_formula_structural   AgSbTe2
_chemical_formula_sum   'Ag16 Sb16 Te32'
_cell_volume   1828.60787681
_cell_formula_units_Z   16
loop_
 _symmetry_equiv_pos_site_id
 _symmetry_equiv_pos_as_xyz
  1  'x, y, z'
loop_
 _atom_site_type_symbol
 _atom_site_label
 _atom_site_symmetry_multiplicity
 _atom_site_fract_x
 _atom_site_fract_y
 _atom_site_fract_z
 _atom_site_occupancy
  Ag  Ag0  1  0.49549135  0.25162980  0.24919930  1
  Ag  Ag1  1  0.49467632  -0.00840241  -0.00214782  1
  Ag  Ag2  1  0.00575879  0.75582141  0.74839860  1
  Ag  Ag3  1  0.75151776  -0.00401315  0.75002349  1
  Ag  Ag4  1  0.25379528  0.75267944  0.50219361  1
  Ag  Ag5  1  0.49654586  0.50841604  0.00126653  1
  Ag  Ag6  1  0.00493813  -0.00331128  0.50785461  1
  Ag  Ag7  1  0.49102842  0.74758841  0.24575688  1
  Ag  Ag8  1  0.24873703  -0.00877259  0.74974216  1
  Ag  Ag9  1  0.49652049  0.50550540  0.49928123  1
  Ag  Ag10  1  0.00143280  0.24374487  0.74811097  1
  Ag  Ag11  1  0.49378638  0.75132710  0.75397632  1
  Ag  Ag12  1  0.74558951  0.50433282  0.75019846  1
  Ag  Ag13  1  0.25752170  0.75307666  -0.00176992  1
  Ag  Ag14  1  0.25550732  -0.00760199  0.24916525  1
  Ag  Ag15  1  0.25813726  0.50742080  0.25014901  1
  Sb  Sb16  1  0.74465038  -0.00197028  0.24982796  1
  Sb  Sb17  1  0.00399814  0.50411285  -0.00307722  1
  Sb  Sb18  1  0.01055414  0.75206130  0.25164343  1
  Sb  Sb19  1  0.74071638  0.75023688  -0.00517723  1
  Sb  Sb20  1  0.00448754  0.24716784  0.25246785  1
  Sb  Sb21  1  0.00510267  -0.00340112  -0.00750247  1
  Sb  Sb22  1  0.00308130  0.50310198  0.50386478  1
  Sb  Sb23  1  0.74831240  0.24924380  0.50240588  1
  Sb  Sb24  1  0.74747455  0.24955326  -0.00248247  1
  Sb  Sb25  1  0.25287092  0.24779792  -0.00060213  1
  Sb  Sb26  1  0.74012467  0.50197624  0.24944730  1
  Sb  Sb27  1  0.25508510  0.50885483  0.75016623  1
  Sb  Sb28  1  0.49868589  0.24873394  0.74994520  1
  Sb  Sb29  1  0.49556962  -0.00510808  0.50125253  1
  Sb  Sb30  1  0.25149033  0.24821153  0.50094478  1
  Sb  Sb31  1  0.74563657  0.75044575  0.50423095  1
  Te  Te32  1  0.25449178  0.24856449  0.25019208  1
  Te  Te33  1  0.24525522  0.24164278  0.74970464  1
  Te  Te34  1  0.25223093  0.75194209  0.25013679  1
  Te  Te35  1  0.25326334  0.75096766  0.74940805  1
  Te  Te36  1  0.74309273  0.24982117  0.24973502  1
  Te  Te37  1  0.75377109  0.24797148  0.74993403  1
  Te  Te38  1  0.74262042  0.75015376  0.25031415  1
  Te  Te39  1  0.74907692  0.75142766  0.75002572  1
  Te  Te40  1  0.25394610  -0.00323154  0.00022585  1
  Te  Te41  1  0.24917799  -0.00389603  0.50125270  1
  Te  Te42  1  0.25483321  0.50432209  0.00300860  1
  Te  Te43  1  0.25429007  0.50496110  0.49718104  1
  Te  Te44  1  0.74276536  -0.00016018  -0.00522857  1
  Te  Te45  1  0.75661012  -0.00022680  0.50610295  1
  Te  Te46  1  0.74365210  0.49984952  -0.00506265  1
  Te  Te47  1  0.74529470  0.49971050  0.50503627  1
  Te  Te48  1  -0.00033509  0.25082421  -0.00717324  1
  Te  Te49  1  0.00004636  0.24588655  0.50488717  1
  Te  Te50  1  0.00952255  0.74963567  -0.00449627  1
  Te  Te51  1  0.00620182  0.75323062  0.50294819  1
  Te  Te52  1  0.49909946  0.25070188  0.00412162  1
  Te  Te53  1  0.49917643  0.25829104  0.49491637  1
  Te  Te54  1  0.49652666  0.75056233  -0.00266703  1
  Te  Te55  1  0.49573223  0.74731050  0.50256881  1
  Te  Te56  1  0.00391153  0.00150799  0.25484994  1
  Te  Te57  1  0.00140725  -0.00342326  0.74981681  1
  Te  Te58  1  0.00560004  0.49816377  0.25013831  1
  Te  Te59  1  -0.00533738  0.50206480  0.74944102  1
  Te  Te60  1  0.49766362  -0.00240690  0.25023393  1
  Te  Te61  1  0.49835356  -0.00015658  0.75035766  1
  Te  Te62  1  0.49814295  0.50355196  0.24850580  1
  Te  Te63  1  0.50109090  0.49997571  0.75083021  1
