# generated using pymatgen
data_AgSbTe2
_symmetry_space_group_name_H-M   'P 1'
_cell_length_a   12.27055914
_cell_length_b   12.25497755
_cell_length_c   12.26208877
_cell_angle_alpha   90.00090062
_cell_angle_beta   90.00305867
_cell_angle_gamma   90.00029235
_symmetry_Int_Tables_number   1
_chemical_formula_structural   AgSbTe2
_chemical_formula_sum   'Ag16 Sb16 Te32'
_cell_volume   1843.91682873
_cell_formula_units_Z   16
loop_
 _symmetry_equiv_pos_site_id
 _symmetry_equiv_pos_as_xyz
  1  'x, y, z'
loop_
 _atom_site_type_symbol
 _atom_site_label
 _atom_site_symmetry_multiplicity
 _atom_site_fract_x
 _atom_site_fract_y
 _atom_site_fract_z
 _atom_site_occupancy
  Ag  Ag0  1  0.24985911  0.24208960  0.00156619  1
  Ag  Ag1  1  0.75341592  0.49643104  0.76004851  1
  Ag  Ag2  1  0.00083738  0.75510627  0.23998479  1
  Ag  Ag3  1  0.24650153  0.49914810  0.23985025  1
  Ag  Ag4  1  -0.00119429  0.50035790  0.00017057  1
  Ag  Ag5  1  -0.00230017  0.75530135  0.76019708  1
  Ag  Ag6  1  0.50127848  0.49435049  0.00002777  1
  Ag  Ag7  1  0.75224250  0.00444823  0.76073313  1
  Ag  Ag8  1  0.75015690  0.24180208  -0.00337025  1
  Ag  Ag9  1  0.50537838  0.00350548  0.50012403  1
  Ag  Ag10  1  0.74792985  0.24289803  0.50262088  1
  Ag  Ag11  1  -0.00109452  -0.00008251  -0.00003261  1
  Ag  Ag12  1  0.24729365  0.00083839  0.23560903  1
  Ag  Ag13  1  0.75226512  0.00212128  0.23904001  1
  Ag  Ag14  1  0.50113511  0.00592998  -0.00002193  1
  Ag  Ag15  1  0.24732360  0.00056627  0.76500771  1
  Sb  Sb16  1  0.24484958  0.49890150  0.76727304  1
  Sb  Sb17  1  0.50117255  0.75352657  0.75292458  1
  Sb  Sb18  1  0.50367741  0.49306226  0.49949829  1
  Sb  Sb19  1  0.50236510  0.24659370  0.75444414  1
  Sb  Sb20  1  0.75479082  0.49830872  0.23444591  1
  Sb  Sb21  1  0.00020012  0.24262644  0.24496463  1
  Sb  Sb22  1  0.24955666  0.75259252  0.50005928  1
  Sb  Sb23  1  0.25343470  0.24596699  0.49954509  1
  Sb  Sb24  1  -0.00284052  0.24268799  0.75507951  1
  Sb  Sb25  1  -0.00141026  0.49926135  0.49986078  1
  Sb  Sb26  1  0.50057379  0.24676189  0.24543115  1
  Sb  Sb27  1  0.74976521  0.75690458  0.50028769  1
  Sb  Sb28  1  0.75448122  0.76359752  -0.00093104  1
  Sb  Sb29  1  -0.00636290  0.00084396  0.49997200  1
  Sb  Sb30  1  0.24556527  0.76347138  0.00106551  1
  Sb  Sb31  1  0.50034733  0.75348710  0.24728107  1
  Te  Te32  1  0.24917457  0.24539130  0.24366819  1
  Te  Te33  1  0.24852129  0.24178439  0.75634258  1
  Te  Te34  1  0.24046523  0.75454865  0.25059182  1
  Te  Te35  1  0.23838340  0.75879746  0.74743418  1
  Te  Te36  1  0.75073162  0.24210564  0.24452320  1
  Te  Te37  1  0.75138830  0.24559991  0.75729619  1
  Te  Te38  1  0.76059191  0.75883431  0.25308924  1
  Te  Te39  1  0.75884032  0.75240458  0.74888695  1
  Te  Te40  1  0.24985818  0.00374586  0.00206945  1
  Te  Te41  1  0.25975262  0.00629954  0.49694384  1
  Te  Te42  1  0.24873140  0.48925773  0.00028618  1
  Te  Te43  1  0.25388811  0.49350929  0.48694519  1
  Te  Te44  1  0.75038732  0.00334921  -0.00188956  1
  Te  Te45  1  0.74600136  0.00617399  0.50249654  1
  Te  Te46  1  0.75139693  0.48943791  0.00007934  1
  Te  Te47  1  0.74558642  0.48869286  0.50925940  1
  Te  Te48  1  -0.00148375  0.24885783  0.00028741  1
  Te  Te49  1  -0.01315605  0.25087872  0.49973395  1
  Te  Te50  1  -0.00051955  0.75032827  0.00010572  1
  Te  Te51  1  -0.00019111  0.74901559  0.49978805  1
  Te  Te52  1  0.50143396  0.24718942  -0.00000807  1
  Te  Te53  1  0.50895579  0.24133141  0.50010910  1
  Te  Te54  1  0.50023613  0.74894482  0.00003916  1
  Te  Te55  1  0.50020961  0.76407023  0.49997794  1
  Te  Te56  1  0.00188122  -0.00385755  0.24811500  1
  Te  Te57  1  -0.00306894  -0.00398541  0.75183467  1
  Te  Te58  1  0.00187747  0.50913280  0.24325420  1
  Te  Te59  1  -0.00234553  0.50940905  0.75651365  1
  Te  Te60  1  0.49870627  -0.00391444  0.24237347  1
  Te  Te61  1  0.50287931  -0.00379087  0.75744424  1
  Te  Te62  1  0.49406472  0.50654026  0.24205114  1
  Te  Te63  1  0.50562688  0.50651081  0.75760083  1
