# generated using pymatgen
data_AgSbTe2
_symmetry_space_group_name_H-M   'P 1'
_cell_length_a   12.21723407
_cell_length_b   12.22932191
_cell_length_c   12.23547560
_cell_angle_alpha   90.00659596
_cell_angle_beta   90.00098716
_cell_angle_gamma   89.98682187
_symmetry_Int_Tables_number   1
_chemical_formula_structural   AgSbTe2
_chemical_formula_sum   'Ag16 Sb16 Te32'
_cell_volume   1828.08385194
_cell_formula_units_Z   16
loop_
 _symmetry_equiv_pos_site_id
 _symmetry_equiv_pos_as_xyz
  1  'x, y, z'
loop_
 _atom_site_type_symbol
 _atom_site_label
 _atom_site_symmetry_multiplicity
 _atom_site_fract_x
 _atom_site_fract_y
 _atom_site_fract_z
 _atom_site_occupancy
  Ag  Ag0  1  0.00138143  0.00563445  0.49604962  1
  Ag  Ag1  1  0.24398090  0.25107750  0.00112562  1
  Ag  Ag2  1  0.00290560  0.74592210  0.75625728  1
  Ag  Ag3  1  0.00617684  0.25393329  0.74808446  1
  Ag  Ag4  1  0.24147320  0.49765279  0.75265899  1
  Ag  Ag5  1  0.49860293  0.00446239  0.49472204  1
  Ag  Ag6  1  0.00429578  0.24778325  0.25233597  1
  Ag  Ag7  1  0.00471210  0.50277220  -0.00329276  1
  Ag  Ag8  1  0.00433569  0.49449811  0.50326094  1
  Ag  Ag9  1  0.75993264  0.75208578  0.00219934  1
  Ag  Ag10  1  0.49863821  0.00180804  0.00594049  1
  Ag  Ag11  1  0.24204944  0.24897356  0.49872716  1
  Ag  Ag12  1  0.75265798  0.00023117  0.24899311  1
  Ag  Ag13  1  0.49680240  0.24296573  0.24969925  1
  Ag  Ag14  1  0.24044324  0.74903420  -0.00079337  1
  Ag  Ag15  1  0.00000906  0.75204546  0.24402470  1
  Sb  Sb16  1  0.49349899  0.24811124  0.75007064  1
  Sb  Sb17  1  0.00126889  -0.00276150  0.00509712  1
  Sb  Sb18  1  0.49664473  0.75134221  0.75256102  1
  Sb  Sb19  1  0.75957781  0.50184991  0.75224376  1
  Sb  Sb20  1  0.49584895  0.49831733  0.00096974  1
  Sb  Sb21  1  0.75884605  0.24808605  0.49827549  1
  Sb  Sb22  1  0.75540042  0.50058285  0.24789745  1
  Sb  Sb23  1  0.75399629  -0.00158229  0.75234291  1
  Sb  Sb24  1  0.75475544  0.75332166  0.49792635  1
  Sb  Sb25  1  0.49924546  0.75739958  0.24731000  1
  Sb  Sb26  1  0.24489928  0.75012444  0.50019567  1
  Sb  Sb27  1  0.24536811  0.49774579  0.24741139  1
  Sb  Sb28  1  0.24695593  0.00256056  0.25006720  1
  Sb  Sb29  1  0.75583486  0.24814834  0.00282598  1
  Sb  Sb30  1  0.49476738  0.49460453  0.49899127  1
  Sb  Sb31  1  0.24548612  0.00176845  0.75045550  1
  Te  Te32  1  0.24634148  0.25054597  0.24873028  1
  Te  Te33  1  0.24493841  0.25193639  0.75190060  1
  Te  Te34  1  0.24431353  0.74876493  0.24359664  1
  Te  Te35  1  0.24538989  0.74605554  0.75441782  1
  Te  Te36  1  0.75089703  0.24428576  0.24919958  1
  Te  Te37  1  0.75947735  0.25049419  0.75070154  1
  Te  Te38  1  0.75440538  0.75463845  0.24574126  1
  Te  Te39  1  0.75601943  0.74963789  0.75726784  1
  Te  Te40  1  0.25514599  0.00119374  -0.00037711  1
  Te  Te41  1  0.24914808  0.00442667  0.50069994  1
  Te  Te42  1  0.24638577  0.49828887  -0.00297445  1
  Te  Te43  1  0.24475045  0.49611676  0.50520505  1
  Te  Te44  1  0.74471616  -0.00332908  0.00375028  1
  Te  Te45  1  0.74989451  -0.00050865  0.49475499  1
  Te  Te46  1  0.75499833  0.50709608  -0.00034276  1
  Te  Te47  1  0.75688392  0.50091404  0.50052653  1
  Te  Te48  1  0.00317997  0.24871520  0.00261127  1
  Te  Te49  1  0.00245250  0.24939948  0.49709142  1
  Te  Te50  1  0.00254688  0.75326635  0.00100360  1
  Te  Te51  1  0.00186955  0.75060352  0.49888334  1
  Te  Te52  1  0.49581627  0.24693075  0.00138683  1
  Te  Te53  1  0.49428202  0.24662549  0.49860242  1
  Te  Te54  1  0.49748299  0.75316841  0.00070133  1
  Te  Te55  1  0.49939029  0.75718849  0.49925973  1
  Te  Te56  1  -0.00304186  0.00132093  0.25316350  1
  Te  Te57  1  -0.00119089  0.00019434  0.74157884  1
  Te  Te58  1  -0.00136827  0.49887709  0.24897863  1
  Te  Te59  1  0.00270470  0.49992711  0.75164868  1
  Te  Te60  1  0.50395275  0.00299920  0.25049944  1
  Te  Te61  1  0.50242106  -0.00012951  0.74736980  1
  Te  Te62  1  0.50305034  0.48979360  0.25141505  1
  Te  Te63  1  0.49195382  0.50006284  0.74837376  1
