# generated using pymatgen
data_AgSbTe2
_symmetry_space_group_name_H-M   'P 1'
_cell_length_a   12.28077249
_cell_length_b   12.26568663
_cell_length_c   12.27347649
_cell_angle_alpha   90.00230151
_cell_angle_beta   89.99336135
_cell_angle_gamma   89.99758653
_symmetry_Int_Tables_number   1
_chemical_formula_structural   AgSbTe2
_chemical_formula_sum   'Ag16 Sb16 Te32'
_cell_volume   1848.77960632
_cell_formula_units_Z   16
loop_
 _symmetry_equiv_pos_site_id
 _symmetry_equiv_pos_as_xyz
  1  'x, y, z'
loop_
 _atom_site_type_symbol
 _atom_site_label
 _atom_site_symmetry_multiplicity
 _atom_site_fract_x
 _atom_site_fract_y
 _atom_site_fract_z
 _atom_site_occupancy
  Ag  Ag0  1  0.00176510  0.76180989  0.25152619  1
  Ag  Ag1  1  0.49725261  0.75449328  0.74026496  1
  Ag  Ag2  1  0.24893107  0.23778377  0.00667284  1
  Ag  Ag3  1  0.50112628  0.00079330  0.49390165  1
  Ag  Ag4  1  0.26062286  0.75699729  0.49655902  1
  Ag  Ag5  1  0.49280440  0.00128161  0.00660614  1
  Ag  Ag6  1  0.00292208  0.24347877  0.74702861  1
  Ag  Ag7  1  0.74938546  0.00320486  0.25558423  1
  Ag  Ag8  1  0.49913271  0.50031167  0.49827340  1
  Ag  Ag9  1  0.25187039  0.76237390  0.00473324  1
  Ag  Ag10  1  0.73902582  0.75805603  0.49529882  1
  Ag  Ag11  1  0.00212902  0.23978082  0.25112006  1
  Ag  Ag12  1  0.49803098  0.24069692  0.26048728  1
  Ag  Ag13  1  0.25658891  0.24326692  0.49229259  1
  Ag  Ag14  1  0.00808066  0.00403820  0.00868306  1
  Ag  Ag15  1  0.74273026  0.24237654  0.49352242  1
  Sb  Sb16  1  0.00232823  0.49671993  0.00199908  1
  Sb  Sb17  1  0.49686518  0.49934138  0.00314264  1
  Sb  Sb18  1  0.49780599  0.76204730  0.25585564  1
  Sb  Sb19  1  0.24928483  0.00031293  0.74926070  1
  Sb  Sb20  1  0.74752172  0.49895294  0.74601120  1
  Sb  Sb21  1  0.49835077  0.24567900  0.74468290  1
  Sb  Sb22  1  0.25277281  0.49902747  0.25184638  1
  Sb  Sb23  1  0.75035130  0.00133768  0.73976901  1
  Sb  Sb24  1  0.00266938  0.49841180  0.49910209  1
  Sb  Sb25  1  0.25211547  0.49957476  0.74807414  1
  Sb  Sb26  1  0.75031368  0.24422702  0.00740105  1
  Sb  Sb27  1  -0.00044379  0.00182295  0.48961694  1
  Sb  Sb28  1  0.74650172  0.75715581  0.00819110  1
  Sb  Sb29  1  0.00033093  0.75745567  0.75035984  1
  Sb  Sb30  1  0.74757823  0.49767912  0.25359816  1
  Sb  Sb31  1  0.25030021  0.00233785  0.25002621  1
  Te  Te32  1  0.24724003  0.24913713  0.25272481  1
  Te  Te33  1  0.24626611  0.24944057  0.74852969  1
  Te  Te34  1  0.24506862  0.74983036  0.25185468  1
  Te  Te35  1  0.25095425  0.75083548  0.74617464  1
  Te  Te36  1  0.75235559  0.24741181  0.25512985  1
  Te  Te37  1  0.75472989  0.24921161  0.73760437  1
  Te  Te38  1  0.75532661  0.75391523  0.25564386  1
  Te  Te39  1  0.74984164  0.75013189  0.73706112  1
  Te  Te40  1  0.25371254  0.00081959  0.00031767  1
  Te  Te41  1  0.25497195  0.00008301  0.49974293  1
  Te  Te42  1  0.25139298  0.50116579  -0.00050371  1
  Te  Te43  1  0.25762791  0.50031629  0.49968408  1
  Te  Te44  1  0.74463600  0.00015451  0.01163053  1
  Te  Te45  1  0.74946899  0.00111467  0.49414664  1
  Te  Te46  1  0.74843971  0.50103953  -0.00069297  1
  Te  Te47  1  0.74097623  0.50029479  0.49846063  1
  Te  Te48  1  0.00239522  0.24805391  0.00944887  1
  Te  Te49  1  0.00554187  0.24839698  0.49232827  1
  Te  Te50  1  0.00488420  0.75231237  -0.00175077  1
  Te  Te51  1  0.00523053  0.75053672  0.49991637  1
  Te  Te52  1  0.49685435  0.24869745  -0.00403269  1
  Te  Te53  1  0.49585816  0.24244598  0.50247796  1
  Te  Te54  1  0.49558235  0.75080281  0.00240459  1
  Te  Te55  1  0.49598361  0.75667392  0.49548931  1
  Te  Te56  1  -0.00496498  0.00223344  0.24732237  1
  Te  Te57  1  -0.00253170  0.00648015  0.76651653  1
  Te  Te58  1  -0.00185169  0.49789584  0.25078204  1
  Te  Te59  1  -0.00161454  0.48566445  0.74970236  1
  Te  Te60  1  0.50488873  0.00512686  0.25015339  1
  Te  Te61  1  0.50148696  -0.00550616  0.75207489  1
  Te  Te62  1  0.50132094  0.48159477  0.25602575  1
  Te  Te63  1  0.50088169  0.51086085  0.74214036  1
