# generated using pymatgen
data_AgSbTe2
_symmetry_space_group_name_H-M   'P 1'
_cell_length_a   12.21613425
_cell_length_b   12.22049001
_cell_length_c   12.21232913
_cell_angle_alpha   89.99912867
_cell_angle_beta   90.00547429
_cell_angle_gamma   89.99969124
_symmetry_Int_Tables_number   1
_chemical_formula_structural   AgSbTe2
_chemical_formula_sum   'Ag16 Sb16 Te32'
_cell_volume   1823.14376089
_cell_formula_units_Z   16
loop_
 _symmetry_equiv_pos_site_id
 _symmetry_equiv_pos_as_xyz
  1  'x, y, z'
loop_
 _atom_site_type_symbol
 _atom_site_label
 _atom_site_symmetry_multiplicity
 _atom_site_fract_x
 _atom_site_fract_y
 _atom_site_fract_z
 _atom_site_occupancy
  Ag  Ag0  1  0.25281608  0.25061038  0.49330347  1
  Ag  Ag1  1  0.25429408  0.50027566  0.25346534  1
  Ag  Ag2  1  0.25469359  0.74951081  0.49282773  1
  Ag  Ag3  1  0.74494213  -0.00073787  0.24680445  1
  Ag  Ag4  1  0.00147425  0.00168162  0.00304161  1
  Ag  Ag5  1  0.49578848  0.50231793  0.49784107  1
  Ag  Ag6  1  0.49313073  0.75557609  0.25271026  1
  Ag  Ag7  1  0.00661305  0.75454301  0.25040272  1
  Ag  Ag8  1  0.74792893  0.00012072  0.75269136  1
  Ag  Ag9  1  0.49961795  0.75196676  0.74791373  1
  Ag  Ag10  1  0.74739892  0.49998625  0.74850982  1
  Ag  Ag11  1  0.25534318  -0.00019677  0.24771403  1
  Ag  Ag12  1  0.49241845  0.24423369  0.25009088  1
  Ag  Ag13  1  0.49850146  0.00043375  0.00637777  1
  Ag  Ag14  1  0.25138343  0.24523206  0.00573036  1
  Ag  Ag15  1  0.00069937  0.24730808  0.75123421  1
  Sb  Sb16  1  0.25201452  0.50002309  0.74695644  1
  Sb  Sb17  1  0.49710750  0.49929819  0.00136788  1
  Sb  Sb18  1  0.00859081  0.24494137  0.24878976  1
  Sb  Sb19  1  0.00473472  0.49949367  0.49886164  1
  Sb  Sb20  1  0.00035779  0.75336774  0.74938715  1
  Sb  Sb21  1  0.74689482  0.25014715  0.49895665  1
  Sb  Sb22  1  0.74837050  0.75356707  0.00049712  1
  Sb  Sb23  1  0.49970118  0.24731564  0.74916785  1
  Sb  Sb24  1  0.00218596  -0.00006029  0.49691438  1
  Sb  Sb25  1  0.74599248  0.50062096  0.25125513  1
  Sb  Sb26  1  0.49777590  -0.00232080  0.49324708  1
  Sb  Sb27  1  0.00335394  0.49829847  0.00104732  1
  Sb  Sb28  1  0.74465248  0.74972030  0.49913226  1
  Sb  Sb29  1  0.25248647  0.00015408  0.75309955  1
  Sb  Sb30  1  0.25158699  0.75501239  0.00909085  1
  Sb  Sb31  1  0.74916627  0.24592634  0.00030338  1
  Te  Te32  1  0.25092648  0.24853591  0.25150144  1
  Te  Te33  1  0.24697258  0.25002354  0.74871350  1
  Te  Te34  1  0.25321683  0.75127809  0.25100989  1
  Te  Te35  1  0.25451469  0.74901083  0.74230624  1
  Te  Te36  1  0.74361246  0.24598006  0.25137874  1
  Te  Te37  1  0.75325721  0.24681846  0.74943712  1
  Te  Te38  1  0.74779779  0.75399253  0.25099500  1
  Te  Te39  1  0.74677597  0.75278293  0.74950156  1
  Te  Te40  1  0.25129540  0.00368650  0.00309580  1
  Te  Te41  1  0.24990972  0.00106901  0.49479065  1
  Te  Te42  1  0.24998305  0.49112129  0.00629499  1
  Te  Te43  1  0.25406695  0.49920145  0.49628212  1
  Te  Te44  1  0.74895136  0.00075080  0.00122151  1
  Te  Te45  1  0.75070316  0.00051656  0.50096839  1
  Te  Te46  1  0.75056867  0.49842175  -0.00805265  1
  Te  Te47  1  0.74240874  0.49947872  0.50470447  1
  Te  Te48  1  0.00513992  0.24529315  -0.00270584  1
  Te  Te49  1  0.00727771  0.25058597  0.50514583  1
  Te  Te50  1  0.00140708  0.75668541  0.00433270  1
  Te  Te51  1  0.00855177  0.74939602  0.49521484  1
  Te  Te52  1  0.49464000  0.24547929  0.00324287  1
  Te  Te53  1  0.49486323  0.25459835  0.49749698  1
  Te  Te54  1  0.49842363  0.75523800  0.00019460  1
  Te  Te55  1  0.49588614  0.74755700  0.49814065  1
  Te  Te56  1  -0.00046564  -0.00210830  0.24647575  1
  Te  Te57  1  -0.00382441  0.00074280  0.75532683  1
  Te  Te58  1  0.00152482  0.50662984  0.24912730  1
  Te  Te59  1  -0.00551381  0.49764648  0.75073171  1
  Te  Te60  1  0.49923500  -0.00103735  0.24914264  1
  Te  Te61  1  0.50336340  -0.00265397  0.75516812  1
  Te  Te62  1  0.49929530  0.50170639  0.25151993  1
  Te  Te63  1  0.50321837  0.50320494  0.74856309  1
