# generated using pymatgen
data_AgSbTe2
_symmetry_space_group_name_H-M   'P 1'
_cell_length_a   12.21374174
_cell_length_b   12.22037607
_cell_length_c   12.23011219
_cell_angle_alpha   90.00192816
_cell_angle_beta   90.00331989
_cell_angle_gamma   90.00086370
_symmetry_Int_Tables_number   1
_chemical_formula_structural   AgSbTe2
_chemical_formula_sum   'Ag16 Sb16 Te32'
_cell_volume   1825.42394641
_cell_formula_units_Z   16
loop_
 _symmetry_equiv_pos_site_id
 _symmetry_equiv_pos_as_xyz
  1  'x, y, z'
loop_
 _atom_site_type_symbol
 _atom_site_label
 _atom_site_symmetry_multiplicity
 _atom_site_fract_x
 _atom_site_fract_y
 _atom_site_fract_z
 _atom_site_occupancy
  Ag  Ag0  1  0.75111126  0.50648018  0.75350567  1
  Ag  Ag1  1  0.24597698  0.49756220  0.25214752  1
  Ag  Ag2  1  0.74639530  0.75312228  -0.00272041  1
  Ag  Ag3  1  0.24628258  0.25530432  0.49497985  1
  Ag  Ag4  1  -0.00347192  0.49663763  0.00317516  1
  Ag  Ag5  1  0.00215480  0.50021058  0.49656021  1
  Ag  Ag6  1  0.50771852  0.75095502  0.75085738  1
  Ag  Ag7  1  0.74807531  -0.00388327  0.24350878  1
  Ag  Ag8  1  0.74773618  0.74854219  0.50250743  1
  Ag  Ag9  1  0.25127469  0.74524089  0.49766643  1
  Ag  Ag10  1  0.50756424  -0.00327024  0.00077465  1
  Ag  Ag11  1  0.50438480  0.75083003  0.24924481  1
  Ag  Ag12  1  0.74626971  -0.00688350  0.75654609  1
  Ag  Ag13  1  0.24667241  0.25270761  0.00479854  1
  Ag  Ag14  1  0.00189453  0.25479379  0.24677699  1
  Ag  Ag15  1  0.75240468  0.24804292  0.00148634  1
  Sb  Sb16  1  -0.00144377  0.00022250  0.49785147  1
  Sb  Sb17  1  0.50299373  0.50216917  0.00057017  1
  Sb  Sb18  1  -0.00076713  0.25245276  0.75304268  1
  Sb  Sb19  1  0.25116524  0.00065319  0.24819762  1
  Sb  Sb20  1  0.50241937  0.24970303  0.75247349  1
  Sb  Sb21  1  0.75266531  0.50235988  0.24788737  1
  Sb  Sb22  1  0.75342270  0.25178214  0.49887934  1
  Sb  Sb23  1  -0.00739465  0.00273016  0.00252489  1
  Sb  Sb24  1  0.50176848  -0.00356373  0.49926964  1
  Sb  Sb25  1  0.24949954  0.50227387  0.74912120  1
  Sb  Sb26  1  0.49946800  0.24989504  0.24709292  1
  Sb  Sb27  1  0.25341777  -0.00257799  0.75234666  1
  Sb  Sb28  1  -0.00230210  0.74666118  0.25007635  1
  Sb  Sb29  1  -0.00846860  0.74799722  0.74961774  1
  Sb  Sb30  1  0.25197976  0.74780012  0.00145929  1
  Sb  Sb31  1  0.49905243  0.50339915  0.49937408  1
  Te  Te32  1  0.24915551  0.25141173  0.24890255  1
  Te  Te33  1  0.25097840  0.24927267  0.75049576  1
  Te  Te34  1  0.25230979  0.74878785  0.25347381  1
  Te  Te35  1  0.25870695  0.75081747  0.74455113  1
  Te  Te36  1  0.75078086  0.24848816  0.24661466  1
  Te  Te37  1  0.74860598  0.25070792  0.75386617  1
  Te  Te38  1  0.74788460  0.75094434  0.25004835  1
  Te  Te39  1  0.74755343  0.74964942  0.75030803  1
  Te  Te40  1  0.25500319  0.00484594  -0.00086821  1
  Te  Te41  1  0.24946571  -0.00110914  0.50088666  1
  Te  Te42  1  0.24609184  0.49640145  0.00085378  1
  Te  Te43  1  0.24660668  0.50087554  0.49935465  1
  Te  Te44  1  0.74915682  -0.00119663  0.00067383  1
  Te  Te45  1  0.75061903  -0.00423355  0.49972653  1
  Te  Te46  1  0.75269460  0.49936435  -0.00047729  1
  Te  Te47  1  0.75403554  0.50299264  0.50148118  1
  Te  Te48  1  -0.00073120  0.25274205  0.00281702  1
  Te  Te49  1  0.00402397  0.25492017  0.49563046  1
  Te  Te50  1  -0.00298887  0.74390642  0.00059635  1
  Te  Te51  1  0.00063874  0.74503471  0.49986573  1
  Te  Te52  1  0.50162007  0.24589794  0.00021053  1
  Te  Te53  1  0.49086494  0.24960638  0.50003640  1
  Te  Te54  1  0.50216425  0.75238348  0.00120776  1
  Te  Te55  1  0.50221003  0.75025055  0.49866907  1
  Te  Te56  1  -0.00621992  0.00790598  0.24994667  1
  Te  Te57  1  -0.00929199  -0.00015941  0.74990402  1
  Te  Te58  1  0.00360330  0.49666729  0.24976400  1
  Te  Te59  1  -0.00552079  0.50005545  0.75027641  1
  Te  Te60  1  0.50515040  -0.00547424  0.24552066  1
  Te  Te61  1  0.50516257  -0.00487201  0.75466788  1
  Te  Te62  1  0.49224341  0.50656613  0.24927404  1
  Te  Te63  1  0.50750201  0.50619865  0.75012102  1
