# generated using pymatgen
data_AgSbTe2
_symmetry_space_group_name_H-M   'P 1'
_cell_length_a   12.21649984
_cell_length_b   12.21610329
_cell_length_c   12.21191031
_cell_angle_alpha   90.00454590
_cell_angle_beta   90.00237073
_cell_angle_gamma   90.00182960
_symmetry_Int_Tables_number   1
_chemical_formula_structural   AgSbTe2
_chemical_formula_sum   'Ag16 Sb16 Te32'
_cell_volume   1822.48135477
_cell_formula_units_Z   16
loop_
 _symmetry_equiv_pos_site_id
 _symmetry_equiv_pos_as_xyz
  1  'x, y, z'
loop_
 _atom_site_type_symbol
 _atom_site_label
 _atom_site_symmetry_multiplicity
 _atom_site_fract_x
 _atom_site_fract_y
 _atom_site_fract_z
 _atom_site_occupancy
  Ag  Ag0  1  0.00078057  0.49717871  0.49695475  1
  Ag  Ag1  1  0.00088297  0.25482762  0.25508972  1
  Ag  Ag2  1  0.25358480  0.49879906  0.74246514  1
  Ag  Ag3  1  0.00120121  0.74463084  0.25487850  1
  Ag  Ag4  1  0.49578047  0.00471090  0.50218682  1
  Ag  Ag5  1  0.74531143  0.25708478  0.49732895  1
  Ag  Ag6  1  0.25494826  0.25464768  0.50007271  1
  Ag  Ag7  1  0.74630238  0.49868866  0.74088702  1
  Ag  Ag8  1  0.49860167  0.25197798  0.25665505  1
  Ag  Ag9  1  0.25319038  0.24960660  -0.00002473  1
  Ag  Ag10  1  0.49605674  0.00323038  -0.00229004  1
  Ag  Ag11  1  0.25250027  0.74535292  0.50255673  1
  Ag  Ag12  1  0.25540509  0.00154011  0.74633015  1
  Ag  Ag13  1  0.49651715  0.74850864  0.74521978  1
  Ag  Ag14  1  0.75109103  0.49619624  0.25875467  1
  Ag  Ag15  1  0.49879389  0.49486537  0.50215119  1
  Sb  Sb16  1  0.49898793  0.74667781  0.25583953  1
  Sb  Sb17  1  0.49730969  0.49547794  -0.00188326  1
  Sb  Sb18  1  0.74813282  0.74914907  0.00030160  1
  Sb  Sb19  1  0.74164742  0.00136592  0.74512526  1
  Sb  Sb20  1  0.00416859  0.74583459  0.74374491  1
  Sb  Sb21  1  0.74594293  0.25089111  0.00249664  1
  Sb  Sb22  1  0.24843147  0.49649720  0.26088741  1
  Sb  Sb23  1  0.49672172  0.25292566  0.74084291  1
  Sb  Sb24  1  0.00328368  0.25324622  0.74340102  1
  Sb  Sb25  1  0.74741667  0.74054129  0.49993962  1
  Sb  Sb26  1  0.74763497  0.00419932  0.25408275  1
  Sb  Sb27  1  0.25256378  0.75059018  -0.00247088  1
  Sb  Sb28  1  0.00533327  0.00252720  0.49967242  1
  Sb  Sb29  1  0.00253890  0.49809085  0.00472308  1
  Sb  Sb30  1  0.00599769  0.00331392  0.00029660  1
  Sb  Sb31  1  0.25242872  0.00315464  0.25452461  1
  Te  Te32  1  0.25105430  0.25073894  0.25223782  1
  Te  Te33  1  0.24923584  0.25107536  0.74771285  1
  Te  Te34  1  0.24596987  0.74992054  0.25449235  1
  Te  Te35  1  0.25248677  0.74855370  0.74691494  1
  Te  Te36  1  0.74973615  0.25355526  0.25261609  1
  Te  Te37  1  0.75225946  0.25623442  0.74604315  1
  Te  Te38  1  0.75489662  0.74269602  0.25035742  1
  Te  Te39  1  0.74507705  0.74364530  0.74989530  1
  Te  Te40  1  0.25515994  0.00425409  -0.00655127  1
  Te  Te41  1  0.25379807  0.00186912  0.50373192  1
  Te  Te42  1  0.25037018  0.49427810  -0.01207811  1
  Te  Te43  1  0.25135933  0.49781378  0.50190600  1
  Te  Te44  1  0.74029619  0.00089109  -0.00198035  1
  Te  Te45  1  0.74229619  0.00927743  0.50158930  1
  Te  Te46  1  0.75003228  0.49873628  -0.00208576  1
  Te  Te47  1  0.74917829  0.49791353  0.50063342  1
  Te  Te48  1  0.00656755  0.24889800  0.01056816  1
  Te  Te49  1  0.00181415  0.25254252  0.49530284  1
  Te  Te50  1  0.00024346  0.75106922  0.01055154  1
  Te  Te51  1  0.00504001  0.74717801  0.49558683  1
  Te  Te52  1  0.49568461  0.24644228  0.00790735  1
  Te  Te53  1  0.49762681  0.25196030  0.49884084  1
  Te  Te54  1  0.49857625  0.75727875  -0.00449773  1
  Te  Te55  1  0.49620508  0.74935074  0.50139563  1
  Te  Te56  1  -0.00117451  0.00128315  0.25002605  1
  Te  Te57  1  0.00843255  -0.00189785  0.75064988  1
  Te  Te58  1  -0.00241081  0.49735849  0.25413855  1
  Te  Te59  1  0.00003455  0.50151497  0.74353356  1
  Te  Te60  1  0.50062987  0.00336320  0.25237593  1
  Te  Te61  1  0.49690889  -0.00348807  0.74676871  1
  Te  Te62  1  0.50420432  0.49744913  0.25309569  1
  Te  Te63  1  0.49892210  0.50191477  0.74758047  1
