# generated using pymatgen
data_AgSbTe2
_symmetry_space_group_name_H-M   'P 1'
_cell_length_a   12.21612563
_cell_length_b   12.21367248
_cell_length_c   12.21815572
_cell_angle_alpha   90.00046284
_cell_angle_beta   90.00334533
_cell_angle_gamma   90.00193788
_symmetry_Int_Tables_number   1
_chemical_formula_structural   AgSbTe2
_chemical_formula_sum   'Ag16 Sb16 Te32'
_cell_volume   1822.99473818
_cell_formula_units_Z   16
loop_
 _symmetry_equiv_pos_site_id
 _symmetry_equiv_pos_as_xyz
  1  'x, y, z'
loop_
 _atom_site_type_symbol
 _atom_site_label
 _atom_site_symmetry_multiplicity
 _atom_site_fract_x
 _atom_site_fract_y
 _atom_site_fract_z
 _atom_site_occupancy
  Ag  Ag0  1  0.49491482  0.25177843  0.25052866  1
  Ag  Ag1  1  0.00348054  0.75041215  0.25235777  1
  Ag  Ag2  1  0.50052708  0.49430415  0.00367696  1
  Ag  Ag3  1  0.25426776  0.75571519  0.49847591  1
  Ag  Ag4  1  0.49755037  0.75372364  0.74617174  1
  Ag  Ag5  1  0.25162798  0.00671968  0.25607636  1
  Ag  Ag6  1  0.74774511  0.25111471  0.00228882  1
  Ag  Ag7  1  0.49785651  0.49717598  0.49732454  1
  Ag  Ag8  1  0.74611770  0.49527385  0.24935536  1
  Ag  Ag9  1  0.25213446  0.24847480  0.00419556  1
  Ag  Ag10  1  0.25381318  0.24384798  0.49581559  1
  Ag  Ag11  1  0.00323901  0.24694105  0.75032138  1
  Ag  Ag12  1  0.74644768  0.00344392  0.74883628  1
  Ag  Ag13  1  0.49243587  0.00178182  0.50195813  1
  Ag  Ag14  1  0.00552124  0.24941389  0.24913610  1
  Ag  Ag15  1  0.25381694  0.00409070  0.74308346  1
  Sb  Sb16  1  0.00136893  0.49764018  0.49704945  1
  Sb  Sb17  1  0.74886923  0.00411634  0.25157829  1
  Sb  Sb18  1  0.00103795  0.00353410  0.00018579  1
  Sb  Sb19  1  0.25317259  0.75105894  0.00166935  1
  Sb  Sb20  1  0.00870441  0.00185662  0.49931601  1
  Sb  Sb21  1  0.49863941  0.00545563  -0.00114148  1
  Sb  Sb22  1  0.25257323  0.49509452  0.74882521  1
  Sb  Sb23  1  0.00323592  0.75320506  0.74767658  1
  Sb  Sb24  1  0.49751600  0.24624173  0.74907102  1
  Sb  Sb25  1  0.74583142  0.49644699  0.75106539  1
  Sb  Sb26  1  -0.00004959  0.49520713  0.00264666  1
  Sb  Sb27  1  0.74654821  0.24878674  0.49867814  1
  Sb  Sb28  1  0.74600454  0.75098886  0.49940311  1
  Sb  Sb29  1  0.49637034  0.74911806  0.25347987  1
  Sb  Sb30  1  0.74699135  0.74935623  0.00107409  1
  Sb  Sb31  1  0.25399759  0.49155853  0.25081719  1
  Te  Te32  1  0.25001035  0.24905850  0.25044417  1
  Te  Te33  1  0.24787382  0.24619040  0.74970698  1
  Te  Te34  1  0.24733457  0.75590138  0.25210342  1
  Te  Te35  1  0.24995053  0.75618050  0.74788202  1
  Te  Te36  1  0.75047298  0.25043055  0.24781868  1
  Te  Te37  1  0.75349454  0.24605567  0.75283450  1
  Te  Te38  1  0.75591471  0.74740744  0.24913343  1
  Te  Te39  1  0.74932669  0.75643280  0.75071237  1
  Te  Te40  1  0.25103677  0.00567982  0.00085032  1
  Te  Te41  1  0.25283199  0.00235278  0.49948160  1
  Te  Te42  1  0.25730256  0.49349293  -0.00052586  1
  Te  Te43  1  0.25713269  0.49958302  0.50034621  1
  Te  Te44  1  0.74876530  0.00658275  -0.00512068  1
  Te  Te45  1  0.73993188  0.00010974  0.50499115  1
  Te  Te46  1  0.74407695  0.49451720  0.00270847  1
  Te  Te47  1  0.74131999  0.50004290  0.49550657  1
  Te  Te48  1  0.00156413  0.25141549  0.00260867  1
  Te  Te49  1  0.00616204  0.25160216  0.49819537  1
  Te  Te50  1  0.00044632  0.74741582  0.00714013  1
  Te  Te51  1  0.00800725  0.74841686  0.49532191  1
  Te  Te52  1  0.49888388  0.25305002  0.00110083  1
  Te  Te53  1  0.49653684  0.25015787  0.49912558  1
  Te  Te54  1  0.49919425  0.74164174  -0.00531932  1
  Te  Te55  1  0.49577508  0.75048641  0.50219586  1
  Te  Te56  1  0.00252188  0.00375303  0.25025409  1
  Te  Te57  1  0.00109851  0.00452949  0.74953408  1
  Te  Te58  1  -0.00652688  0.49628538  0.25061234  1
  Te  Te59  1  -0.00122874  0.49358857  0.74968652  1
  Te  Te60  1  0.49731382  0.00222351  0.25311586  1
  Te  Te61  1  0.49718671  -0.00213379  0.74807135  1
  Te  Te62  1  0.50299829  0.49804897  0.25128504  1
  Te  Te63  1  0.50098252  0.50562250  0.74720108  1
