# generated using pymatgen
data_AgSbTe2
_symmetry_space_group_name_H-M   'P 1'
_cell_length_a   12.23162110
_cell_length_b   12.21648929
_cell_length_c   12.23108738
_cell_angle_alpha   89.99745206
_cell_angle_beta   90.00896839
_cell_angle_gamma   89.99694401
_symmetry_Int_Tables_number   1
_chemical_formula_structural   AgSbTe2
_chemical_formula_sum   'Ag16 Sb16 Te32'
_cell_volume   1827.66039355
_cell_formula_units_Z   16
loop_
 _symmetry_equiv_pos_site_id
 _symmetry_equiv_pos_as_xyz
  1  'x, y, z'
loop_
 _atom_site_type_symbol
 _atom_site_label
 _atom_site_symmetry_multiplicity
 _atom_site_fract_x
 _atom_site_fract_y
 _atom_site_fract_z
 _atom_site_occupancy
  Ag  Ag0  1  0.75928180  0.50861585  0.24760240  1
  Ag  Ag1  1  -0.00106588  0.74464593  0.24978008  1
  Ag  Ag2  1  0.25202715  -0.00781329  0.75110120  1
  Ag  Ag3  1  0.00337292  0.75318526  0.74966729  1
  Ag  Ag4  1  0.24219840  0.75047518  0.50347852  1
  Ag  Ag5  1  0.49760232  0.75721486  0.75383921  1
  Ag  Ag6  1  0.49974008  0.24232817  0.75235651  1
  Ag  Ag7  1  0.24039655  0.50731472  0.24939543  1
  Ag  Ag8  1  0.75332792  -0.00806604  0.24745139  1
  Ag  Ag9  1  0.00018470  -0.01069351  0.50213482  1
  Ag  Ag10  1  0.74737571  -0.00669097  0.75244235  1
  Ag  Ag11  1  0.75469998  0.75262815  0.00035657  1
  Ag  Ag12  1  0.00173355  0.51077819  0.49465487  1
  Ag  Ag13  1  0.24474982  0.75051182  -0.00421616  1
  Ag  Ag14  1  0.00006625  0.50883519  0.00596967  1
  Ag  Ag15  1  0.50194541  -0.00547295  -0.00674892  1
  Sb  Sb16  1  0.50017478  -0.00419814  0.50662009  1
  Sb  Sb17  1  0.00000727  0.24523564  0.75025854  1
  Sb  Sb18  1  -0.00196836  -0.00985318  -0.00150166  1
  Sb  Sb19  1  0.24791713  0.50904953  0.75044752  1
  Sb  Sb20  1  0.75817124  0.75080422  0.49887879  1
  Sb  Sb21  1  0.75071965  0.24974072  0.50119660  1
  Sb  Sb22  1  0.74968516  0.24677843  -0.00149929  1
  Sb  Sb23  1  0.24551291  -0.00784002  0.24953606  1
  Sb  Sb24  1  0.49977580  0.50568758  -0.00016875  1
  Sb  Sb25  1  0.50159518  0.75197568  0.24715117  1
  Sb  Sb26  1  0.25073227  0.24892651  -0.00225536  1
  Sb  Sb27  1  -0.00046962  0.25377430  0.24984712  1
  Sb  Sb28  1  0.24869720  0.24998244  0.50213073  1
  Sb  Sb29  1  0.49926125  0.50495627  0.49991385  1
  Sb  Sb30  1  0.50050426  0.24692559  0.24775460  1
  Sb  Sb31  1  0.75299372  0.50762009  0.75234033  1
  Te  Te32  1  0.25169652  0.26055112  0.24989805  1
  Te  Te33  1  0.25381708  0.23993235  0.75028256  1
  Te  Te34  1  0.24843769  0.74749922  0.24883924  1
  Te  Te35  1  0.24669362  0.75203158  0.75222710  1
  Te  Te36  1  0.74881450  0.24870682  0.25009293  1
  Te  Te37  1  0.74596027  0.24135724  0.75031149  1
  Te  Te38  1  0.75153398  0.75063118  0.24844265  1
  Te  Te39  1  0.75171865  0.75278211  0.75226668  1
  Te  Te40  1  0.25175938  -0.00405763  -0.00155412  1
  Te  Te41  1  0.24592692  -0.00367489  0.50069632  1
  Te  Te42  1  0.24862613  0.50514257  0.00214617  1
  Te  Te43  1  0.24597544  0.50380693  0.49755022  1
  Te  Te44  1  0.74979655  -0.00352946  -0.00056594  1
  Te  Te45  1  0.75427618  -0.00033372  0.49961002  1
  Te  Te46  1  0.75147901  0.50487166  0.00324172  1
  Te  Te47  1  0.75521407  0.50000324  0.49372558  1
  Te  Te48  1  0.00045398  0.26530557  -0.00097264  1
  Te  Te49  1  0.00058195  0.25069541  0.50083499  1
  Te  Te50  1  0.00033381  0.74870989  0.00050055  1
  Te  Te51  1  0.00161312  0.75006265  0.50000398  1
  Te  Te52  1  0.49956192  0.24282028  -0.00619449  1
  Te  Te53  1  0.49971902  0.25068531  0.50866230  1
  Te  Te54  1  0.50011900  0.75328510  -0.00322808  1
  Te  Te55  1  0.48913254  0.74996681  0.50794655  1
  Te  Te56  1  -0.00339273  -0.00215896  0.25194150  1
  Te  Te57  1  -0.00033444  -0.00319662  0.74912628  1
  Te  Te58  1  -0.00144092  0.50116009  0.25083764  1
  Te  Te59  1  -0.00070771  0.50360965  0.74780622  1
  Te  Te60  1  0.50716051  0.00095537  0.24498462  1
  Te  Te61  1  0.50101201  -0.00472532  0.75037185  1
  Te  Te62  1  0.50298394  0.49883163  0.25040015  1
  Te  Te63  1  0.50053148  0.50091056  0.74985235  1
