# generated using pymatgen
data_AgSbTe2
_symmetry_space_group_name_H-M   'P 1'
_cell_length_a   12.21186431
_cell_length_b   12.20682666
_cell_length_c   12.21978693
_cell_angle_alpha   90.00299917
_cell_angle_beta   90.00482810
_cell_angle_gamma   89.99943675
_symmetry_Int_Tables_number   1
_chemical_formula_structural   AgSbTe2
_chemical_formula_sum   'Ag16 Sb16 Te32'
_cell_volume   1821.58054253
_cell_formula_units_Z   16
loop_
 _symmetry_equiv_pos_site_id
 _symmetry_equiv_pos_as_xyz
  1  'x, y, z'
loop_
 _atom_site_type_symbol
 _atom_site_label
 _atom_site_symmetry_multiplicity
 _atom_site_fract_x
 _atom_site_fract_y
 _atom_site_fract_z
 _atom_site_occupancy
  Ag  Ag0  1  -0.00227947  0.74940979  0.25278400  1
  Ag  Ag1  1  0.75360123  0.75093573  0.49713751  1
  Ag  Ag2  1  -0.00019964  -0.00067794  -0.00138801  1
  Ag  Ag3  1  0.74801964  0.24834100  0.49937471  1
  Ag  Ag4  1  0.25213858  0.49539791  0.75073218  1
  Ag  Ag5  1  0.25654267  0.49681646  0.24856534  1
  Ag  Ag6  1  -0.00173044  0.75349113  0.74755582  1
  Ag  Ag7  1  0.75386133  0.00030980  0.74618347  1
  Ag  Ag8  1  0.25236356  0.25183028  0.49972163  1
  Ag  Ag9  1  -0.00377994  -0.00243749  0.50185511  1
  Ag  Ag10  1  0.25341626  0.25417362  0.00018042  1
  Ag  Ag11  1  0.50231394  0.74108609  0.25105345  1
  Ag  Ag12  1  0.74402556  0.50174569  0.25171886  1
  Ag  Ag13  1  0.49736022  0.25306602  0.74894251  1
  Ag  Ag14  1  0.49678125  0.49637574  0.00579531  1
  Ag  Ag15  1  0.49795879  0.25826806  0.25061774  1
  Sb  Sb16  1  0.49949411  0.00285179  -0.00034630  1
  Sb  Sb17  1  0.50118726  0.74607609  0.74841588  1
  Sb  Sb18  1  0.75093224  0.75020183  0.00384640  1
  Sb  Sb19  1  0.50354140  0.00302516  0.50045141  1
  Sb  Sb20  1  0.00134887  0.24767425  0.74828668  1
  Sb  Sb21  1  0.24750912  0.74935308  0.49788188  1
  Sb  Sb22  1  0.75176212  -0.00116535  0.25367007  1
  Sb  Sb23  1  0.49940399  0.49763142  0.49233275  1
  Sb  Sb24  1  0.00000607  0.50286011  0.49952912  1
  Sb  Sb25  1  0.00258533  0.49922014  0.00065648  1
  Sb  Sb26  1  0.74805704  0.49911056  0.74827943  1
  Sb  Sb27  1  0.24957185  0.74613024  0.00110910  1
  Sb  Sb28  1  0.74743642  0.24975970  0.00157813  1
  Sb  Sb29  1  0.24881264  0.00406351  0.25041784  1
  Sb  Sb30  1  0.00129099  0.25176600  0.25197204  1
  Sb  Sb31  1  0.24723293  0.00315113  0.74942733  1
  Te  Te32  1  0.25215718  0.25384230  0.25172149  1
  Te  Te33  1  0.25249357  0.25338740  0.74827729  1
  Te  Te34  1  0.25049111  0.74356628  0.25177697  1
  Te  Te35  1  0.24745639  0.74425691  0.74861238  1
  Te  Te36  1  0.74690223  0.25269326  0.25394197  1
  Te  Te37  1  0.74682050  0.24994583  0.74505285  1
  Te  Te38  1  0.75026576  0.74854357  0.25351613  1
  Te  Te39  1  0.75236591  0.75078191  0.74427097  1
  Te  Te40  1  0.24485848  0.00748171  -0.00067122  1
  Te  Te41  1  0.24231022  0.00657672  0.50088090  1
  Te  Te42  1  0.25253256  0.49584527  0.00166211  1
  Te  Te43  1  0.24920552  0.49376136  0.49973989  1
  Te  Te44  1  0.75625475  0.00095598  -0.00744405  1
  Te  Te45  1  0.75384628  0.00161756  0.50324879  1
  Te  Te46  1  0.74502472  0.49891824  0.00599601  1
  Te  Te47  1  0.75092643  0.49876230  0.49549005  1
  Te  Te48  1  0.00549823  0.24503207  0.00043318  1
  Te  Te49  1  -0.00161148  0.24450150  0.49950255  1
  Te  Te50  1  0.00035085  0.75503475  0.00045327  1
  Te  Te51  1  -0.00221065  0.75313961  0.49892571  1
  Te  Te52  1  0.49698713  0.25189648  0.00154327  1
  Te  Te53  1  0.50009824  0.24842837  0.49947153  1
  Te  Te54  1  0.49974512  0.74609561  0.00588941  1
  Te  Te55  1  0.50509879  0.75243113  0.49467061  1
  Te  Te56  1  -0.00030660  -0.00677820  0.25003558  1
  Te  Te57  1  -0.00264467  -0.00326107  0.74884489  1
  Te  Te58  1  -0.00011244  0.50590666  0.24890332  1
  Te  Te59  1  0.00389952  0.50665101  0.75163226  1
  Te  Te60  1  0.49989159  0.00006134  0.24842841  1
  Te  Te61  1  0.50531211  0.00386844  0.75165184  1
  Te  Te62  1  0.49895006  0.49893062  0.24857513  1
  Te  Te63  1  0.49657669  0.49728357  0.75662819  1
