# generated using pymatgen
data_AgSbTe2
_symmetry_space_group_name_H-M   'P 1'
_cell_length_a   12.33178295
_cell_length_b   12.30354712
_cell_length_c   12.31635725
_cell_angle_alpha   90.01093665
_cell_angle_beta   89.99796746
_cell_angle_gamma   90.01920676
_symmetry_Int_Tables_number   1
_chemical_formula_structural   AgSbTe2
_chemical_formula_sum   'Ag16 Sb16 Te32'
_cell_volume   1868.69513256
_cell_formula_units_Z   16
loop_
 _symmetry_equiv_pos_site_id
 _symmetry_equiv_pos_as_xyz
  1  'x, y, z'
loop_
 _atom_site_type_symbol
 _atom_site_label
 _atom_site_symmetry_multiplicity
 _atom_site_fract_x
 _atom_site_fract_y
 _atom_site_fract_z
 _atom_site_occupancy
  Ag  Ag0  1  0.24765145  0.76916986  0.49707726  1
  Ag  Ag1  1  0.24564056  0.00910480  0.73041081  1
  Ag  Ag2  1  0.76258156  -0.00490991  0.26220129  1
  Ag  Ag3  1  0.75665589  0.76098688  0.00865183  1
  Ag  Ag4  1  0.74456285  0.23318352  0.50111244  1
  Ag  Ag5  1  -0.00340046  0.76065670  0.25891610  1
  Ag  Ag6  1  0.47956229  0.00470103  0.50053712  1
  Ag  Ag7  1  0.23831563  0.00022466  0.26788158  1
  Ag  Ag8  1  0.24572351  0.23908446  -0.01047039  1
  Ag  Ag9  1  0.49033427  0.24438064  0.74071897  1
  Ag  Ag10  1  0.49844524  0.49097668  0.50286877  1
  Ag  Ag11  1  0.75256492  0.76690287  0.49528965  1
  Ag  Ag12  1  0.00454063  0.00125338  0.00772986  1
  Ag  Ag13  1  0.01194666  0.24045664  0.74217484  1
  Ag  Ag14  1  0.01617901  0.00135635  0.49400518  1
  Ag  Ag15  1  0.25459362  0.23257882  0.50830748  1
  Sb  Sb16  1  0.75216867  0.24015019  -0.00095330  1
  Sb  Sb17  1  0.00082574  0.49678984  -0.00041471  1
  Sb  Sb18  1  0.50007424  0.49535945  -0.00534472  1
  Sb  Sb19  1  0.00204559  0.24369944  0.25667407  1
  Sb  Sb20  1  0.75383979  0.00172186  0.73885203  1
  Sb  Sb21  1  0.49951388  0.75595010  0.74480981  1
  Sb  Sb22  1  0.49953482  0.00192668  -0.00154537  1
  Sb  Sb23  1  0.49932967  0.24667109  0.25784657  1
  Sb  Sb24  1  0.00067552  0.49937007  0.50036636  1
  Sb  Sb25  1  0.24881469  0.49980775  0.25388659  1
  Sb  Sb26  1  0.75058282  0.50414520  0.25463826  1
  Sb  Sb27  1  0.74988525  0.49836182  0.74778699  1
  Sb  Sb28  1  0.50034661  0.75432407  0.25270790  1
  Sb  Sb29  1  0.24614683  0.76160066  0.00193989  1
  Sb  Sb30  1  0.00114700  0.75705306  0.74693112  1
  Sb  Sb31  1  0.25001977  0.49138645  0.74706556  1
  Te  Te32  1  0.24973085  0.24664248  0.25356592  1
  Te  Te33  1  0.24873253  0.24794326  0.74573064  1
  Te  Te34  1  0.25037731  0.75373348  0.25107968  1
  Te  Te35  1  0.24976714  0.75572076  0.74791046  1
  Te  Te36  1  0.75006813  0.24489088  0.25409415  1
  Te  Te37  1  0.74882092  0.24975010  0.74655953  1
  Te  Te38  1  0.74773165  0.75280018  0.25707280  1
  Te  Te39  1  0.75001781  0.74961931  0.74276517  1
  Te  Te40  1  0.24981536  0.00354892  0.00358087  1
  Te  Te41  1  0.24783541  -0.00161315  0.49927530  1
  Te  Te42  1  0.25154797  0.48784024  0.00035876  1
  Te  Te43  1  0.25306691  0.50139476  0.49928959  1
  Te  Te44  1  0.74927309  -0.00397802  0.00749878  1
  Te  Te45  1  0.75554414  0.00100114  0.49992861  1
  Te  Te46  1  0.74953476  0.51332503  0.00071826  1
  Te  Te47  1  0.74716272  0.49946526  0.49964624  1
  Te  Te48  1  0.00040494  0.24699969  -0.00075776  1
  Te  Te49  1  0.00052760  0.24999479  0.49803414  1
  Te  Te50  1  -0.00202718  0.75336005  -0.00507307  1
  Te  Te51  1  -0.00109224  0.74773672  0.50210411  1
  Te  Te52  1  0.49947279  0.25195924  -0.00997506  1
  Te  Te53  1  0.50050972  0.24281211  0.49967377  1
  Te  Te54  1  0.50770972  0.74722324  -0.00228752  1
  Te  Te55  1  0.50111674  0.75945204  0.50127776  1
  Te  Te56  1  0.00055776  -0.00140756  0.25344022  1
  Te  Te57  1  -0.00013127  0.00359049  0.74679030  1
  Te  Te58  1  0.00084310  0.52096697  0.24770165  1
  Te  Te59  1  -0.00070445  0.48265613  0.75238018  1
  Te  Te60  1  0.49816492  0.00136482  0.25389530  1
  Te  Te61  1  0.49460343  0.00275432  0.74721847  1
  Te  Te62  1  0.49970555  0.49875938  0.25930140  1
  Te  Te63  1  0.50046364  0.49126783  0.74454154  1
