# generated using pymatgen
data_AgSbTe2
_symmetry_space_group_name_H-M   'P 1'
_cell_length_a   12.22607872
_cell_length_b   12.22407758
_cell_length_c   12.21988449
_cell_angle_alpha   89.99169453
_cell_angle_beta   90.00407573
_cell_angle_gamma   89.99814970
_symmetry_Int_Tables_number   1
_chemical_formula_structural   AgSbTe2
_chemical_formula_sum   'Ag16 Sb16 Te32'
_cell_volume   1826.29268548
_cell_formula_units_Z   16
loop_
 _symmetry_equiv_pos_site_id
 _symmetry_equiv_pos_as_xyz
  1  'x, y, z'
loop_
 _atom_site_type_symbol
 _atom_site_label
 _atom_site_symmetry_multiplicity
 _atom_site_fract_x
 _atom_site_fract_y
 _atom_site_fract_z
 _atom_site_occupancy
  Ag  Ag0  1  -0.00437041  0.23507453  0.75015555  1
  Ag  Ag1  1  0.74720680  0.50448216  0.24849652  1
  Ag  Ag2  1  0.24528347  0.75045273  -0.00312413  1
  Ag  Ag3  1  0.50653197  0.50148015  0.50070888  1
  Ag  Ag4  1  0.50524572  0.50446620  0.00006772  1
  Ag  Ag5  1  0.75032352  0.24981849  0.50618656  1
  Ag  Ag6  1  0.50538508  0.25030956  0.74917858  1
  Ag  Ag7  1  0.76399506  -0.00123246  0.74874655  1
  Ag  Ag8  1  0.23562813  -0.00211651  0.75158085  1
  Ag  Ag9  1  -0.00228725  -0.00696070  -0.01459608  1
  Ag  Ag10  1  0.75420968  0.74707272  -0.00260247  1
  Ag  Ag11  1  0.50501921  0.74556756  0.24796857  1
  Ag  Ag12  1  -0.00439793  0.76354006  0.75561434  1
  Ag  Ag13  1  0.75096802  0.74963706  0.50239143  1
  Ag  Ag14  1  -0.00467199  0.50785461  -0.00369916  1
  Ag  Ag15  1  -0.00477241  -0.00137800  0.51476127  1
  Sb  Sb16  1  0.75108284  -0.00358946  0.25025507  1
  Sb  Sb17  1  -0.00452428  0.74870482  0.24365739  1
  Sb  Sb18  1  0.50495548  -0.00103888  0.50368783  1
  Sb  Sb19  1  0.75057735  0.50165856  0.75158034  1
  Sb  Sb20  1  0.75102820  0.25212072  -0.00669982  1
  Sb  Sb21  1  0.50455610  0.74909530  0.75120332  1
  Sb  Sb22  1  0.50497741  0.25430572  0.25113013  1
  Sb  Sb23  1  0.24780909  -0.00426555  0.24753879  1
  Sb  Sb24  1  0.50236616  -0.00434944  -0.00386206  1
  Sb  Sb25  1  -0.00710926  0.50147063  0.50346167  1
  Sb  Sb26  1  0.25196987  0.50317065  0.24730530  1
  Sb  Sb27  1  0.24859754  0.75200624  0.50323523  1
  Sb  Sb28  1  -0.00374420  0.25092070  0.24997773  1
  Sb  Sb29  1  0.24867615  0.50361393  0.75154749  1
  Sb  Sb30  1  0.24923613  0.24854263  0.50448818  1
  Sb  Sb31  1  0.24927852  0.24850993  -0.00398443  1
  Te  Te32  1  0.25053111  0.24940308  0.25050589  1
  Te  Te33  1  0.24825878  0.24334726  0.75012883  1
  Te  Te34  1  0.25813566  0.75024166  0.24338743  1
  Te  Te35  1  0.24593195  0.75406773  0.75440104  1
  Te  Te36  1  0.74986066  0.25633521  0.25958440  1
  Te  Te37  1  0.75088649  0.24665050  0.74695847  1
  Te  Te38  1  0.74705751  0.74656131  0.25014683  1
  Te  Te39  1  0.75176485  0.75257615  0.75017950  1
  Te  Te40  1  0.24654623  -0.00435166  -0.00353919  1
  Te  Te41  1  0.24210699  -0.00126411  0.50491005  1
  Te  Te42  1  0.24981199  0.50571857  0.00010062  1
  Te  Te43  1  0.26011960  0.50081147  0.49944225  1
  Te  Te44  1  0.75325382  -0.00304118  -0.00149556  1
  Te  Te45  1  0.75310490  -0.00250181  0.50086171  1
  Te  Te46  1  0.74938386  0.50188506  0.00121510  1
  Te  Te47  1  0.74761999  0.50337250  0.49829611  1
  Te  Te48  1  -0.00081091  0.24912658  -0.00473152  1
  Te  Te49  1  -0.00346537  0.24983633  0.50454569  1
  Te  Te50  1  -0.00343313  0.74984766  -0.00023574  1
  Te  Te51  1  -0.00303508  0.75028433  0.50308952  1
  Te  Te52  1  0.50000759  0.25724969  -0.00402050  1
  Te  Te53  1  0.50380982  0.25250303  0.50274683  1
  Te  Te54  1  0.50395928  0.74667146  -0.00119034  1
  Te  Te55  1  0.50333974  0.74736174  0.50015624  1
  Te  Te56  1  0.00012835  0.00052570  0.24970351  1
  Te  Te57  1  -0.00311893  -0.00067326  0.75109618  1
  Te  Te58  1  -0.00499651  0.49958881  0.24319660  1
  Te  Te59  1  0.00178687  0.50046771  0.75514836  1
  Te  Te60  1  0.49927310  -0.00628840  0.24979869  1
  Te  Te61  1  0.50146219  0.00596010  0.75058052  1
  Te  Te62  1  0.50321030  0.50299668  0.24792241  1
  Te  Te63  1  0.49847853  0.49578544  0.75075296  1
