# generated using pymatgen
data_AgSbTe2
_symmetry_space_group_name_H-M   'P 1'
_cell_length_a   12.23888483
_cell_length_b   12.22891600
_cell_length_c   12.23319678
_cell_angle_alpha   89.99079563
_cell_angle_beta   89.99471652
_cell_angle_gamma   90.00097933
_symmetry_Int_Tables_number   1
_chemical_formula_structural   AgSbTe2
_chemical_formula_sum   'Ag16 Sb16 Te32'
_cell_volume   1830.92166781
_cell_formula_units_Z   16
loop_
 _symmetry_equiv_pos_site_id
 _symmetry_equiv_pos_as_xyz
  1  'x, y, z'
loop_
 _atom_site_type_symbol
 _atom_site_label
 _atom_site_symmetry_multiplicity
 _atom_site_fract_x
 _atom_site_fract_y
 _atom_site_fract_z
 _atom_site_occupancy
  Ag  Ag0  1  -0.00845288  0.49871046  0.00836425  1
  Ag  Ag1  1  0.75220964  0.74193291  0.00507090  1
  Ag  Ag2  1  0.00044947  0.49718089  0.49146325  1
  Ag  Ag3  1  0.75076270  0.25596355  -0.00094064  1
  Ag  Ag4  1  0.50197869  0.26491125  0.24885331  1
  Ag  Ag5  1  0.50762310  0.49649776  0.01486334  1
  Ag  Ag6  1  0.50383442  0.73495793  0.24718277  1
  Ag  Ag7  1  0.25145089  0.25647381  0.49777339  1
  Ag  Ag8  1  -0.00490722  0.25249891  0.75423381  1
  Ag  Ag9  1  0.75142314  0.00569227  0.75614524  1
  Ag  Ag10  1  -0.00666360  0.00356216  0.00014131  1
  Ag  Ag11  1  0.26348767  0.49809133  0.25140431  1
  Ag  Ag12  1  0.73757855  0.50068847  0.24343250  1
  Ag  Ag13  1  0.50416245  0.25410795  0.75199513  1
  Ag  Ag14  1  0.50004613  0.49539984  0.48493004  1
  Ag  Ag15  1  -0.00416539  0.74078651  0.24546500  1
  Sb  Sb16  1  -0.00275212  0.26013207  0.24731043  1
  Sb  Sb17  1  0.50544768  0.74540558  0.75200337  1
  Sb  Sb18  1  0.24864932  0.00283697  0.24935534  1
  Sb  Sb19  1  0.25035457  0.25367074  0.00196321  1
  Sb  Sb20  1  0.24869300  0.74604502  0.00267355  1
  Sb  Sb21  1  -0.00086547  0.00239020  0.49927453  1
  Sb  Sb22  1  0.25002131  0.49712675  0.74803594  1
  Sb  Sb23  1  0.50104179  0.00389673  0.49885114  1
  Sb  Sb24  1  0.75150876  0.00028351  0.24618915  1
  Sb  Sb25  1  0.74932504  0.25466334  0.50032234  1
  Sb  Sb26  1  0.24990495  0.74378046  0.49496726  1
  Sb  Sb27  1  -0.00422531  0.74756981  0.75359352  1
  Sb  Sb28  1  0.74990863  0.49514647  0.75855198  1
  Sb  Sb29  1  0.75005590  0.74523615  0.49430767  1
  Sb  Sb30  1  0.24909153  0.00542415  0.75149695  1
  Sb  Sb31  1  0.50496192  0.00289200  0.00033473  1
  Te  Te32  1  0.25465092  0.25403778  0.25365530  1
  Te  Te33  1  0.25131884  0.25046249  0.74500388  1
  Te  Te34  1  0.25168677  0.74531326  0.25080939  1
  Te  Te35  1  0.25056538  0.75149936  0.74810163  1
  Te  Te36  1  0.74645792  0.25106938  0.24563382  1
  Te  Te37  1  0.75050308  0.24957573  0.75336816  1
  Te  Te38  1  0.74969462  0.74981859  0.24556215  1
  Te  Te39  1  0.74953050  0.75710180  0.75925844  1
  Te  Te40  1  0.23795043  -0.00093257  0.00057281  1
  Te  Te41  1  0.24964346  0.00954188  0.50015794  1
  Te  Te42  1  0.25069769  0.50000644  0.00513941  1
  Te  Te43  1  0.24963865  0.49603659  0.49726538  1
  Te  Te44  1  0.75392328  0.00404692  -0.00209866  1
  Te  Te45  1  0.75038178  -0.00199620  0.50940208  1
  Te  Te46  1  0.74991087  0.49788951  0.00162448  1
  Te  Te47  1  0.75014979  0.50113203  0.49294205  1
  Te  Te48  1  -0.00086498  0.25364433  -0.00084262  1
  Te  Te49  1  0.00079594  0.25427259  0.50207791  1
  Te  Te50  1  -0.00246342  0.74402237  0.00185060  1
  Te  Te51  1  0.00029998  0.74380028  0.49599151  1
  Te  Te52  1  0.50051566  0.25098682  -0.00016571  1
  Te  Te53  1  0.50032566  0.25328245  0.49926322  1
  Te  Te54  1  0.50279515  0.74825227  0.00289253  1
  Te  Te55  1  0.49981273  0.74417197  0.49627690  1
  Te  Te56  1  0.00043413  -0.00896971  0.24688665  1
  Te  Te57  1  -0.00197857  0.00368542  0.75187296  1
  Te  Te58  1  -0.00193492  0.49978925  0.24882546  1
  Te  Te59  1  -0.00032400  0.49586180  0.75022220  1
  Te  Te60  1  0.49934400  -0.00169591  0.25033042  1
  Te  Te61  1  0.50293459  0.00666798  0.74989858  1
  Te  Te62  1  0.50136985  0.49905494  0.24850093  1
  Te  Te63  1  0.50029498  0.49461420  0.75011112  1
