# generated using pymatgen
data_AgSbTe2
_symmetry_space_group_name_H-M   'P 1'
_cell_length_a   12.22136015
_cell_length_b   12.21252112
_cell_length_c   12.21741371
_cell_angle_alpha   90.00225840
_cell_angle_beta   90.00061674
_cell_angle_gamma   89.99442844
_symmetry_Int_Tables_number   1
_chemical_formula_structural   AgSbTe2
_chemical_formula_sum   'Ag16 Sb16 Te32'
_cell_volume   1823.49320051
_cell_formula_units_Z   16
loop_
 _symmetry_equiv_pos_site_id
 _symmetry_equiv_pos_as_xyz
  1  'x, y, z'
loop_
 _atom_site_type_symbol
 _atom_site_label
 _atom_site_symmetry_multiplicity
 _atom_site_fract_x
 _atom_site_fract_y
 _atom_site_fract_z
 _atom_site_occupancy
  Ag  Ag0  1  0.24597767  0.49524535  0.74986800  1
  Ag  Ag1  1  0.75296961  0.49894649  0.25084424  1
  Ag  Ag2  1  0.24731851  0.00382353  0.24276345  1
  Ag  Ag3  1  0.00194031  0.25141581  0.24483717  1
  Ag  Ag4  1  0.75351808  0.49884795  0.74827073  1
  Ag  Ag5  1  0.00352911  0.00613395  0.00155748  1
  Ag  Ag6  1  0.75150967  0.74185871  0.50010472  1
  Ag  Ag7  1  0.24560226  0.25437674  0.50100000  1
  Ag  Ag8  1  0.49643832  0.00118516  0.00183549  1
  Ag  Ag9  1  0.75700344  0.25221151  -0.00008426  1
  Ag  Ag10  1  -0.00302411  0.49642370  0.50229498  1
  Ag  Ag11  1  0.50338356  0.49893629  0.50088967  1
  Ag  Ag12  1  0.24257736  0.24641955  0.00008754  1
  Ag  Ag13  1  0.75243528  0.74750430  -0.00016980  1
  Ag  Ag14  1  0.00241948  0.25473698  0.75449688  1
  Ag  Ag15  1  0.24754552  0.75369573  -0.00011279  1
  Sb  Sb16  1  0.24702414  0.00499592  0.75795801  1
  Sb  Sb17  1  0.24660616  0.49587376  0.24952561  1
  Sb  Sb18  1  0.50069228  0.74897121  0.24887565  1
  Sb  Sb19  1  0.49897996  0.25113873  0.24878756  1
  Sb  Sb20  1  0.00109318  0.00353055  0.49844802  1
  Sb  Sb21  1  -0.00089091  0.74423796  0.75283502  1
  Sb  Sb22  1  -0.00092183  0.74677516  0.24699593  1
  Sb  Sb23  1  0.75430425  0.25843371  0.50038939  1
  Sb  Sb24  1  0.75282822  0.00305208  0.75289927  1
  Sb  Sb25  1  0.49855243  0.00128757  0.49716763  1
  Sb  Sb26  1  0.50195036  0.49913002  0.00012879  1
  Sb  Sb27  1  0.50090287  0.74771269  0.75092821  1
  Sb  Sb28  1  -0.00162978  0.49178799  -0.00286868  1
  Sb  Sb29  1  0.24904664  0.74548790  0.50054913  1
  Sb  Sb30  1  0.75301333  0.00211724  0.24603894  1
  Sb  Sb31  1  0.49812856  0.25302319  0.75090196  1
  Te  Te32  1  0.24606799  0.24976738  0.24687076  1
  Te  Te33  1  0.24671689  0.25375897  0.75157088  1
  Te  Te34  1  0.24901026  0.75411750  0.24373582  1
  Te  Te35  1  0.24899522  0.74245742  0.75490329  1
  Te  Te36  1  0.75469588  0.25329537  0.24651627  1
  Te  Te37  1  0.75445566  0.25442959  0.75318159  1
  Te  Te38  1  0.75092822  0.74524010  0.24612902  1
  Te  Te39  1  0.75102156  0.74338654  0.75370726  1
  Te  Te40  1  0.24801608  0.00149833  0.00070665  1
  Te  Te41  1  0.25152296  0.00279297  0.49445258  1
  Te  Te42  1  0.25184657  0.49930843  -0.00208288  1
  Te  Te43  1  0.24857539  0.49909439  0.50094566  1
  Te  Te44  1  0.75125388  -0.00086481  0.00110488  1
  Te  Te45  1  0.74763638  -0.01001176  0.49963529  1
  Te  Te46  1  0.74851006  0.50097802  -0.00066765  1
  Te  Te47  1  0.75114301  0.50039814  0.50163243  1
  Te  Te48  1  0.00061011  0.25026623  0.00059517  1
  Te  Te49  1  0.00309487  0.25192728  0.50032921  1
  Te  Te50  1  -0.00164313  0.75706105  0.00000976  1
  Te  Te51  1  -0.00415530  0.74617386  0.50030380  1
  Te  Te52  1  0.49996247  0.24644669  0.00034214  1
  Te  Te53  1  0.49341133  0.25324131  0.49984257  1
  Te  Te54  1  0.50148284  0.75421688  -0.00001794  1
  Te  Te55  1  0.50450369  0.74570015  0.50019390  1
  Te  Te56  1  0.00361837  0.00662094  0.24705595  1
  Te  Te57  1  0.00008513  0.00966606  0.75435934  1
  Te  Te58  1  -0.00422333  0.49491159  0.25557499  1
  Te  Te59  1  -0.00020382  0.49521008  0.74744566  1
  Te  Te60  1  0.49356959  0.00053643  0.24476422  1
  Te  Te61  1  0.49997182  0.00048137  0.75771742  1
  Te  Te62  1  0.50758501  0.49935389  0.25679864  1
  Te  Te63  1  0.50111041  0.49922220  0.74429938  1
