# generated using pymatgen
data_AgSbTe2
_symmetry_space_group_name_H-M   'P 1'
_cell_length_a   12.22497050
_cell_length_b   12.22893650
_cell_length_c   12.22991525
_cell_angle_alpha   90.00322200
_cell_angle_beta   89.99677202
_cell_angle_gamma   90.00009199
_symmetry_Int_Tables_number   1
_chemical_formula_structural   AgSbTe2
_chemical_formula_sum   'Ag16 Sb16 Te32'
_cell_volume   1828.35260835
_cell_formula_units_Z   16
loop_
 _symmetry_equiv_pos_site_id
 _symmetry_equiv_pos_as_xyz
  1  'x, y, z'
loop_
 _atom_site_type_symbol
 _atom_site_label
 _atom_site_symmetry_multiplicity
 _atom_site_fract_x
 _atom_site_fract_y
 _atom_site_fract_z
 _atom_site_occupancy
  Ag  Ag0  1  0.74576107  0.00605266  0.75273304  1
  Ag  Ag1  1  0.74599877  0.24744060  -0.00298736  1
  Ag  Ag2  1  0.25411696  0.24527394  0.00081958  1
  Ag  Ag3  1  0.50768685  0.00226611  0.49545897  1
  Ag  Ag4  1  0.74706498  0.24224009  0.50234908  1
  Ag  Ag5  1  0.25445415  0.75506056  0.00343548  1
  Ag  Ag6  1  0.25708344  -0.00073185  0.24417056  1
  Ag  Ag7  1  0.50639746  0.00044773  0.00445564  1
  Ag  Ag8  1  0.74829493  0.49928842  0.24135875  1
  Ag  Ag9  1  0.74880695  0.49387156  0.75841665  1
  Ag  Ag10  1  0.74676918  0.75256768  0.00318190  1
  Ag  Ag11  1  0.50385743  0.75736320  0.24451187  1
  Ag  Ag12  1  -0.00941026  0.00204673  0.49808194  1
  Ag  Ag13  1  -0.00769629  0.49915637  0.00041431  1
  Ag  Ag14  1  0.50729823  0.24560433  0.75399999  1
  Ag  Ag15  1  0.74315060  0.00053580  0.24711480  1
  Sb  Sb16  1  -0.00379466  0.24852884  0.24874191  1
  Sb  Sb17  1  0.50522881  0.49625364  0.49844700  1
  Sb  Sb18  1  0.50414229  0.24185234  0.24551243  1
  Sb  Sb19  1  0.25386881  0.75523807  0.49512668  1
  Sb  Sb20  1  -0.00287424  0.75115071  0.75230980  1
  Sb  Sb21  1  -0.00734079  0.49751378  0.49917621  1
  Sb  Sb22  1  -0.00602153  0.00108974  0.00083197  1
  Sb  Sb23  1  0.25157709  0.49723662  0.75588068  1
  Sb  Sb24  1  0.50366041  0.75447444  0.75580559  1
  Sb  Sb25  1  0.25343306  0.50100834  0.24422221  1
  Sb  Sb26  1  0.25364681  0.24436640  0.49903572  1
  Sb  Sb27  1  0.50825331  0.49799904  0.00026666  1
  Sb  Sb28  1  -0.00426539  0.75179816  0.24737666  1
  Sb  Sb29  1  -0.00859978  0.24896106  0.75165858  1
  Sb  Sb30  1  0.25299851  0.00170064  0.75657240  1
  Sb  Sb31  1  0.74734652  0.75859447  0.49605385  1
  Te  Te32  1  0.25088631  0.24627669  0.24433101  1
  Te  Te33  1  0.25839466  0.25052032  0.75594472  1
  Te  Te34  1  0.25505240  0.75277428  0.24450815  1
  Te  Te35  1  0.25106267  0.74870225  0.75986493  1
  Te  Te36  1  0.74831530  0.24834044  0.24802411  1
  Te  Te37  1  0.74787923  0.24750209  0.75297224  1
  Te  Te38  1  0.74715412  0.75253699  0.24649542  1
  Te  Te39  1  0.74821086  0.75036858  0.75678483  1
  Te  Te40  1  0.24863047  0.00063190  0.00251532  1
  Te  Te41  1  0.25233916  0.00088813  0.49404472  1
  Te  Te42  1  0.24274302  0.49886748  0.00078250  1
  Te  Te43  1  0.24745439  0.50023542  0.50022644  1
  Te  Te44  1  0.75159144  0.00146031  0.00158298  1
  Te  Te45  1  0.74753830  0.00156718  0.49841909  1
  Te  Te46  1  0.75055367  0.49823120  0.00116612  1
  Te  Te47  1  0.75099684  0.49297121  0.49975928  1
  Te  Te48  1  -0.00073399  0.25329097  -0.00046513  1
  Te  Te49  1  -0.00409821  0.24523378  0.50074808  1
  Te  Te50  1  -0.00196108  0.74630232  0.00014975  1
  Te  Te51  1  0.00122428  0.75689828  0.50092807  1
  Te  Te52  1  0.50315558  0.24738205  -0.00203330  1
  Te  Te53  1  0.50369548  0.24563796  0.50521077  1
  Te  Te54  1  0.50254433  0.75363781  0.00192532  1
  Te  Te55  1  0.49951447  0.75715827  0.49454862  1
  Te  Te56  1  -0.00137720  -0.00054357  0.25353753  1
  Te  Te57  1  -0.00602253  -0.00041090  0.74395523  1
  Te  Te58  1  -0.00688804  0.50074155  0.24719364  1
  Te  Te59  1  -0.00655164  0.50074225  0.75308808  1
  Te  Te60  1  0.50259304  -0.00054789  0.24674028  1
  Te  Te61  1  0.50339797  0.00203596  0.75255193  1
  Te  Te62  1  0.50545395  0.50941148  0.25117431  1
  Te  Te63  1  0.50635711  0.49490497  0.74879144  1
