# generated using pymatgen
data_AgSbTe2
_symmetry_space_group_name_H-M   'P 1'
_cell_length_a   12.22270930
_cell_length_b   12.21627642
_cell_length_c   12.21887292
_cell_angle_alpha   89.99629336
_cell_angle_beta   90.00235498
_cell_angle_gamma   89.99931057
_symmetry_Int_Tables_number   1
_chemical_formula_structural   AgSbTe2
_chemical_formula_sum   'Ag16 Sb16 Te32'
_cell_volume   1824.47316684
_cell_formula_units_Z   16
loop_
 _symmetry_equiv_pos_site_id
 _symmetry_equiv_pos_as_xyz
  1  'x, y, z'
loop_
 _atom_site_type_symbol
 _atom_site_label
 _atom_site_symmetry_multiplicity
 _atom_site_fract_x
 _atom_site_fract_y
 _atom_site_fract_z
 _atom_site_occupancy
  Ag  Ag0  1  0.24827483  -0.00342779  0.74623000  1
  Ag  Ag1  1  0.50060533  -0.00860190  0.49685351  1
  Ag  Ag2  1  0.50055883  0.75675234  0.25723033  1
  Ag  Ag3  1  0.50083929  -0.00358317  0.00204249  1
  Ag  Ag4  1  -0.00281417  0.75245100  0.74769403  1
  Ag  Ag5  1  0.74872450  -0.00515616  0.25348325  1
  Ag  Ag6  1  0.50238130  0.50926404  0.49971652  1
  Ag  Ag7  1  0.25308813  0.75484275  0.49834462  1
  Ag  Ag8  1  -0.00051939  0.24591187  0.25029851  1
  Ag  Ag9  1  0.75381846  0.50438561  0.74697426  1
  Ag  Ag10  1  0.25119644  -0.00475190  0.25364359  1
  Ag  Ag11  1  -0.00157693  0.24764183  0.74990971  1
  Ag  Ag12  1  0.74690732  0.75375357  0.50032061  1
  Ag  Ag13  1  0.75188535  -0.00466132  0.74583612  1
  Ag  Ag14  1  -0.00180875  0.50184813  -0.00211864  1
  Ag  Ag15  1  -0.00067071  0.75496519  0.25326071  1
  Sb  Sb16  1  0.24856088  0.50556580  0.25337004  1
  Sb  Sb17  1  0.50059887  0.24090678  0.25168002  1
  Sb  Sb18  1  0.24643758  0.50459595  0.74620047  1
  Sb  Sb19  1  0.24885380  0.24304503  0.49982597  1
  Sb  Sb20  1  0.50278790  0.50565925  -0.00042491  1
  Sb  Sb21  1  0.75033253  0.75153206  -0.00176206  1
  Sb  Sb22  1  0.50132500  0.24610948  0.74854669  1
  Sb  Sb23  1  0.24722436  0.24709792  0.00018181  1
  Sb  Sb24  1  0.50355512  0.75337450  0.74081025  1
  Sb  Sb25  1  0.75139610  0.50648284  0.25414838  1
  Sb  Sb26  1  -0.00156562  -0.00223318  0.00009953  1
  Sb  Sb27  1  0.75091971  0.24454396  0.50013147  1
  Sb  Sb28  1  -0.00172684  -0.00482047  0.49995465  1
  Sb  Sb29  1  -0.00385137  0.50466884  0.50226011  1
  Sb  Sb30  1  0.24948487  0.75323768  0.00062400  1
  Sb  Sb31  1  0.75282697  0.24859943  0.00000136  1
  Te  Te32  1  0.24298426  0.24145090  0.25072019  1
  Te  Te33  1  0.24182490  0.24255997  0.74930884  1
  Te  Te34  1  0.24720137  0.75435364  0.25353655  1
  Te  Te35  1  0.24473587  0.75484519  0.74588815  1
  Te  Te36  1  0.75679331  0.24250913  0.25044169  1
  Te  Te37  1  0.75676541  0.24689607  0.74958077  1
  Te  Te38  1  0.75270753  0.75314533  0.25400815  1
  Te  Te39  1  0.75257310  0.75365864  0.74670659  1
  Te  Te40  1  0.25651211  -0.00096865  -0.00062266  1
  Te  Te41  1  0.25388401  -0.00429813  0.50010720  1
  Te  Te42  1  0.24549631  0.49953017  -0.00047429  1
  Te  Te43  1  0.25925806  0.50857128  0.50090552  1
  Te  Te44  1  0.74454938  -0.00030630  -0.00099496  1
  Te  Te45  1  0.74737942  -0.00384564  0.50128202  1
  Te  Te46  1  0.75275977  0.49996948  -0.00841239  1
  Te  Te47  1  0.74541036  0.50589146  0.50461917  1
  Te  Te48  1  -0.00000834  0.25556016  -0.00031545  1
  Te  Te49  1  0.00025598  0.25363867  0.49969262  1
  Te  Te50  1  0.00022515  0.74633589  0.00029043  1
  Te  Te51  1  -0.00082595  0.74921982  0.49868505  1
  Te  Te52  1  0.49907310  0.24451796  0.00091737  1
  Te  Te53  1  0.49985837  0.25146667  0.49923556  1
  Te  Te54  1  0.49966137  0.75329731  0.01070255  1
  Te  Te55  1  0.50098333  0.75209992  0.49848546  1
  Te  Te56  1  -0.00061469  -0.00316893  0.24818391  1
  Te  Te57  1  -0.00179382  -0.00185063  0.75178116  1
  Te  Te58  1  -0.00109740  0.50103549  0.24639634  1
  Te  Te59  1  -0.00239178  0.50160711  0.75136386  1
  Te  Te60  1  0.50077775  -0.00130035  0.25280519  1
  Te  Te61  1  0.50141626  0.00005285  0.74887471  1
  Te  Te62  1  0.50075629  0.50500293  0.25172760  1
  Te  Te63  1  0.50483952  0.49852266  0.74920572  1
