# generated using pymatgen
data_AgSbTe2
_symmetry_space_group_name_H-M   'P 1'
_cell_length_a   12.21654592
_cell_length_b   12.21936374
_cell_length_c   12.21102429
_cell_angle_alpha   90.00079787
_cell_angle_beta   90.00261536
_cell_angle_gamma   90.00154593
_symmetry_Int_Tables_number   1
_chemical_formula_structural   AgSbTe2
_chemical_formula_sum   'Ag16 Sb16 Te32'
_cell_volume   1822.84238920
_cell_formula_units_Z   16
loop_
 _symmetry_equiv_pos_site_id
 _symmetry_equiv_pos_as_xyz
  1  'x, y, z'
loop_
 _atom_site_type_symbol
 _atom_site_label
 _atom_site_symmetry_multiplicity
 _atom_site_fract_x
 _atom_site_fract_y
 _atom_site_fract_z
 _atom_site_occupancy
  Ag  Ag0  1  0.74599626  -0.00515985  0.24981536  1
  Ag  Ag1  1  0.75048571  0.24656746  0.49553907  1
  Ag  Ag2  1  0.50013860  -0.00644659  0.00624287  1
  Ag  Ag3  1  0.74979913  0.50479898  0.25111513  1
  Ag  Ag4  1  0.25437045  0.24704311  0.00343690  1
  Ag  Ag5  1  0.50199518  0.24366155  0.24724303  1
  Ag  Ag6  1  -0.00234460  0.50144213  0.49680003  1
  Ag  Ag7  1  0.25059380  0.50284616  0.75162203  1
  Ag  Ag8  1  0.25704497  0.75299017  0.00340892  1
  Ag  Ag9  1  0.25446455  -0.00310884  0.24596584  1
  Ag  Ag10  1  -0.00418231  -0.00123613  0.49510816  1
  Ag  Ag11  1  0.50104488  0.75333789  0.75801882  1
  Ag  Ag12  1  0.50437836  0.75694652  0.24209997  1
  Ag  Ag13  1  0.74746807  -0.00342660  0.74989779  1
  Ag  Ag14  1  0.74330002  0.75448896  0.00664736  1
  Ag  Ag15  1  -0.00409865  0.75350000  0.24987357  1
  Sb  Sb16  1  0.24960348  0.50253503  0.24921334  1
  Sb  Sb17  1  -0.00034490  0.50232751  0.00339750  1
  Sb  Sb18  1  0.25185883  -0.00274691  0.75335960  1
  Sb  Sb19  1  -0.00028917  0.24912176  0.74859237  1
  Sb  Sb20  1  0.74463971  0.24555951  0.00469116  1
  Sb  Sb21  1  0.50416387  0.00015566  0.49263145  1
  Sb  Sb22  1  -0.00134791  0.75126844  0.75052870  1
  Sb  Sb23  1  0.75100131  0.75342030  0.49129131  1
  Sb  Sb24  1  0.74989007  0.50441174  0.74827749  1
  Sb  Sb25  1  0.25090448  0.24877603  0.49758781  1
  Sb  Sb26  1  0.50038328  0.24688045  0.75333581  1
  Sb  Sb27  1  -0.00061440  -0.00245637  0.00493162  1
  Sb  Sb28  1  0.49971866  0.50812172  0.00093710  1
  Sb  Sb29  1  0.50296822  0.49990338  0.49765246  1
  Sb  Sb30  1  0.24965853  0.75078177  0.49639073  1
  Sb  Sb31  1  -0.00195169  0.24684471  0.25201586  1
  Te  Te32  1  0.25425080  0.24821009  0.24649931  1
  Te  Te33  1  0.25187315  0.25338315  0.75471758  1
  Te  Te34  1  0.25163730  0.75166074  0.24635639  1
  Te  Te35  1  0.25299707  0.74864565  0.75557005  1
  Te  Te36  1  0.74715121  0.24841243  0.25044374  1
  Te  Te37  1  0.74819717  0.24602356  0.74693501  1
  Te  Te38  1  0.74835613  0.75226663  0.24861289  1
  Te  Te39  1  0.74720628  0.75235880  0.75649981  1
  Te  Te40  1  0.25116373  -0.00287502  0.00266251  1
  Te  Te41  1  0.24252014  0.00205508  0.49519992  1
  Te  Te42  1  0.24948852  0.50180279  -0.00324700  1
  Te  Te43  1  0.24333862  0.49841591  0.50429457  1
  Te  Te44  1  0.74884761  -0.00159613  0.00260878  1
  Te  Te45  1  0.75299614  0.00272723  0.49746997  1
  Te  Te46  1  0.75114446  0.50369633  0.00451430  1
  Te  Te47  1  0.75405544  0.49511607  0.49701013  1
  Te  Te48  1  0.00979660  0.25041077  0.00019029  1
  Te  Te49  1  -0.00445495  0.24947774  0.49921887  1
  Te  Te50  1  0.00036340  0.75018083  0.00588941  1
  Te  Te51  1  0.00026948  0.75037043  0.49434887  1
  Te  Te52  1  0.49647220  0.24302701  0.00449011  1
  Te  Te53  1  0.50476561  0.24987891  0.49390926  1
  Te  Te54  1  0.50018828  0.75265167  0.00278626  1
  Te  Te55  1  0.49937084  0.75037397  0.50004177  1
  Te  Te56  1  -0.00154922  -0.00308000  0.25305981  1
  Te  Te57  1  -0.00580772  -0.00118713  0.74202215  1
  Te  Te58  1  -0.00300352  0.50415830  0.25417874  1
  Te  Te59  1  0.00287053  0.50069696  0.74290045  1
  Te  Te60  1  0.50085180  -0.00261001  0.24905876  1
  Te  Te61  1  0.50341445  -0.00430057  0.75413028  1
  Te  Te62  1  0.50431586  0.50104829  0.25111829  1
  Te  Te63  1  0.49621578  0.50544988  0.74883959  1
