# generated using pymatgen
data_AgSbTe2
_symmetry_space_group_name_H-M   'P 1'
_cell_length_a   12.23919636
_cell_length_b   12.22253481
_cell_length_c   12.23951322
_cell_angle_alpha   89.99718371
_cell_angle_beta   89.99569719
_cell_angle_gamma   90.00832742
_symmetry_Int_Tables_number   1
_chemical_formula_structural   AgSbTe2
_chemical_formula_sum   'Ag16 Sb16 Te32'
_cell_volume   1830.95775850
_cell_formula_units_Z   16
loop_
 _symmetry_equiv_pos_site_id
 _symmetry_equiv_pos_as_xyz
  1  'x, y, z'
loop_
 _atom_site_type_symbol
 _atom_site_label
 _atom_site_symmetry_multiplicity
 _atom_site_fract_x
 _atom_site_fract_y
 _atom_site_fract_z
 _atom_site_occupancy
  Ag  Ag0  1  0.24813464  0.75363095  0.50276845  1
  Ag  Ag1  1  0.74655443  -0.00297957  0.76408842  1
  Ag  Ag2  1  0.50465041  0.24196349  0.75217028  1
  Ag  Ag3  1  0.50181187  -0.00406756  0.50584262  1
  Ag  Ag4  1  0.74820628  -0.00588674  0.23547157  1
  Ag  Ag5  1  0.74890781  0.23541839  -0.00440130  1
  Ag  Ag6  1  0.24668972  0.75707624  -0.00270049  1
  Ag  Ag7  1  -0.01400450  -0.00709521  -0.00302735  1
  Ag  Ag8  1  0.75301217  0.76374184  -0.00195037  1
  Ag  Ag9  1  0.75125103  0.50485387  0.75284261  1
  Ag  Ag10  1  -0.00223066  0.75339190  0.24504334  1
  Ag  Ag11  1  0.25350400  -0.00616686  0.75384418  1
  Ag  Ag12  1  -0.00220872  0.75468335  0.75463400  1
  Ag  Ag13  1  0.50305706  0.75614636  0.24643745  1
  Ag  Ag14  1  -0.00128410  0.50710851  0.50291333  1
  Ag  Ag15  1  0.51442399  -0.00410212  -0.00473482  1
  Sb  Sb16  1  0.75104696  0.75238349  0.50213839  1
  Sb  Sb17  1  -0.00274124  0.50947744  -0.00127338  1
  Sb  Sb18  1  -0.00329655  0.24635261  0.75231479  1
  Sb  Sb19  1  0.24932159  0.50716865  0.74917446  1
  Sb  Sb20  1  -0.00443720  0.24590711  0.24741913  1
  Sb  Sb21  1  0.75161541  0.50650796  0.24745091  1
  Sb  Sb22  1  0.25136076  -0.00466336  0.24694652  1
  Sb  Sb23  1  0.74868781  0.24672475  0.50431425  1
  Sb  Sb24  1  -0.00047607  -0.00468707  0.50220692  1
  Sb  Sb25  1  0.50215882  0.50520861  -0.00177667  1
  Sb  Sb26  1  0.50187158  0.75726913  0.75246375  1
  Sb  Sb27  1  0.25152909  0.24556752  0.50447638  1
  Sb  Sb28  1  0.50469661  0.24227980  0.24838116  1
  Sb  Sb29  1  0.25096890  0.24068386  -0.00451958  1
  Sb  Sb30  1  0.24849563  0.50655774  0.25070917  1
  Sb  Sb31  1  0.50048293  0.50577301  0.50368401  1
  Te  Te32  1  0.24983732  0.25249979  0.25016094  1
  Te  Te33  1  0.25542725  0.24316243  0.75027707  1
  Te  Te34  1  0.24755947  0.75107567  0.24886114  1
  Te  Te35  1  0.24852722  0.75341287  0.75108833  1
  Te  Te36  1  0.75006378  0.24412315  0.24240391  1
  Te  Te37  1  0.74825963  0.24598588  0.75344968  1
  Te  Te38  1  0.75083708  0.75292331  0.24836646  1
  Te  Te39  1  0.75120806  0.75240984  0.75179591  1
  Te  Te40  1  0.25032032  -0.00480686  -0.00321939  1
  Te  Te41  1  0.25203598  -0.00489634  0.50401534  1
  Te  Te42  1  0.24978730  0.50872910  -0.00062307  1
  Te  Te43  1  0.24666389  0.50671624  0.50068303  1
  Te  Te44  1  0.74923440  -0.00392446  -0.00159981  1
  Te  Te45  1  0.74645104  0.00093052  0.50105134  1
  Te  Te46  1  0.75025779  0.50078941  -0.00472465  1
  Te  Te47  1  0.75284733  0.49886405  0.50512073  1
  Te  Te48  1  -0.00291168  0.24245257  0.00116762  1
  Te  Te49  1  0.00124158  0.25981263  0.49894686  1
  Te  Te50  1  -0.00133694  0.75251231  -0.00108718  1
  Te  Te51  1  0.00194942  0.74908906  0.50083382  1
  Te  Te52  1  0.50222317  0.24545033  -0.00236684  1
  Te  Te53  1  0.49876746  0.24350931  0.50212657  1
  Te  Te54  1  0.50131687  0.75342769  0.00147535  1
  Te  Te55  1  0.49659289  0.75439318  0.49694864  1
  Te  Te56  1  -0.00318259  -0.00487584  0.24900649  1
  Te  Te57  1  -0.00153439  -0.00311831  0.75043129  1
  Te  Te58  1  -0.00120373  0.50662352  0.25416450  1
  Te  Te59  1  -0.00254773  0.50306081  0.74775921  1
  Te  Te60  1  0.50179227  -0.00427566  0.24851066  1
  Te  Te61  1  0.50229596  -0.00121190  0.75130557  1
  Te  Te62  1  0.50041162  0.50804769  0.25079739  1
  Te  Te63  1  0.50504747  0.49087992  0.74952098  1
