# generated using pymatgen
data_AgSbTe2
_symmetry_space_group_name_H-M   'P 1'
_cell_length_a   12.22423737
_cell_length_b   12.22123263
_cell_length_c   12.22450060
_cell_angle_alpha   90.00439742
_cell_angle_beta   90.00847785
_cell_angle_gamma   90.00267853
_symmetry_Int_Tables_number   1
_chemical_formula_structural   AgSbTe2
_chemical_formula_sum   'Ag16 Sb16 Te32'
_cell_volume   1826.28227944
_cell_formula_units_Z   16
loop_
 _symmetry_equiv_pos_site_id
 _symmetry_equiv_pos_as_xyz
  1  'x, y, z'
loop_
 _atom_site_type_symbol
 _atom_site_label
 _atom_site_symmetry_multiplicity
 _atom_site_fract_x
 _atom_site_fract_y
 _atom_site_fract_z
 _atom_site_occupancy
  Ag  Ag0  1  0.24436238  0.75359902  0.00404833  1
  Ag  Ag1  1  0.50120912  0.00592328  0.49626797  1
  Ag  Ag2  1  0.75086915  0.00709683  0.75142255  1
  Ag  Ag3  1  -0.00044460  0.76354586  0.24628165  1
  Ag  Ag4  1  0.25047295  0.24473103  0.49545202  1
  Ag  Ag5  1  0.50571390  0.24482974  0.25153860  1
  Ag  Ag6  1  0.75438060  0.49071644  0.24520963  1
  Ag  Ag7  1  -0.00477380  0.49799270  0.00483610  1
  Ag  Ag8  1  0.75337639  0.24871484  0.00490571  1
  Ag  Ag9  1  0.50586637  0.24711874  0.74846088  1
  Ag  Ag10  1  0.23674407  0.00330000  0.25062034  1
  Ag  Ag11  1  -0.00624505  0.23695296  0.24807850  1
  Ag  Ag12  1  0.75093708  0.49263693  0.75415214  1
  Ag  Ag13  1  0.76318482  0.00807661  0.24846614  1
  Ag  Ag14  1  -0.00297084  0.00136016  0.01397410  1
  Ag  Ag15  1  -0.00101833  0.00366830  0.48579360  1
  Sb  Sb16  1  -0.00827057  0.24802659  0.75191334  1
  Sb  Sb17  1  0.50705256  0.49713449  0.00112249  1
  Sb  Sb18  1  -0.00244982  0.49412051  0.49419387  1
  Sb  Sb19  1  0.24652981  0.75750454  0.49465068  1
  Sb  Sb20  1  0.75281740  0.75470857  0.49775868  1
  Sb  Sb21  1  0.50187143  0.49119740  0.49838845  1
  Sb  Sb22  1  0.50091317  0.75628124  0.24975094  1
  Sb  Sb23  1  0.24536852  0.49678896  0.24758162  1
  Sb  Sb24  1  0.24847596  0.49528495  0.75353971  1
  Sb  Sb25  1  0.50440977  0.00323911  0.00360844  1
  Sb  Sb26  1  0.50230379  0.75412463  0.75063204  1
  Sb  Sb27  1  0.24467843  0.24643485  0.00480382  1
  Sb  Sb28  1  0.24934914  0.00336500  0.74988583  1
  Sb  Sb29  1  0.75562489  0.75184987  0.00265503  1
  Sb  Sb30  1  0.74959293  0.24539443  0.49313333  1
  Sb  Sb31  1  -0.00078518  0.75235703  0.75475663  1
  Te  Te32  1  0.25081433  0.24664443  0.25113046  1
  Te  Te33  1  0.26015342  0.25049584  0.74461550  1
  Te  Te34  1  0.24699933  0.75386127  0.24675728  1
  Te  Te35  1  0.25108349  0.74871935  0.75738784  1
  Te  Te36  1  0.75086911  0.24816557  0.24982945  1
  Te  Te37  1  0.74757940  0.24819688  0.75355322  1
  Te  Te38  1  0.75350314  0.75065770  0.24896610  1
  Te  Te39  1  0.74895690  0.75004142  0.75075828  1
  Te  Te40  1  0.24425502  -0.00088888  0.00253958  1
  Te  Te41  1  0.24846158  0.00325713  0.49800011  1
  Te  Te42  1  0.24038404  0.50411691  -0.00004154  1
  Te  Te43  1  0.24975125  0.49258738  0.50085495  1
  Te  Te44  1  0.75278596  0.00188175  0.00109104  1
  Te  Te45  1  0.75160318  -0.00014635  0.49959522  1
  Te  Te46  1  0.75410108  0.49785768  0.00181137  1
  Te  Te47  1  0.75067745  0.50236017  0.50113460  1
  Te  Te48  1  -0.00286829  0.24858290  0.00241663  1
  Te  Te49  1  0.00480495  0.24563581  0.49569591  1
  Te  Te50  1  0.00266326  0.75198515  0.00379974  1
  Te  Te51  1  0.00174818  0.75765763  0.49182133  1
  Te  Te52  1  0.50514135  0.24982808  0.00140757  1
  Te  Te53  1  0.49709146  0.24536410  0.49751807  1
  Te  Te54  1  0.48846011  0.74901436  0.00042118  1
  Te  Te55  1  0.49733484  0.76066057  0.50015587  1
  Te  Te56  1  -0.00106849  0.00191647  0.24921652  1
  Te  Te57  1  -0.00595435  -0.00025674  0.75002344  1
  Te  Te58  1  -0.00403189  0.49823018  0.24779456  1
  Te  Te59  1  -0.00726693  0.50049960  0.75501911  1
  Te  Te60  1  0.50144717  0.00349473  0.25230941  1
  Te  Te61  1  0.50519021  0.00392023  0.74619828  1
  Te  Te62  1  0.50811710  0.49342306  0.25092249  1
  Te  Te63  1  0.50806619  0.49416004  0.74941325  1
