# generated using pymatgen
data_AgSbTe2
_symmetry_space_group_name_H-M   'P 1'
_cell_length_a   12.30584105
_cell_length_b   12.29170784
_cell_length_c   12.28307445
_cell_angle_alpha   90.00704394
_cell_angle_beta   89.98214250
_cell_angle_gamma   90.00370717
_symmetry_Int_Tables_number   1
_chemical_formula_structural   AgSbTe2
_chemical_formula_sum   'Ag16 Sb16 Te32'
_cell_volume   1857.93531222
_cell_formula_units_Z   16
loop_
 _symmetry_equiv_pos_site_id
 _symmetry_equiv_pos_as_xyz
  1  'x, y, z'
loop_
 _atom_site_type_symbol
 _atom_site_label
 _atom_site_symmetry_multiplicity
 _atom_site_fract_x
 _atom_site_fract_y
 _atom_site_fract_z
 _atom_site_occupancy
  Ag  Ag0  1  0.25233890  0.74265675  0.01527601  1
  Ag  Ag1  1  0.50195244  0.50709147  0.48499578  1
  Ag  Ag2  1  -0.01966401  0.74482952  0.24519993  1
  Ag  Ag3  1  0.74834498  0.73670309  0.01853107  1
  Ag  Ag4  1  0.25419345  -0.01051744  0.24856739  1
  Ag  Ag5  1  0.74869263  0.26371811  0.00916725  1
  Ag  Ag6  1  0.24874611  0.50346135  0.75465138  1
  Ag  Ag7  1  0.50675014  0.26366143  0.24599609  1
  Ag  Ag8  1  0.51896581  0.74010142  0.24827260  1
  Ag  Ag9  1  -0.00621464  0.50524634  0.00560589  1
  Ag  Ag10  1  0.74037778  0.51789672  0.23971810  1
  Ag  Ag11  1  0.74398926  0.74400100  0.47786346  1
  Ag  Ag12  1  0.25642197  0.74488511  0.48309787  1
  Ag  Ag13  1  0.74649666  -0.02145095  0.24738464  1
  Ag  Ag14  1  0.50865767  0.50569339  0.01338649  1
  Ag  Ag15  1  -0.00083042  0.25906522  0.75691413  1
  Sb  Sb16  1  0.49984567  0.74626635  0.75233175  1
  Sb  Sb17  1  -0.00092875  0.50322154  0.49290300  1
  Sb  Sb18  1  0.74648191  0.25666591  0.49022183  1
  Sb  Sb19  1  0.25896052  0.51188520  0.24786928  1
  Sb  Sb20  1  0.50138306  0.25847824  0.75672681  1
  Sb  Sb21  1  0.75300321  0.49996676  0.75508629  1
  Sb  Sb22  1  0.25256226  0.25869373  0.00443316  1
  Sb  Sb23  1  -0.00269033  0.25654677  0.24594408  1
  Sb  Sb24  1  -0.00015238  -0.00248767  0.49658981  1
  Sb  Sb25  1  0.25361286  0.25852078  0.49458064  1
  Sb  Sb26  1  -0.00042201  -0.00620655  0.00283457  1
  Sb  Sb27  1  0.50029643  -0.00775189  0.00344157  1
  Sb  Sb28  1  0.75230672  -0.00159438  0.75260562  1
  Sb  Sb29  1  0.50027962  -0.01116701  0.49425171  1
  Sb  Sb30  1  0.00060694  0.74537347  0.75518151  1
  Sb  Sb31  1  0.24763557  -0.00285076  0.75121190  1
  Te  Te32  1  0.25120975  0.23259598  0.25016560  1
  Te  Te33  1  0.24956978  0.25082990  0.75034781  1
  Te  Te34  1  0.25188441  0.75011567  0.24867913  1
  Te  Te35  1  0.24970173  0.74725320  0.75119597  1
  Te  Te36  1  0.74884548  0.25151091  0.24637128  1
  Te  Te37  1  0.75113294  0.24752884  0.75887853  1
  Te  Te38  1  0.74962474  0.74936249  0.24936052  1
  Te  Te39  1  0.75180222  0.75292936  0.75038850  1
  Te  Te40  1  0.25085070  -0.01331257  0.00280146  1
  Te  Te41  1  0.24954645  -0.01213501  0.49727515  1
  Te  Te42  1  0.25026160  0.50468828  0.00193713  1
  Te  Te43  1  0.24993435  0.50466663  0.50102606  1
  Te  Te44  1  0.74884744  -0.00369419  0.00389331  1
  Te  Te45  1  0.74976922  -0.00812622  0.49388521  1
  Te  Te46  1  0.74725824  0.50288537  -0.00010919  1
  Te  Te47  1  0.74906155  0.50323996  0.49979483  1
  Te  Te48  1  -0.00036861  0.25849352  0.00171776  1
  Te  Te49  1  -0.00015227  0.25130690  0.50681680  1
  Te  Te50  1  -0.00203300  0.74521314  0.00317824  1
  Te  Te51  1  -0.00025480  0.74883739  0.49563722  1
  Te  Te52  1  0.50103294  0.25816829  0.00553537  1
  Te  Te53  1  0.50055501  0.26341999  0.49229549  1
  Te  Te54  1  0.50185107  0.74597092  -0.00008129  1
  Te  Te55  1  0.50015707  0.74455518  0.50078780  1
  Te  Te56  1  -0.00207660  -0.00583997  0.24905804  1
  Te  Te57  1  -0.00071250  0.01314194  0.75099072  1
  Te  Te58  1  -0.00844882  0.50274843  0.24479901  1
  Te  Te59  1  0.00227891  0.49827101  0.75678329  1
  Te  Te60  1  0.50252560  -0.00371058  0.24849514  1
  Te  Te61  1  0.49948194  0.00440748  0.74798224  1
  Te  Te62  1  0.50100659  0.50296676  0.24711913  1
  Te  Te63  1  0.49385687  0.50110797  0.75215214  1
