# generated using pymatgen
data_AgSbTe2
_symmetry_space_group_name_H-M   'P 1'
_cell_length_a   12.22898635
_cell_length_b   12.22632506
_cell_length_c   12.22124566
_cell_angle_alpha   89.99131480
_cell_angle_beta   90.01195095
_cell_angle_gamma   90.00283703
_symmetry_Int_Tables_number   1
_chemical_formula_structural   AgSbTe2
_chemical_formula_sum   'Ag16 Sb16 Te32'
_cell_volume   1827.26635311
_cell_formula_units_Z   16
loop_
 _symmetry_equiv_pos_site_id
 _symmetry_equiv_pos_as_xyz
  1  'x, y, z'
loop_
 _atom_site_type_symbol
 _atom_site_label
 _atom_site_symmetry_multiplicity
 _atom_site_fract_x
 _atom_site_fract_y
 _atom_site_fract_z
 _atom_site_occupancy
  Ag  Ag0  1  0.49896980  0.49932559  -0.00624568  1
  Ag  Ag1  1  0.49333347  0.24987945  0.74938292  1
  Ag  Ag2  1  0.25200888  0.49508015  0.74266968  1
  Ag  Ag3  1  0.49145161  0.49849963  0.50706534  1
  Ag  Ag4  1  0.24717462  0.25254717  0.50897387  1
  Ag  Ag5  1  0.00339099  -0.00004644  0.50656356  1
  Ag  Ag6  1  0.24556964  0.74768538  0.50341459  1
  Ag  Ag7  1  0.75457234  0.00086196  0.75483721  1
  Ag  Ag8  1  0.00850986  0.50039246  0.50481115  1
  Ag  Ag9  1  0.75413272  -0.00357283  0.24467394  1
  Ag  Ag10  1  0.75098729  0.75768107  -0.00039256  1
  Ag  Ag11  1  0.00657618  0.24315579  0.74587490  1
  Ag  Ag12  1  0.50488750  -0.00030434  -0.00586510  1
  Ag  Ag13  1  -0.00501798  -0.00170212  -0.00632155  1
  Ag  Ag14  1  0.24487703  0.00562269  0.74715703  1
  Ag  Ag15  1  -0.00113804  0.75458856  0.25254692  1
  Sb  Sb16  1  0.24918897  0.50178624  0.25755965  1
  Sb  Sb17  1  0.00118260  0.50146469  -0.00598530  1
  Sb  Sb18  1  0.49655861  0.00127058  0.50667536  1
  Sb  Sb19  1  0.24772960  -0.00163799  0.25178075  1
  Sb  Sb20  1  0.00097162  0.24684823  0.25306380  1
  Sb  Sb21  1  0.50015936  0.75203360  0.25049705  1
  Sb  Sb22  1  0.74935043  0.24188453  -0.00309329  1
  Sb  Sb23  1  0.75245229  0.24896572  0.50325356  1
  Sb  Sb24  1  0.25063486  0.24908949  -0.00985065  1
  Sb  Sb25  1  0.49872329  0.24805469  0.25135058  1
  Sb  Sb26  1  0.75170114  0.50333944  0.24838915  1
  Sb  Sb27  1  0.49908307  0.74971103  0.75032193  1
  Sb  Sb28  1  0.24903947  0.75115590  -0.00290699  1
  Sb  Sb29  1  0.75294457  0.75249348  0.50035205  1
  Sb  Sb30  1  0.00086175  0.75791209  0.74690750  1
  Sb  Sb31  1  0.74918239  0.49954469  0.75112007  1
  Te  Te32  1  0.24990866  0.25023823  0.26322526  1
  Te  Te33  1  0.24988021  0.24890648  0.74727911  1
  Te  Te34  1  0.24344218  0.75029205  0.25765382  1
  Te  Te35  1  0.24978383  0.74961000  0.74476283  1
  Te  Te36  1  0.74997249  0.24037937  0.25024790  1
  Te  Te37  1  0.74982974  0.24397761  0.74989944  1
  Te  Te38  1  0.75451241  0.75495389  0.24652978  1
  Te  Te39  1  0.74997181  0.75738082  0.75564623  1
  Te  Te40  1  0.25048948  -0.00066009  -0.00439904  1
  Te  Te41  1  0.24842416  -0.00097555  0.50287884  1
  Te  Te42  1  0.25542102  0.50031619  -0.00710187  1
  Te  Te43  1  0.24913960  0.50064644  0.50286197  1
  Te  Te44  1  0.75072290  -0.00238427  -0.00318868  1
  Te  Te45  1  0.75344222  -0.00172433  0.50284753  1
  Te  Te46  1  0.74500857  0.50807674  0.00060259  1
  Te  Te47  1  0.74965291  0.50125253  0.49979335  1
  Te  Te48  1  0.00055261  0.24599738  -0.00448079  1
  Te  Te49  1  0.00199029  0.24896351  0.50306957  1
  Te  Te50  1  -0.00205542  0.75315000  0.00504779  1
  Te  Te51  1  0.00197943  0.75073275  0.49785770  1
  Te  Te52  1  0.49966449  0.25043337  -0.00452602  1
  Te  Te53  1  0.49638508  0.25336114  0.50377471  1
  Te  Te54  1  0.50216406  0.75154829  0.00082096  1
  Te  Te55  1  0.49488118  0.74442442  0.49853770  1
  Te  Te56  1  -0.00211206  -0.00161805  0.25007574  1
  Te  Te57  1  0.00206126  0.00128623  0.74909586  1
  Te  Te58  1  -0.00099622  0.50339906  0.25433164  1
  Te  Te59  1  0.00091903  0.49389314  0.74715222  1
  Te  Te60  1  0.50529555  0.00063351  0.24203824  1
  Te  Te61  1  0.49876058  0.00337690  0.75193975  1
  Te  Te62  1  0.50087634  0.49962696  0.24792076  1
  Te  Te63  1  0.49998166  0.49689469  0.74922368  1
