# generated using pymatgen
data_AgSbTe2
_symmetry_space_group_name_H-M   'P 1'
_cell_length_a   12.31628836
_cell_length_b   12.31892954
_cell_length_c   12.33213865
_cell_angle_alpha   89.98792093
_cell_angle_beta   90.00019221
_cell_angle_gamma   90.00614850
_symmetry_Int_Tables_number   1
_chemical_formula_structural   AgSbTe2
_chemical_formula_sum   'Ag16 Sb16 Te32'
_cell_volume   1871.07504307
_cell_formula_units_Z   16
loop_
 _symmetry_equiv_pos_site_id
 _symmetry_equiv_pos_as_xyz
  1  'x, y, z'
loop_
 _atom_site_type_symbol
 _atom_site_label
 _atom_site_symmetry_multiplicity
 _atom_site_fract_x
 _atom_site_fract_y
 _atom_site_fract_z
 _atom_site_occupancy
  Ag  Ag0  1  0.74461877  0.74252693  -0.00999402  1
  Ag  Ag1  1  0.51244537  0.02150664  0.50745183  1
  Ag  Ag2  1  0.50875533  0.74500813  0.75279547  1
  Ag  Ag3  1  -0.00902413  0.25135357  0.25634485  1
  Ag  Ag4  1  0.51104675  0.48876881  -0.00916442  1
  Ag  Ag5  1  0.25324108  0.25420842  -0.00246557  1
  Ag  Ag6  1  0.50876537  0.25165012  0.25461836  1
  Ag  Ag7  1  0.74876171  0.24836799  0.51081465  1
  Ag  Ag8  1  0.74893988  0.25424437  -0.01290260  1
  Ag  Ag9  1  0.51400817  0.25228887  0.74396094  1
  Ag  Ag10  1  0.51064907  0.48362442  0.50885152  1
  Ag  Ag11  1  -0.01325358  0.02229887  0.50551513  1
  Ag  Ag12  1  -0.01166644  0.49007921  -0.00433841  1
  Ag  Ag13  1  -0.01416565  0.25224013  0.74266214  1
  Ag  Ag14  1  0.74564914  0.01030690  0.74607775  1
  Ag  Ag15  1  -0.01151905  0.48331490  0.50410461  1
  Sb  Sb16  1  0.25207855  0.74395559  -0.00422447  1
  Sb  Sb17  1  0.25176795  0.74971333  0.50298248  1
  Sb  Sb18  1  -0.00429041  0.74804370  0.24900530  1
  Sb  Sb19  1  0.25036883  0.00894642  0.25137786  1
  Sb  Sb20  1  0.74812406  0.74910483  0.50750322  1
  Sb  Sb21  1  0.74982457  0.49737620  0.24862468  1
  Sb  Sb22  1  0.74913634  0.49266103  0.75054387  1
  Sb  Sb23  1  -0.00900489  0.74920834  0.75321950  1
  Sb  Sb24  1  0.25031996  0.49524727  0.24996497  1
  Sb  Sb25  1  0.50353333  0.01166526  -0.00535296  1
  Sb  Sb26  1  0.25167382  0.49740337  0.74984316  1
  Sb  Sb27  1  0.25064583  0.25013027  0.50376150  1
  Sb  Sb28  1  -0.00528571  0.01479774  -0.00472192  1
  Sb  Sb29  1  0.50291158  0.74841122  0.24985430  1
  Sb  Sb30  1  0.74957633  0.00498426  0.25523048  1
  Sb  Sb31  1  0.25198861  0.00476237  0.74929590  1
  Te  Te32  1  0.25122144  0.25190462  0.23579761  1
  Te  Te33  1  0.24781554  0.25096610  0.75954697  1
  Te  Te34  1  0.24860377  0.75226044  0.25005245  1
  Te  Te35  1  0.27003776  0.75087932  0.74879520  1
  Te  Te36  1  0.74910627  0.25055048  0.25756782  1
  Te  Te37  1  0.75113635  0.24890806  0.74142194  1
  Te  Te38  1  0.75140502  0.75343354  0.22826495  1
  Te  Te39  1  0.74398445  0.76296765  0.75481911  1
  Te  Te40  1  0.24845734  0.00395783  0.00146787  1
  Te  Te41  1  0.24818816  -0.00351840  0.49965313  1
  Te  Te42  1  0.25065565  0.49532996  -0.00009759  1
  Te  Te43  1  0.24964426  0.50297396  0.49996870  1
  Te  Te44  1  0.75023899  0.00583566  -0.00745151  1
  Te  Te45  1  0.74942068  0.00183998  0.50358528  1
  Te  Te46  1  0.74844345  0.49285059  -0.00093527  1
  Te  Te47  1  0.74957146  0.49617001  0.50057164  1
  Te  Te48  1  -0.01364262  0.25179801  -0.00215371  1
  Te  Te49  1  0.00993935  0.25144485  0.50363275  1
  Te  Te50  1  0.00130953  0.73411213  0.00022307  1
  Te  Te51  1  -0.00070338  0.74076675  0.49960688  1
  Te  Te52  1  0.51170100  0.24997288  -0.00161487  1
  Te  Te53  1  0.49082866  0.25248351  0.50308997  1
  Te  Te54  1  0.50022956  0.74305134  0.00132255  1
  Te  Te55  1  0.50145561  0.74037857  0.49968037  1
  Te  Te56  1  0.00108643  0.00527517  0.25985296  1
  Te  Te57  1  -0.00010124  -0.00121427  0.74697629  1
  Te  Te58  1  -0.00076886  0.49500059  0.25459639  1
  Te  Te59  1  -0.00040167  0.49855011  0.74707081  1
  Te  Te60  1  0.49905329  0.00477955  0.26246693  1
  Te  Te61  1  0.50001462  0.01096290  0.74881426  1
  Te  Te62  1  0.50034748  0.49471523  0.25310533  1
  Te  Te63  1  0.50110110  0.49241343  0.74906164  1
