# generated using pymatgen
data_AgSbTe2
_symmetry_space_group_name_H-M   'P 1'
_cell_length_a   12.20767842
_cell_length_b   12.20203989
_cell_length_c   12.20767843
_cell_angle_alpha   90.00270792
_cell_angle_beta   90.00116015
_cell_angle_gamma   90.00270795
_symmetry_Int_Tables_number   1
_chemical_formula_structural   AgSbTe2
_chemical_formula_sum   'Ag16 Sb16 Te32'
_cell_volume   1818.43842687
_cell_formula_units_Z   16
loop_
 _symmetry_equiv_pos_site_id
 _symmetry_equiv_pos_as_xyz
  1  'x, y, z'
loop_
 _atom_site_type_symbol
 _atom_site_label
 _atom_site_symmetry_multiplicity
 _atom_site_fract_x
 _atom_site_fract_y
 _atom_site_fract_z
 _atom_site_occupancy
  Ag  Ag0  1  -0.00108291  -0.00173123  -0.00055585  1
  Ag  Ag1  1  0.00105278  0.24999998  0.24894720  1
  Ag  Ag2  1  0.50144566  -0.00194703  -0.00057442  1
  Ag  Ag3  1  0.25104125  0.75000001  -0.00104125  1
  Ag  Ag4  1  0.74902919  0.49784313  0.75145170  1
  Ag  Ag5  1  0.49638539  0.75099686  0.24749048  1
  Ag  Ag6  1  0.25327107  0.25182003  0.50077824  1
  Ag  Ag7  1  0.00250951  0.74900314  0.75361461  1
  Ag  Ag8  1  0.74666172  0.25000001  0.50333828  1
  Ag  Ag9  1  0.74909706  0.75231356  -0.00230220  1
  Ag  Ag10  1  0.50162509  0.25000001  0.74837492  1
  Ag  Ag11  1  0.74922175  0.24817997  -0.00327106  1
  Ag  Ag12  1  0.25230221  0.74768643  0.50090295  1
  Ag  Ag13  1  0.25057443  0.50194700  0.74855434  1
  Ag  Ag14  1  0.25055584  0.50173123  0.25108291  1
  Ag  Ag15  1  0.49854829  0.00215690  0.50097082  1
  Sb  Sb16  1  0.25059723  -0.00195275  0.75018037  1
  Sb  Sb17  1  0.49981966  0.50195275  -0.00059722  1
  Sb  Sb18  1  0.00435537  0.74999999  0.24564463  1
  Sb  Sb19  1  -0.00102020  0.25115212  0.75177058  1
  Sb  Sb20  1  0.74920677  0.00243012  0.75291795  1
  Sb  Sb21  1  0.25068051  -0.00150605  0.24987814  1
  Sb  Sb22  1  0.49706987  0.75000000  0.75293012  1
  Sb  Sb23  1  0.74651337  0.75000000  0.50348665  1
  Sb  Sb24  1  0.49822942  0.24884787  0.25102020  1
  Sb  Sb25  1  0.74944220  0.49905796  0.24905988  1
  Sb  Sb26  1  0.00094013  0.00094201  0.50055780  1
  Sb  Sb27  1  0.49708205  0.49756989  0.50079326  1
  Sb  Sb28  1  0.74972688  0.00067604  0.24722755  1
  Sb  Sb29  1  0.00277243  0.49932395  0.50027310  1
  Sb  Sb30  1  0.25084412  0.24999999  -0.00084413  1
  Sb  Sb31  1  0.00012183  0.50150604  -0.00068049  1
  Te  Te32  1  0.24814288  0.25619817  0.25347504  1
  Te  Te33  1  0.25100189  0.25720865  0.74650996  1
  Te  Te34  1  0.25077017  0.74517826  0.25016995  1
  Te  Te35  1  0.24989842  0.74457422  0.75013113  1
  Te  Te36  1  0.75324981  0.25374919  0.24924342  1
  Te  Te37  1  0.74948403  0.25510163  0.75095167  1
  Te  Te38  1  0.74633706  0.74580112  0.24471517  1
  Te  Te39  1  0.75198236  0.74300628  0.75314203  1
  Te  Te40  1  0.25165478  -0.00525948  -0.00014546  1
  Te  Te41  1  0.25438288  0.00093939  0.50013310  1
  Te  Te42  1  0.25014546  0.50525948  -0.00165478  1
  Te  Te43  1  0.25025920  0.50052795  0.50193686  1
  Te  Te44  1  0.74806315  -0.00052794  -0.00025918  1
  Te  Te45  1  0.74413163  0.00547024  0.50018380  1
  Te  Te46  1  0.74986691  0.49906060  -0.00438290  1
  Te  Te47  1  0.74981620  0.49452975  0.50586838  1
  Te  Te48  1  -0.00347501  0.24380184  0.00185711  1
  Te  Te49  1  0.00075658  0.24625082  0.49675021  1
  Te  Te50  1  -0.00016996  0.75482175  -0.00077016  1
  Te  Te51  1  0.00528484  0.75419893  0.50366295  1
  Te  Te52  1  0.50349004  0.24279136  -0.00100190  1
  Te  Te53  1  0.49904832  0.24489837  0.50051599  1
  Te  Te54  1  0.49986887  0.75542581  0.00010160  1
  Te  Te55  1  0.49685795  0.75699368  0.49801764  1
  Te  Te56  1  0.00019708  0.00605919  0.24278884  1
  Te  Te57  1  0.00024498  -0.00663280  0.75721879  1
  Te  Te58  1  0.00721118  0.49394083  0.24980292  1
  Te  Te59  1  0.00146671  0.50500830  0.75009285  1
  Te  Te60  1  0.49990713  -0.00500831  0.24853328  1
  Te  Te61  1  0.49943240  0.00606006  0.75070905  1
  Te  Te62  1  0.49278120  0.50663282  0.24975503  1
  Te  Te63  1  0.49929092  0.49393995  0.75056756  1
