# generated using pymatgen
data_AgSbTe2
_symmetry_space_group_name_H-M   'P 1'
_cell_length_a   12.23300098
_cell_length_b   12.22324828
_cell_length_c   12.22989217
_cell_angle_alpha   89.99770984
_cell_angle_beta   89.99618681
_cell_angle_gamma   90.00083821
_symmetry_Int_Tables_number   1
_chemical_formula_structural   AgSbTe2
_chemical_formula_sum   'Ag16 Sb16 Te32'
_cell_volume   1828.69918014
_cell_formula_units_Z   16
loop_
 _symmetry_equiv_pos_site_id
 _symmetry_equiv_pos_as_xyz
  1  'x, y, z'
loop_
 _atom_site_type_symbol
 _atom_site_label
 _atom_site_symmetry_multiplicity
 _atom_site_fract_x
 _atom_site_fract_y
 _atom_site_fract_z
 _atom_site_occupancy
  Ag  Ag0  1  0.25056367  0.25667135  0.50303065  1
  Ag  Ag1  1  0.49656165  0.00514533  0.50268265  1
  Ag  Ag2  1  0.49557610  0.25811480  0.74223664  1
  Ag  Ag3  1  0.24979388  0.49805253  0.25245805  1
  Ag  Ag4  1  0.49196121  0.50000651  -0.00500080  1
  Ag  Ag5  1  0.25355707  0.74165266  0.50290741  1
  Ag  Ag6  1  0.25176750  0.74098351  -0.00322748  1
  Ag  Ag7  1  0.00419502  0.25459917  0.74184113  1
  Ag  Ag8  1  0.25594677  0.49886475  0.74696143  1
  Ag  Ag9  1  0.49246652  0.49537070  0.50549712  1
  Ag  Ag10  1  0.00197887  0.25535662  0.25755359  1
  Ag  Ag11  1  0.00342843  0.00752433  0.50054107  1
  Ag  Ag12  1  0.75027975  0.25374005  0.49986393  1
  Ag  Ag13  1  0.00773566  0.49800137  0.00089493  1
  Ag  Ag14  1  0.49335943  0.74064452  0.74604074  1
  Ag  Ag15  1  0.75060136  0.49608690  0.25338879  1
  Sb  Sb16  1  0.74889821  0.25471419  0.00128886  1
  Sb  Sb17  1  0.00812151  0.74265111  0.74680624  1
  Sb  Sb18  1  0.74467476  0.49732365  0.74578619  1
  Sb  Sb19  1  0.49661191  0.74587830  0.25379775  1
  Sb  Sb20  1  0.25011851  0.00352169  0.74595163  1
  Sb  Sb21  1  0.00899529  0.49134199  0.49938520  1
  Sb  Sb22  1  0.49701094  0.25529739  0.25970349  1
  Sb  Sb23  1  0.00367369  0.00206809  -0.00121261  1
  Sb  Sb24  1  0.74792028  0.74507472  0.49998749  1
  Sb  Sb25  1  0.00339844  0.74338398  0.25192429  1
  Sb  Sb26  1  0.24872648  0.00444493  0.25465357  1
  Sb  Sb27  1  0.75177130  0.00585836  0.25577826  1
  Sb  Sb28  1  0.49648764  0.00011010  -0.00350343  1
  Sb  Sb29  1  0.74991630  0.00253648  0.74639624  1
  Sb  Sb30  1  0.74732236  0.74366454  -0.00074547  1
  Sb  Sb31  1  0.25051694  0.25978249  -0.00374059  1
  Te  Te32  1  0.24714542  0.25512668  0.25407593  1
  Te  Te33  1  0.25054902  0.25291363  0.74770116  1
  Te  Te34  1  0.24966015  0.74214397  0.25315629  1
  Te  Te35  1  0.25307818  0.74552508  0.74625403  1
  Te  Te36  1  0.75425366  0.25535184  0.25452687  1
  Te  Te37  1  0.75059543  0.25110354  0.74413748  1
  Te  Te38  1  0.75117515  0.74065062  0.25039801  1
  Te  Te39  1  0.74025427  0.75049799  0.74933555  1
  Te  Te40  1  0.25039383  -0.01420886  0.00236033  1
  Te  Te41  1  0.25141406  0.00085402  0.49950291  1
  Te  Te42  1  0.25210432  0.50100802  -0.00034730  1
  Te  Te43  1  0.25021478  0.49936920  0.50145139  1
  Te  Te44  1  0.75006017  -0.00180123  0.00228327  1
  Te  Te45  1  0.74890251  0.00554939  0.49880128  1
  Te  Te46  1  0.74921196  0.49974179  0.00737574  1
  Te  Te47  1  0.74399161  0.49669241  0.49574951  1
  Te  Te48  1  0.00025130  0.25339897  -0.00140406  1
  Te  Te49  1  0.00174313  0.25029011  0.50175596  1
  Te  Te50  1  0.00416751  0.74624348  -0.00091151  1
  Te  Te51  1  0.00358130  0.76043760  0.50171925  1
  Te  Te52  1  0.50008244  0.25232024  -0.00904696  1
  Te  Te53  1  0.49742406  0.25233452  0.50134049  1
  Te  Te54  1  0.49661964  0.74824436  -0.00454860  1
  Te  Te55  1  0.49709147  0.74830432  0.50260906  1
  Te  Te56  1  -0.00058298  0.00901090  0.25367857  1
  Te  Te57  1  -0.00058339  0.00842539  0.74682631  1
  Te  Te58  1  0.00342935  0.49600113  0.24872479  1
  Te  Te59  1  0.00264807  0.49623516  0.75341849  1
  Te  Te60  1  0.50097830  0.00031947  0.25674446  1
  Te  Te61  1  0.50031865  0.00286509  0.74493537  1
  Te  Te62  1  0.49635878  0.49853542  0.24879457  1
  Te  Te63  1  0.49953037  0.49804863  0.74867439  1
