# generated using pymatgen
data_AgSbTe2
_symmetry_space_group_name_H-M   'P 1'
_cell_length_a   12.23983745
_cell_length_b   12.24621695
_cell_length_c   12.23905936
_cell_angle_alpha   90.00207297
_cell_angle_beta   90.00670058
_cell_angle_gamma   89.99744147
_symmetry_Int_Tables_number   1
_chemical_formula_structural   AgSbTe2
_chemical_formula_sum   'Ag16 Sb16 Te32'
_cell_volume   1834.53345814
_cell_formula_units_Z   16
loop_
 _symmetry_equiv_pos_site_id
 _symmetry_equiv_pos_as_xyz
  1  'x, y, z'
loop_
 _atom_site_type_symbol
 _atom_site_label
 _atom_site_symmetry_multiplicity
 _atom_site_fract_x
 _atom_site_fract_y
 _atom_site_fract_z
 _atom_site_occupancy
  Ag  Ag0  1  0.49083198  0.75540292  0.74508015  1
  Ag  Ag1  1  0.48123195  0.50237539  0.50453118  1
  Ag  Ag2  1  0.49325516  0.24412856  0.74424344  1
  Ag  Ag3  1  0.01952448  0.50555827  0.50296373  1
  Ag  Ag4  1  0.48198791  -0.00195768  0.50561122  1
  Ag  Ag5  1  0.25326668  -0.00250311  0.26891409  1
  Ag  Ag6  1  0.74566398  -0.00346290  0.25212475  1
  Ag  Ag7  1  0.49794167  -0.00363350  -0.00468654  1
  Ag  Ag8  1  0.25116641  0.75089871  0.50649633  1
  Ag  Ag9  1  0.25159204  0.50310474  0.26985058  1
  Ag  Ag10  1  0.01881201  -0.00472326  0.50202788  1
  Ag  Ag11  1  0.00971370  0.75183586  0.74342327  1
  Ag  Ag12  1  0.25312504  0.50691042  0.73142717  1
  Ag  Ag13  1  0.25710709  -0.00645411  0.73210273  1
  Ag  Ag14  1  0.25365575  0.24911506  0.50317421  1
  Ag  Ag15  1  0.74605287  0.75470214  -0.00187652  1
  Sb  Sb16  1  0.00406237  0.75139266  0.25960593  1
  Sb  Sb17  1  0.25510825  0.75348321  -0.01027407  1
  Sb  Sb18  1  0.00446569  0.24893676  0.25515057  1
  Sb  Sb19  1  0.74380250  0.24296227  -0.00035067  1
  Sb  Sb20  1  0.01009929  0.24720938  0.74357542  1
  Sb  Sb21  1  0.49587710  0.75400577  0.25688534  1
  Sb  Sb22  1  0.49678259  0.50551930  -0.00567931  1
  Sb  Sb23  1  0.74776542  0.50529493  0.25348797  1
  Sb  Sb24  1  0.74658827  0.50362556  0.74756960  1
  Sb  Sb25  1  0.74041870  -0.00322783  0.74810750  1
  Sb  Sb26  1  0.00163060  -0.00532467  -0.00347974  1
  Sb  Sb27  1  0.74356546  0.24594297  0.50101795  1
  Sb  Sb28  1  0.49533744  0.24589886  0.25801113  1
  Sb  Sb29  1  0.74846286  0.75374436  0.50159364  1
  Sb  Sb30  1  0.00372311  0.50643372  -0.00549947  1
  Sb  Sb31  1  0.25405834  0.24643326  -0.00540577  1
  Te  Te32  1  0.25082746  0.24842128  0.25792725  1
  Te  Te33  1  0.25533658  0.24921181  0.74548079  1
  Te  Te34  1  0.24992118  0.75135462  0.25721010  1
  Te  Te35  1  0.25146920  0.75109223  0.74822474  1
  Te  Te36  1  0.75008898  0.23879996  0.24877504  1
  Te  Te37  1  0.73698020  0.25115760  0.75099350  1
  Te  Te38  1  0.75047256  0.75682324  0.24306380  1
  Te  Te39  1  0.74939749  0.75001055  0.75423802  1
  Te  Te40  1  0.25611965  -0.00003634  0.00209462  1
  Te  Te41  1  0.25060953  -0.00183894  0.50093913  1
  Te  Te42  1  0.25100859  0.49932515  0.00257836  1
  Te  Te43  1  0.25085073  0.50155900  0.50095421  1
  Te  Te44  1  0.74501710  -0.00464339  0.00660966  1
  Te  Te45  1  0.75006570  0.00043179  0.49312194  1
  Te  Te46  1  0.75007231  0.50893623  0.00390802  1
  Te  Te47  1  0.75077855  0.49877674  0.49654491  1
  Te  Te48  1  -0.00264426  0.25104969  -0.00217115  1
  Te  Te49  1  0.00795566  0.24897909  0.50279449  1
  Te  Te50  1  -0.00857257  0.75058555  -0.01363232  1
  Te  Te51  1  0.00127253  0.75113692  0.50583401  1
  Te  Te52  1  0.50034277  0.24086237  -0.01210860  1
  Te  Te53  1  0.49525522  0.24856527  0.50545627  1
  Te  Te54  1  0.50352701  0.75557710  -0.00934318  1
  Te  Te55  1  0.49848641  0.75123503  0.50461263  1
  Te  Te56  1  0.00509218  -0.00053134  0.25602728  1
  Te  Te57  1  0.00567491  -0.00313122  0.74498537  1
  Te  Te58  1  0.00622867  0.49982259  0.25886633  1
  Te  Te59  1  0.00574891  0.50384215  0.74433721  1
  Te  Te60  1  0.49577650  0.00008585  0.25242662  1
  Te  Te61  1  0.49928478  -0.00354897  0.74637672  1
  Te  Te62  1  0.49458635  0.49901132  0.25637066  1
  Te  Te63  1  0.49629243  0.50344907  0.74677989  1
