# generated using pymatgen
data_AgSbTe2
_symmetry_space_group_name_H-M   'P 1'
_cell_length_a   12.21734945
_cell_length_b   12.21404719
_cell_length_c   12.20648627
_cell_angle_alpha   90.00213205
_cell_angle_beta   90.00297484
_cell_angle_gamma   90.00387745
_symmetry_Int_Tables_number   1
_chemical_formula_structural   AgSbTe2
_chemical_formula_sum   'Ag16 Sb16 Te32'
_cell_volume   1821.49194276
_cell_formula_units_Z   16
loop_
 _symmetry_equiv_pos_site_id
 _symmetry_equiv_pos_as_xyz
  1  'x, y, z'
loop_
 _atom_site_type_symbol
 _atom_site_label
 _atom_site_symmetry_multiplicity
 _atom_site_fract_x
 _atom_site_fract_y
 _atom_site_fract_z
 _atom_site_occupancy
  Ag  Ag0  1  0.00233239  -0.00574340  -0.00418968  1
  Ag  Ag1  1  0.75138614  0.00020733  0.24561839  1
  Ag  Ag2  1  0.50034611  0.25266100  0.75415792  1
  Ag  Ag3  1  0.00019527  0.75211079  0.75784783  1
  Ag  Ag4  1  0.49651260  0.49896991  -0.00380584  1
  Ag  Ag5  1  0.00350269  0.50517818  -0.00310086  1
  Ag  Ag6  1  0.49746491  0.00080528  -0.00298082  1
  Ag  Ag7  1  0.25109186  0.50008334  0.24179189  1
  Ag  Ag8  1  0.74881232  0.24997535  0.50269432  1
  Ag  Ag9  1  0.74719533  0.49950955  0.75385573  1
  Ag  Ag10  1  0.75388606  0.75048733  -0.00251728  1
  Ag  Ag11  1  0.24598448  0.74938849  -0.00258996  1
  Ag  Ag12  1  -0.00118270  0.00003896  0.50265727  1
  Ag  Ag13  1  0.24751389  -0.00012603  0.75754179  1
  Ag  Ag14  1  0.25263519  0.25056855  -0.00248218  1
  Ag  Ag15  1  0.50118494  0.49714592  0.50383748  1
  Sb  Sb16  1  -0.00017034  0.24956344  0.24741601  1
  Sb  Sb17  1  0.49999549  0.74783494  0.75506433  1
  Sb  Sb18  1  0.49985669  0.25057322  0.24490201  1
  Sb  Sb19  1  0.24760454  0.74995873  0.50326199  1
  Sb  Sb20  1  0.25154383  0.25043406  0.50300199  1
  Sb  Sb21  1  0.74927035  0.49994243  0.24556705  1
  Sb  Sb22  1  0.74765009  0.24977125  -0.00245564  1
  Sb  Sb23  1  0.00030816  0.24774832  0.75313398  1
  Sb  Sb24  1  0.24878141  -0.00023688  0.24116677  1
  Sb  Sb25  1  0.49991211  0.74980602  0.24529009  1
  Sb  Sb26  1  0.50112270  0.00288511  0.50323944  1
  Sb  Sb27  1  -0.00036187  0.49985392  0.50362647  1
  Sb  Sb28  1  0.75228950  0.75002501  0.50275677  1
  Sb  Sb29  1  0.00001168  0.75044164  0.24006985  1
  Sb  Sb30  1  0.25211485  0.49989751  0.75866709  1
  Sb  Sb31  1  0.75199568  -0.00023844  0.75441934  1
  Te  Te32  1  0.24985945  0.25496048  0.24343152  1
  Te  Te33  1  0.25485290  0.24586897  0.75463391  1
  Te  Te34  1  0.25010786  0.74484974  0.24298978  1
  Te  Te35  1  0.24496478  0.75462481  0.75515407  1
  Te  Te36  1  0.74990019  0.24486827  0.25729331  1
  Te  Te37  1  0.74502375  0.25456177  0.74656201  1
  Te  Te38  1  0.74991981  0.75579401  0.24303164  1
  Te  Te39  1  0.75465695  0.74549213  0.75530158  1
  Te  Te40  1  0.24955307  -0.00079815  -0.00015695  1
  Te  Te41  1  0.24606050  0.00041567  0.50359340  1
  Te  Te42  1  0.25100703  0.50069455  -0.00039982  1
  Te  Te43  1  0.25340249  0.49927495  0.49366207  1
  Te  Te44  1  0.75070493  -0.00071499  0.00060312  1
  Te  Te45  1  0.75232555  0.00184487  0.49764275  1
  Te  Te46  1  0.74900948  0.50051650  -0.00052850  1
  Te  Te47  1  0.74758507  0.49820966  0.50126997  1
  Te  Te48  1  0.00425085  0.24986350  -0.00184911  1
  Te  Te49  1  -0.00471613  0.24522645  0.50144827  1
  Te  Te50  1  0.00033347  0.75077680  -0.00342730  1
  Te  Te51  1  0.00008152  0.75539811  0.50973710  1
  Te  Te52  1  0.49791154  0.25085690  -0.00432347  1
  Te  Te53  1  0.50285171  0.25381986  0.50621887  1
  Te  Te54  1  0.49981749  0.74961566  -0.00199958  1
  Te  Te55  1  0.50000888  0.74193726  0.50138876  1
  Te  Te56  1  -0.00306544  -0.00004554  0.24908256  1
  Te  Te57  1  0.00169788  -0.00147363  0.75422544  1
  Te  Te58  1  0.00384644  0.49996340  0.24500387  1
  Te  Te59  1  -0.00309898  0.50303343  0.75332650  1
  Te  Te60  1  0.50410677  0.00008661  0.24483978  1
  Te  Te61  1  0.49724312  0.00353835  0.75388516  1
  Te  Te62  1  0.49725239  0.49980918  0.24715360  1
  Te  Te63  1  0.50175833  0.49760960  0.75374218  1
