# generated using pymatgen
data_AgSbTe2
_symmetry_space_group_name_H-M   'P 1'
_cell_length_a   12.21086087
_cell_length_b   12.20709877
_cell_length_c   12.21866014
_cell_angle_alpha   89.99549755
_cell_angle_beta   90.00411115
_cell_angle_gamma   90.01409215
_symmetry_Int_Tables_number   1
_chemical_formula_structural   AgSbTe2
_chemical_formula_sum   'Ag16 Sb16 Te32'
_cell_volume   1821.30345272
_cell_formula_units_Z   16
loop_
 _symmetry_equiv_pos_site_id
 _symmetry_equiv_pos_as_xyz
  1  'x, y, z'
loop_
 _atom_site_type_symbol
 _atom_site_label
 _atom_site_symmetry_multiplicity
 _atom_site_fract_x
 _atom_site_fract_y
 _atom_site_fract_z
 _atom_site_occupancy
  Ag  Ag0  1  0.49574037  0.50380985  -0.00030581  1
  Ag  Ag1  1  0.24887726  0.25014699  0.50036541  1
  Ag  Ag2  1  0.00309489  0.24798680  0.75199113  1
  Ag  Ag3  1  -0.00028515  0.00210442  0.00019788  1
  Ag  Ag4  1  0.00411306  0.24911014  0.24760803  1
  Ag  Ag5  1  0.24797939  0.25193645  -0.00032097  1
  Ag  Ag6  1  0.25083741  0.49717805  0.24628689  1
  Ag  Ag7  1  0.25226141  0.49569672  0.75416018  1
  Ag  Ag8  1  0.00127229  0.75104612  0.24500319  1
  Ag  Ag9  1  0.50176402  -0.00575360  -0.00258589  1
  Ag  Ag10  1  0.50042615  0.75320930  0.75758826  1
  Ag  Ag11  1  0.74447636  0.75393017  0.00018310  1
  Ag  Ag12  1  0.75012484  0.24596288  0.50136684  1
  Ag  Ag13  1  0.49935086  0.75059319  0.24221881  1
  Ag  Ag14  1  0.50123471  0.00107606  0.50177479  1
  Ag  Ag15  1  0.74669150  0.00099563  0.75288659  1
  Sb  Sb16  1  0.74963731  0.00013804  0.24691460  1
  Sb  Sb17  1  0.49581206  0.25009988  0.24877606  1
  Sb  Sb18  1  0.75180040  0.24632882  -0.00082444  1
  Sb  Sb19  1  0.00172706  0.49734642  0.49944206  1
  Sb  Sb20  1  0.74798214  0.49872922  0.75309390  1
  Sb  Sb21  1  0.49731443  0.24753027  0.75074596  1
  Sb  Sb22  1  0.49741936  0.49938902  0.50040173  1
  Sb  Sb23  1  0.25151942  0.75144303  0.49865829  1
  Sb  Sb24  1  -0.00132907  0.00429797  0.50082617  1
  Sb  Sb25  1  0.00458190  0.49842782  0.00123196  1
  Sb  Sb26  1  0.00003699  0.75195167  0.75644104  1
  Sb  Sb27  1  0.74748658  0.75357366  0.50072903  1
  Sb  Sb28  1  0.74828541  0.49926471  0.24758005  1
  Sb  Sb29  1  0.25001173  0.00354504  0.24850240  1
  Sb  Sb30  1  0.25657842  0.74747919  0.00097321  1
  Sb  Sb31  1  0.25243072  0.00350350  0.75226217  1
  Te  Te32  1  0.24664428  0.25293819  0.24936150  1
  Te  Te33  1  0.24754017  0.25302979  0.75063776  1
  Te  Te34  1  0.24941194  0.74408844  0.25126604  1
  Te  Te35  1  0.25338387  0.74287366  0.74869712  1
  Te  Te36  1  0.75846171  0.25079113  0.25432675  1
  Te  Te37  1  0.75443413  0.24747128  0.74788647  1
  Te  Te38  1  0.74981125  0.74983789  0.24709027  1
  Te  Te39  1  0.74751311  0.75284652  0.75207617  1
  Te  Te40  1  0.25030994  0.00672522  -0.00091484  1
  Te  Te41  1  0.25614212  0.00714886  0.50050716  1
  Te  Te42  1  0.25391249  0.49583726  0.00038008  1
  Te  Te43  1  0.25109330  0.49253538  0.49948152  1
  Te  Te44  1  0.74720672  -0.00218058  -0.00340150  1
  Te  Te45  1  0.74556950  0.00456014  0.50564340  1
  Te  Te46  1  0.74083399  0.50635401  -0.00047994  1
  Te  Te47  1  0.74942748  0.49067387  0.50047819  1
  Te  Te48  1  0.00131648  0.24800728  0.00110343  1
  Te  Te49  1  0.00250936  0.24782932  0.49913581  1
  Te  Te50  1  -0.00363985  0.75351031  0.00346130  1
  Te  Te51  1  -0.00120384  0.75153652  0.49016066  1
  Te  Te52  1  0.49795542  0.24883291  0.00084095  1
  Te  Te53  1  0.49941366  0.24516965  0.49937437  1
  Te  Te54  1  0.49933347  0.75337260  0.00086928  1
  Te  Te55  1  0.50111118  0.75572348  0.49890772  1
  Te  Te56  1  0.00008664  -0.00013375  0.24462559  1
  Te  Te57  1  -0.00276859  0.00282175  0.75427232  1
  Te  Te58  1  0.00553032  0.49982248  0.24926256  1
  Te  Te59  1  0.00556186  0.49546452  0.75012037  1
  Te  Te60  1  0.49964353  -0.00518062  0.24751684  1
  Te  Te61  1  0.50204602  -0.00250129  0.75338755  1
  Te  Te62  1  0.49576688  0.50423018  0.24662221  1
  Te  Te63  1  0.49638723  0.50388615  0.75313025  1
