# generated using pymatgen
data_AgSbTe2
_symmetry_space_group_name_H-M   'P 1'
_cell_length_a   12.30729844
_cell_length_b   12.28336350
_cell_length_c   12.29483372
_cell_angle_alpha   89.99555375
_cell_angle_beta   89.99971699
_cell_angle_gamma   90.00762430
_symmetry_Int_Tables_number   1
_chemical_formula_structural   AgSbTe2
_chemical_formula_sum   'Ag16 Sb16 Te32'
_cell_volume   1858.67171738
_cell_formula_units_Z   16
loop_
 _symmetry_equiv_pos_site_id
 _symmetry_equiv_pos_as_xyz
  1  'x, y, z'
loop_
 _atom_site_type_symbol
 _atom_site_label
 _atom_site_symmetry_multiplicity
 _atom_site_fract_x
 _atom_site_fract_y
 _atom_site_fract_z
 _atom_site_occupancy
  Ag  Ag0  1  0.49866080  0.73834426  0.25428668  1
  Ag  Ag1  1  0.75101219  -0.00801685  0.25894675  1
  Ag  Ag2  1  0.49369152  0.51285887  0.49287472  1
  Ag  Ag3  1  -0.00008025  0.74422017  0.25451551  1
  Ag  Ag4  1  -0.00087095  0.25812048  0.25463955  1
  Ag  Ag5  1  0.00513133  0.50600589  0.48878273  1
  Ag  Ag6  1  0.50309347  -0.01267100  0.50072015  1
  Ag  Ag7  1  0.49388398  0.50942162  0.01041556  1
  Ag  Ag8  1  0.25726231  0.51057005  0.74727533  1
  Ag  Ag9  1  0.49204382  0.75022038  0.74475058  1
  Ag  Ag10  1  0.25548334  0.74467188  0.00087877  1
  Ag  Ag11  1  0.25568138  -0.01276589  0.74473730  1
  Ag  Ag12  1  0.74529745  -0.00684284  0.73751348  1
  Ag  Ag13  1  0.74943306  0.50899974  0.25501986  1
  Ag  Ag14  1  0.25282602  0.50901431  0.25526539  1
  Ag  Ag15  1  -0.00304117  -0.00558178  0.49473505  1
  Sb  Sb16  1  0.25179510  0.74727649  0.49957627  1
  Sb  Sb17  1  0.74598896  0.74839906  0.00290735  1
  Sb  Sb18  1  0.74962246  0.24956272  0.49913062  1
  Sb  Sb19  1  0.74462609  0.50798922  0.74474484  1
  Sb  Sb20  1  0.25012042  0.25157147  0.49815350  1
  Sb  Sb21  1  0.25037991  0.25245678  0.00208949  1
  Sb  Sb22  1  0.00531516  0.50368075  0.01125456  1
  Sb  Sb23  1  0.74943918  0.25129071  0.00281240  1
  Sb  Sb24  1  0.00116043  -0.00339725  0.00597202  1
  Sb  Sb25  1  0.00625318  0.75057379  0.74441866  1
  Sb  Sb26  1  0.50039450  0.25653333  0.25050529  1
  Sb  Sb27  1  0.74841188  0.75128887  0.49696660  1
  Sb  Sb28  1  0.00119484  0.25016616  0.74403842  1
  Sb  Sb29  1  0.49919955  0.24831003  0.74971515  1
  Sb  Sb30  1  0.25091777  -0.00916645  0.25631122  1
  Sb  Sb31  1  0.49833178  -0.00835255  0.00070803  1
  Te  Te32  1  0.24527837  0.26173701  0.24878417  1
  Te  Te33  1  0.24854469  0.25335741  0.75167224  1
  Te  Te34  1  0.25714825  0.74715480  0.24790297  1
  Te  Te35  1  0.25211470  0.74618526  0.75225417  1
  Te  Te36  1  0.75376102  0.24747645  0.25005258  1
  Te  Te37  1  0.75197322  0.23286270  0.75184623  1
  Te  Te38  1  0.74563049  0.74989114  0.25054147  1
  Te  Te39  1  0.74217602  0.75542466  0.75356051  1
  Te  Te40  1  0.25028471  -0.00357587  -0.01138535  1
  Te  Te41  1  0.25255040  0.00169525  0.50415814  1
  Te  Te42  1  0.25085080  0.50216580  -0.00333440  1
  Te  Te43  1  0.25193967  0.49967559  0.49991435  1
  Te  Te44  1  0.75006446  0.00023086  0.00576281  1
  Te  Te45  1  0.74770432  -0.00026931  0.49570977  1
  Te  Te46  1  0.74332373  0.50111030  0.00340347  1
  Te  Te47  1  0.74998562  0.49986220  0.49622779  1
  Te  Te48  1  -0.00084413  0.24982265  0.01241254  1
  Te  Te49  1  0.00014765  0.24958874  0.49487027  1
  Te  Te50  1  0.01079020  0.74966313  0.00913434  1
  Te  Te51  1  -0.00028156  0.74981191  0.49518369  1
  Te  Te52  1  0.50080617  0.26839602  0.00014303  1
  Te  Te53  1  0.49990305  0.24735815  0.49993028  1
  Te  Te54  1  0.49566371  0.74627608  0.00434724  1
  Te  Te55  1  0.50113739  0.75109070  0.49736490  1
  Te  Te56  1  0.00372270  -0.00987982  0.25428085  1
  Te  Te57  1  -0.00011834  -0.00203901  0.74116412  1
  Te  Te58  1  -0.00165557  0.50813782  0.25315980  1
  Te  Te59  1  -0.00208365  0.50081250  0.73918150  1
  Te  Te60  1  0.49715838  0.00094191  0.25153335  1
  Te  Te61  1  0.49795670  -0.00116990  0.74961011  1
  Te  Te62  1  0.49931808  0.50006132  0.25872980  1
  Te  Te63  1  0.50238924  0.50139112  0.73722140  1
