# generated using pymatgen
data_AgSbTe2
_symmetry_space_group_name_H-M   'P 1'
_cell_length_a   12.32111939
_cell_length_b   12.29842736
_cell_length_c   12.31597349
_cell_angle_alpha   90.01128929
_cell_angle_beta   90.00241838
_cell_angle_gamma   89.99849298
_symmetry_Int_Tables_number   1
_chemical_formula_structural   AgSbTe2
_chemical_formula_sum   'Ag16 Sb16 Te32'
_cell_volume   1866.24424850
_cell_formula_units_Z   16
loop_
 _symmetry_equiv_pos_site_id
 _symmetry_equiv_pos_as_xyz
  1  'x, y, z'
loop_
 _atom_site_type_symbol
 _atom_site_label
 _atom_site_symmetry_multiplicity
 _atom_site_fract_x
 _atom_site_fract_y
 _atom_site_fract_z
 _atom_site_occupancy
  Ag  Ag0  1  0.01434903  0.25826613  0.75826853  1
  Ag  Ag1  1  0.24297472  0.25920196  -0.01075328  1
  Ag  Ag2  1  0.01365424  0.74062635  0.75760622  1
  Ag  Ag3  1  0.48168349  0.25526663  0.75611345  1
  Ag  Ag4  1  0.76145537  0.50567248  0.24063547  1
  Ag  Ag5  1  0.24765294  0.25410903  0.51071299  1
  Ag  Ag6  1  0.00488951  0.50138210  0.00845321  1
  Ag  Ag7  1  0.01083145  0.26691770  0.23757695  1
  Ag  Ag8  1  0.24964940  0.00328729  0.75076495  1
  Ag  Ag9  1  0.24911190  0.74537954  0.50421416  1
  Ag  Ag10  1  0.00609519  0.73565561  0.23829319  1
  Ag  Ag11  1  0.48568418  0.74422338  0.75601924  1
  Ag  Ag12  1  0.75199827  0.74139512  0.00346303  1
  Ag  Ag13  1  0.49442495  0.50512005  0.00178142  1
  Ag  Ag14  1  0.24225707  0.50445462  0.24368779  1
  Ag  Ag15  1  0.49206730  0.73949683  0.23982924  1
  Sb  Sb16  1  0.75143972  0.50125372  0.75555092  1
  Sb  Sb17  1  0.75099044  0.74729705  0.50038914  1
  Sb  Sb18  1  0.75008319  -0.00057494  0.75293477  1
  Sb  Sb19  1  0.75143056  -0.00187540  0.24640727  1
  Sb  Sb20  1  0.49636707  0.50159286  0.50284086  1
  Sb  Sb21  1  0.49603462  -0.00391364  -0.00079757  1
  Sb  Sb22  1  0.00228446  -0.00213154  -0.00060622  1
  Sb  Sb23  1  0.75243216  0.25493627  0.00094539  1
  Sb  Sb24  1  0.75274634  0.25449818  0.49966182  1
  Sb  Sb25  1  0.49425086  -0.00082389  0.50097064  1
  Sb  Sb26  1  0.49016383  0.26146094  0.24460579  1
  Sb  Sb27  1  0.00458977  0.50034502  0.49469229  1
  Sb  Sb28  1  0.24997783  -0.00168656  0.24598440  1
  Sb  Sb29  1  0.00412203  -0.00043614  0.50049144  1
  Sb  Sb30  1  0.24772294  0.50031810  0.75489230  1
  Sb  Sb31  1  0.24942129  0.74577598  0.00067754  1
  Te  Te32  1  0.24770186  0.24260751  0.25267191  1
  Te  Te33  1  0.24933345  0.25782373  0.74788123  1
  Te  Te34  1  0.24601370  0.75455901  0.24656769  1
  Te  Te35  1  0.24846832  0.74167886  0.75015860  1
  Te  Te36  1  0.75804464  0.24836407  0.25188021  1
  Te  Te37  1  0.75355641  0.24962668  0.74860525  1
  Te  Te38  1  0.75604909  0.74975769  0.24972203  1
  Te  Te39  1  0.75164437  0.74927004  0.74895926  1
  Te  Te40  1  0.25040364  0.02247501  -0.00769367  1
  Te  Te41  1  0.24919991  -0.00160939  0.50976138  1
  Te  Te42  1  0.24895644  0.49282815  0.00599100  1
  Te  Te43  1  0.24901998  0.50347319  0.48388277  1
  Te  Te44  1  0.74886281  -0.01911362  -0.00079424  1
  Te  Te45  1  0.74945242  0.00209735  0.49926573  1
  Te  Te46  1  0.75127332  0.50548236  0.00268099  1
  Te  Te47  1  0.74834126  0.49853950  0.48097712  1
  Te  Te48  1  -0.00385361  0.25111688  -0.00075322  1
  Te  Te49  1  0.00390670  0.25078389  0.50760719  1
  Te  Te50  1  0.00523668  0.74878434  -0.00054533  1
  Te  Te51  1  0.00564303  0.74906898  0.50708065  1
  Te  Te52  1  0.50646569  0.25377966  -0.00203423  1
  Te  Te53  1  0.49453376  0.24995713  0.50804049  1
  Te  Te54  1  0.49315953  0.74590682  -0.00247798  1
  Te  Te55  1  0.49485734  0.75005329  0.50906149  1
  Te  Te56  1  -0.00095466  -0.00229481  0.25092443  1
  Te  Te57  1  0.00382433  -0.00050318  0.74968576  1
  Te  Te58  1  0.00562043  0.50087415  0.24840988  1
  Te  Te59  1  -0.00234950  0.50265547  0.75749827  1
  Te  Te60  1  0.50207823  -0.01938607  0.25065574  1
  Te  Te61  1  0.49661846  -0.00227061  0.74990474  1
  Te  Te62  1  0.49294434  0.50346392  0.24545652  1
  Te  Te63  1  0.50311151  0.50365914  0.75466097  1
