# generated using pymatgen
data_AgSbTe2
_symmetry_space_group_name_H-M   'P 1'
_cell_length_a   12.25585425
_cell_length_b   12.24836868
_cell_length_c   12.25796232
_cell_angle_alpha   89.99804638
_cell_angle_beta   89.99630471
_cell_angle_gamma   90.00591221
_symmetry_Int_Tables_number   1
_chemical_formula_structural   AgSbTe2
_chemical_formula_sum   'Ag16 Sb16 Te32'
_cell_volume   1840.09445490
_cell_formula_units_Z   16
loop_
 _symmetry_equiv_pos_site_id
 _symmetry_equiv_pos_as_xyz
  1  'x, y, z'
loop_
 _atom_site_type_symbol
 _atom_site_label
 _atom_site_symmetry_multiplicity
 _atom_site_fract_x
 _atom_site_fract_y
 _atom_site_fract_z
 _atom_site_occupancy
  Ag  Ag0  1  0.50419644  0.74799276  0.76220971  1
  Ag  Ag1  1  0.74306340  -0.00129745  0.24429691  1
  Ag  Ag2  1  0.26710483  0.74778455  0.00602534  1
  Ag  Ag3  1  -0.00034139  0.25367090  0.24710464  1
  Ag  Ag4  1  0.50065501  0.75151666  0.23751140  1
  Ag  Ag5  1  0.74390870  0.74644091  0.49791905  1
  Ag  Ag6  1  0.73310158  0.75145255  0.00264728  1
  Ag  Ag7  1  0.50404022  -0.00059570  0.00529490  1
  Ag  Ag8  1  0.25290781  0.50183182  0.24809234  1
  Ag  Ag9  1  -0.00056580  0.50211104  0.49537828  1
  Ag  Ag10  1  0.74490932  0.50350458  0.75197359  1
  Ag  Ag11  1  0.73407075  0.24865297  0.00460939  1
  Ag  Ag12  1  0.50101278  0.24839278  0.23370307  1
  Ag  Ag13  1  0.26594102  0.25166075  0.00647069  1
  Ag  Ag14  1  0.50310341  0.25235027  0.76615334  1
  Ag  Ag15  1  0.25607825  0.74437096  0.49394942  1
  Sb  Sb16  1  0.25499386  -0.00067772  0.75136154  1
  Sb  Sb17  1  -0.00644764  0.74595760  0.75017034  1
  Sb  Sb18  1  0.74518766  -0.00247582  0.75630645  1
  Sb  Sb19  1  -0.00409826  0.25571895  0.75433034  1
  Sb  Sb20  1  -0.00035064  0.49910109  0.00671800  1
  Sb  Sb21  1  0.74577370  0.50134048  0.24829866  1
  Sb  Sb22  1  -0.00240914  -0.00111798  0.49423181  1
  Sb  Sb23  1  0.50131658  0.50525296  0.49859730  1
  Sb  Sb24  1  0.25707029  -0.00175839  0.24806100  1
  Sb  Sb25  1  0.25550965  0.50100296  0.75125217  1
  Sb  Sb26  1  -0.00656489  0.00042056  0.00528653  1
  Sb  Sb27  1  0.25191712  0.25813727  0.49164818  1
  Sb  Sb28  1  0.50107959  0.50012704  0.00161867  1
  Sb  Sb29  1  0.50203526  -0.00388196  0.49130534  1
  Sb  Sb30  1  0.00028032  0.74454277  0.25035986  1
  Sb  Sb31  1  0.74822279  0.25570594  0.49673349  1
  Te  Te32  1  0.25656526  0.24981341  0.24642180  1
  Te  Te33  1  0.25870033  0.25242979  0.75950874  1
  Te  Te34  1  0.25097160  0.74998520  0.24596304  1
  Te  Te35  1  0.26043835  0.74711386  0.75420259  1
  Te  Te36  1  0.74241488  0.25478231  0.24724026  1
  Te  Te37  1  0.74457813  0.25094374  0.75386678  1
  Te  Te38  1  0.74870813  0.74524478  0.24608418  1
  Te  Te39  1  0.74392577  0.74933678  0.75312215  1
  Te  Te40  1  0.25892348  -0.00177594  0.00240035  1
  Te  Te41  1  0.24933145  -0.01715577  0.49924693  1
  Te  Te42  1  0.24465446  0.50207201  0.00420376  1
  Te  Te43  1  0.24563844  0.50759468  0.49693092  1
  Te  Te44  1  0.74506272  -0.00137535  0.00477918  1
  Te  Te45  1  0.74998771  -0.01282883  0.49003427  1
  Te  Te46  1  0.75511445  0.50160108  -0.00282514  1
  Te  Te47  1  0.75325026  0.50657321  0.50153681  1
  Te  Te48  1  0.00040037  0.24898463  0.00584569  1
  Te  Te49  1  0.00106671  0.25522186  0.49264904  1
  Te  Te50  1  0.00136692  0.75133680  -0.00025251  1
  Te  Te51  1  -0.00001776  0.74511803  0.49941397  1
  Te  Te52  1  0.50116868  0.25638489  0.00270027  1
  Te  Te53  1  0.49902464  0.24671554  0.50007715  1
  Te  Te54  1  0.50082834  0.74404431  0.00219632  1
  Te  Te55  1  0.50113398  0.75145599  0.49898779  1
  Te  Te56  1  -0.01315359  0.01409567  0.24921285  1
  Te  Te57  1  -0.00178058  0.00228271  0.74854366  1
  Te  Te58  1  0.00612739  0.49400185  0.25438156  1
  Te  Te59  1  -0.01043460  0.49848312  0.73848823  1
  Te  Te60  1  0.50575789  -0.00044292  0.24307149  1
  Te  Te61  1  0.50249603  -0.00009865  0.76302522  1
  Te  Te62  1  0.49437923  0.49994489  0.25342672  1
  Te  Te63  1  0.50666839  0.50088020  0.74589686  1
