# generated using pymatgen
data_AgSbTe2
_symmetry_space_group_name_H-M   'P 1'
_cell_length_a   12.21472046
_cell_length_b   12.21060797
_cell_length_c   12.21650774
_cell_angle_alpha   89.99902555
_cell_angle_beta   89.99852775
_cell_angle_gamma   89.99329605
_symmetry_Int_Tables_number   1
_chemical_formula_structural   AgSbTe2
_chemical_formula_sum   'Ag16 Sb16 Te32'
_cell_volume   1822.08188925
_cell_formula_units_Z   16
loop_
 _symmetry_equiv_pos_site_id
 _symmetry_equiv_pos_as_xyz
  1  'x, y, z'
loop_
 _atom_site_type_symbol
 _atom_site_label
 _atom_site_symmetry_multiplicity
 _atom_site_fract_x
 _atom_site_fract_y
 _atom_site_fract_z
 _atom_site_occupancy
  Ag  Ag0  1  0.74997651  0.25224773  0.49739156  1
  Ag  Ag1  1  0.25122844  0.25112786  0.00494353  1
  Ag  Ag2  1  0.49430105  0.25092683  0.25317275  1
  Ag  Ag3  1  0.25006923  0.25344297  0.49526367  1
  Ag  Ag4  1  0.24994000  0.74865047  0.00183285  1
  Ag  Ag5  1  0.24872948  0.49945518  0.74669849  1
  Ag  Ag6  1  0.74996365  0.00066343  0.74948532  1
  Ag  Ag7  1  0.49673666  0.25043372  0.74734900  1
  Ag  Ag8  1  0.00309932  0.74814087  0.74937596  1
  Ag  Ag9  1  0.25126282  0.00354690  0.25051472  1
  Ag  Ag10  1  0.00493067  0.25236623  0.25421601  1
  Ag  Ag11  1  0.75015488  0.49805499  0.25190617  1
  Ag  Ag12  1  0.75018079  0.74936179  0.00082043  1
  Ag  Ag13  1  0.00351646  0.49773558  0.49923336  1
  Ag  Ag14  1  0.49569314  0.74894447  0.24960051  1
  Ag  Ag15  1  0.24872666  0.74635079  0.49837202  1
  Sb  Sb16  1  0.00076615  -0.00021010  0.00017958  1
  Sb  Sb17  1  0.49739825  0.49989598  0.00158278  1
  Sb  Sb18  1  0.74857352  0.25095596  0.00213628  1
  Sb  Sb19  1  0.49881991  0.00019257  0.00062050  1
  Sb  Sb20  1  0.75154441  0.49922632  0.74782025  1
  Sb  Sb21  1  0.00481999  0.74743078  0.25095209  1
  Sb  Sb22  1  0.75121643  0.74743872  0.49901022  1
  Sb  Sb23  1  0.25009016  0.00111742  0.74956282  1
  Sb  Sb24  1  0.24934831  0.49469460  0.25371257  1
  Sb  Sb25  1  0.00341964  0.25202286  0.74611225  1
  Sb  Sb26  1  0.49682931  0.74943403  0.75033586  1
  Sb  Sb27  1  0.49859154  0.00281854  0.49961099  1
  Sb  Sb28  1  0.49566140  0.49739086  0.49917780  1
  Sb  Sb29  1  0.00261157  0.49999328  0.00096306  1
  Sb  Sb30  1  0.00144517  0.00229571  0.49954799  1
  Sb  Sb31  1  0.74873163  0.00171109  0.25064671  1
  Te  Te32  1  0.25289183  0.25348392  0.25124756  1
  Te  Te33  1  0.25095348  0.24958104  0.74875667  1
  Te  Te34  1  0.25085617  0.74934894  0.24898813  1
  Te  Te35  1  0.25059346  0.75003756  0.75065859  1
  Te  Te36  1  0.74749317  0.24946530  0.25022710  1
  Te  Te37  1  0.74771908  0.24899417  0.74944063  1
  Te  Te38  1  0.74751821  0.74993707  0.24789716  1
  Te  Te39  1  0.74979789  0.75105620  0.75206571  1
  Te  Te40  1  0.24932786  -0.00100225  0.00464346  1
  Te  Te41  1  0.24891533  0.00081127  0.49571344  1
  Te  Te42  1  0.24822868  0.50148973  -0.00700228  1
  Te  Te43  1  0.24530057  0.49876770  0.50317305  1
  Te  Te44  1  0.75124342  -0.00679152  -0.00484091  1
  Te  Te45  1  0.75132957  0.00654840  0.50427983  1
  Te  Te46  1  0.75216220  0.50594957  0.00493291  1
  Te  Te47  1  0.75704184  0.49545006  0.49690517  1
  Te  Te48  1  0.00608597  0.25078906  0.00534122  1
  Te  Te49  1  0.00184182  0.25400252  0.49821544  1
  Te  Te50  1  0.00295001  0.74939529  -0.00366775  1
  Te  Te51  1  0.00398518  0.74466836  0.50269207  1
  Te  Te52  1  0.49497901  0.25045209  0.00188172  1
  Te  Te53  1  0.49837530  0.25081813  0.49759349  1
  Te  Te54  1  0.49694712  0.74948303  0.00420280  1
  Te  Te55  1  0.49384573  0.74914483  0.49458225  1
  Te  Te56  1  0.00610962  0.00746327  0.25020452  1
  Te  Te57  1  -0.00552946  -0.00710365  0.74978513  1
  Te  Te58  1  -0.00537753  0.49557546  0.25590319  1
  Te  Te59  1  0.00348746  0.50406155  0.74412431  1
  Te  Te60  1  0.49494175  0.00122191  0.25026218  1
  Te  Te61  1  0.50593211  0.00699030  0.74955187  1
  Te  Te62  1  0.50741720  0.49882027  0.25036150  1
  Te  Te63  1  0.49425879  0.49323200  0.74973177  1
