# generated using pymatgen
data_AgSbTe2
_symmetry_space_group_name_H-M   'P 1'
_cell_length_a   12.30687137
_cell_length_b   12.29376302
_cell_length_c   12.31399022
_cell_angle_alpha   89.99995477
_cell_angle_beta   89.98721889
_cell_angle_gamma   89.99932600
_symmetry_Int_Tables_number   1
_chemical_formula_structural   AgSbTe2
_chemical_formula_sum   'Ag16 Sb16 Te32'
_cell_volume   1863.07909228
_cell_formula_units_Z   16
loop_
 _symmetry_equiv_pos_site_id
 _symmetry_equiv_pos_as_xyz
  1  'x, y, z'
loop_
 _atom_site_type_symbol
 _atom_site_label
 _atom_site_symmetry_multiplicity
 _atom_site_fract_x
 _atom_site_fract_y
 _atom_site_fract_z
 _atom_site_occupancy
  Ag  Ag0  1  0.75714319  0.26484983  0.51756862  1
  Ag  Ag1  1  0.74985609  0.48447133  0.74505690  1
  Ag  Ag2  1  0.24317327  0.26331451  0.49644534  1
  Ag  Ag3  1  -0.00932313  0.49160170  0.49707822  1
  Ag  Ag4  1  0.74772382  0.73423605  -0.00216138  1
  Ag  Ag5  1  0.24715309  0.73511279  0.49749781  1
  Ag  Ag6  1  0.75002772  0.48864760  0.25485536  1
  Ag  Ag7  1  0.75033053  0.02282831  0.74812878  1
  Ag  Ag8  1  0.51008401  0.49362956  0.00277574  1
  Ag  Ag9  1  0.75308728  0.73346556  0.50276350  1
  Ag  Ag10  1  -0.02041435  0.25606596  0.73819353  1
  Ag  Ag11  1  -0.01274029  0.25825808  0.26249117  1
  Ag  Ag12  1  0.74608741  0.26218078  -0.01934217  1
  Ag  Ag13  1  0.24879707  0.49281388  0.25991521  1
  Ag  Ag14  1  0.51950339  0.25635101  0.74676119  1
  Ag  Ag15  1  0.51278900  0.25809001  0.25298113  1
  Sb  Sb16  1  -0.00144057  0.01053844  0.50039009  1
  Sb  Sb17  1  0.24941559  0.00688278  0.74697746  1
  Sb  Sb18  1  -0.00868892  0.49746233  0.00374924  1
  Sb  Sb19  1  0.25144417  0.49684124  0.73797972  1
  Sb  Sb20  1  -0.00295514  0.73875206  0.25453222  1
  Sb  Sb21  1  0.50318512  0.73807342  0.25048303  1
  Sb  Sb22  1  0.25179143  0.25656535  0.00260883  1
  Sb  Sb23  1  0.25040171  0.00873514  0.25365297  1
  Sb  Sb24  1  0.25188172  0.73830159  0.00287227  1
  Sb  Sb25  1  0.50451022  0.00818551  -0.00187016  1
  Sb  Sb26  1  -0.00501202  0.74079585  0.74629004  1
  Sb  Sb27  1  -0.00471421  0.00418870  -0.00141507  1
  Sb  Sb28  1  0.50494887  0.73988888  0.74918407  1
  Sb  Sb29  1  0.50791040  0.49603091  0.49722646  1
  Sb  Sb30  1  0.74981839  0.01252211  0.25321014  1
  Sb  Sb31  1  0.50162794  0.00376834  0.50151895  1
  Te  Te32  1  0.24996009  0.25301536  0.25329688  1
  Te  Te33  1  0.25007843  0.25008537  0.74358586  1
  Te  Te34  1  0.25016590  0.74465189  0.25475951  1
  Te  Te35  1  0.25013901  0.75193756  0.74336113  1
  Te  Te36  1  0.74959750  0.25111765  0.25352821  1
  Te  Te37  1  0.74953913  0.25302179  0.74922524  1
  Te  Te38  1  0.74966151  0.74611410  0.25420155  1
  Te  Te39  1  0.74931855  0.74261088  0.74494325  1
  Te  Te40  1  0.25031633  -0.00806507  -0.00023969  1
  Te  Te41  1  0.24889961  -0.00565348  0.49963133  1
  Te  Te42  1  0.25962368  0.50183741  0.01178798  1
  Te  Te43  1  0.24848300  0.49725341  0.49734084  1
  Te  Te44  1  0.75025050  -0.00141120  -0.00568772  1
  Te  Te45  1  0.75127547  -0.00608377  0.50345885  1
  Te  Te46  1  0.74960142  0.49730471  0.00264961  1
  Te  Te47  1  0.74972023  0.49762269  0.49736730  1
  Te  Te48  1  -0.00341908  0.25244433  -0.00171293  1
  Te  Te49  1  -0.00323843  0.25515421  0.49986378  1
  Te  Te50  1  -0.00742471  0.75071148  -0.00048296  1
  Te  Te51  1  -0.00456692  0.73990299  0.49977936  1
  Te  Te52  1  0.50221836  0.25311400  -0.00003740  1
  Te  Te53  1  0.50107400  0.25271534  0.50037768  1
  Te  Te54  1  0.50589693  0.74345288  -0.00003139  1
  Te  Te55  1  0.50221289  0.75210356  0.50000255  1
  Te  Te56  1  0.00092206  0.01804812  0.24860733  1
  Te  Te57  1  -0.00437061  0.01251335  0.75035386  1
  Te  Te58  1  -0.00548198  0.49494000  0.25079094  1
  Te  Te59  1  -0.00135249  0.49503406  0.74635763  1
  Te  Te60  1  0.49909038  0.01801661  0.24950965  1
  Te  Te61  1  0.50451299  0.01306938  0.74972150  1
  Te  Te62  1  0.50782323  0.49498164  0.25033048  1
  Te  Te63  1  0.50207021  0.49498915  0.75496060  1
