# generated using pymatgen
data_AgSbTe2
_symmetry_space_group_name_H-M   'P 1'
_cell_length_a   12.24369747
_cell_length_b   12.23068434
_cell_length_c   12.21942773
_cell_angle_alpha   89.99321354
_cell_angle_beta   89.99917213
_cell_angle_gamma   90.00761240
_symmetry_Int_Tables_number   1
_chemical_formula_structural   AgSbTe2
_chemical_formula_sum   'Ag16 Sb16 Te32'
_cell_volume   1829.84459684
_cell_formula_units_Z   16
loop_
 _symmetry_equiv_pos_site_id
 _symmetry_equiv_pos_as_xyz
  1  'x, y, z'
loop_
 _atom_site_type_symbol
 _atom_site_label
 _atom_site_symmetry_multiplicity
 _atom_site_fract_x
 _atom_site_fract_y
 _atom_site_fract_z
 _atom_site_occupancy
  Ag  Ag0  1  0.49952323  0.74952549  0.74160579  1
  Ag  Ag1  1  0.75062101  -0.00187216  0.25630342  1
  Ag  Ag2  1  0.75054328  0.24914025  -0.00922847  1
  Ag  Ag3  1  -0.00103018  -0.00626001  0.49898709  1
  Ag  Ag4  1  0.24934892  -0.00546713  0.25764557  1
  Ag  Ag5  1  0.75238341  0.24766298  0.50693216  1
  Ag  Ag6  1  0.24551000  0.50331852  0.74478690  1
  Ag  Ag7  1  0.00125820  0.75458719  0.26193866  1
  Ag  Ag8  1  -0.00122256  0.50634794  0.50716858  1
  Ag  Ag9  1  0.49893315  0.75566273  0.25999461  1
  Ag  Ag10  1  0.50124916  -0.00508714  0.49892701  1
  Ag  Ag11  1  -0.00746251  0.25473363  0.74381237  1
  Ag  Ag12  1  0.00078699  0.74512983  0.73847931  1
  Ag  Ag13  1  0.50775269  0.25093861  0.74562772  1
  Ag  Ag14  1  0.75403558  0.49522567  0.74591868  1
  Ag  Ag15  1  0.24572957  0.75273925  0.50118154  1
  Sb  Sb16  1  0.24680584  0.50515436  0.25654356  1
  Sb  Sb17  1  0.50187712  0.49936799  -0.00268924  1
  Sb  Sb18  1  0.75028146  0.00515142  0.74462253  1
  Sb  Sb19  1  -0.00200011  0.00089959  -0.00010363  1
  Sb  Sb20  1  0.75347651  0.75325963  0.50164017  1
  Sb  Sb21  1  -0.00195932  0.49930051  -0.00830988  1
  Sb  Sb22  1  0.24913092  0.24820065  0.50254911  1
  Sb  Sb23  1  -0.00204746  0.24626432  0.25653692  1
  Sb  Sb24  1  0.24933692  -0.00309903  0.74425796  1
  Sb  Sb25  1  0.50274984  0.24480539  0.25573249  1
  Sb  Sb26  1  0.24960147  0.74986218  -0.00162970  1
  Sb  Sb27  1  0.50199176  0.50454294  0.50355694  1
  Sb  Sb28  1  0.50198543  0.00084563  -0.00002318  1
  Sb  Sb29  1  0.75044097  0.75127215  -0.00269527  1
  Sb  Sb30  1  0.24946709  0.24924373  -0.00485008  1
  Sb  Sb31  1  0.75274075  0.50110811  0.25390435  1
  Te  Te32  1  0.25098257  0.24583804  0.24808171  1
  Te  Te33  1  0.25048385  0.25341379  0.75034343  1
  Te  Te34  1  0.24943262  0.75162002  0.25229126  1
  Te  Te35  1  0.24976576  0.74869155  0.74758028  1
  Te  Te36  1  0.74942657  0.24839723  0.25276342  1
  Te  Te37  1  0.75002485  0.24851326  0.74712501  1
  Te  Te38  1  0.74982364  0.75249129  0.24763722  1
  Te  Te39  1  0.74933511  0.74636189  0.75198392  1
  Te  Te40  1  0.24995102  0.00038726  0.01287231  1
  Te  Te41  1  0.24962778  -0.00345569  0.49736167  1
  Te  Te42  1  0.24995885  0.49864305  -0.00944453  1
  Te  Te43  1  0.24507518  0.50476720  0.50480559  1
  Te  Te44  1  0.75006224  0.00533420  0.00999252  1
  Te  Te45  1  0.75036144  0.00351788  0.49730571  1
  Te  Te46  1  0.75042509  0.49291682  -0.00520348  1
  Te  Te47  1  0.75379940  0.49239822  0.50370433  1
  Te  Te48  1  -0.00480806  0.25006892  -0.00784366  1
  Te  Te49  1  -0.00068102  0.24738294  0.50307869  1
  Te  Te50  1  -0.00028604  0.75006013  -0.00064758  1
  Te  Te51  1  -0.00080317  0.75268552  0.50182428  1
  Te  Te52  1  0.50494975  0.24983524  -0.00808526  1
  Te  Te53  1  0.50164251  0.24633703  0.50392033  1
  Te  Te54  1  0.50013048  0.75012056  -0.00345545  1
  Te  Te55  1  0.49935246  0.75235496  0.50195799  1
  Te  Te56  1  -0.00162449  -0.00237368  0.25370901  1
  Te  Te57  1  0.00066346  -0.00242689  0.74531234  1
  Te  Te58  1  0.00031763  0.50654846  0.25755111  1
  Te  Te59  1  -0.00206245  0.50188579  0.74708296  1
  Te  Te60  1  0.50168666  -0.00321103  0.25410935  1
  Te  Te61  1  0.49966452  -0.00310650  0.74506514  1
  Te  Te62  1  0.49938246  0.50960995  0.24968133  1
  Te  Te63  1  0.50210016  0.50188735  0.74841508  1
