# generated using pymatgen
data_AgSbTe2
_symmetry_space_group_name_H-M   'P 1'
_cell_length_a   12.23455512
_cell_length_b   12.24530262
_cell_length_c   12.22377536
_cell_angle_alpha   89.99926126
_cell_angle_beta   89.98476074
_cell_angle_gamma   89.99381145
_symmetry_Int_Tables_number   1
_chemical_formula_structural   AgSbTe2
_chemical_formula_sum   'Ag16 Sb16 Te32'
_cell_volume   1831.31497535
_cell_formula_units_Z   16
loop_
 _symmetry_equiv_pos_site_id
 _symmetry_equiv_pos_as_xyz
  1  'x, y, z'
loop_
 _atom_site_type_symbol
 _atom_site_label
 _atom_site_symmetry_multiplicity
 _atom_site_fract_x
 _atom_site_fract_y
 _atom_site_fract_z
 _atom_site_occupancy
  Ag  Ag0  1  0.75719543  -0.00113399  0.75527820  1
  Ag  Ag1  1  0.00524199  0.50428225  0.50744558  1
  Ag  Ag2  1  0.24110469  0.49872559  0.74256866  1
  Ag  Ag3  1  0.50428191  0.24870188  0.75100361  1
  Ag  Ag4  1  0.75415236  0.75662187  -0.01093166  1
  Ag  Ag5  1  -0.00203866  -0.00467878  0.51035017  1
  Ag  Ag6  1  0.24034162  0.74339924  0.50532500  1
  Ag  Ag7  1  0.75748829  0.50160946  0.74825483  1
  Ag  Ag8  1  0.76006302  0.75010738  0.51118162  1
  Ag  Ag9  1  0.50883663  0.00165844  -0.00654787  1
  Ag  Ag10  1  0.75213059  0.24275189  -0.00793881  1
  Ag  Ag11  1  -0.00820224  -0.00041596  -0.01118701  1
  Ag  Ag12  1  -0.00384410  0.24925164  0.74796797  1
  Ag  Ag13  1  0.24498523  0.25737253  0.50597306  1
  Ag  Ag14  1  -0.00625453  0.75094835  0.74420815  1
  Ag  Ag15  1  0.24648084  0.49995562  0.25901288  1
  Sb  Sb16  1  0.24812587  -0.00025787  0.25331124  1
  Sb  Sb17  1  0.75623743  0.25046188  0.51015088  1
  Sb  Sb18  1  0.49890603  0.75000043  0.24925575  1
  Sb  Sb19  1  0.50300068  0.00120495  0.50719463  1
  Sb  Sb20  1  0.50188262  0.49860566  -0.00446531  1
  Sb  Sb21  1  0.24507851  0.75017129  -0.00635603  1
  Sb  Sb22  1  0.49529970  0.49979234  0.50425205  1
  Sb  Sb23  1  0.24204910  0.00085793  0.74813373  1
  Sb  Sb24  1  0.50573752  0.75219161  0.75088689  1
  Sb  Sb25  1  0.75169874  -0.00041615  0.24607618  1
  Sb  Sb26  1  0.75392047  0.50057667  0.25379938  1
  Sb  Sb27  1  0.00072741  0.25108167  0.25168151  1
  Sb  Sb28  1  0.49840238  0.24979142  0.24941791  1
  Sb  Sb29  1  0.24798668  0.24999674  -0.00627783  1
  Sb  Sb30  1  -0.00223633  0.50071820  -0.00954854  1
  Sb  Sb31  1  0.00060919  0.74937504  0.25649160  1
  Te  Te32  1  0.25039015  0.25473854  0.25718036  1
  Te  Te33  1  0.24647649  0.25165891  0.74762640  1
  Te  Te34  1  0.25042772  0.74494592  0.25692090  1
  Te  Te35  1  0.24694329  0.74618452  0.74646811  1
  Te  Te36  1  0.74880417  0.25178184  0.23667708  1
  Te  Te37  1  0.75307960  0.25010189  0.75082401  1
  Te  Te38  1  0.74928598  0.74836207  0.25027070  1
  Te  Te39  1  0.75034139  0.74977808  0.74919774  1
  Te  Te40  1  0.24762317  -0.00093232  0.00106816  1
  Te  Te41  1  0.24598760  -0.00258921  0.49966810  1
  Te  Te42  1  0.24993247  0.50098998  -0.00181782  1
  Te  Te43  1  0.24944304  0.50126733  0.50489752  1
  Te  Te44  1  0.75379917  -0.00101017  -0.00089443  1
  Te  Te45  1  0.75396904  -0.00184298  0.50197145  1
  Te  Te46  1  0.75100668  0.50225116  -0.00298289  1
  Te  Te47  1  0.75338123  0.50203886  0.50293148  1
  Te  Te48  1  -0.00209266  0.24701331  -0.00450248  1
  Te  Te49  1  0.00195238  0.24886014  0.50314298  1
  Te  Te50  1  -0.00321105  0.75284256  -0.00556097  1
  Te  Te51  1  -0.00089877  0.75097642  0.50215953  1
  Te  Te52  1  0.50148429  0.24687628  -0.00461639  1
  Te  Te53  1  0.49301976  0.24831689  0.50467283  1
  Te  Te54  1  0.50592023  0.75588860  -0.00045253  1
  Te  Te55  1  0.50053580  0.75164850  0.49965037  1
  Te  Te56  1  0.00037326  0.00014137  0.25014778  1
  Te  Te57  1  -0.00136468  -0.00031759  0.74918811  1
  Te  Te58  1  0.00532845  0.49953101  0.26024450  1
  Te  Te59  1  -0.00137091  0.49985284  0.74804496  1
  Te  Te60  1  0.49980639  0.00053115  0.23892279  1
  Te  Te61  1  0.50659146  0.00438232  0.75378777  1
  Te  Te62  1  0.49137448  0.49936360  0.24865760  1
  Te  Te63  1  0.50227130  0.49305895  0.75053783  1
