# generated using pymatgen
data_AgSbTe2
_symmetry_space_group_name_H-M   'P 1'
_cell_length_a   12.21146965
_cell_length_b   12.21008155
_cell_length_c   12.20985371
_cell_angle_alpha   89.99517479
_cell_angle_beta   89.99419064
_cell_angle_gamma   90.00314189
_symmetry_Int_Tables_number   1
_chemical_formula_structural   AgSbTe2
_chemical_formula_sum   'Ag16 Sb16 Te32'
_cell_volume   1820.52629095
_cell_formula_units_Z   16
loop_
 _symmetry_equiv_pos_site_id
 _symmetry_equiv_pos_as_xyz
  1  'x, y, z'
loop_
 _atom_site_type_symbol
 _atom_site_label
 _atom_site_symmetry_multiplicity
 _atom_site_fract_x
 _atom_site_fract_y
 _atom_site_fract_z
 _atom_site_occupancy
  Ag  Ag0  1  0.00131680  0.24855616  0.74989827  1
  Ag  Ag1  1  0.24996565  0.75345973  0.49858245  1
  Ag  Ag2  1  0.49796772  -0.00291871  0.49489155  1
  Ag  Ag3  1  0.49839967  -0.00012528  0.00475164  1
  Ag  Ag4  1  0.25170006  0.49919001  0.24714748  1
  Ag  Ag5  1  0.00127503  0.75111758  0.74719589  1
  Ag  Ag6  1  0.25344940  0.00022651  0.25167247  1
  Ag  Ag7  1  0.25006781  0.25100234  0.00191824  1
  Ag  Ag8  1  0.24840087  0.49974227  0.75250031  1
  Ag  Ag9  1  0.75222229  0.00010049  0.74849431  1
  Ag  Ag10  1  0.00445069  0.24581268  0.24991970  1
  Ag  Ag11  1  0.49540527  0.49963269  0.00024309  1
  Ag  Ag12  1  0.00141471  -0.00032304  0.50048659  1
  Ag  Ag13  1  0.74649536  0.00023335  0.25147015  1
  Ag  Ag14  1  0.75188042  0.49994240  0.75169694  1
  Ag  Ag15  1  0.49604590  0.75570815  0.25030865  1
  Sb  Sb16  1  0.74774179  0.49935987  0.24767709  1
  Sb  Sb17  1  0.75004924  0.75401151  0.50094694  1
  Sb  Sb18  1  0.00274870  0.00238379  -0.00036023  1
  Sb  Sb19  1  0.75193196  0.24661845  0.50067572  1
  Sb  Sb20  1  0.24720337  0.24601514  0.49784258  1
  Sb  Sb21  1  0.25262854  0.74918208  0.00146872  1
  Sb  Sb22  1  0.00208883  0.50135982  0.50235247  1
  Sb  Sb23  1  0.49473370  0.24263960  0.24774926  1
  Sb  Sb24  1  0.49695433  0.24952001  0.75207038  1
  Sb  Sb25  1  0.00552294  0.49781944  -0.00198071  1
  Sb  Sb26  1  0.24714909  0.00019003  0.74889779  1
  Sb  Sb27  1  0.00474108  0.75478091  0.25376780  1
  Sb  Sb28  1  0.74969020  0.24845372  -0.00103342  1
  Sb  Sb29  1  0.49624261  0.50402853  0.49855967  1
  Sb  Sb30  1  0.49791915  0.75149729  0.74880977  1
  Sb  Sb31  1  0.74818014  0.75138729  -0.00071520  1
  Te  Te32  1  0.24606436  0.25029578  0.24830667  1
  Te  Te33  1  0.24538652  0.25415372  0.75287309  1
  Te  Te34  1  0.25087147  0.75053306  0.25234425  1
  Te  Te35  1  0.24701823  0.74625580  0.74653694  1
  Te  Te36  1  0.75941405  0.24550889  0.24946749  1
  Te  Te37  1  0.75753203  0.24885333  0.75075453  1
  Te  Te38  1  0.74595453  0.75449326  0.25013188  1
  Te  Te39  1  0.75486821  0.75101913  0.74961357  1
  Te  Te40  1  0.25492758  0.00315821  0.00335755  1
  Te  Te41  1  0.24988161  -0.00299773  0.49773405  1
  Te  Te42  1  0.25419432  0.49796683  0.00056651  1
  Te  Te43  1  0.25156441  0.50549942  0.49997673  1
  Te  Te44  1  0.74260847  0.00129130  -0.00049595  1
  Te  Te45  1  0.75023541  -0.00112220  0.50059061  1
  Te  Te46  1  0.74087561  0.49900478  -0.00559354  1
  Te  Te47  1  0.74872439  0.50082605  0.50840226  1
  Te  Te48  1  0.00682435  0.24956781  -0.00058976  1
  Te  Te49  1  0.00099657  0.24278047  0.50101811  1
  Te  Te50  1  0.00004826  0.74975350  -0.00945941  1
  Te  Te51  1  0.00545017  0.75597747  0.50430079  1
  Te  Te52  1  0.49315426  0.24994940  -0.00000876  1
  Te  Te53  1  0.49970644  0.23998803  0.50015237  1
  Te  Te54  1  0.49928463  0.75134153  0.00503879  1
  Te  Te55  1  0.49432109  0.75533637  0.49569007  1
  Te  Te56  1  0.00061596  0.00030862  0.25142522  1
  Te  Te57  1  -0.00242510  0.00171727  0.74898983  1
  Te  Te58  1  0.00295656  0.49664047  0.25052957  1
  Te  Te59  1  0.00049260  0.49839577  0.74925585  1
  Te  Te60  1  0.49942068  -0.00012061  0.24945711  1
  Te  Te61  1  0.50552078  -0.00105356  0.75092918  1
  Te  Te62  1  0.49841260  0.50356877  0.24777882  1
  Te  Te63  1  0.49911563  0.50050426  0.75301923  1
