# generated using pymatgen
data_AgSbTe2
_symmetry_space_group_name_H-M   'P 1'
_cell_length_a   12.21216590
_cell_length_b   12.20975160
_cell_length_c   12.21198632
_cell_angle_alpha   90.00148108
_cell_angle_beta   89.99887335
_cell_angle_gamma   90.00134682
_symmetry_Int_Tables_number   1
_chemical_formula_structural   AgSbTe2
_chemical_formula_sum   'Ag16 Sb16 Te32'
_cell_volume   1820.89889629
_cell_formula_units_Z   16
loop_
 _symmetry_equiv_pos_site_id
 _symmetry_equiv_pos_as_xyz
  1  'x, y, z'
loop_
 _atom_site_type_symbol
 _atom_site_label
 _atom_site_symmetry_multiplicity
 _atom_site_fract_x
 _atom_site_fract_y
 _atom_site_fract_z
 _atom_site_occupancy
  Ag  Ag0  1  0.25263322  0.74954556  -0.00720623  1
  Ag  Ag1  1  0.00314329  0.49469886  0.50736907  1
  Ag  Ag2  1  0.49742399  -0.00657807  -0.00375081  1
  Ag  Ag3  1  0.24475765  0.50354555  0.74750363  1
  Ag  Ag4  1  0.75370444  0.25161596  0.50172460  1
  Ag  Ag5  1  0.49728371  -0.00182933  0.50380022  1
  Ag  Ag6  1  0.49409387  0.75112276  0.75226280  1
  Ag  Ag7  1  0.49840649  0.75043269  0.24870996  1
  Ag  Ag8  1  0.00406156  0.25690376  0.74455933  1
  Ag  Ag9  1  0.24631123  0.25284151  0.50426888  1
  Ag  Ag10  1  0.74736468  0.74958463  -0.00283052  1
  Ag  Ag11  1  0.00637179  0.74395992  0.75168183  1
  Ag  Ag12  1  0.00127826  0.25282422  0.25590721  1
  Ag  Ag13  1  0.25280838  -0.00399253  0.74930535  1
  Ag  Ag14  1  0.00273470  0.50277430  -0.00794765  1
  Ag  Ag15  1  0.49678569  0.50114322  0.50386514  1
  Sb  Sb16  1  0.00380660  0.00645857  0.50391304  1
  Sb  Sb17  1  0.74981971  0.50015135  0.25065781  1
  Sb  Sb18  1  0.25139643  0.74719824  0.50935887  1
  Sb  Sb19  1  0.75215316  0.25063763  -0.00218068  1
  Sb  Sb20  1  0.24852180  0.25113115  -0.00489324  1
  Sb  Sb21  1  0.49887215  0.25070483  0.25444809  1
  Sb  Sb22  1  0.74744581  0.74909819  0.50257722  1
  Sb  Sb23  1  0.49702106  0.50854557  -0.00584364  1
  Sb  Sb24  1  0.00295045  -0.00325753  -0.00410350  1
  Sb  Sb25  1  0.75643343  0.50063643  0.74933639  1
  Sb  Sb26  1  0.24993867  0.50062867  0.25422587  1
  Sb  Sb27  1  0.74521583  -0.00075062  0.74955036  1
  Sb  Sb28  1  0.25224447  -0.00114507  0.25181698  1
  Sb  Sb29  1  0.49589029  0.25014136  0.74675531  1
  Sb  Sb30  1  0.00153119  0.74683021  0.24871927  1
  Sb  Sb31  1  0.74851375  -0.00025609  0.25045875  1
  Te  Te32  1  0.24529371  0.24979442  0.25648156  1
  Te  Te33  1  0.24644928  0.25093787  0.74699872  1
  Te  Te34  1  0.25417373  0.75044863  0.24014594  1
  Te  Te35  1  0.25002918  0.74967733  0.75093883  1
  Te  Te36  1  0.75559775  0.24986033  0.25542660  1
  Te  Te37  1  0.75810568  0.24884103  0.74536931  1
  Te  Te38  1  0.74537163  0.75034374  0.24307145  1
  Te  Te39  1  0.74976728  0.75098999  0.75464224  1
  Te  Te40  1  0.25395249  -0.00275625  -0.00547646  1
  Te  Te41  1  0.25470462  0.00390863  0.50498527  1
  Te  Te42  1  0.24649367  0.50208825  -0.00598771  1
  Te  Te43  1  0.24960376  0.49818763  0.50360771  1
  Te  Te44  1  0.74348178  -0.00526506  -0.00015025  1
  Te  Te45  1  0.74187163  0.00517268  0.50039973  1
  Te  Te46  1  0.75514820  0.50441082  0.00023121  1
  Te  Te47  1  0.74966884  0.49525365  0.50007613  1
  Te  Te48  1  -0.00149510  0.25453760  -0.00182944  1
  Te  Te49  1  0.00101081  0.25063302  0.50253751  1
  Te  Te50  1  0.00107102  0.74718461  -0.00058605  1
  Te  Te51  1  -0.00143508  0.74446677  0.50199573  1
  Te  Te52  1  0.50204416  0.24248432  0.00202321  1
  Te  Te53  1  0.49963505  0.25112418  0.49887530  1
  Te  Te54  1  0.49874421  0.75016663  -0.00295107  1
  Te  Te55  1  0.50120538  0.74981908  0.50150686  1
  Te  Te56  1  0.00049828  0.00665705  0.24960838  1
  Te  Te57  1  0.00721619  -0.00237780  0.75026619  1
  Te  Te58  1  0.00075177  0.49618926  0.25198477  1
  Te  Te59  1  0.00239231  0.50117069  0.74869813  1
  Te  Te60  1  0.49898471  -0.00527781  0.25130335  1
  Te  Te61  1  0.49602346  -0.00130195  0.74865098  1
  Te  Te62  1  0.49906519  0.50507174  0.25673323  1
  Te  Te63  1  0.49365668  0.50221303  0.74640294  1
