# generated using pymatgen
data_AgSbTe2
_symmetry_space_group_name_H-M   'P 1'
_cell_length_a   12.21373425
_cell_length_b   12.21911792
_cell_length_c   12.22170845
_cell_angle_alpha   89.99952149
_cell_angle_beta   89.99711195
_cell_angle_gamma   90.01091284
_symmetry_Int_Tables_number   1
_chemical_formula_structural   AgSbTe2
_chemical_formula_sum   'Ag16 Sb16 Te32'
_cell_volume   1823.98067796
_cell_formula_units_Z   16
loop_
 _symmetry_equiv_pos_site_id
 _symmetry_equiv_pos_as_xyz
  1  'x, y, z'
loop_
 _atom_site_type_symbol
 _atom_site_label
 _atom_site_symmetry_multiplicity
 _atom_site_fract_x
 _atom_site_fract_y
 _atom_site_fract_z
 _atom_site_occupancy
  Ag  Ag0  1  0.00222145  0.49712838  -0.00157928  1
  Ag  Ag1  1  0.24940452  0.75264989  -0.00329168  1
  Ag  Ag2  1  0.00225036  0.74845375  0.24551925  1
  Ag  Ag3  1  0.25348512  -0.00295605  0.75488394  1
  Ag  Ag4  1  0.49783886  0.75163716  0.24918577  1
  Ag  Ag5  1  0.74771633  0.00074670  0.75484392  1
  Ag  Ag6  1  0.24766452  0.50213314  0.75111211  1
  Ag  Ag7  1  0.49912609  -0.00475937  0.50679137  1
  Ag  Ag8  1  0.49585344  0.75549586  0.75086960  1
  Ag  Ag9  1  0.75648983  0.24617859  -0.00258086  1
  Ag  Ag10  1  0.49757012  0.50407106  0.50326934  1
  Ag  Ag11  1  -0.00104015  0.25113413  0.24246717  1
  Ag  Ag12  1  0.00052969  0.00283741  -0.00345159  1
  Ag  Ag13  1  0.49868848  -0.00404910  -0.00690583  1
  Ag  Ag14  1  0.00006565  0.25006858  0.75666307  1
  Ag  Ag15  1  0.00260912  0.50017190  0.50188396  1
  Sb  Sb16  1  0.74879689  0.75094041  0.50201577  1
  Sb  Sb17  1  0.75033096  0.00086730  0.24492830  1
  Sb  Sb18  1  0.25171281  0.74956039  0.50462119  1
  Sb  Sb19  1  0.00148832  -0.00124730  0.50348027  1
  Sb  Sb20  1  0.50011263  0.24473509  0.75125512  1
  Sb  Sb21  1  0.24284053  0.24686342  -0.00303904  1
  Sb  Sb22  1  0.00465130  0.74945187  0.75493140  1
  Sb  Sb23  1  0.24920915  0.25024682  0.50259594  1
  Sb  Sb24  1  0.24754646  0.50304220  0.24829538  1
  Sb  Sb25  1  0.75198746  0.24827978  0.50329651  1
  Sb  Sb26  1  0.75117461  0.75363518  -0.00187034  1
  Sb  Sb27  1  0.50110760  0.24898133  0.24699178  1
  Sb  Sb28  1  0.75196388  0.49974797  0.24832782  1
  Sb  Sb29  1  0.49714915  0.50417543  -0.00303669  1
  Sb  Sb30  1  0.24970435  -0.00353416  0.24434327  1
  Sb  Sb31  1  0.75132500  0.49973939  0.75152131  1
  Te  Te32  1  0.24057447  0.24968991  0.24972576  1
  Te  Te33  1  0.24430116  0.25074452  0.75106233  1
  Te  Te34  1  0.24997200  0.75064850  0.24145213  1
  Te  Te35  1  0.25352810  0.75095272  0.75462721  1
  Te  Te36  1  0.75772233  0.24959047  0.24321371  1
  Te  Te37  1  0.75535598  0.24511191  0.75426118  1
  Te  Te38  1  0.74932836  0.75030478  0.24938088  1
  Te  Te39  1  0.74082512  0.75648225  0.75092198  1
  Te  Te40  1  0.24941817  -0.00304664  -0.00432599  1
  Te  Te41  1  0.25557205  0.00027344  0.50949502  1
  Te  Te42  1  0.24605448  0.50475774  -0.00602499  1
  Te  Te43  1  0.24961821  0.49981220  0.50751334  1
  Te  Te44  1  0.75181586  0.00281541  -0.00396443  1
  Te  Te45  1  0.74378131  0.00092407  0.50869615  1
  Te  Te46  1  0.75687969  0.49288585  -0.00132462  1
  Te  Te47  1  0.74977446  0.49921661  0.50119215  1
  Te  Te48  1  -0.00043824  0.24849623  -0.00108767  1
  Te  Te49  1  -0.00092864  0.25480897  0.50005078  1
  Te  Te50  1  0.00114701  0.75125186  0.00202810  1
  Te  Te51  1  0.00058151  0.74491150  0.49173744  1
  Te  Te52  1  0.50674151  0.24483642  0.00300480  1
  Te  Te53  1  0.50073283  0.25198325  0.49767380  1
  Te  Te54  1  0.49886302  0.75179297  0.00018041  1
  Te  Te55  1  0.49954719  0.74995517  0.49920231  1
  Te  Te56  1  0.00017020  -0.00152210  0.24820118  1
  Te  Te57  1  0.00117701  -0.00030783  0.75045135  1
  Te  Te58  1  0.00114998  0.50162510  0.24951679  1
  Te  Te59  1  0.00148642  0.50049681  0.75011905  1
  Te  Te60  1  0.49977626  -0.00389729  0.25011534  1
  Te  Te61  1  0.49755568  0.00132062  0.75165678  1
  Te  Te62  1  0.49873612  0.50515171  0.25522849  1
  Te  Te63  1  0.49760586  0.50150572  0.74768105  1
