# generated using pymatgen
data_AgSbTe2
_symmetry_space_group_name_H-M   'P 1'
_cell_length_a   12.21378228
_cell_length_b   12.22296934
_cell_length_c   12.21633304
_cell_angle_alpha   90.00018234
_cell_angle_beta   89.99382550
_cell_angle_gamma   90.00480286
_symmetry_Int_Tables_number   1
_chemical_formula_structural   AgSbTe2
_chemical_formula_sum   'Ag16 Sb16 Te32'
_cell_volume   1823.76029477
_cell_formula_units_Z   16
loop_
 _symmetry_equiv_pos_site_id
 _symmetry_equiv_pos_as_xyz
  1  'x, y, z'
loop_
 _atom_site_type_symbol
 _atom_site_label
 _atom_site_symmetry_multiplicity
 _atom_site_fract_x
 _atom_site_fract_y
 _atom_site_fract_z
 _atom_site_occupancy
  Ag  Ag0  1  0.25437012  -0.00020824  0.24710686  1
  Ag  Ag1  1  0.49964660  0.24849479  0.24693398  1
  Ag  Ag2  1  0.49679392  0.75208238  0.75093591  1
  Ag  Ag3  1  0.25071576  0.50021322  0.24686598  1
  Ag  Ag4  1  0.49869013  -0.00068504  0.50164598  1
  Ag  Ag5  1  0.25314213  0.75193609  0.00076711  1
  Ag  Ag6  1  0.49926049  0.24765539  0.75324304  1
  Ag  Ag7  1  0.49613990  0.00210057  -0.00182014  1
  Ag  Ag8  1  0.25884829  -0.00204541  0.75302551  1
  Ag  Ag9  1  0.00099067  0.25174022  0.24746488  1
  Ag  Ag10  1  0.25685614  0.50218533  0.75330065  1
  Ag  Ag11  1  0.00268326  0.74851019  0.24942100  1
  Ag  Ag12  1  0.74324858  0.50003777  0.75090849  1
  Ag  Ag13  1  0.74907852  0.49805563  0.24895825  1
  Ag  Ag14  1  0.74442676  0.25103040  0.00248354  1
  Ag  Ag15  1  0.74664524  0.74889826  0.49947857  1
  Sb  Sb16  1  0.74631291  0.74904552  0.00069506  1
  Sb  Sb17  1  0.73995381  0.00037174  0.75036792  1
  Sb  Sb18  1  0.25341342  0.75190535  0.49951242  1
  Sb  Sb19  1  0.00495298  0.00024785  0.00203935  1
  Sb  Sb20  1  0.25578653  0.24743974  0.00260249  1
  Sb  Sb21  1  -0.00101763  0.50188052  0.49660713  1
  Sb  Sb22  1  0.00036153  -0.00199185  0.49733771  1
  Sb  Sb23  1  0.00218886  0.74907207  0.75051753  1
  Sb  Sb24  1  0.25314704  0.24876418  0.49782443  1
  Sb  Sb25  1  0.00116272  0.49918651  0.00324276  1
  Sb  Sb26  1  0.74478186  0.00225271  0.24914160  1
  Sb  Sb27  1  0.49805262  0.75077751  0.24841723  1
  Sb  Sb28  1  0.50125829  0.50205467  0.50160854  1
  Sb  Sb29  1  0.00027029  0.25064375  0.75343391  1
  Sb  Sb30  1  0.49940699  0.49698752  -0.00116952  1
  Sb  Sb31  1  0.74597068  0.25084642  0.49830889  1
  Te  Te32  1  0.25218760  0.25237284  0.24825452  1
  Te  Te33  1  0.25257622  0.25287324  0.75146780  1
  Te  Te34  1  0.24985795  0.74775579  0.24928259  1
  Te  Te35  1  0.25106569  0.74775981  0.75081303  1
  Te  Te36  1  0.74695374  0.25304795  0.24883024  1
  Te  Te37  1  0.74802415  0.25514709  0.75203680  1
  Te  Te38  1  0.75119398  0.74512061  0.24945419  1
  Te  Te39  1  0.74929864  0.74483382  0.75016422  1
  Te  Te40  1  0.25415207  -0.00181739  0.00119241  1
  Te  Te41  1  0.25611692  -0.00055103  0.49932444  1
  Te  Te42  1  0.25058307  0.50551394  0.00055737  1
  Te  Te43  1  0.25018832  0.50040651  0.49993952  1
  Te  Te44  1  0.74262413  0.00411827  -0.00066313  1
  Te  Te45  1  0.74388028  -0.00669933  0.50074519  1
  Te  Te46  1  0.74958739  0.49703410  0.00120424  1
  Te  Te47  1  0.74941570  0.50524612  0.49934431  1
  Te  Te48  1  -0.00984793  0.24826634  0.00683140  1
  Te  Te49  1  -0.00187380  0.24827513  0.48928902  1
  Te  Te50  1  0.00584331  0.75199536  0.00664991  1
  Te  Te51  1  -0.00884316  0.75146716  0.49329276  1
  Te  Te52  1  0.50303560  0.24567980  -0.00009077  1
  Te  Te53  1  0.50127647  0.24207930  0.50048088  1
  Te  Te54  1  0.49609339  0.75717142  -0.00450487  1
  Te  Te55  1  0.50445199  0.75551797  0.50490010  1
  Te  Te56  1  0.00808650  0.00032274  0.25089185  1
  Te  Te57  1  0.01212576  0.00129310  0.74949297  1
  Te  Te58  1  0.00207561  0.49920401  0.25023939  1
  Te  Te59  1  0.00225569  0.49896650  0.74914193  1
  Te  Te60  1  0.49604061  0.00188180  0.24935789  1
  Te  Te61  1  0.49739956  0.00141369  0.75064887  1
  Te  Te62  1  0.49849203  0.49597050  0.25118091  1
  Te  Te63  1  0.49814310  0.49884711  0.74904295  1
