# generated using pymatgen
data_Ca24Ti8Al207Au49
_symmetry_space_group_name_H-M   'P 1'
_cell_length_a   17.32332984
_cell_length_b   17.32188537
_cell_length_c   17.32255401
_cell_angle_alpha   89.99972921
_cell_angle_beta   90.00101390
_cell_angle_gamma   89.99766476
_symmetry_Int_Tables_number   1
_chemical_formula_structural   Ca24Ti8Al207Au49
_chemical_formula_sum   'Ca24 Ti8 Al207 Au49'
_cell_volume   5198.02613208
_cell_formula_units_Z   1
loop_
 _symmetry_equiv_pos_site_id
 _symmetry_equiv_pos_as_xyz
  1  'x, y, z'
loop_
 _atom_site_type_symbol
 _atom_site_label
 _atom_site_symmetry_multiplicity
 _atom_site_fract_x
 _atom_site_fract_y
 _atom_site_fract_z
 _atom_site_occupancy
  Ca  Ca0  1  0.24938999  -0.00276913  -0.00349707  1
  Ca  Ca1  1  0.24821969  -0.00720672  0.50008180  1
  Ca  Ca2  1  0.25074300  0.50098721  0.00389799  1
  Ca  Ca3  1  0.24576914  0.50560408  0.49784247  1
  Ca  Ca4  1  0.74651452  -0.00078458  -0.00244772  1
  Ca  Ca5  1  0.75183349  -0.00463265  0.50160718  1
  Ca  Ca6  1  0.75095854  0.49998705  -0.00102059  1
  Ca  Ca7  1  0.75456274  0.50158351  0.50111194  1
  Ca  Ca8  1  0.00385658  0.25224243  -0.00362650  1
  Ca  Ca9  1  -0.00092657  0.25605220  0.50188840  1
  Ca  Ca10  1  0.00292026  0.75219459  0.00012209  1
  Ca  Ca11  1  -0.00049571  0.75175700  0.50215159  1
  Ca  Ca12  1  0.49759084  0.24553448  -0.00058894  1
  Ca  Ca13  1  0.49706283  0.24931380  0.49959039  1
  Ca  Ca14  1  0.49859788  0.75167509  -0.00280378  1
  Ca  Ca15  1  0.49839249  0.75264718  0.49942151  1
  Ca  Ca16  1  0.00409037  -0.00385149  0.25138901  1
  Ca  Ca17  1  0.00241265  -0.00364528  0.74634697  1
  Ca  Ca18  1  -0.00119806  0.50007933  0.25109003  1
  Ca  Ca19  1  -0.00420893  0.50026361  0.75129776  1
  Ca  Ca20  1  0.49385545  0.00048103  0.24849876  1
  Ca  Ca21  1  0.49681393  -0.00139936  0.75186280  1
  Ca  Ca22  1  0.50126637  0.50132238  0.25058438  1
  Ca  Ca23  1  0.49968178  0.50314969  0.75142906  1
  Ti  Ti24  1  0.25084283  0.24841602  0.24837174  1
  Ti  Ti25  1  0.24949304  0.24645829  0.75242314  1
  Ti  Ti26  1  0.24822768  0.75074998  0.25110841  1
  Ti  Ti27  1  0.25028880  0.75223932  0.74963467  1
  Ti  Ti28  1  0.74981096  0.25216799  0.24959556  1
  Ti  Ti29  1  0.75041426  0.24993876  0.75066297  1
  Ti  Ti30  1  0.75180241  0.74913016  0.25219978  1
  Ti  Ti31  1  0.74951723  0.75106156  0.74940933  1
  Al  Al32  1  0.08848608  0.07530147  0.08721726  1
  Al  Al33  1  0.08230908  0.07319386  0.58903177  1
  Al  Al34  1  0.08933918  0.58514391  0.08137608  1
  Al  Al35  1  0.07414558  0.59831745  0.58614968  1
  Al  Al36  1  0.57576022  0.07624395  0.08024407  1
  Al  Al37  1  0.57808394  0.07636609  0.58551015  1
  Al  Al38  1  0.58097199  0.57814989  0.08613691  1
  Al  Al39  1  0.58698009  0.58418006  0.57677141  1
  Al  Al40  1  0.41956016  0.41186184  0.08935257  1
  Al  Al41  1  0.42606420  0.42291774  0.57692710  1
  Al  Al42  1  0.41395021  0.92278277  0.07531506  1
  Al  Al43  1  0.40456328  0.91039755  0.58649678  1
  Al  Al44  1  0.92295541  0.41403630  0.08799007  1
  Al  Al45  1  0.91093277  0.41329623  0.58013586  1
  Al  Al46  1  0.92489094  0.90962079  0.09102410  1
  Al  Al47  1  0.91534168  0.90275283  0.58420819  1
  Al  Al48  1  0.40821970  0.07077454  0.41436533  1
  Al  Al49  1  0.40768853  0.08485804  0.91252978  1
  Al  Al50  1  0.41090202  0.58664625  0.41702236  1
  Al  Al51  1  0.41062065  0.59117467  0.92461180  1
  Al  Al52  1  0.92409453  0.07782123  0.42365618  1
  Al  Al53  1  0.92763226  0.08537056  0.90781922  1
  Al  Al54  1  0.91107104  0.59241725  0.42139058  1
  Al  Al55  1  0.92133753  0.58016308  0.91876598  1
  Al  Al56  1  0.07323167  0.41736370  0.41583765  1
  Al  Al57  1  0.08004010  0.41383572  0.90942090  1
  Al  Al58  1  0.08662918  0.90465587  0.41292329  1
  Al  Al59  1  0.08935863  0.92222891  0.91078019  1
  Al  Al60  1  0.59200452  0.42007728  0.41250679  1
  Al  Al61  1  0.57783223  0.42163573  0.91756997  1
  Al  Al62  1  0.57472692  0.91358422  0.42368684  1
  Al  Al63  1  0.59391976  0.91655270  0.91349947  1
  Al  Al64  1  0.08301790  0.07261307  0.41451487  1
  Al  Al65  1  0.08724437  0.08413680  0.90292931  1
  Al  Al66  1  0.07841318  0.58854994  0.42166187  1
  Al  Al67  1  0.08776377  0.58695115  0.92106608  1
  Al  Al68  1  0.56966267  0.07797391  0.42247957  1
  Al  Al69  1  0.57960231  0.07637077  0.91153521  1
  Al  Al70  1  0.59419274  0.58256964  0.41412789  1
  Al  Al71  1  0.57847942  0.58144317  0.91819902  1
  Al  Al72  1  0.42237741  0.42576095  0.41431795  1
  Al  Al73  1  0.41699949  0.41783326  0.92362285  1
  Al  Al74  1  0.40488834  0.91091965  0.41755106  1
  Al  Al75  1  0.40865316  0.92122429  0.90998385  1
  Al  Al76  1  0.91180753  0.41081172  0.41701760  1
  Al  Al77  1  0.92322882  0.41258012  0.91192062  1
  Al  Al78  1  0.92144618  0.90151363  0.41774651  1
  Al  Al79  1  0.92560024  0.91893884  0.91785243  1
  Al  Al80  1  0.07994063  0.41774455  0.09020000  1
  Al  Al81  1  0.06893624  0.41929687  0.57632602  1
  Al  Al82  1  0.08596371  0.91501067  0.09626364  1
  Al  Al83  1  0.08914545  0.90438884  0.58646397  1
  Al  Al84  1  0.57848414  0.41745695  0.09601955  1
  Al  Al85  1  0.58757799  0.41748205  0.57910581  1
  Al  Al86  1  0.59105418  0.91651002  0.07273199  1
  Al  Al87  1  0.58193464  0.91327627  0.58511367  1
  Al  Al88  1  0.40897411  0.08887127  0.07644253  1
  Al  Al89  1  0.40913654  0.07028160  0.58755558  1
  Al  Al90  1  0.41464220  0.58871845  0.08271457  1
  Al  Al91  1  0.41816965  0.59173796  0.57524362  1
  Al  Al92  1  0.92497944  0.07633969  0.08161228  1
  Al  Al93  1  0.92124915  0.07691842  0.58651142  1
  Al  Al94  1  0.92066531  0.57977919  0.08158158  1
  Al  Al95  1  0.91243766  0.59806612  0.58441125  1
  Al  Al96  1  0.25032152  0.13617992  0.13335715  1
  Al  Al97  1  0.24870477  0.12427108  0.63994757  1
  Al  Al98  1  0.25267969  0.63723883  0.13613255  1
  Al  Al99  1  0.25001451  0.63831181  0.63395770  1
  Al  Al100  1  0.75029599  0.13951430  0.13805563  1
  Al  Al101  1  0.75133566  0.13353769  0.63699491  1
  Al  Al102  1  0.75155508  0.63567903  0.13752223  1
  Al  Al103  1  0.75499982  0.63776497  0.63393177  1
  Al  Al104  1  0.25395947  0.36117862  0.12865982  1
  Al  Al105  1  0.25348935  0.36249097  0.63893356  1
  Al  Al106  1  0.24641992  0.86892973  0.13494055  1
  Al  Al107  1  0.25069461  0.87042717  0.63528469  1
  Al  Al108  1  0.75102925  0.36542046  0.13808387  1
  Al  Al109  1  0.75396649  0.36580764  0.63589629  1
  Al  Al110  1  0.75213101  0.86432781  0.13693959  1
  Al  Al111  1  0.75091871  0.86043022  0.62775255  1
  Al  Al112  1  0.24950030  0.12530764  0.36165256  1
  Al  Al113  1  0.25153106  0.12859466  0.86454359  1
  Al  Al114  1  0.24564709  0.63834150  0.36686059  1
  Al  Al115  1  0.25265623  0.63841331  0.86245592  1
  Al  Al116  1  0.75602545  0.13538437  0.36176505  1
  Al  Al117  1  0.74634095  0.13260980  0.86185956  1
  Al  Al118  1  0.75415981  0.63193536  0.36626581  1
  Al  Al119  1  0.74889858  0.63254072  0.86164548  1
  Al  Al120  1  0.25098587  0.36296889  0.35956261  1
  Al  Al121  1  0.24875081  0.36069860  0.87199955  1
  Al  Al122  1  0.24706677  0.86834519  0.36722268  1
  Al  Al123  1  0.25078534  0.87030104  0.86298784  1
  Al  Al124  1  0.75086794  0.37119845  0.36139652  1
  Al  Al125  1  0.75162750  0.36858876  0.86394462  1
  Al  Al126  1  0.75821169  0.85929119  0.37454061  1
  Al  Al127  1  0.74520931  0.86686495  0.86533345  1
  Al  Al128  1  0.13522741  0.25369874  0.13213208  1
  Al  Al129  1  0.13792629  0.24667507  0.64012727  1
  Al  Al130  1  0.13193126  0.75724387  0.13790664  1
  Al  Al131  1  0.13812891  0.75520356  0.62892969  1
  Al  Al132  1  0.62855594  0.25194838  0.13860829  1
  Al  Al133  1  0.63720547  0.25038545  0.63803639  1
  Al  Al134  1  0.63884610  0.75094422  0.13594150  1
  Al  Al135  1  0.63545969  0.75058383  0.63486634  1
  Al  Al136  1  0.13802067  0.24656119  0.36010531  1
  Al  Al137  1  0.13254252  0.24600174  0.86562383  1
  Al  Al138  1  0.13117931  0.75418221  0.36916604  1
  Al  Al139  1  0.13566541  0.75539268  0.86388572  1
  Al  Al140  1  0.63450533  0.25251735  0.36229055  1
  Al  Al141  1  0.63587278  0.25027352  0.86317233  1
  Al  Al142  1  0.63697767  0.74946572  0.36696389  1
  Al  Al143  1  0.63073099  0.75467903  0.86478273  1
  Al  Al144  1  0.36774513  0.24681595  0.13250631  1
  Al  Al145  1  0.36769029  0.24560164  0.64194016  1
  Al  Al146  1  0.36273768  0.75086474  0.13363343  1
  Al  Al147  1  0.36308229  0.75485758  0.63409646  1
  Al  Al148  1  0.86847032  0.25407921  0.13697230  1
  Al  Al149  1  0.86689356  0.25196403  0.63709222  1
  Al  Al150  1  0.86700324  0.75254262  0.13802597  1
  Al  Al151  1  0.86683463  0.75132623  0.63106185  1
  Al  Al152  1  0.36560635  0.24927718  0.36149863  1
  Al  Al153  1  0.36037493  0.24513248  0.87264836  1
  Al  Al154  1  0.36120253  0.75437656  0.36679037  1
  Al  Al155  1  0.36919393  0.75204043  0.86300298  1
  Al  Al156  1  0.86284304  0.25516247  0.36419168  1
  Al  Al157  1  0.86777403  0.24957626  0.86319403  1
  Al  Al158  1  0.86924074  0.74757833  0.36618525  1
  Al  Al159  1  0.86514362  0.75263902  0.86324082  1
  Al  Al160  1  0.13692675  0.12770367  0.24707398  1
  Al  Al161  1  0.13431287  0.12663576  0.75382131  1
  Al  Al162  1  0.13448589  0.63797252  0.25180781  1
  Al  Al163  1  0.13318707  0.64233500  0.74475249  1
  Al  Al164  1  0.62860244  0.13713768  0.24875863  1
  Al  Al165  1  0.63452638  0.12802842  0.74838121  1
  Al  Al166  1  0.63751492  0.63539328  0.25576228  1
  Al  Al167  1  0.63051386  0.63955043  0.75232679  1
  Al  Al168  1  0.36829048  0.13468421  0.24854879  1
  Al  Al169  1  0.36138787  0.12771461  0.75298031  1
  Al  Al170  1  0.36431490  0.63954029  0.25235225  1
  Al  Al171  1  0.36961877  0.63944871  0.74941086  1
  Al  Al172  1  0.86812345  0.13374281  0.24782904  1
  Al  Al173  1  0.86643477  0.13438723  0.75378597  1
  Al  Al174  1  0.86654176  0.62859483  0.25407079  1
  Al  Al175  1  0.87077278  0.63988952  0.74603038  1
  Al  Al176  1  0.13516820  0.36405235  0.24654859  1
  Al  Al177  1  0.13557078  0.36200893  0.75574837  1
  Al  Al178  1  0.13443854  0.86815816  0.25256284  1
  Al  Al179  1  0.13466534  0.86778173  0.74715175  1
  Al  Al180  1  0.63338609  0.36773918  0.25082266  1
  Al  Al181  1  0.63551965  0.36620720  0.75137875  1
  Al  Al182  1  0.63937943  0.86223298  0.25288409  1
  Al  Al183  1  0.63742531  0.87135627  0.74963272  1
  Al  Al184  1  0.36821465  0.36345202  0.24329363  1
  Al  Al185  1  0.36477166  0.36332216  0.75611377  1
  Al  Al186  1  0.35965876  0.86928390  0.25459428  1
  Al  Al187  1  0.36243347  0.87023611  0.75030862  1
  Al  Al188  1  0.86542262  0.37204869  0.24989529  1
  Al  Al189  1  0.86650578  0.36490455  0.75464800  1
  Al  Al190  1  0.86999619  0.86229507  0.25249017  1
  Al  Al191  1  0.87023765  0.86273043  0.74789484  1
  Al  Al192  1  0.67021769  0.16963917  -0.00035278  1
  Al  Al193  1  0.00160919  0.17412512  0.68682890  1
  Al  Al194  1  0.17318110  0.17657696  0.50017544  1
  Al  Al195  1  0.82871098  0.18681297  0.50073096  1
  Al  Al196  1  -0.00020514  0.32067015  0.31401465  1
  Al  Al197  1  0.32159537  0.50088866  0.31753041  1
  Al  Al198  1  0.31682746  0.68915244  0.49974070  1
  Al  Al199  1  0.67151459  -0.00095042  0.33046808  1
  Al  Al200  1  0.18233437  0.50005646  0.17708247  1
  Al  Al201  1  0.81927759  -0.00435523  0.67339386  1
  Al  Al202  1  0.31886192  0.81663566  -0.00066413  1
  Al  Al203  1  0.00298386  0.18522056  0.17942276  1
  Al  Al204  1  0.68947735  0.68069378  0.49984781  1
  Al  Al205  1  0.49800353  0.81832874  0.32622374  1
  Al  Al206  1  0.66936714  0.68387538  -0.00043136  1
  Al  Al207  1  0.81841758  0.83237352  -0.00011083  1
  Al  Al208  1  0.32902359  0.32376706  0.50005315  1
  Al  Al209  1  -0.00073613  0.67923584  0.17587137  1
  Al  Al210  1  0.82472449  0.16982843  -0.00052767  1
  Al  Al211  1  0.18040124  0.17391503  -0.00170285  1
  Al  Al212  1  0.82133960  -0.00113760  0.82871876  1
  Al  Al213  1  0.00046289  0.32573010  0.68422766  1
  Al  Al214  1  0.31522479  0.00184828  0.18285583  1
  Al  Al215  1  0.49867653  0.82232159  0.68082608  1
  Al  Al216  1  0.17138023  0.32895999  0.50001552  1
  Al  Al217  1  0.19198866  0.68436833  0.00028935  1
  Al  Al218  1  0.16850511  0.49966040  0.33004473  1
  Al  Al219  1  0.16644653  0.49809042  0.66824565  1
  Al  Al220  1  0.82966605  0.32772097  -0.00018311  1
  Al  Al221  1  0.33023149  0.50231047  0.68044365  1
  Al  Al222  1  0.49925056  0.83549115  0.17485533  1
  Al  Al223  1  0.49933404  0.32237565  0.67623125  1
  Al  Al224  1  0.50160405  0.67584216  0.18172028  1
  Al  Al225  1  0.83134501  -0.00451446  0.32655085  1
  Al  Al226  1  0.67952767  0.50155532  0.18691009  1
  Al  Al227  1  0.67238390  0.17053590  0.49902375  1
  Al  Al228  1  0.49866841  0.17797448  0.82177679  1
  Al  Al229  1  0.82551519  0.67397371  -0.00070040  1
  Al  Al230  1  0.00309441  0.67853940  0.82269387  1
  Al  Al231  1  0.67573320  0.50296573  0.67612354  1
  Al  Al232  1  0.67650038  0.32594861  0.00223294  1
  Al  Al233  1  0.68795065  0.32759857  0.49862483  1
  Al  Al234  1  0.67968070  0.00117200  0.17237777  1
  Al  Al235  1  0.82948824  0.50187507  0.67818726  1
  Al  Al236  1  0.32716012  0.16948790  0.50119854  1
  Al  Al237  1  0.50073605  0.32355854  0.32433576  1
  Al  Al238  1  0.17816274  0.50168558  0.82559576  1
  Au  Au239  1  0.00155866  0.17004398  0.67457317  1
  Au  Au240  1  0.16476114  0.33813478  0.00070313  1
  Au  Au241  1  0.83396896  -0.00130139  0.82506969  1
  Au  Au242  1  0.17128182  -0.00437450  0.32629452  1
  Au  Au243  1  -0.00038837  0.67849309  0.33245192  1
  Au  Au244  1  0.32658545  0.33986097  0.49479232  1
  Au  Au245  1  0.00149778  0.67092048  0.16672066  1
  Au  Au246  1  0.50685668  0.82763832  0.16172409  1
  Au  Au247  1  0.16207796  0.83078775  0.00115093  1
  Au  Au248  1  0.15053461  0.49815105  0.67363298  1
  Au  Au249  1  0.49180308  0.16439088  0.33079543  1
  Au  Au250  1  0.66943375  -0.00239452  0.67237987  1
  Au  Au251  1  0.33763325  0.32209251  0.00360549  1
  Au  Au252  1  0.16989654  0.67819670  0.50108016  1
  Au  Au253  1  0.65517620  -0.00233572  0.32405718  1
  Au  Au254  1  0.67317250  0.82776002  0.49932832  1
  Au  Au255  1  0.83521393  -0.00049448  0.33791108  1
  Au  Au256  1  0.50150039  0.66601080  0.33390954  1
  Au  Au257  1  0.33240893  0.50196133  0.16905128  1
  Au  Au258  1  0.17430056  -0.00520460  0.67434987  1
  Au  Au259  1  0.83084938  -0.00255243  0.16582284  1
  Au  Au260  1  0.67077548  0.66721806  0.00296916  1
  Au  Au261  1  0.83384082  0.49944830  0.83024912  1
  Au  Au262  1  0.65707600  0.17915918  0.49963960  1
  Au  Au263  1  0.49228832  0.15790316  0.67336910  1
  Au  Au264  1  0.17603524  0.15776195  -0.00258520  1
  Au  Au265  1  0.16963963  0.16042873  0.50146591  1
  Au  Au266  1  0.82562069  0.50067876  0.33821843  1
  Au  Au267  1  0.00117751  0.17501126  0.33863680  1
  Au  Au268  1  0.50084642  0.33152821  0.66744079  1
  Au  Au269  1  0.49954350  0.17386336  0.16035323  1
  Au  Au270  1  0.66179987  0.33307607  0.00415791  1
  Au  Au271  1  0.82595585  0.49890176  0.16290709  1
  Au  Au272  1  0.50196705  0.84024162  0.82890449  1
  Au  Au273  1  0.33715725  0.50368432  0.66509138  1
  Au  Au274  1  0.50303945  0.33601587  0.32346312  1
  Au  Au275  1  0.32775375  0.82577310  -0.00317996  1
  Au  Au276  1  0.50381181  0.67489663  0.66014321  1
  Au  Au277  1  0.83709674  0.17223359  0.50304101  1
  Au  Au278  1  0.49608210  0.66842531  0.83212639  1
  Au  Au279  1  0.32543392  0.50177670  0.84466880  1
  Au  Au280  1  0.83455044  0.82654028  0.00043058  1
  Au  Au281  1  0.32458761  0.00302165  0.16826822  1
  Au  Au282  1  0.00531456  0.83534282  0.81992243  1
  Au  Au283  1  0.00502403  0.17299998  0.16772321  1
  Au  Au284  1  0.66362948  0.50156804  0.82436040  1
  Au  Au285  1  0.49660720  0.32753280  0.83393182  1
  Au  Au286  1  0.84055271  0.17191234  -0.00468239  1
  Au  Au287  1  -0.00193542  0.66757303  0.82659356  1
