# generated using pymatgen
data_Ca24Ti8Al207Au49
_symmetry_space_group_name_H-M   'P 1'
_cell_length_a   17.32114344
_cell_length_b   17.32076690
_cell_length_c   17.31970283
_cell_angle_alpha   89.99687879
_cell_angle_beta   89.99460319
_cell_angle_gamma   90.00378538
_symmetry_Int_Tables_number   1
_chemical_formula_structural   Ca24Ti8Al207Au49
_chemical_formula_sum   'Ca24 Ti8 Al207 Au49'
_cell_volume   5196.17905147
_cell_formula_units_Z   1
loop_
 _symmetry_equiv_pos_site_id
 _symmetry_equiv_pos_as_xyz
  1  'x, y, z'
loop_
 _atom_site_type_symbol
 _atom_site_label
 _atom_site_symmetry_multiplicity
 _atom_site_fract_x
 _atom_site_fract_y
 _atom_site_fract_z
 _atom_site_occupancy
  Ca  Ca0  1  0.25578160  0.00540209  0.00018562  1
  Ca  Ca1  1  0.25969974  0.00520335  0.50112158  1
  Ca  Ca2  1  0.25578203  0.49524690  -0.00125088  1
  Ca  Ca3  1  0.25343541  0.50226173  0.50583645  1
  Ca  Ca4  1  0.75055279  -0.00097445  0.00582159  1
  Ca  Ca5  1  0.74720037  -0.00219618  0.49676495  1
  Ca  Ca6  1  0.74643338  0.49987821  -0.00054765  1
  Ca  Ca7  1  0.74958856  0.50227866  0.50070522  1
  Ca  Ca8  1  0.00031988  0.25057221  -0.00173960  1
  Ca  Ca9  1  0.00302129  0.24964031  0.50086914  1
  Ca  Ca10  1  -0.00097268  0.75131557  -0.00305570  1
  Ca  Ca11  1  -0.00172832  0.74597611  0.50174343  1
  Ca  Ca12  1  0.49848985  0.25363873  0.00222777  1
  Ca  Ca13  1  0.49620660  0.24788840  0.49881026  1
  Ca  Ca14  1  0.49965409  0.75239983  -0.00124078  1
  Ca  Ca15  1  0.50263411  0.74953948  0.49933204  1
  Ca  Ca16  1  -0.00364579  -0.00258956  0.25395064  1
  Ca  Ca17  1  -0.00106557  -0.00599352  0.74676871  1
  Ca  Ca18  1  -0.00544639  0.50009560  0.25038468  1
  Ca  Ca19  1  0.00087181  0.50592616  0.74697471  1
  Ca  Ca20  1  0.50195100  0.00296592  0.25219783  1
  Ca  Ca21  1  0.50153071  -0.00046520  0.74272076  1
  Ca  Ca22  1  0.50152851  0.49792237  0.25219701  1
  Ca  Ca23  1  0.49887831  0.50020966  0.74718862  1
  Ti  Ti24  1  0.25147679  0.24991834  0.24813858  1
  Ti  Ti25  1  0.25135499  0.25041557  0.75063824  1
  Ti  Ti26  1  0.24977084  0.74956414  0.25221957  1
  Ti  Ti27  1  0.25126861  0.74964601  0.74722643  1
  Ti  Ti28  1  0.74877730  0.25006217  0.24901092  1
  Ti  Ti29  1  0.74837675  0.25060022  0.75069497  1
  Ti  Ti30  1  0.75063608  0.74919463  0.25213726  1
  Ti  Ti31  1  0.74913019  0.75045774  0.74690451  1
  Al  Al32  1  0.08398504  0.08590275  0.08050650  1
  Al  Al33  1  0.07944016  0.09516576  0.58688676  1
  Al  Al34  1  0.07242833  0.57112180  0.08454857  1
  Al  Al35  1  0.08526366  0.58315584  0.59737447  1
  Al  Al36  1  0.58542110  0.10047833  0.09153848  1
  Al  Al37  1  0.56885739  0.07614499  0.57284718  1
  Al  Al38  1  0.57846299  0.57702678  0.08406853  1
  Al  Al39  1  0.58967771  0.58978918  0.57665786  1
  Al  Al40  1  0.41189048  0.40290912  0.08485630  1
  Al  Al41  1  0.40892336  0.40985544  0.59215487  1
  Al  Al42  1  0.41380639  0.91246425  0.07666639  1
  Al  Al43  1  0.42076050  0.92107670  0.59135830  1
  Al  Al44  1  0.90499193  0.42159016  0.09095625  1
  Al  Al45  1  0.92759686  0.41995108  0.57883576  1
  Al  Al46  1  0.91080537  0.92143400  0.08415935  1
  Al  Al47  1  0.91282844  0.90363353  0.57656697  1
  Al  Al48  1  0.41675294  0.09585474  0.41631953  1
  Al  Al49  1  0.42111554  0.08111717  0.92761683  1
  Al  Al50  1  0.42967872  0.59019452  0.41585445  1
  Al  Al51  1  0.42518273  0.57220214  0.91491507  1
  Al  Al52  1  0.90676202  0.07419277  0.41618421  1
  Al  Al53  1  0.91798186  0.07877601  0.92238245  1
  Al  Al54  1  0.90922004  0.58525563  0.41155729  1
  Al  Al55  1  0.91744804  0.58806423  0.90638222  1
  Al  Al56  1  0.07891184  0.42573681  0.42604890  1
  Al  Al57  1  0.09575508  0.41614320  0.92098435  1
  Al  Al58  1  0.07692002  0.91869778  0.42142334  1
  Al  Al59  1  0.07099957  0.90434374  0.91268856  1
  Al  Al60  1  0.57851466  0.42269570  0.41256301  1
  Al  Al61  1  0.58488759  0.41673660  0.91084533  1
  Al  Al62  1  0.59439568  0.91016813  0.41812214  1
  Al  Al63  1  0.57224810  0.91844585  0.92017363  1
  Al  Al64  1  0.08079802  0.07982525  0.42447492  1
  Al  Al65  1  0.07844578  0.08931546  0.92285856  1
  Al  Al66  1  0.07475962  0.58147383  0.41710539  1
  Al  Al67  1  0.07420028  0.58163544  0.90522443  1
  Al  Al68  1  0.57920906  0.08119594  0.40626369  1
  Al  Al69  1  0.58638603  0.08857923  0.93193269  1
  Al  Al70  1  0.59157419  0.59675852  0.41365731  1
  Al  Al71  1  0.58622867  0.57529414  0.90676670  1
  Al  Al72  1  0.41932321  0.40805340  0.42409724  1
  Al  Al73  1  0.41237829  0.41018209  0.91967603  1
  Al  Al74  1  0.42831818  0.92426126  0.42163701  1
  Al  Al75  1  0.41292268  0.90424101  0.91843005  1
  Al  Al76  1  0.90662259  0.42541970  0.41162261  1
  Al  Al77  1  0.91418867  0.42533557  0.92435828  1
  Al  Al78  1  0.89932785  0.91366623  0.41491289  1
  Al  Al79  1  0.91532938  0.91208479  0.91489410  1
  Al  Al80  1  0.09535307  0.40953886  0.07810504  1
  Al  Al81  1  0.08903964  0.42154374  0.59599822  1
  Al  Al82  1  0.07793348  0.92266123  0.07842252  1
  Al  Al83  1  0.07497366  0.91056700  0.58469002  1
  Al  Al84  1  0.57622555  0.40946083  0.09085801  1
  Al  Al85  1  0.57244158  0.41313561  0.58985397  1
  Al  Al86  1  0.57818721  0.92789879  0.08185487  1
  Al  Al87  1  0.58224495  0.89884501  0.58098943  1
  Al  Al88  1  0.42452950  0.09645092  0.09183826  1
  Al  Al89  1  0.40810541  0.08673274  0.58210405  1
  Al  Al90  1  0.42070439  0.57592292  0.08521455  1
  Al  Al91  1  0.41449772  0.57392069  0.59162842  1
  Al  Al92  1  0.90866230  0.07955269  0.08717898  1
  Al  Al93  1  0.92160169  0.08795370  0.58109817  1
  Al  Al94  1  0.90799504  0.57857553  0.09119336  1
  Al  Al95  1  0.92304481  0.59195288  0.58309121  1
  Al  Al96  1  0.25105326  0.14139998  0.12819499  1
  Al  Al97  1  0.25800937  0.13414547  0.63180141  1
  Al  Al98  1  0.25081612  0.63581741  0.13574605  1
  Al  Al99  1  0.25044572  0.63357451  0.63181727  1
  Al  Al100  1  0.74718571  0.13863348  0.13145057  1
  Al  Al101  1  0.74822863  0.13470752  0.63299516  1
  Al  Al102  1  0.75667162  0.63362585  0.13658804  1
  Al  Al103  1  0.74546847  0.63797942  0.62391126  1
  Al  Al104  1  0.25172177  0.36064027  0.12999669  1
  Al  Al105  1  0.25092924  0.36885634  0.63574900  1
  Al  Al106  1  0.24990768  0.86286770  0.13696469  1
  Al  Al107  1  0.25427664  0.86557498  0.63594348  1
  Al  Al108  1  0.74997233  0.36345681  0.13472014  1
  Al  Al109  1  0.74820654  0.36672660  0.63390092  1
  Al  Al110  1  0.75022495  0.86221986  0.13829345  1
  Al  Al111  1  0.74894065  0.86682622  0.63171128  1
  Al  Al112  1  0.25369858  0.13768927  0.36226407  1
  Al  Al113  1  0.25317655  0.13727787  0.87042651  1
  Al  Al114  1  0.24763523  0.63702272  0.37120394  1
  Al  Al115  1  0.25349425  0.63736060  0.86261526  1
  Al  Al116  1  0.74888606  0.13614856  0.36226177  1
  Al  Al117  1  0.74621736  0.13641716  0.86900131  1
  Al  Al118  1  0.75090274  0.63737713  0.37296578  1
  Al  Al119  1  0.74843213  0.63665817  0.86242670  1
  Al  Al120  1  0.25333988  0.36145767  0.36101821  1
  Al  Al121  1  0.25167212  0.36579497  0.86470632  1
  Al  Al122  1  0.24810677  0.86456715  0.36505996  1
  Al  Al123  1  0.25701094  0.86269963  0.86285740  1
  Al  Al124  1  0.75070722  0.36352269  0.36288859  1
  Al  Al125  1  0.74577229  0.36711538  0.86721962  1
  Al  Al126  1  0.74991978  0.86350800  0.36973964  1
  Al  Al127  1  0.74978923  0.86241173  0.86271490  1
  Al  Al128  1  0.13207895  0.25009992  0.13081732  1
  Al  Al129  1  0.13918988  0.25038074  0.63310341  1
  Al  Al130  1  0.12890031  0.75276336  0.13562401  1
  Al  Al131  1  0.13671523  0.74752059  0.62831850  1
  Al  Al132  1  0.63263122  0.25089132  0.13263333  1
  Al  Al133  1  0.63238486  0.25613152  0.63758362  1
  Al  Al134  1  0.63480925  0.74411294  0.13862590  1
  Al  Al135  1  0.63573356  0.75168385  0.62938554  1
  Al  Al136  1  0.13332328  0.24902914  0.36381729  1
  Al  Al137  1  0.13770247  0.25208290  0.86825299  1
  Al  Al138  1  0.13436610  0.75009938  0.37025325  1
  Al  Al139  1  0.13608201  0.75081532  0.86379145  1
  Al  Al140  1  0.62721418  0.24970513  0.36034969  1
  Al  Al141  1  0.63675362  0.25220256  0.86844647  1
  Al  Al142  1  0.63888167  0.74931187  0.37179253  1
  Al  Al143  1  0.63422416  0.75291023  0.85932572  1
  Al  Al144  1  0.36834647  0.25112987  0.13098233  1
  Al  Al145  1  0.36476347  0.25162980  0.63464374  1
  Al  Al146  1  0.36433589  0.75164569  0.13375593  1
  Al  Al147  1  0.36677019  0.74988612  0.63226488  1
  Al  Al148  1  0.86839079  0.25087337  0.13397849  1
  Al  Al149  1  0.86297678  0.25151000  0.63516297  1
  Al  Al150  1  0.87077427  0.74903660  0.14040143  1
  Al  Al151  1  0.86188095  0.75038216  0.62711561  1
  Al  Al152  1  0.37337488  0.24733025  0.36221351  1
  Al  Al153  1  0.36438697  0.25264342  0.87037025  1
  Al  Al154  1  0.36556702  0.74644517  0.36869394  1
  Al  Al155  1  0.36733233  0.75225295  0.86204433  1
  Al  Al156  1  0.86564058  0.25064918  0.36289014  1
  Al  Al157  1  0.86283350  0.24453550  0.86776231  1
  Al  Al158  1  0.86183821  0.75129792  0.37385196  1
  Al  Al159  1  0.86492008  0.74876186  0.86379276  1
  Al  Al160  1  0.13068160  0.13843365  0.24830210  1
  Al  Al161  1  0.13795357  0.13761534  0.74621668  1
  Al  Al162  1  0.13480890  0.63628871  0.24782359  1
  Al  Al163  1  0.13569270  0.63532688  0.74389916  1
  Al  Al164  1  0.63125825  0.13727280  0.24818778  1
  Al  Al165  1  0.63725161  0.13411298  0.74503517  1
  Al  Al166  1  0.63138337  0.63620389  0.25536346  1
  Al  Al167  1  0.63768553  0.63190564  0.74492388  1
  Al  Al168  1  0.37020889  0.13891641  0.24744781  1
  Al  Al169  1  0.36238398  0.13527808  0.74722635  1
  Al  Al170  1  0.36824465  0.63655187  0.25191255  1
  Al  Al171  1  0.36514193  0.63501780  0.74471945  1
  Al  Al172  1  0.86648274  0.13688442  0.25002431  1
  Al  Al173  1  0.86142812  0.13587547  0.74562554  1
  Al  Al174  1  0.86142619  0.63153465  0.25568611  1
  Al  Al175  1  0.86331392  0.63949885  0.74468278  1
  Al  Al176  1  0.13632923  0.36411582  0.24350503  1
  Al  Al177  1  0.13781172  0.36483135  0.74615778  1
  Al  Al178  1  0.12733329  0.86230963  0.25264913  1
  Al  Al179  1  0.13575994  0.86323643  0.74851349  1
  Al  Al180  1  0.62827844  0.36217969  0.24777729  1
  Al  Al181  1  0.63702624  0.37072533  0.75063201  1
  Al  Al182  1  0.63554661  0.86283405  0.25200618  1
  Al  Al183  1  0.62844707  0.86449275  0.74306633  1
  Al  Al184  1  0.37430347  0.35901859  0.24628298  1
  Al  Al185  1  0.36461487  0.36397780  0.74593774  1
  Al  Al186  1  0.36477776  0.86407090  0.25256639  1
  Al  Al187  1  0.37334027  0.86370739  0.74629159  1
  Al  Al188  1  0.86513886  0.36673568  0.24883999  1
  Al  Al189  1  0.86217187  0.36289101  0.75188600  1
  Al  Al190  1  0.86726816  0.86319587  0.25515195  1
  Al  Al191  1  0.86396895  0.86295044  0.74738566  1
  Al  Al192  1  0.00047633  0.69081029  0.80620580  1
  Al  Al193  1  0.82453350  -0.00035136  0.66575950  1
  Al  Al194  1  0.68771465  0.50048678  0.17366839  1
  Al  Al195  1  0.33170889  0.67811551  -0.00269018  1
  Al  Al196  1  0.33018952  0.49905758  0.32512180  1
  Al  Al197  1  0.00098618  0.31515965  0.67507428  1
  Al  Al198  1  0.50178100  0.81714747  0.32915494  1
  Al  Al199  1  0.82062848  0.32012201  0.00235547  1
  Al  Al200  1  0.32636759  0.82955558  0.50211341  1
  Al  Al201  1  0.16983319  0.66841680  0.00048668  1
  Al  Al202  1  0.49957371  0.32798873  0.81354865  1
  Al  Al203  1  0.19022007  0.18091794  0.49917811  1
  Al  Al204  1  0.18673243  0.82813666  -0.00088884  1
  Al  Al205  1  0.81581691  0.50112128  0.82624926  1
  Al  Al206  1  0.66834768  0.17095520  0.49781398  1
  Al  Al207  1  0.66896804  0.00034282  0.82812351  1
  Al  Al208  1  0.50196081  0.68017194  0.66939557  1
  Al  Al209  1  0.68715366  -0.00053764  0.31774731  1
  Al  Al210  1  0.00013537  0.32946985  0.83081126  1
  Al  Al211  1  0.33201801  -0.00080473  0.81531308  1
  Al  Al212  1  0.17457473  0.50130412  0.81066742  1
  Al  Al213  1  0.67496177  0.32805813  0.49707500  1
  Al  Al214  1  0.17385670  0.50038438  0.32054263  1
  Al  Al215  1  0.18344384  0.00131079  0.66786176  1
  Al  Al216  1  0.50059807  0.16855986  0.82274938  1
  Al  Al217  1  0.67130033  0.82809562  0.00157260  1
  Al  Al218  1  0.33096388  0.00206413  0.17192286  1
  Al  Al219  1  0.32132482  0.49660118  0.17402735  1
  Al  Al220  1  0.17512880  -0.00053873  0.18299955  1
  Al  Al221  1  0.49907578  0.18316089  0.67093281  1
  Al  Al222  1  0.49982423  0.81951041  0.17178213  1
  Al  Al223  1  0.31935537  0.31059373  0.49826627  1
  Al  Al224  1  0.82495398  0.82066211  0.00126085  1
  Al  Al225  1  0.17215854  -0.00081377  0.82957388  1
  Al  Al226  1  0.32733079  0.00208386  0.32669636  1
  Al  Al227  1  0.67438192  0.67054369  -0.00169982  1
  Al  Al228  1  0.82415691  0.17842038  0.49869083  1
  Al  Al229  1  -0.00045324  0.17358504  0.80965023  1
  Al  Al230  1  0.00057317  0.80526731  0.69078347  1
  Al  Al231  1  0.50077828  0.67496028  0.82179441  1
  Al  Al232  1  0.82412873  0.50174568  0.67023151  1
  Al  Al233  1  0.82653204  -0.00025635  0.82360672  1
  Al  Al234  1  0.33020622  0.49933187  0.81454861  1
  Al  Al235  1  0.00143989  0.32573310  0.32310363  1
  Al  Al236  1  0.81583344  -0.00032311  0.19250997  1
  Al  Al237  1  -0.00172501  0.68046837  0.32254183  1
  Al  Al238  1  0.68492859  0.50119825  0.32798070  1
  Au  Au239  1  0.17598841  0.34720273  0.50149649  1
  Au  Au240  1  0.82887550  0.67310818  0.50047147  1
  Au  Au241  1  0.65899625  0.32718770  0.49992441  1
  Au  Au242  1  0.33895178  0.66545625  0.50413497  1
  Au  Au243  1  -0.00419126  0.15788984  0.33356430  1
  Au  Au244  1  0.67467019  0.00039635  0.84411257  1
  Au  Au245  1  0.50026637  0.32654578  0.32470465  1
  Au  Au246  1  -0.00093227  0.34576552  0.82544536  1
  Au  Au247  1  0.15421827  0.66451170  0.00068978  1
  Au  Au248  1  0.17452555  0.17461758  0.49871011  1
  Au  Au249  1  0.33983835  -0.00073617  0.83046593  1
  Au  Au250  1  0.17049769  0.83212579  0.49999510  1
  Au  Au251  1  0.16790959  0.00116950  0.66066160  1
  Au  Au252  1  -0.00530175  0.82921329  0.33988910  1
  Au  Au253  1  0.15581425  -0.00230311  0.83541486  1
  Au  Au254  1  0.49875910  0.66299155  0.18050972  1
  Au  Au255  1  -0.00223772  0.81480527  0.67666276  1
  Au  Au256  1  0.16708073  0.18178657  -0.00147675  1
  Au  Au257  1  0.17654801  -0.00090736  0.34277900  1
  Au  Au258  1  -0.00501167  0.15912357  0.81768420  1
  Au  Au259  1  0.00101820  0.33882920  0.33304071  1
  Au  Au260  1  0.50545929  0.17816264  0.83536685  1
  Au  Au261  1  0.33304753  0.50252524  0.34083158  1
  Au  Au262  1  0.65912880  0.50057849  0.67300761  1
  Au  Au263  1  -0.00339578  0.66112733  0.17610534  1
  Au  Au264  1  0.33438378  0.17687112  0.00230855  1
  Au  Au265  1  0.82928820  0.32819714  -0.00134442  1
  Au  Au266  1  0.67109769  0.49753622  0.17599077  1
  Au  Au267  1  0.83711365  -0.00166485  0.66839311  1
  Au  Au268  1  0.34564027  0.66852245  -0.00370488  1
  Au  Au269  1  0.83959756  0.50086567  0.67597584  1
  Au  Au270  1  0.84037330  0.32772522  0.50052200  1
  Au  Au271  1  -0.00248902  0.83368632  0.16505741  1
  Au  Au272  1  0.33145666  0.83987558  0.49740654  1
  Au  Au273  1  0.82169241  0.16346321  -0.00045087  1
  Au  Au274  1  0.84073602  0.67164282  0.00011011  1
  Au  Au275  1  0.49839835  0.83161420  0.17473761  1
  Au  Au276  1  0.00013754  0.33306773  0.15849643  1
  Au  Au277  1  0.50158247  0.82476212  0.82633819  1
  Au  Au278  1  0.17627095  0.00332237  0.16655872  1
  Au  Au279  1  0.65815420  0.67457210  -0.00455376  1
  Au  Au280  1  -0.00293324  0.16521894  0.16646633  1
  Au  Au281  1  0.66080396  -0.00206882  0.65639089  1
  Au  Au282  1  0.18004066  0.50231494  0.82681035  1
  Au  Au283  1  0.17103223  0.49761202  0.16909836  1
  Au  Au284  1  0.16393345  0.66020830  0.50140927  1
  Au  Au285  1  0.67011982  0.00386718  0.16907717  1
  Au  Au286  1  0.65825656  0.32496364  0.00085561  1
  Au  Au287  1  0.17583540  0.84102456  -0.00248384  1
