# generated using pymatgen
data_Ca24Ti8Al207Au49
_symmetry_space_group_name_H-M   'P 1'
_cell_length_a   17.32162598
_cell_length_b   17.32144818
_cell_length_c   17.32260783
_cell_angle_alpha   90.00427608
_cell_angle_beta   90.00016108
_cell_angle_gamma   89.99989493
_symmetry_Int_Tables_number   1
_chemical_formula_structural   Ca24Ti8Al207Au49
_chemical_formula_sum   'Ca24 Ti8 Al207 Au49'
_cell_volume   5197.39983271
_cell_formula_units_Z   1
loop_
 _symmetry_equiv_pos_site_id
 _symmetry_equiv_pos_as_xyz
  1  'x, y, z'
loop_
 _atom_site_type_symbol
 _atom_site_label
 _atom_site_symmetry_multiplicity
 _atom_site_fract_x
 _atom_site_fract_y
 _atom_site_fract_z
 _atom_site_occupancy
  Ca  Ca0  1  0.24934353  -0.00301195  0.00143864  1
  Ca  Ca1  1  0.24200852  -0.00069190  0.49701712  1
  Ca  Ca2  1  0.25048659  0.50456190  0.00038902  1
  Ca  Ca3  1  0.24779215  0.50067072  0.50148090  1
  Ca  Ca4  1  0.74898411  -0.00311334  0.00279008  1
  Ca  Ca5  1  0.75489180  0.00317357  0.49773181  1
  Ca  Ca6  1  0.74837726  0.50113668  0.00019675  1
  Ca  Ca7  1  0.75063033  0.49672197  0.50270752  1
  Ca  Ca8  1  -0.00133487  0.25003195  -0.00169571  1
  Ca  Ca9  1  -0.00218555  0.24679936  0.50088759  1
  Ca  Ca10  1  0.00266752  0.75511040  0.00309519  1
  Ca  Ca11  1  0.00300933  0.75465454  0.49458662  1
  Ca  Ca12  1  0.49876195  0.24874781  -0.00486700  1
  Ca  Ca13  1  0.50415913  0.24908146  0.50197257  1
  Ca  Ca14  1  0.49794300  0.75206254  0.00121482  1
  Ca  Ca15  1  0.49905477  0.74794721  0.49483015  1
  Ca  Ca16  1  0.00202039  -0.00313010  0.25768584  1
  Ca  Ca17  1  -0.00039032  -0.00047151  0.75236605  1
  Ca  Ca18  1  0.00321742  0.50201646  0.25311071  1
  Ca  Ca19  1  0.00263507  0.49894438  0.74791139  1
  Ca  Ca20  1  0.49924741  -0.00179289  0.24611361  1
  Ca  Ca21  1  0.50203644  0.00095639  0.75794214  1
  Ca  Ca22  1  0.49648058  0.49921796  0.24489154  1
  Ca  Ca23  1  0.49961343  0.49626908  0.74856071  1
  Ti  Ti24  1  0.24992482  0.24864882  0.25090193  1
  Ti  Ti25  1  0.24943137  0.25350347  0.75091613  1
  Ti  Ti26  1  0.24907733  0.75154719  0.24947769  1
  Ti  Ti27  1  0.25012496  0.74622733  0.75120829  1
  Ti  Ti28  1  0.74970965  0.24918614  0.25121335  1
  Ti  Ti29  1  0.75107688  0.25020649  0.74982738  1
  Ti  Ti30  1  0.75193370  0.75112943  0.24949813  1
  Ti  Ti31  1  0.75033314  0.75079053  0.75051780  1
  Al  Al32  1  0.08256250  0.07241533  0.08704278  1
  Al  Al33  1  0.07732360  0.08575048  0.57772871  1
  Al  Al34  1  0.09060920  0.58593887  0.09136602  1
  Al  Al35  1  0.09291055  0.58260249  0.58159596  1
  Al  Al36  1  0.58637025  0.06728937  0.09047330  1
  Al  Al37  1  0.58657083  0.09660828  0.58023928  1
  Al  Al38  1  0.57985934  0.59655610  0.08759649  1
  Al  Al39  1  0.57624800  0.57424817  0.57824157  1
  Al  Al40  1  0.41201456  0.43131220  0.07821108  1
  Al  Al41  1  0.41966743  0.41063443  0.59225924  1
  Al  Al42  1  0.40804491  0.90826811  0.08523395  1
  Al  Al43  1  0.41888308  0.92007091  0.57246913  1
  Al  Al44  1  0.92191835  0.42604480  0.07572356  1
  Al  Al45  1  0.91297805  0.40978916  0.58063781  1
  Al  Al46  1  0.90986007  0.91717610  0.08905187  1
  Al  Al47  1  0.91888383  0.90372137  0.58229586  1
  Al  Al48  1  0.40730231  0.07750071  0.40995606  1
  Al  Al49  1  0.42368535  0.07637071  0.91576583  1
  Al  Al50  1  0.41424928  0.57949157  0.41601457  1
  Al  Al51  1  0.40436967  0.58094088  0.92242180  1
  Al  Al52  1  0.91716307  0.09009399  0.41396917  1
  Al  Al53  1  0.92349625  0.08640335  0.90943702  1
  Al  Al54  1  0.91554088  0.58275770  0.42027355  1
  Al  Al55  1  0.91528886  0.57568969  0.91927372  1
  Al  Al56  1  0.08859491  0.42363324  0.41364581  1
  Al  Al57  1  0.08462220  0.41722410  0.91599691  1
  Al  Al58  1  0.08718860  0.91756397  0.41707384  1
  Al  Al59  1  0.09381880  0.91546462  0.91294101  1
  Al  Al60  1  0.60134958  0.41549946  0.42262566  1
  Al  Al61  1  0.57253446  0.41306968  0.90330096  1
  Al  Al62  1  0.59355651  0.92356128  0.41633422  1
  Al  Al63  1  0.58898928  0.91373226  0.92153103  1
  Al  Al64  1  0.08366995  0.08358415  0.41147852  1
  Al  Al65  1  0.08432999  0.07730202  0.90382124  1
  Al  Al66  1  0.09339124  0.58414728  0.41663333  1
  Al  Al67  1  0.09005618  0.58091532  0.92179402  1
  Al  Al68  1  0.59684983  0.08373077  0.41931956  1
  Al  Al69  1  0.58390600  0.07444948  0.90772953  1
  Al  Al70  1  0.58773193  0.57328420  0.41185552  1
  Al  Al71  1  0.58563801  0.58160050  0.92666952  1
  Al  Al72  1  0.41244077  0.42331385  0.42184651  1
  Al  Al73  1  0.41279319  0.41920440  0.89884477  1
  Al  Al74  1  0.40282854  0.92191903  0.40982555  1
  Al  Al75  1  0.41115296  0.91389666  0.92460186  1
  Al  Al76  1  0.90843053  0.41281313  0.42365952  1
  Al  Al77  1  0.91932068  0.41842838  0.91015002  1
  Al  Al78  1  0.91465284  0.91556652  0.41973529  1
  Al  Al79  1  0.91929458  0.91795624  0.91993676  1
  Al  Al80  1  0.09630799  0.42843755  0.08069445  1
  Al  Al81  1  0.08572454  0.42157247  0.58823431  1
  Al  Al82  1  0.09121637  0.91408772  0.08344149  1
  Al  Al83  1  0.08111254  0.90712090  0.58024534  1
  Al  Al84  1  0.57491852  0.43159108  0.07717835  1
  Al  Al85  1  0.58351753  0.40196893  0.58452340  1
  Al  Al86  1  0.58963194  0.90766362  0.08330322  1
  Al  Al87  1  0.58394978  0.91985737  0.57334349  1
  Al  Al88  1  0.41362905  0.06911776  0.08851075  1
  Al  Al89  1  0.42600168  0.08854335  0.58256193  1
  Al  Al90  1  0.40936770  0.59559574  0.08623504  1
  Al  Al91  1  0.41605699  0.57539407  0.58258200  1
  Al  Al92  1  0.90863849  0.07438860  0.08973029  1
  Al  Al93  1  0.91825217  0.08988530  0.57644392  1
  Al  Al94  1  0.92500355  0.58529837  0.08334841  1
  Al  Al95  1  0.91709873  0.58182264  0.57715465  1
  Al  Al96  1  0.25285711  0.12462134  0.14034800  1
  Al  Al97  1  0.24913446  0.13766754  0.63638157  1
  Al  Al98  1  0.24975532  0.63745406  0.12986369  1
  Al  Al99  1  0.25119488  0.62826912  0.63681248  1
  Al  Al100  1  0.75008015  0.12907064  0.13686314  1
  Al  Al101  1  0.74866451  0.13516152  0.63421956  1
  Al  Al102  1  0.75010935  0.63408557  0.13601298  1
  Al  Al103  1  0.75043424  0.62986624  0.63654435  1
  Al  Al104  1  0.24982094  0.36576565  0.13616528  1
  Al  Al105  1  0.25025882  0.37412972  0.63786248  1
  Al  Al106  1  0.25514736  0.87097951  0.13395881  1
  Al  Al107  1  0.24049981  0.86481643  0.63240352  1
  Al  Al108  1  0.75282907  0.36549724  0.13579192  1
  Al  Al109  1  0.75175463  0.37025705  0.63741938  1
  Al  Al110  1  0.74514315  0.86814452  0.13231102  1
  Al  Al111  1  0.75290065  0.86770790  0.63491961  1
  Al  Al112  1  0.24797107  0.13256155  0.36437410  1
  Al  Al113  1  0.24619502  0.13691262  0.86455691  1
  Al  Al114  1  0.24871618  0.62782721  0.36066989  1
  Al  Al115  1  0.24876463  0.62966075  0.86964277  1
  Al  Al116  1  0.75100658  0.13361767  0.36685733  1
  Al  Al117  1  0.75194212  0.13234920  0.86490986  1
  Al  Al118  1  0.74995279  0.63018826  0.36317225  1
  Al  Al119  1  0.74819460  0.63584287  0.86439431  1
  Al  Al120  1  0.24793108  0.36787278  0.36603249  1
  Al  Al121  1  0.25222713  0.37386951  0.86103848  1
  Al  Al122  1  0.24454539  0.86808343  0.36682619  1
  Al  Al123  1  0.25021977  0.86386405  0.86574539  1
  Al  Al124  1  0.75200394  0.36618569  0.36810713  1
  Al  Al125  1  0.74999647  0.36211381  0.86237905  1
  Al  Al126  1  0.75569726  0.86763502  0.36411025  1
  Al  Al127  1  0.74833179  0.87220135  0.86675673  1
  Al  Al128  1  0.13990437  0.24561837  0.13752842  1
  Al  Al129  1  0.13593862  0.25560866  0.63742987  1
  Al  Al130  1  0.13804449  0.75278237  0.13655304  1
  Al  Al131  1  0.13630269  0.74991164  0.63718288  1
  Al  Al132  1  0.63444490  0.24907499  0.13628050  1
  Al  Al133  1  0.63664520  0.25234425  0.63679883  1
  Al  Al134  1  0.63514398  0.75178884  0.13645942  1
  Al  Al135  1  0.63930727  0.75126438  0.63902918  1
  Al  Al136  1  0.13392530  0.24659209  0.36085743  1
  Al  Al137  1  0.13053437  0.25080211  0.86100761  1
  Al  Al138  1  0.13695093  0.75227511  0.36327173  1
  Al  Al139  1  0.13830822  0.74649099  0.86451483  1
  Al  Al140  1  0.63653176  0.24473749  0.36673238  1
  Al  Al141  1  0.62856783  0.25338698  0.86250108  1
  Al  Al142  1  0.63747070  0.75451523  0.36008559  1
  Al  Al143  1  0.63522929  0.75309244  0.86527248  1
  Al  Al144  1  0.36239123  0.24901862  0.13618450  1
  Al  Al145  1  0.36609087  0.25473518  0.63913606  1
  Al  Al146  1  0.36186126  0.74985810  0.12985830  1
  Al  Al147  1  0.35962395  0.75065747  0.63321027  1
  Al  Al148  1  0.86188177  0.24450467  0.13310104  1
  Al  Al149  1  0.86319710  0.25251049  0.63405357  1
  Al  Al150  1  0.86414590  0.75557308  0.13548373  1
  Al  Al151  1  0.86731252  0.75627130  0.63504339  1
  Al  Al152  1  0.36484920  0.24610309  0.36460868  1
  Al  Al153  1  0.37001707  0.25771004  0.86314773  1
  Al  Al154  1  0.35921758  0.74807532  0.36506404  1
  Al  Al155  1  0.36037898  0.74624622  0.87071048  1
  Al  Al156  1  0.86435891  0.24911662  0.36330747  1
  Al  Al157  1  0.86723351  0.24929186  0.86705625  1
  Al  Al158  1  0.86414968  0.75194940  0.36186095  1
  Al  Al159  1  0.86185993  0.75318172  0.86402340  1
  Al  Al160  1  0.13523658  0.12690344  0.25183196  1
  Al  Al161  1  0.13443572  0.13453566  0.75133147  1
  Al  Al162  1  0.13776141  0.63268254  0.24893950  1
  Al  Al163  1  0.13861075  0.62602849  0.74859019  1
  Al  Al164  1  0.63277000  0.13476483  0.24847850  1
  Al  Al165  1  0.63494096  0.13637245  0.75476688  1
  Al  Al166  1  0.63616643  0.63498509  0.24888495  1
  Al  Al167  1  0.63596313  0.63103699  0.74988336  1
  Al  Al168  1  0.37013131  0.13506312  0.24955522  1
  Al  Al169  1  0.36645971  0.13935800  0.75467116  1
  Al  Al170  1  0.36591644  0.63676567  0.24473139  1
  Al  Al171  1  0.36083840  0.62666979  0.75463093  1
  Al  Al172  1  0.86248008  0.13064719  0.25285016  1
  Al  Al173  1  0.86578785  0.13515751  0.75309173  1
  Al  Al174  1  0.86462944  0.63041864  0.25208400  1
  Al  Al175  1  0.86478192  0.63541083  0.74554637  1
  Al  Al176  1  0.13534518  0.36798970  0.25094902  1
  Al  Al177  1  0.13243520  0.37132796  0.75199673  1
  Al  Al178  1  0.13882204  0.87307054  0.24851273  1
  Al  Al179  1  0.13672036  0.86426861  0.75223065  1
  Al  Al180  1  0.63924270  0.37003975  0.25667843  1
  Al  Al181  1  0.63414130  0.36768745  0.74808934  1
  Al  Al182  1  0.63696313  0.86829535  0.24561820  1
  Al  Al183  1  0.63796441  0.86843944  0.75604125  1
  Al  Al184  1  0.36411446  0.36665946  0.25336854  1
  Al  Al185  1  0.36602807  0.37082749  0.74957431  1
  Al  Al186  1  0.36409463  0.86324954  0.24807860  1
  Al  Al187  1  0.36028241  0.86092194  0.75190853  1
  Al  Al188  1  0.86390186  0.37036707  0.25499412  1
  Al  Al189  1  0.87220975  0.36230423  0.74967914  1
  Al  Al190  1  0.86152654  0.87337490  0.24613529  1
  Al  Al191  1  0.86516833  0.86775244  0.75005210  1
  Al  Al192  1  0.66958464  0.68064577  0.49743156  1
  Al  Al193  1  0.49801747  0.32340493  0.17110520  1
  Al  Al194  1  0.16825302  0.16910814  -0.00251070  1
  Al  Al195  1  0.18127931  0.32587336  -0.00161732  1
  Al  Al196  1  0.00118418  0.82770983  0.81832021  1
  Al  Al197  1  0.82008818  0.49910792  0.81704177  1
  Al  Al198  1  -0.00088242  0.67136265  0.82817099  1
  Al  Al199  1  0.49971608  0.82919356  0.32858141  1
  Al  Al200  1  0.00157771  0.67144009  0.32962851  1
  Al  Al201  1  0.66837963  0.00209332  0.68451437  1
  Al  Al202  1  0.33050170  0.00161947  0.67357971  1
  Al  Al203  1  -0.00030936  0.18019614  0.68381969  1
  Al  Al204  1  0.49751636  0.67573716  0.83051022  1
  Al  Al205  1  0.00081592  0.68325736  0.17744042  1
  Al  Al206  1  0.50130424  0.82974520  0.67402644  1
  Al  Al207  1  0.18355180  0.68918968  0.49939214  1
  Al  Al208  1  0.50191698  0.18925476  0.68097146  1
  Al  Al209  1  0.16750004  0.00013624  0.68143789  1
  Al  Al210  1  0.31635232  -0.00043272  0.82927280  1
  Al  Al211  1  0.31268488  0.50250035  0.17953070  1
  Al  Al212  1  0.17672571  0.18142003  0.49956953  1
  Al  Al213  1  0.68992369  0.82789850  0.49885341  1
  Al  Al214  1  0.81925894  0.81855854  -0.00023666  1
  Al  Al215  1  0.81365247  0.18962065  0.49956719  1
  Al  Al216  1  0.49782400  0.82894023  0.82868753  1
  Al  Al217  1  0.68059709  0.69248539  0.00124886  1
  Al  Al218  1  0.68474623  0.00149666  0.31170359  1
  Al  Al219  1  0.00190022  0.32750469  0.16754436  1
  Al  Al220  1  0.67518488  0.33054473  -0.00027792  1
  Al  Al221  1  0.32222378  0.31974782  0.50176448  1
  Al  Al222  1  0.00049290  0.82603953  0.31960930  1
  Al  Al223  1  0.49866147  0.81532184  0.17365889  1
  Al  Al224  1  -0.00146146  0.17010518  0.18525760  1
  Al  Al225  1  0.50120202  0.67169446  0.31698483  1
  Al  Al226  1  0.50290534  0.32519738  0.33300977  1
  Al  Al227  1  0.49821496  0.67140072  0.67469976  1
  Al  Al228  1  0.30505529  -0.00009862  0.30169325  1
  Al  Al229  1  0.67596032  0.50184890  0.17487549  1
  Al  Al230  1  0.69278735  0.30892226  0.50182608  1
  Al  Al231  1  0.32969211  0.17612412  0.00048476  1
  Al  Al232  1  0.82547907  0.68911838  0.49949459  1
  Al  Al233  1  0.31380681  0.82145855  0.50181699  1
  Al  Al234  1  0.83092260  -0.00073549  0.67352731  1
  Al  Al235  1  0.18839519  0.81848024  0.00020930  1
  Al  Al236  1  0.67675499  0.16699981  0.00034977  1
  Al  Al237  1  -0.00055511  0.31941781  0.32862829  1
  Al  Al238  1  0.00152772  0.68346820  0.66924584  1
  Au  Au239  1  0.66049337  0.33767811  -0.00197514  1
  Au  Au240  1  0.83533539  0.33524129  -0.00145287  1
  Au  Au241  1  0.00199395  0.67683938  0.65440220  1
  Au  Au242  1  0.32984087  0.49977127  0.67555881  1
  Au  Au243  1  0.66132313  0.49633830  0.66849068  1
  Au  Au244  1  -0.00214877  0.67721448  0.84331486  1
  Au  Au245  1  0.50325884  0.15968833  0.33703705  1
  Au  Au246  1  0.66067487  0.00269637  0.67011079  1
  Au  Au247  1  0.83286862  0.00074678  0.32662704  1
  Au  Au248  1  0.49613851  0.66016110  0.83462021  1
  Au  Au249  1  0.67227252  0.50046194  0.83639153  1
  Au  Au250  1  0.50285547  0.82268867  0.65831239  1
  Au  Au251  1  0.66333338  0.50269050  0.17833877  1
  Au  Au252  1  0.00089948  0.83371330  0.16994756  1
  Au  Au253  1  0.81721478  0.83111363  0.00052418  1
  Au  Au254  1  0.17722436  0.67167456  0.00236974  1
  Au  Au255  1  0.50032526  0.17265252  0.82771941  1
  Au  Au256  1  0.66737914  0.15364124  0.00121658  1
  Au  Au257  1  0.32016776  0.49877938  0.32696323  1
  Au  Au258  1  0.00100837  0.32697613  0.66490148  1
  Au  Au259  1  0.67319579  0.66458522  0.50193807  1
  Au  Au260  1  0.83610242  0.50115439  0.17163442  1
  Au  Au261  1  0.83595905  0.49943687  0.66897756  1
  Au  Au262  1  0.32828147  0.34532701  -0.00602561  1
  Au  Au263  1  0.50055263  0.15711724  0.16863860  1
  Au  Au264  1  0.50422416  0.84469634  0.32825579  1
  Au  Au265  1  0.83988929  0.00154963  0.66531369  1
  Au  Au266  1  0.33224831  0.16027210  0.00180980  1
  Au  Au267  1  0.50152441  0.65509026  0.32113525  1
  Au  Au268  1  0.49395387  0.33122044  0.15647772  1
  Au  Au269  1  0.01179218  0.33975842  0.16022667  1
  Au  Au270  1  0.32247018  0.83065011  0.49907074  1
  Au  Au271  1  0.16639391  0.33306438  0.50125065  1
  Au  Au272  1  0.17228774  0.49972239  0.82711907  1
  Au  Au273  1  0.82664807  0.00113097  0.83792705  1
  Au  Au274  1  -0.00309278  0.15418289  0.17979161  1
  Au  Au275  1  0.32918519  0.66496374  0.50214059  1
  Au  Au276  1  0.32652070  0.16197124  0.50073027  1
  Au  Au277  1  0.15546700  -0.00032711  0.67042051  1
  Au  Au278  1  0.15602211  0.17215338  -0.00458240  1
  Au  Au279  1  0.33133738  0.32859827  0.50261609  1
  Au  Au280  1  0.34564043  0.00331945  0.68066752  1
  Au  Au281  1  0.82352717  0.49960787  0.34055716  1
  Au  Au282  1  -0.00082453  0.32730897  0.34287475  1
  Au  Au283  1  0.00110560  0.32230164  0.83352712  1
  Au  Au284  1  0.82522759  0.65969814  0.00154730  1
  Au  Au285  1  0.84155137  0.16752945  -0.00009829  1
  Au  Au286  1  0.50422579  0.34031120  0.33929903  1
  Au  Au287  1  0.18293152  -0.00188880  0.17825222  1
