# generated using pymatgen
data_Ca24Ti8Al207Au49
_symmetry_space_group_name_H-M   'P 1'
_cell_length_a   17.31659479
_cell_length_b   17.31647794
_cell_length_c   17.31818885
_cell_angle_alpha   89.99610063
_cell_angle_beta   90.00246714
_cell_angle_gamma   89.99809152
_symmetry_Int_Tables_number   1
_chemical_formula_structural   Ca24Ti8Al207Au49
_chemical_formula_sum   'Ca24 Ti8 Al207 Au49'
_cell_volume   5193.07420123
_cell_formula_units_Z   1
loop_
 _symmetry_equiv_pos_site_id
 _symmetry_equiv_pos_as_xyz
  1  'x, y, z'
loop_
 _atom_site_type_symbol
 _atom_site_label
 _atom_site_symmetry_multiplicity
 _atom_site_fract_x
 _atom_site_fract_y
 _atom_site_fract_z
 _atom_site_occupancy
  Ca  Ca0  1  0.24897081  0.00109430  0.00020137  1
  Ca  Ca1  1  0.25117179  -0.00207829  0.49880489  1
  Ca  Ca2  1  0.24947305  0.49896891  -0.00209340  1
  Ca  Ca3  1  0.25165065  0.50284135  0.49744790  1
  Ca  Ca4  1  0.75111317  0.00664006  0.00289509  1
  Ca  Ca5  1  0.74451725  0.00235017  0.49786149  1
  Ca  Ca6  1  0.75744396  0.49192173  -0.00064714  1
  Ca  Ca7  1  0.75132759  0.49907913  0.49909352  1
  Ca  Ca8  1  0.00006884  0.25492146  0.00529512  1
  Ca  Ca9  1  -0.00285148  0.25442204  0.49512002  1
  Ca  Ca10  1  0.00731573  0.74282357  0.00095439  1
  Ca  Ca11  1  0.00267315  0.74373946  0.49622739  1
  Ca  Ca12  1  0.50331334  0.25076591  0.00150755  1
  Ca  Ca13  1  0.50169750  0.25307065  0.49880423  1
  Ca  Ca14  1  0.49598608  0.74449567  -0.00021846  1
  Ca  Ca15  1  0.50083598  0.74453763  0.50196506  1
  Ca  Ca16  1  -0.00378637  0.00243327  0.25013121  1
  Ca  Ca17  1  0.00151506  0.00052774  0.74816779  1
  Ca  Ca18  1  0.00025760  0.49858268  0.25302765  1
  Ca  Ca19  1  -0.00118228  0.50023811  0.75001136  1
  Ca  Ca20  1  0.50848071  -0.00008200  0.25530789  1
  Ca  Ca21  1  0.49854626  0.00273250  0.74600221  1
  Ca  Ca22  1  0.49723306  0.50349014  0.25533612  1
  Ca  Ca23  1  0.49706319  0.49853491  0.74542200  1
  Ti  Ti24  1  0.24738779  0.25030574  0.25004891  1
  Ti  Ti25  1  0.25054328  0.25050127  0.75068360  1
  Ti  Ti26  1  0.24927218  0.74946261  0.24965916  1
  Ti  Ti27  1  0.25040961  0.74928527  0.74979461  1
  Ti  Ti28  1  0.75100560  0.25189669  0.25265081  1
  Ti  Ti29  1  0.75015115  0.25187787  0.74790850  1
  Ti  Ti30  1  0.75024961  0.74840716  0.25441586  1
  Ti  Ti31  1  0.75004069  0.74765306  0.74544147  1
  Al  Al32  1  0.08456503  0.08689448  0.09469910  1
  Al  Al33  1  0.07598217  0.08120376  0.58177475  1
  Al  Al34  1  0.09103573  0.57404439  0.08730949  1
  Al  Al35  1  0.08312511  0.59238120  0.58201727  1
  Al  Al36  1  0.58799329  0.08283555  0.08859098  1
  Al  Al37  1  0.58247009  0.09168006  0.57198652  1
  Al  Al38  1  0.58622060  0.57196683  0.09343139  1
  Al  Al39  1  0.58997244  0.57923115  0.58618093  1
  Al  Al40  1  0.41557272  0.42474312  0.08140991  1
  Al  Al41  1  0.41437939  0.41914744  0.58507317  1
  Al  Al42  1  0.41508165  0.91926548  0.08041744  1
  Al  Al43  1  0.41915828  0.91206658  0.58214119  1
  Al  Al44  1  0.91594751  0.40509301  0.08501113  1
  Al  Al45  1  0.91332792  0.40357080  0.58002469  1
  Al  Al46  1  0.92407726  0.92616691  0.08394823  1
  Al  Al47  1  0.92066912  0.91100271  0.57415632  1
  Al  Al48  1  0.41925610  0.08981274  0.42298156  1
  Al  Al49  1  0.41315251  0.09434293  0.92087628  1
  Al  Al50  1  0.40155430  0.58366386  0.41810903  1
  Al  Al51  1  0.40988308  0.58754874  0.91547485  1
  Al  Al52  1  0.90732195  0.09492703  0.41528931  1
  Al  Al53  1  0.92240821  0.09774714  0.92851581  1
  Al  Al54  1  0.90967233  0.57755793  0.42019831  1
  Al  Al55  1  0.92382911  0.58188935  0.91246430  1
  Al  Al56  1  0.08390862  0.42492507  0.40749589  1
  Al  Al57  1  0.07150064  0.41798405  0.91238168  1
  Al  Al58  1  0.08925755  0.90945830  0.42058178  1
  Al  Al59  1  0.08649981  0.91666304  0.92453528  1
  Al  Al60  1  0.58720103  0.41838614  0.42276684  1
  Al  Al61  1  0.58139703  0.40665855  0.91648601  1
  Al  Al62  1  0.59290262  0.91696995  0.41278133  1
  Al  Al63  1  0.57089656  0.92230998  0.91671834  1
  Al  Al64  1  0.07478103  0.08298949  0.41747348  1
  Al  Al65  1  0.07979534  0.08697376  0.92097348  1
  Al  Al66  1  0.09560255  0.58555273  0.41712758  1
  Al  Al67  1  0.08070069  0.58787627  0.91415642  1
  Al  Al68  1  0.59539734  0.08432499  0.41086020  1
  Al  Al69  1  0.57373770  0.08323247  0.92243163  1
  Al  Al70  1  0.58570106  0.58180176  0.42004100  1
  Al  Al71  1  0.57066959  0.57515706  0.91585652  1
  Al  Al72  1  0.40841937  0.42200368  0.41487327  1
  Al  Al73  1  0.42121000  0.41343911  0.90862369  1
  Al  Al74  1  0.42368302  0.91681413  0.42444134  1
  Al  Al75  1  0.41280497  0.91298985  0.91835771  1
  Al  Al76  1  0.90644671  0.41435113  0.41596041  1
  Al  Al77  1  0.91335538  0.40797743  0.91797865  1
  Al  Al78  1  0.91251008  0.91825015  0.41674836  1
  Al  Al79  1  0.92934908  0.91974250  0.92409071  1
  Al  Al80  1  0.07908143  0.41446053  0.10111798  1
  Al  Al81  1  0.07353086  0.41454428  0.59002575  1
  Al  Al82  1  0.09391997  0.92433509  0.08659624  1
  Al  Al83  1  0.08877729  0.90847313  0.57676892  1
  Al  Al84  1  0.59521807  0.41776048  0.08098246  1
  Al  Al85  1  0.58982290  0.41645908  0.58760099  1
  Al  Al86  1  0.58363359  0.92916384  0.09532260  1
  Al  Al87  1  0.58122357  0.90601250  0.57368780  1
  Al  Al88  1  0.41175059  0.08904737  0.07951308  1
  Al  Al89  1  0.41689794  0.09203611  0.57903656  1
  Al  Al90  1  0.40560491  0.58577445  0.07967055  1
  Al  Al91  1  0.40864796  0.58186330  0.58144005  1
  Al  Al92  1  0.91975270  0.09740821  0.09028017  1
  Al  Al93  1  0.91190426  0.10061416  0.57424211  1
  Al  Al94  1  0.92218548  0.57393465  0.08051580  1
  Al  Al95  1  0.91846232  0.59238682  0.58211932  1
  Al  Al96  1  0.24665670  0.13231191  0.13751317  1
  Al  Al97  1  0.25169037  0.13523048  0.63590978  1
  Al  Al98  1  0.24859633  0.63264415  0.13779616  1
  Al  Al99  1  0.25219324  0.63295470  0.63262022  1
  Al  Al100  1  0.75112723  0.13805586  0.13782229  1
  Al  Al101  1  0.75000560  0.13760127  0.62952179  1
  Al  Al102  1  0.74864334  0.63260181  0.13999502  1
  Al  Al103  1  0.74997599  0.63349948  0.62843792  1
  Al  Al104  1  0.24361180  0.36636866  0.13325271  1
  Al  Al105  1  0.25555697  0.36755707  0.63689661  1
  Al  Al106  1  0.25118125  0.86936435  0.13736856  1
  Al  Al107  1  0.24681682  0.86544346  0.63365826  1
  Al  Al108  1  0.75345464  0.36442174  0.13654789  1
  Al  Al109  1  0.74911860  0.36504082  0.62914343  1
  Al  Al110  1  0.74595558  0.86682025  0.14171743  1
  Al  Al111  1  0.74654776  0.86482164  0.63085728  1
  Al  Al112  1  0.25093250  0.13532213  0.36164540  1
  Al  Al113  1  0.25083192  0.13504507  0.86832320  1
  Al  Al114  1  0.24819309  0.63047717  0.36215096  1
  Al  Al115  1  0.25293731  0.63371810  0.86270716  1
  Al  Al116  1  0.75110735  0.13534905  0.36545906  1
  Al  Al117  1  0.75120983  0.14112080  0.86391780  1
  Al  Al118  1  0.75152874  0.63248845  0.37119685  1
  Al  Al119  1  0.74922474  0.63426265  0.85920461  1
  Al  Al120  1  0.24619780  0.36814704  0.36128210  1
  Al  Al121  1  0.25064994  0.36472431  0.86474037  1
  Al  Al122  1  0.24677514  0.86502188  0.36614054  1
  Al  Al123  1  0.25121498  0.86968326  0.86383611  1
  Al  Al124  1  0.75517629  0.36555598  0.37244552  1
  Al  Al125  1  0.75128149  0.36521738  0.86077772  1
  Al  Al126  1  0.74788324  0.86934606  0.36621992  1
  Al  Al127  1  0.74881177  0.86306551  0.86077259  1
  Al  Al128  1  0.13035818  0.25137108  0.13529187  1
  Al  Al129  1  0.13735391  0.25656783  0.63404889  1
  Al  Al130  1  0.13378592  0.74814540  0.13652638  1
  Al  Al131  1  0.13742733  0.74800954  0.63414150  1
  Al  Al132  1  0.63488465  0.24876914  0.13776742  1
  Al  Al133  1  0.63766128  0.25223113  0.62448468  1
  Al  Al134  1  0.63276353  0.74656775  0.14180858  1
  Al  Al135  1  0.63657855  0.74659078  0.62637060  1
  Al  Al136  1  0.12602591  0.25227871  0.36155133  1
  Al  Al137  1  0.13601721  0.25387033  0.86784307  1
  Al  Al138  1  0.13098285  0.74887689  0.36217554  1
  Al  Al139  1  0.13783423  0.74542536  0.86456869  1
  Al  Al140  1  0.63997747  0.25028942  0.37124106  1
  Al  Al141  1  0.63488595  0.25509977  0.86326715  1
  Al  Al142  1  0.63915766  0.74794202  0.37262763  1
  Al  Al143  1  0.63497833  0.74905456  0.86163852  1
  Al  Al144  1  0.36186019  0.24768201  0.13392435  1
  Al  Al145  1  0.36543358  0.25084497  0.63431359  1
  Al  Al146  1  0.36326565  0.74746696  0.13213794  1
  Al  Al147  1  0.36452482  0.74580671  0.63235646  1
  Al  Al148  1  0.86777753  0.25338462  0.13955545  1
  Al  Al149  1  0.86345790  0.25394896  0.62868704  1
  Al  Al150  1  0.86482930  0.74888241  0.14168590  1
  Al  Al151  1  0.86597455  0.74223351  0.62812627  1
  Al  Al152  1  0.36351753  0.25066563  0.36249359  1
  Al  Al153  1  0.36526467  0.24981053  0.86473335  1
  Al  Al154  1  0.36189099  0.74270555  0.36853618  1
  Al  Al155  1  0.36158346  0.74942706  0.87045850  1
  Al  Al156  1  0.86836363  0.25061647  0.36643888  1
  Al  Al157  1  0.86790027  0.25907249  0.86533105  1
  Al  Al158  1  0.86783101  0.74700116  0.36686044  1
  Al  Al159  1  0.86616191  0.74528643  0.86158633  1
  Al  Al160  1  0.12811315  0.13710256  0.24716926  1
  Al  Al161  1  0.13730993  0.13302892  0.75162325  1
  Al  Al162  1  0.13402870  0.63058979  0.25133239  1
  Al  Al163  1  0.13215080  0.63676008  0.74747628  1
  Al  Al164  1  0.63863710  0.13424455  0.25238431  1
  Al  Al165  1  0.63819347  0.13604010  0.74662747  1
  Al  Al166  1  0.63133996  0.63468846  0.25535615  1
  Al  Al167  1  0.63559442  0.63329476  0.74219287  1
  Al  Al168  1  0.36506026  0.13388270  0.24666733  1
  Al  Al169  1  0.36518136  0.13243711  0.75056684  1
  Al  Al170  1  0.36767480  0.63348224  0.25283737  1
  Al  Al171  1  0.36407367  0.63252441  0.74485934  1
  Al  Al172  1  0.86979254  0.13676646  0.25102004  1
  Al  Al173  1  0.86372481  0.14003800  0.74790716  1
  Al  Al174  1  0.86582992  0.62953543  0.25658282  1
  Al  Al175  1  0.86787351  0.63448936  0.74526462  1
  Al  Al176  1  0.12997679  0.36594225  0.24834830  1
  Al  Al177  1  0.13210959  0.36485914  0.75020694  1
  Al  Al178  1  0.13131482  0.86325536  0.24791404  1
  Al  Al179  1  0.13573447  0.86855216  0.75168783  1
  Al  Al180  1  0.64076111  0.36553962  0.25163137  1
  Al  Al181  1  0.63206021  0.36241089  0.74363717  1
  Al  Al182  1  0.63512427  0.86519195  0.25571915  1
  Al  Al183  1  0.63612989  0.86594313  0.74588234  1
  Al  Al184  1  0.36226479  0.36562598  0.24975373  1
  Al  Al185  1  0.37116066  0.36127075  0.74960949  1
  Al  Al186  1  0.36344526  0.86334391  0.25166039  1
  Al  Al187  1  0.36355235  0.86479524  0.74898049  1
  Al  Al188  1  0.86801448  0.36632967  0.25373027  1
  Al  Al189  1  0.86817181  0.36428576  0.74472851  1
  Al  Al190  1  0.86844249  0.86536196  0.25556818  1
  Al  Al191  1  0.86514919  0.86166505  0.74156455  1
  Al  Al192  1  0.50116234  0.81457712  0.67957518  1
  Al  Al193  1  0.18892055  0.17253919  0.49870933  1
  Al  Al194  1  0.50259828  0.17594082  0.32419520  1
  Al  Al195  1  0.32711876  0.49750825  0.81596925  1
  Al  Al196  1  0.00312568  0.67265478  0.17715627  1
  Al  Al197  1  0.82724236  0.66918150  -0.00029290  1
  Al  Al198  1  0.50117556  0.81731637  0.33097706  1
  Al  Al199  1  0.82647693  0.49966532  0.82501872  1
  Al  Al200  1  0.31304506  0.50002024  0.18803958  1
  Al  Al201  1  0.00162720  0.81111943  0.82517570  1
  Al  Al202  1  0.17835820  0.17948807  0.00377772  1
  Al  Al203  1  0.82897071  0.82688405  0.00225795  1
  Al  Al204  1  0.68971718  0.32323864  0.00017479  1
  Al  Al205  1  0.00073000  0.19384977  0.67006243  1
  Al  Al206  1  0.18215174  0.82275883  0.00179075  1
  Al  Al207  1  0.31000677  0.81097252  0.50066335  1
  Al  Al208  1  0.16909861  0.32878911  0.49767877  1
  Al  Al209  1  0.50232268  0.18365042  0.67302646  1
  Al  Al210  1  0.81020769  0.81243588  0.49876972  1
  Al  Al211  1  0.32348589  0.31784402  -0.00093576  1
  Al  Al212  1  0.81807922  0.49924597  0.18177304  1
  Al  Al213  1  0.49834666  0.67996951  0.81756784  1
  Al  Al214  1  0.83004909  0.00224092  0.83071865  1
  Al  Al215  1  0.66760700  0.49803386  0.81102939  1
  Al  Al216  1  0.00071253  0.80786940  0.67231497  1
  Al  Al217  1  0.17216691  0.50036188  0.82749899  1
  Al  Al218  1  0.81800082  0.00142240  0.17951485  1
  Al  Al219  1  0.50122439  0.18407032  0.82586066  1
  Al  Al220  1  0.00120357  0.18811101  0.82612825  1
  Al  Al221  1  0.18277773  0.66923382  0.00070374  1
  Al  Al222  1  0.33331115  0.00006367  0.32095945  1
  Al  Al223  1  0.82356972  0.00163977  0.66733528  1
  Al  Al224  1  0.66906935  0.83042895  0.00342688  1
  Al  Al225  1  0.66908340  0.66562571  0.00011820  1
  Al  Al226  1  0.50116705  0.32672852  0.17362585  1
  Al  Al227  1  0.82319529  0.19491730  0.00215797  1
  Al  Al228  1  0.67238302  0.17306730  -0.00050435  1
  Al  Al229  1  0.19016354  0.68957833  0.49805910  1
  Al  Al230  1  0.32529790  0.00263669  0.67322269  1
  Al  Al231  1  0.67120426  0.00320362  0.82194676  1
  Al  Al232  1  0.68701842  0.49947623  0.31672316  1
  Al  Al233  1  0.32658664  0.31812223  0.49846386  1
  Al  Al234  1  0.17186465  0.00051268  0.31137287  1
  Al  Al235  1  0.18239112  0.49984867  0.67192604  1
  Al  Al236  1  0.49964269  0.82349460  0.17416151  1
  Al  Al237  1  0.50101975  0.32920199  0.33002535  1
  Al  Al238  1  0.81905487  0.49970553  0.66844048  1
  Au  Au239  1  0.16375535  0.00010902  0.32629535  1
  Au  Au240  1  0.32227151  0.00268130  0.16041594  1
  Au  Au241  1  0.67576101  0.66969159  0.50077664  1
  Au  Au242  1  0.17123823  0.34127475  0.49872917  1
  Au  Au243  1  0.49583488  0.66814892  0.34157076  1
  Au  Au244  1  0.82007748  0.00275194  0.33766038  1
  Au  Au245  1  0.15963641  0.34203092  0.00150760  1
  Au  Au246  1  0.67480932  0.64966260  0.00093634  1
  Au  Au247  1  0.84132987  0.00701482  0.84336437  1
  Au  Au248  1  0.49793116  0.82847242  0.82756986  1
  Au  Au249  1  0.50625035  0.34283550  0.17579873  1
  Au  Au250  1  0.32911099  0.82115644  0.00201835  1
  Au  Au251  1  0.33419529  0.00050762  0.66463082  1
  Au  Au252  1  -0.00195964  0.17023766  0.32418057  1
  Au  Au253  1  0.66710584  0.00446153  0.83378196  1
  Au  Au254  1  0.49981900  0.33335571  0.67283966  1
  Au  Au255  1  0.67656781  0.32754576  0.49922036  1
  Au  Au256  1  0.49917698  0.83594853  0.17764229  1
  Au  Au257  1  0.83489572  0.49944041  0.66452143  1
  Au  Au258  1  0.00252753  0.82112467  0.66124858  1
  Au  Au259  1  0.82950700  0.49662114  0.16969713  1
  Au  Au260  1  0.49778166  0.66297355  0.16539289  1
  Au  Au261  1  0.82422714  0.82232330  0.49698063  1
  Au  Au262  1  0.17249278  0.16701246  0.00377329  1
  Au  Au263  1  0.00090845  0.66419465  0.16818090  1
  Au  Au264  1  0.33871177  0.32514551  -0.00209643  1
  Au  Au265  1  0.16821693  -0.00261535  0.66405484  1
  Au  Au266  1  0.49836326  0.66279537  0.66674899  1
  Au  Au267  1  0.33064895  0.00457008  0.83836929  1
  Au  Au268  1  0.66598120  0.84714668  0.00355607  1
  Au  Au269  1  0.00473322  0.82190904  0.83795249  1
  Au  Au270  1  0.67202070  0.49842849  0.32492534  1
  Au  Au271  1  0.16637642  0.50326481  0.67266355  1
  Au  Au272  1  0.33907120  0.00012285  0.33210728  1
  Au  Au273  1  0.84538325  0.82040115  0.00353931  1
  Au  Au274  1  0.32438891  0.82019785  0.49873512  1
  Au  Au275  1  0.65715949  -0.00038248  0.65854711  1
  Au  Au276  1  -0.00271870  0.33812192  0.32534910  1
  Au  Au277  1  -0.00242364  0.65888456  0.33379686  1
  Au  Au278  1  -0.00039327  0.83056471  0.33685597  1
  Au  Au279  1  0.17380007  0.16444215  0.49963162  1
  Au  Au280  1  0.00516966  0.83751289  0.16832915  1
  Au  Au281  1  0.16021581  0.00206521  0.83179655  1
  Au  Au282  1  0.82419979  0.00366549  0.16402671  1
  Au  Au283  1  0.49965931  0.15964565  0.17463151  1
  Au  Au284  1  -0.00037976  0.17753148  0.67519735  1
  Au  Au285  1  0.66393278  0.49606664  0.82728006  1
  Au  Au286  1  0.31937611  0.50029240  0.17202249  1
  Au  Au287  1  0.83599057  0.00190554  0.65588556  1
