# generated using pymatgen
data_Ca24Ti8Al207Au49
_symmetry_space_group_name_H-M   'P 1'
_cell_length_a   17.31812429
_cell_length_b   17.31796340
_cell_length_c   17.32081969
_cell_angle_alpha   90.00227719
_cell_angle_beta   90.00419963
_cell_angle_gamma   89.99624340
_symmetry_Int_Tables_number   1
_chemical_formula_structural   Ca24Ti8Al207Au49
_chemical_formula_sum   'Ca24 Ti8 Al207 Au49'
_cell_volume   5194.76741626
_cell_formula_units_Z   1
loop_
 _symmetry_equiv_pos_site_id
 _symmetry_equiv_pos_as_xyz
  1  'x, y, z'
loop_
 _atom_site_type_symbol
 _atom_site_label
 _atom_site_symmetry_multiplicity
 _atom_site_fract_x
 _atom_site_fract_y
 _atom_site_fract_z
 _atom_site_occupancy
  Ca  Ca0  1  0.24461397  -0.00159190  0.00091111  1
  Ca  Ca1  1  0.24863274  0.00385375  0.49957404  1
  Ca  Ca2  1  0.25695219  0.50171819  -0.00265268  1
  Ca  Ca3  1  0.25117890  0.49971298  0.49940522  1
  Ca  Ca4  1  0.75183884  0.00142720  0.00361978  1
  Ca  Ca5  1  0.74772192  -0.00155161  0.49423630  1
  Ca  Ca6  1  0.74510984  0.49845106  -0.00514397  1
  Ca  Ca7  1  0.74784403  0.50003660  0.50190818  1
  Ca  Ca8  1  -0.00071388  0.24467989  0.00399318  1
  Ca  Ca9  1  0.00104456  0.24770673  0.49868305  1
  Ca  Ca10  1  0.00215604  0.75452848  -0.00045155  1
  Ca  Ca11  1  -0.00262592  0.75234302  0.50083027  1
  Ca  Ca12  1  0.50150545  0.25259713  -0.00020608  1
  Ca  Ca13  1  0.49774093  0.25205066  0.49854904  1
  Ca  Ca14  1  0.49910760  0.74825658  0.00190562  1
  Ca  Ca15  1  0.50373141  0.74708871  0.49926768  1
  Ca  Ca16  1  -0.00017589  0.00075446  0.24694461  1
  Ca  Ca17  1  0.00329286  0.00594373  0.74761106  1
  Ca  Ca18  1  -0.00368639  0.50071801  0.24888718  1
  Ca  Ca19  1  -0.00305525  0.49802218  0.75044212  1
  Ca  Ca20  1  0.50003674  -0.00345111  0.24763133  1
  Ca  Ca21  1  0.49679955  -0.00198074  0.74708789  1
  Ca  Ca22  1  0.50614824  0.50553527  0.25371326  1
  Ca  Ca23  1  0.50097518  0.50106012  0.74885472  1
  Ti  Ti24  1  0.25055783  0.24931338  0.24903728  1
  Ti  Ti25  1  0.24966563  0.24864286  0.75067846  1
  Ti  Ti26  1  0.25222319  0.75108075  0.24982872  1
  Ti  Ti27  1  0.25061840  0.75080563  0.75006983  1
  Ti  Ti28  1  0.74906499  0.24947414  0.25209209  1
  Ti  Ti29  1  0.75006844  0.25124412  0.74920611  1
  Ti  Ti30  1  0.74913818  0.75132070  0.25273307  1
  Ti  Ti31  1  0.74892453  0.74804157  0.74729594  1
  Al  Al32  1  0.08508842  0.08237726  0.09117962  1
  Al  Al33  1  0.08784320  0.09465377  0.58662683  1
  Al  Al34  1  0.07877234  0.58421081  0.07385210  1
  Al  Al35  1  0.09083268  0.58353650  0.58456543  1
  Al  Al36  1  0.58975016  0.08143475  0.08412368  1
  Al  Al37  1  0.58010421  0.07669742  0.57956350  1
  Al  Al38  1  0.58362425  0.57893456  0.09549195  1
  Al  Al39  1  0.59505711  0.58554712  0.58324221  1
  Al  Al40  1  0.42658072  0.41015978  0.08813266  1
  Al  Al41  1  0.41224662  0.41538084  0.57670624  1
  Al  Al42  1  0.41294525  0.91418182  0.08690487  1
  Al  Al43  1  0.41822020  0.92830947  0.58451777  1
  Al  Al44  1  0.91813899  0.41856723  0.07562532  1
  Al  Al45  1  0.89893082  0.41490803  0.58569073  1
  Al  Al46  1  0.92223570  0.91321998  0.09203648  1
  Al  Al47  1  0.92134916  0.91724818  0.57234010  1
  Al  Al48  1  0.41022214  0.08439650  0.43040732  1
  Al  Al49  1  0.41935137  0.07684069  0.91816140  1
  Al  Al50  1  0.42776428  0.59441674  0.41512898  1
  Al  Al51  1  0.41603920  0.59799031  0.91695141  1
  Al  Al52  1  0.90944710  0.08016367  0.41577671  1
  Al  Al53  1  0.92435825  0.09244547  0.91636750  1
  Al  Al54  1  0.91459896  0.57711612  0.42785050  1
  Al  Al55  1  0.90416823  0.58271550  0.91458632  1
  Al  Al56  1  0.07732196  0.41126109  0.42683795  1
  Al  Al57  1  0.09062851  0.41032237  0.92002799  1
  Al  Al58  1  0.08427641  0.91830178  0.41688152  1
  Al  Al59  1  0.07969925  0.92063550  0.91904291  1
  Al  Al60  1  0.59839006  0.42123567  0.41561644  1
  Al  Al61  1  0.58361933  0.42273210  0.92057775  1
  Al  Al62  1  0.58898119  0.89887263  0.41349227  1
  Al  Al63  1  0.57605204  0.91417866  0.91899421  1
  Al  Al64  1  0.09024915  0.08491967  0.42290488  1
  Al  Al65  1  0.08164481  0.08895397  0.91165753  1
  Al  Al66  1  0.08912436  0.59096760  0.43038869  1
  Al  Al67  1  0.08274228  0.58214226  0.91722642  1
  Al  Al68  1  0.58683024  0.07660063  0.41768553  1
  Al  Al69  1  0.58387633  0.08513714  0.92413463  1
  Al  Al70  1  0.59095404  0.59245573  0.40896638  1
  Al  Al71  1  0.57730689  0.58679332  0.90864200  1
  Al  Al72  1  0.41513339  0.41415106  0.42143725  1
  Al  Al73  1  0.42205070  0.42462951  0.92381198  1
  Al  Al74  1  0.43012627  0.91091409  0.41055887  1
  Al  Al75  1  0.41523009  0.91155813  0.91588822  1
  Al  Al76  1  0.90971451  0.40890506  0.42565036  1
  Al  Al77  1  0.91227071  0.41954503  0.91645355  1
  Al  Al78  1  0.90636859  0.91994942  0.40883350  1
  Al  Al79  1  0.92537829  0.91764105  0.92385403  1
  Al  Al80  1  0.08748021  0.40532818  0.07458488  1
  Al  Al81  1  0.08744426  0.41857624  0.58197574  1
  Al  Al82  1  0.08527607  0.91951384  0.09332897  1
  Al  Al83  1  0.08493000  0.92052427  0.57868795  1
  Al  Al84  1  0.58749117  0.41566900  0.09908403  1
  Al  Al85  1  0.59767293  0.41995531  0.58061796  1
  Al  Al86  1  0.58251858  0.91959406  0.08656297  1
  Al  Al87  1  0.58870217  0.91309856  0.57471293  1
  Al  Al88  1  0.41585443  0.07748831  0.08588059  1
  Al  Al89  1  0.40223161  0.08704745  0.58771396  1
  Al  Al90  1  0.42127275  0.59295745  0.08037507  1
  Al  Al91  1  0.42278441  0.58199605  0.57731938  1
  Al  Al92  1  0.92163226  0.08553939  0.08999681  1
  Al  Al93  1  0.92584259  0.09375909  0.58432669  1
  Al  Al94  1  0.90776990  0.58843318  0.07246936  1
  Al  Al95  1  0.90699364  0.57778911  0.58982751  1
  Al  Al96  1  0.24838304  0.13813663  0.12754587  1
  Al  Al97  1  0.24909155  0.13099990  0.63609731  1
  Al  Al98  1  0.25777784  0.63403239  0.13509122  1
  Al  Al99  1  0.24992261  0.63508571  0.63710296  1
  Al  Al100  1  0.75320379  0.13403074  0.13694113  1
  Al  Al101  1  0.74903301  0.13723269  0.63386577  1
  Al  Al102  1  0.74624649  0.63621011  0.13944753  1
  Al  Al103  1  0.74694384  0.63247275  0.63094412  1
  Al  Al104  1  0.24811849  0.36318335  0.13379083  1
  Al  Al105  1  0.25142242  0.36255528  0.63291513  1
  Al  Al106  1  0.24784163  0.86374752  0.13775200  1
  Al  Al107  1  0.25130290  0.87153244  0.63681081  1
  Al  Al108  1  0.74515800  0.36479886  0.13634180  1
  Al  Al109  1  0.75161243  0.36964843  0.63259202  1
  Al  Al110  1  0.75325158  0.86597031  0.13776869  1
  Al  Al111  1  0.74773716  0.86177420  0.62768464  1
  Al  Al112  1  0.24796652  0.13665671  0.36355701  1
  Al  Al113  1  0.24764118  0.12935045  0.86802899  1
  Al  Al114  1  0.24969801  0.63663089  0.36327921  1
  Al  Al115  1  0.25520889  0.62840669  0.86352697  1
  Al  Al116  1  0.74928399  0.12998136  0.36570466  1
  Al  Al117  1  0.75026941  0.13351614  0.86327698  1
  Al  Al118  1  0.74591998  0.63590932  0.37331957  1
  Al  Al119  1  0.74986478  0.63312033  0.86573035  1
  Al  Al120  1  0.25631162  0.36616903  0.36534048  1
  Al  Al121  1  0.24509370  0.36797483  0.86634242  1
  Al  Al122  1  0.24854174  0.86233077  0.36111399  1
  Al  Al123  1  0.25165454  0.86957650  0.86392099  1
  Al  Al124  1  0.74709521  0.36626273  0.36880911  1
  Al  Al125  1  0.74839746  0.36501621  0.86422668  1
  Al  Al126  1  0.74756954  0.86497392  0.36678055  1
  Al  Al127  1  0.74917324  0.86374127  0.86413103  1
  Al  Al128  1  0.13514954  0.24835318  0.13120789  1
  Al  Al129  1  0.13367066  0.24339194  0.63329892  1
  Al  Al130  1  0.13436685  0.75148383  0.13564516  1
  Al  Al131  1  0.13416707  0.74832970  0.63715635  1
  Al  Al132  1  0.62915060  0.25343725  0.14049250  1
  Al  Al133  1  0.63995593  0.25916621  0.63101452  1
  Al  Al134  1  0.63462605  0.75170755  0.13930451  1
  Al  Al135  1  0.63615373  0.74706165  0.62921752  1
  Al  Al136  1  0.13595189  0.24673676  0.36469921  1
  Al  Al137  1  0.13668487  0.24570306  0.86842533  1
  Al  Al138  1  0.13334429  0.75140999  0.36157724  1
  Al  Al139  1  0.13811169  0.74854966  0.86384096  1
  Al  Al140  1  0.63551621  0.25614838  0.36919690  1
  Al  Al141  1  0.63573262  0.25353830  0.86259727  1
  Al  Al142  1  0.63261841  0.74823873  0.36700333  1
  Al  Al143  1  0.63514091  0.74362223  0.86378283  1
  Al  Al144  1  0.36993098  0.25120681  0.13470914  1
  Al  Al145  1  0.36259576  0.25004775  0.63726286  1
  Al  Al146  1  0.36718335  0.74995839  0.13614750  1
  Al  Al147  1  0.36472629  0.74766073  0.63789808  1
  Al  Al148  1  0.86386733  0.24685646  0.13813372  1
  Al  Al149  1  0.86181560  0.25149633  0.62913573  1
  Al  Al150  1  0.86115526  0.74995965  0.13891514  1
  Al  Al151  1  0.86261132  0.74782925  0.62628858  1
  Al  Al152  1  0.36794945  0.25312256  0.36398661  1
  Al  Al153  1  0.36104861  0.24891331  0.86482628  1
  Al  Al154  1  0.37207218  0.74957143  0.36313770  1
  Al  Al155  1  0.36362666  0.74598893  0.86480054  1
  Al  Al156  1  0.86027968  0.24983456  0.36878172  1
  Al  Al157  1  0.86393278  0.24670104  0.86354473  1
  Al  Al158  1  0.86150300  0.75237412  0.37194628  1
  Al  Al159  1  0.86208448  0.74505840  0.86392118  1
  Al  Al160  1  0.13450120  0.13122014  0.24178235  1
  Al  Al161  1  0.13546516  0.13211072  0.75030574  1
  Al  Al162  1  0.13585836  0.63564353  0.24600063  1
  Al  Al163  1  0.13423692  0.63368688  0.75373336  1
  Al  Al164  1  0.63382981  0.13652402  0.25256114  1
  Al  Al165  1  0.63634880  0.13693413  0.75099580  1
  Al  Al166  1  0.63596778  0.63510998  0.25568311  1
  Al  Al167  1  0.63726061  0.62948601  0.74754339  1
  Al  Al168  1  0.36287815  0.13611679  0.24557711  1
  Al  Al169  1  0.36115630  0.12970327  0.74980219  1
  Al  Al170  1  0.36641088  0.63158420  0.25302310  1
  Al  Al171  1  0.36927200  0.63087973  0.75150410  1
  Al  Al172  1  0.86397735  0.13138634  0.25203080  1
  Al  Al173  1  0.86968480  0.13737538  0.74758345  1
  Al  Al174  1  0.86201193  0.63524817  0.25544638  1
  Al  Al175  1  0.86213696  0.63257074  0.74427194  1
  Al  Al176  1  0.13564494  0.36172829  0.25180220  1
  Al  Al177  1  0.13281584  0.35999972  0.74832512  1
  Al  Al178  1  0.12904323  0.86843088  0.24786030  1
  Al  Al179  1  0.13689204  0.87096741  0.74882491  1
  Al  Al180  1  0.63725588  0.37112932  0.25041585  1
  Al  Al181  1  0.64049949  0.37465728  0.74496758  1
  Al  Al182  1  0.62793890  0.86217722  0.25508470  1
  Al  Al183  1  0.63674654  0.86080253  0.75039757  1
  Al  Al184  1  0.36556534  0.36931983  0.24635790  1
  Al  Al185  1  0.35915958  0.37119736  0.75314211  1
  Al  Al186  1  0.37126379  0.86270598  0.24978684  1
  Al  Al187  1  0.36451748  0.86701518  0.75125116  1
  Al  Al188  1  0.86220518  0.36405469  0.25103442  1
  Al  Al189  1  0.86586428  0.36553510  0.74560990  1
  Al  Al190  1  0.86476164  0.86681785  0.25289010  1
  Al  Al191  1  0.86292823  0.86125704  0.74792898  1
  Al  Al192  1  0.49890596  0.32788132  0.82719623  1
  Al  Al193  1  0.67652059  0.17926062  0.50221203  1
  Al  Al194  1  0.32478603  0.82434076  0.50022086  1
  Al  Al195  1  0.49908331  0.17338199  0.82771847  1
  Al  Al196  1  0.49993287  0.17189740  0.67358648  1
  Al  Al197  1  0.19114887  0.30770788  0.49873339  1
  Al  Al198  1  0.81225831  0.49983654  0.32705419  1
  Al  Al199  1  0.19487976  0.67482894  -0.00058240  1
  Al  Al200  1  0.49595210  0.16851240  0.32265709  1
  Al  Al201  1  0.30970918  -0.00030117  0.17704708  1
  Al  Al202  1  -0.00265991  0.68388936  0.17161057  1
  Al  Al203  1  0.00100095  0.67613052  0.67499122  1
  Al  Al204  1  0.32401083  0.81436295  0.00035124  1
  Al  Al205  1  0.81670572  0.50065595  0.17114995  1
  Al  Al206  1  0.31844588  0.32129422  -0.00027880  1
  Al  Al207  1  0.68395315  -0.00090438  0.18457772  1
  Al  Al208  1  0.83019742  0.00169484  0.66956771  1
  Al  Al209  1  -0.00165974  0.67855020  0.32936110  1
  Al  Al210  1  0.17963997  0.49803974  0.68008279  1
  Al  Al211  1  0.50254240  0.67440484  0.68279120  1
  Al  Al212  1  0.50139511  0.68118533  0.18872370  1
  Al  Al213  1  0.00053377  0.16883566  0.31654908  1
  Al  Al214  1  0.67470713  0.82576202  0.00109455  1
  Al  Al215  1  0.00022864  0.31430939  0.16913017  1
  Al  Al216  1  0.83121814  0.81181904  0.00019683  1
  Al  Al217  1  0.17427124  0.49882124  0.33114860  1
  Al  Al218  1  0.82504385  -0.00028190  0.82996324  1
  Al  Al219  1  0.00068352  0.82003539  0.81954487  1
  Al  Al220  1  0.81720964  0.31945479  0.00056796  1
  Al  Al221  1  -0.00251645  0.32443341  0.32648943  1
  Al  Al222  1  0.30739117  0.19137934  0.50001715  1
  Al  Al223  1  0.68461328  0.18466354  0.00178436  1
  Al  Al224  1  0.49961832  0.81003867  0.82385570  1
  Al  Al225  1  -0.00028367  0.31406986  0.83085081  1
  Al  Al226  1  0.33166540  -0.00125128  0.32879087  1
  Al  Al227  1  0.31623931  0.67389082  0.49973860  1
  Al  Al228  1  0.68062722  0.66878933  0.00231955  1
  Al  Al229  1  0.81625963  0.49831708  0.81279651  1
  Al  Al230  1  0.50074248  0.83005490  0.67113149  1
  Al  Al231  1  -0.00102600  0.31609927  0.66933773  1
  Al  Al232  1  0.17367101  0.81315585  0.50010399  1
  Al  Al233  1  0.17836932  0.49887752  0.17055281  1
  Al  Al234  1  0.67313883  -0.00188492  0.67916360  1
  Al  Al235  1  0.17867662  0.00045427  0.31486104  1
  Al  Al236  1  0.17144212  0.82998290  0.00067497  1
  Al  Al237  1  0.49916397  0.32919754  0.67641611  1
  Al  Al238  1  0.50250523  0.33213375  0.31681521  1
  Au  Au239  1  0.66400780  0.66687228  0.00319685  1
  Au  Au240  1  -0.00012977  0.16812262  0.33348405  1
  Au  Au241  1  -0.00246255  0.32809430  0.65836295  1
  Au  Au242  1  0.33956865  0.50326992  0.83182932  1
  Au  Au243  1  0.83292476  0.82879293  0.00169220  1
  Au  Au244  1  0.66615008  0.33319464  0.00369854  1
  Au  Au245  1  0.17920747  0.32029987  0.49877484  1
  Au  Au246  1  0.33825603  0.50573379  0.33849718  1
  Au  Au247  1  -0.00159618  0.66800549  0.34199430  1
  Au  Au248  1  0.32606021  0.50065309  0.65878963  1
  Au  Au249  1  0.82666078  0.49679874  0.33591335  1
  Au  Au250  1  0.83539392  0.17153522  0.00301412  1
  Au  Au251  1  0.00171557  0.84073777  0.67323048  1
  Au  Au252  1  0.66733844  0.50077653  0.82184187  1
  Au  Au253  1  0.15844440  0.49851804  0.33712856  1
  Au  Au254  1  0.32838359  0.15956182  -0.00143917  1
  Au  Au255  1  0.50422321  0.34353225  0.32814292  1
  Au  Au256  1  0.15974050  0.17342758  0.00172425  1
  Au  Au257  1  0.50104987  0.17375563  0.15799532  1
  Au  Au258  1  0.50447461  0.33033069  0.66108552  1
  Au  Au259  1  0.16841937  0.49834188  0.15585380  1
  Au  Au260  1  -0.00543563  0.67343186  0.15798050  1
  Au  Au261  1  -0.00041266  0.31936222  0.84628082  1
  Au  Au262  1  0.16367570  0.49671180  0.82697577  1
  Au  Au263  1  0.66709403  0.17111644  0.50002077  1
  Au  Au264  1  0.34557350  0.50236369  0.16795668  1
  Au  Au265  1  0.16643084  -0.00036789  0.83010092  1
  Au  Au266  1  0.17397484  0.00085274  0.32689907  1
  Au  Au267  1  0.83362833  0.17832470  0.49943424  1
  Au  Au268  1  0.17784696  0.67611146  -0.00126299  1
  Au  Au269  1  0.84057330  0.00022280  0.83476164  1
  Au  Au270  1  0.82491362  0.00404796  0.65297148  1
  Au  Au271  1  0.50121088  0.82916892  0.17416832  1
  Au  Au272  1  0.67164716  -0.00665128  0.33136218  1
  Au  Au273  1  -0.00520201  0.67244858  0.84014067  1
  Au  Au274  1  0.82286901  0.83266713  0.49692576  1
  Au  Au275  1  0.83482835  -0.00002616  0.17676142  1
  Au  Au276  1  0.17568027  0.00233773  0.66064403  1
  Au  Au277  1  0.49440407  0.15513407  0.33124831  1
  Au  Au278  1  0.33499985  0.83707394  0.49964920  1
  Au  Au279  1  0.32782133  0.33526808  0.00041074  1
  Au  Au280  1  0.65523707  -0.00152435  0.82857040  1
  Au  Au281  1  -0.00251677  0.84185205  0.32421153  1
  Au  Au282  1  -0.00100503  0.66695280  0.66651892  1
  Au  Au283  1  0.33644949  -0.00165419  0.82403035  1
  Au  Au284  1  0.50233260  0.66983897  0.67075355  1
  Au  Au285  1  0.81967325  0.66477030  0.50345121  1
  Au  Au286  1  -0.00209446  0.33138747  0.16998079  1
  Au  Au287  1  0.81838322  0.50100500  0.15385738  1
