# generated using pymatgen
data_Ca24Ti8Al207Au49
_symmetry_space_group_name_H-M   'P 1'
_cell_length_a   17.32288282
_cell_length_b   17.32290620
_cell_length_c   17.32468676
_cell_angle_alpha   89.99809532
_cell_angle_beta   90.00234249
_cell_angle_gamma   90.00210455
_symmetry_Int_Tables_number   1
_chemical_formula_structural   Ca24Ti8Al207Au49
_chemical_formula_sum   'Ca24 Ti8 Al207 Au49'
_cell_volume   5198.83832145
_cell_formula_units_Z   1
loop_
 _symmetry_equiv_pos_site_id
 _symmetry_equiv_pos_as_xyz
  1  'x, y, z'
loop_
 _atom_site_type_symbol
 _atom_site_label
 _atom_site_symmetry_multiplicity
 _atom_site_fract_x
 _atom_site_fract_y
 _atom_site_fract_z
 _atom_site_occupancy
  Ca  Ca0  1  0.25277822  -0.00145737  0.00323993  1
  Ca  Ca1  1  0.24957801  0.00161210  0.50046989  1
  Ca  Ca2  1  0.24746472  0.50276509  0.00052131  1
  Ca  Ca3  1  0.25189082  0.49858489  0.50015240  1
  Ca  Ca4  1  0.75080167  0.00009371  0.00439066  1
  Ca  Ca5  1  0.74889728  -0.00339501  0.49749007  1
  Ca  Ca6  1  0.75411247  0.49978467  0.00146284  1
  Ca  Ca7  1  0.75379397  0.50131377  0.49845348  1
  Ca  Ca8  1  -0.00124598  0.25326835  0.00108811  1
  Ca  Ca9  1  0.00138947  0.24897993  0.49600730  1
  Ca  Ca10  1  0.00202630  0.74640785  0.00204149  1
  Ca  Ca11  1  -0.00686701  0.74958022  0.50051888  1
  Ca  Ca12  1  0.49971118  0.24871025  0.00081935  1
  Ca  Ca13  1  0.49781541  0.24903989  0.50001517  1
  Ca  Ca14  1  0.49855111  0.75140080  0.00636990  1
  Ca  Ca15  1  0.50297739  0.75326905  0.49427160  1
  Ca  Ca16  1  0.00173108  0.00074208  0.24915204  1
  Ca  Ca17  1  -0.00128711  0.00105644  0.74869397  1
  Ca  Ca18  1  -0.00067666  0.49715648  0.24773382  1
  Ca  Ca19  1  0.00094861  0.49833962  0.75204902  1
  Ca  Ca20  1  0.50067320  -0.00208066  0.25014198  1
  Ca  Ca21  1  0.49799275  0.00355122  0.74527812  1
  Ca  Ca22  1  0.50033068  0.50329665  0.24916000  1
  Ca  Ca23  1  0.49896989  0.49915305  0.74582760  1
  Ti  Ti24  1  0.24971223  0.25017269  0.24894038  1
  Ti  Ti25  1  0.24853041  0.24882525  0.75138855  1
  Ti  Ti26  1  0.25229453  0.74941129  0.24866348  1
  Ti  Ti27  1  0.24900801  0.75079167  0.75147820  1
  Ti  Ti28  1  0.74901091  0.25075141  0.25006377  1
  Ti  Ti29  1  0.75096152  0.25104564  0.74903889  1
  Ti  Ti30  1  0.74851820  0.74856940  0.24954926  1
  Ti  Ti31  1  0.75043813  0.74891147  0.75016839  1
  Al  Al32  1  0.08188710  0.08257078  0.08475446  1
  Al  Al33  1  0.08774741  0.07571128  0.58451415  1
  Al  Al34  1  0.08112473  0.59087013  0.08354164  1
  Al  Al35  1  0.08712905  0.57418947  0.58477297  1
  Al  Al36  1  0.58388871  0.07937182  0.08432586  1
  Al  Al37  1  0.57386863  0.08397033  0.58428411  1
  Al  Al38  1  0.58585892  0.59205359  0.08403744  1
  Al  Al39  1  0.59002319  0.58219901  0.57479390  1
  Al  Al40  1  0.42020741  0.41530074  0.08405614  1
  Al  Al41  1  0.40794165  0.41059265  0.58171777  1
  Al  Al42  1  0.41379202  0.91160756  0.09247166  1
  Al  Al43  1  0.41704847  0.92090438  0.57807146  1
  Al  Al44  1  0.91643504  0.41161141  0.08783516  1
  Al  Al45  1  0.91530765  0.42305682  0.58709005  1
  Al  Al46  1  0.92192946  0.91511405  0.08323724  1
  Al  Al47  1  0.91483176  0.90934658  0.57988003  1
  Al  Al48  1  0.41578236  0.08218245  0.42020749  1
  Al  Al49  1  0.42058651  0.08604293  0.92200546  1
  Al  Al50  1  0.42234388  0.58428116  0.40929527  1
  Al  Al51  1  0.40775041  0.58488258  0.92605642  1
  Al  Al52  1  0.91831858  0.08827088  0.41171213  1
  Al  Al53  1  0.91182857  0.09338356  0.92145166  1
  Al  Al54  1  0.91211910  0.58972810  0.41935434  1
  Al  Al55  1  0.92089380  0.58054487  0.92070859  1
  Al  Al56  1  0.08035542  0.40872203  0.41060137  1
  Al  Al57  1  0.08463495  0.41173576  0.91780348  1
  Al  Al58  1  0.07429092  0.92409464  0.42421523  1
  Al  Al59  1  0.08508476  0.91466788  0.91993597  1
  Al  Al60  1  0.57949248  0.41969189  0.42009099  1
  Al  Al61  1  0.58070687  0.42018124  0.92038579  1
  Al  Al62  1  0.59558875  0.91238285  0.41019233  1
  Al  Al63  1  0.58462971  0.92188008  0.92449926  1
  Al  Al64  1  0.07588501  0.08815278  0.41336380  1
  Al  Al65  1  0.08280253  0.08574356  0.91513991  1
  Al  Al66  1  0.07695932  0.57978496  0.41787615  1
  Al  Al67  1  0.08692158  0.58536046  0.92162345  1
  Al  Al68  1  0.58839839  0.07262646  0.41243655  1
  Al  Al69  1  0.58200193  0.08427638  0.91679641  1
  Al  Al70  1  0.58166034  0.59419028  0.41267173  1
  Al  Al71  1  0.58954801  0.58536134  0.92724846  1
  Al  Al72  1  0.41073135  0.41520163  0.42182774  1
  Al  Al73  1  0.41750907  0.42049214  0.92015203  1
  Al  Al74  1  0.42062872  0.91691629  0.41547096  1
  Al  Al75  1  0.41469137  0.91825395  0.92782622  1
  Al  Al76  1  0.92147544  0.41073673  0.40795321  1
  Al  Al77  1  0.92105439  0.40956203  0.91791772  1
  Al  Al78  1  0.90849585  0.91144702  0.42089421  1
  Al  Al79  1  0.92069718  0.91948674  0.91894299  1
  Al  Al80  1  0.08009076  0.41115309  0.08109260  1
  Al  Al81  1  0.08720981  0.41898905  0.58395329  1
  Al  Al82  1  0.08567529  0.91551805  0.08497676  1
  Al  Al83  1  0.08242788  0.91995373  0.58855032  1
  Al  Al84  1  0.58010775  0.41733885  0.08561722  1
  Al  Al85  1  0.58083822  0.41835196  0.58397823  1
  Al  Al86  1  0.57881238  0.91200615  0.09303381  1
  Al  Al87  1  0.58666365  0.91440473  0.57059091  1
  Al  Al88  1  0.41035084  0.07590349  0.08523422  1
  Al  Al89  1  0.41559958  0.09110234  0.58646707  1
  Al  Al90  1  0.41441064  0.59153499  0.08292641  1
  Al  Al91  1  0.41412331  0.57459400  0.57734762  1
  Al  Al92  1  0.91352793  0.09269846  0.08043318  1
  Al  Al93  1  0.91922781  0.08012441  0.57574041  1
  Al  Al94  1  0.91924499  0.58363893  0.08997869  1
  Al  Al95  1  0.90573349  0.58521166  0.58136367  1
  Al  Al96  1  0.24897392  0.13640104  0.13640924  1
  Al  Al97  1  0.24991645  0.13103143  0.63661668  1
  Al  Al98  1  0.25103693  0.63707252  0.13293882  1
  Al  Al99  1  0.24850203  0.63503248  0.63339033  1
  Al  Al100  1  0.75303175  0.13640959  0.13602344  1
  Al  Al101  1  0.75426882  0.13558774  0.63621951  1
  Al  Al102  1  0.74609813  0.63684748  0.13284304  1
  Al  Al103  1  0.75055565  0.63066482  0.63064484  1
  Al  Al104  1  0.24735959  0.36300206  0.12918622  1
  Al  Al105  1  0.24989534  0.36155255  0.63571077  1
  Al  Al106  1  0.25432086  0.86477167  0.13638259  1
  Al  Al107  1  0.25097060  0.87144324  0.63553176  1
  Al  Al108  1  0.74945533  0.36438835  0.13705974  1
  Al  Al109  1  0.75012091  0.36907951  0.63353575  1
  Al  Al110  1  0.74478648  0.86244933  0.13612767  1
  Al  Al111  1  0.75091748  0.86510886  0.63067888  1
  Al  Al112  1  0.25261126  0.13916882  0.36310016  1
  Al  Al113  1  0.24870255  0.13583153  0.86405138  1
  Al  Al114  1  0.25114158  0.63706278  0.36136291  1
  Al  Al115  1  0.24595149  0.63664756  0.87074781  1
  Al  Al116  1  0.74772611  0.13782084  0.36336650  1
  Al  Al117  1  0.75699772  0.13852832  0.86663318  1
  Al  Al118  1  0.74953889  0.63061019  0.36239549  1
  Al  Al119  1  0.74992260  0.63478763  0.87107314  1
  Al  Al120  1  0.24992554  0.36229164  0.36272672  1
  Al  Al121  1  0.24392010  0.36134407  0.87414566  1
  Al  Al122  1  0.25535640  0.86177885  0.36143583  1
  Al  Al123  1  0.24795240  0.86802708  0.86769997  1
  Al  Al124  1  0.75280569  0.37008614  0.36295675  1
  Al  Al125  1  0.75256417  0.36681599  0.86421989  1
  Al  Al126  1  0.74577092  0.86257781  0.36540190  1
  Al  Al127  1  0.75005782  0.86425568  0.86808582  1
  Al  Al128  1  0.13182829  0.25384663  0.13278525  1
  Al  Al129  1  0.13157698  0.24975195  0.63735681  1
  Al  Al130  1  0.13944104  0.74876371  0.12946445  1
  Al  Al131  1  0.13490549  0.74966707  0.63690180  1
  Al  Al132  1  0.63486748  0.24630343  0.13626483  1
  Al  Al133  1  0.63102791  0.25232276  0.63717826  1
  Al  Al134  1  0.62938358  0.75010086  0.13642316  1
  Al  Al135  1  0.63875121  0.75005841  0.63262493  1
  Al  Al136  1  0.13071965  0.25099514  0.36244040  1
  Al  Al137  1  0.12906884  0.24916493  0.86717789  1
  Al  Al138  1  0.13493462  0.74843978  0.36252575  1
  Al  Al139  1  0.13754467  0.75167146  0.87050769  1
  Al  Al140  1  0.62985288  0.25219103  0.36238604  1
  Al  Al141  1  0.63551666  0.24956762  0.86413242  1
  Al  Al142  1  0.63059691  0.75006742  0.36355327  1
  Al  Al143  1  0.63570469  0.74974510  0.87057158  1
  Al  Al144  1  0.36437751  0.25137836  0.13556630  1
  Al  Al145  1  0.36607624  0.24943987  0.63753290  1
  Al  Al146  1  0.37131911  0.74855217  0.13618062  1
  Al  Al147  1  0.36114529  0.74971222  0.63718425  1
  Al  Al148  1  0.86672071  0.25134447  0.13595327  1
  Al  Al149  1  0.86707245  0.25191873  0.63583967  1
  Al  Al150  1  0.86503446  0.74358996  0.13506020  1
  Al  Al151  1  0.86137764  0.74866564  0.63132530  1
  Al  Al152  1  0.36995851  0.25061072  0.36329878  1
  Al  Al153  1  0.36345154  0.25217946  0.86366553  1
  Al  Al154  1  0.37380050  0.74970784  0.35994702  1
  Al  Al155  1  0.36311501  0.75033403  0.86658653  1
  Al  Al156  1  0.86728087  0.25333270  0.36251445  1
  Al  Al157  1  0.87004940  0.25145084  0.86308925  1
  Al  Al158  1  0.86136391  0.74917429  0.36906916  1
  Al  Al159  1  0.86323281  0.74946270  0.86674877  1
  Al  Al160  1  0.13407905  0.13665338  0.25113069  1
  Al  Al161  1  0.12998789  0.13458758  0.74939994  1
  Al  Al162  1  0.12953239  0.63633064  0.24475111  1
  Al  Al163  1  0.13679545  0.63351090  0.74970438  1
  Al  Al164  1  0.63074402  0.13490683  0.25264341  1
  Al  Al165  1  0.63716804  0.13564917  0.74569111  1
  Al  Al166  1  0.63084416  0.63456442  0.24966514  1
  Al  Al167  1  0.64125465  0.63089771  0.74970353  1
  Al  Al168  1  0.37094967  0.13661769  0.24799335  1
  Al  Al169  1  0.36345387  0.13095167  0.74664582  1
  Al  Al170  1  0.37169194  0.63642568  0.24779321  1
  Al  Al171  1  0.36235774  0.63573901  0.75347468  1
  Al  Al172  1  0.86734892  0.13733517  0.25448293  1
  Al  Al173  1  0.87045001  0.13345043  0.75198487  1
  Al  Al174  1  0.86776332  0.63599039  0.25237768  1
  Al  Al175  1  0.86112180  0.63269115  0.74632342  1
  Al  Al176  1  0.13240600  0.36509753  0.24858961  1
  Al  Al177  1  0.13418031  0.36459308  0.75275802  1
  Al  Al178  1  0.13757957  0.86243727  0.24787581  1
  Al  Al179  1  0.13676069  0.86584461  0.74760796  1
  Al  Al180  1  0.63628165  0.37142598  0.25236980  1
  Al  Al181  1  0.63750238  0.37151130  0.74722013  1
  Al  Al182  1  0.62958857  0.86226749  0.25226385  1
  Al  Al183  1  0.63866781  0.86100653  0.74971728  1
  Al  Al184  1  0.36360032  0.36475193  0.25096827  1
  Al  Al185  1  0.36450656  0.36441751  0.74925769  1
  Al  Al186  1  0.37430548  0.86361282  0.24600101  1
  Al  Al187  1  0.36237759  0.86966089  0.75012029  1
  Al  Al188  1  0.87053108  0.36325091  0.24920148  1
  Al  Al189  1  0.86684541  0.36593386  0.75042507  1
  Al  Al190  1  0.86311217  0.86056355  0.25102482  1
  Al  Al191  1  0.86034485  0.86829844  0.75047628  1
  Al  Al192  1  0.18500564  0.00020952  0.17605689  1
  Al  Al193  1  0.32129851  0.50062194  0.32594812  1
  Al  Al194  1  0.50106302  0.31873153  0.18179295  1
  Al  Al195  1  0.82160323  0.50017210  0.18082074  1
  Al  Al196  1  0.17636102  0.49933035  0.81889357  1
  Al  Al197  1  0.49983410  0.32774921  0.81834919  1
  Al  Al198  1  0.17538198  0.18343766  0.00074419  1
  Al  Al199  1  0.82087929  0.31299232  -0.00025632  1
  Al  Al200  1  0.68055074  0.00134449  0.82564191  1
  Al  Al201  1  0.49981107  0.17152814  0.81507595  1
  Al  Al202  1  0.82527674  0.49913425  0.82477895  1
  Al  Al203  1  0.68037000  0.32517131  0.49992819  1
  Al  Al204  1  0.80996112  -0.00112601  0.32749526  1
  Al  Al205  1  0.17100066  0.00002681  0.32901836  1
  Al  Al206  1  0.82160012  0.82012815  -0.00034489  1
  Al  Al207  1  0.32000886  0.81354004  0.00273599  1
  Al  Al208  1  0.50039524  0.66868319  0.67370513  1
  Al  Al209  1  0.67169838  0.16887738  0.50103020  1
  Al  Al210  1  0.17743465  0.67296432  0.49954201  1
  Al  Al211  1  0.67687363  -0.00139514  0.66824691  1
  Al  Al212  1  0.00011560  0.82014761  0.32882930  1
  Al  Al213  1  0.50051700  0.82754186  0.67046476  1
  Al  Al214  1  0.32707503  0.50064649  0.17294744  1
  Al  Al215  1  0.67452395  -0.00117269  0.18758228  1
  Al  Al216  1  0.31357534  0.49910509  0.67433621  1
  Al  Al217  1  0.32328888  0.18331551  0.00042329  1
  Al  Al218  1  0.68257401  0.17539468  -0.00136569  1
  Al  Al219  1  0.49797222  0.67277883  0.83416114  1
  Al  Al220  1  0.32321253  0.49963707  0.82651557  1
  Al  Al221  1  0.00100641  0.68103527  0.82611514  1
  Al  Al222  1  0.82827062  -0.00007555  0.17207618  1
  Al  Al223  1  0.18822906  0.32452415  0.49906575  1
  Al  Al224  1  0.00127581  0.81448567  0.17315163  1
  Al  Al225  1  0.17289263  0.16992734  0.49934401  1
  Al  Al226  1  0.17636742  -0.00191082  0.81964871  1
  Al  Al227  1  -0.00228835  0.82466983  0.68193405  1
  Al  Al228  1  0.32463327  0.18681057  0.50032045  1
  Al  Al229  1  0.32562103  0.82029161  0.49879511  1
  Al  Al230  1  0.50022637  0.82780921  0.82943115  1
  Al  Al231  1  0.00083598  0.32531162  0.67654847  1
  Al  Al232  1  -0.00171300  0.67239634  0.67066101  1
  Al  Al233  1  0.17202561  0.83064332  0.49980798  1
  Al  Al234  1  0.82535397  0.18002935  0.49789402  1
  Al  Al235  1  0.32706980  -0.00013343  0.31021334  1
  Al  Al236  1  0.68917333  0.69018744  0.49751680  1
  Al  Al237  1  0.00024050  0.18676948  0.18519864  1
  Al  Al238  1  0.16952364  0.49923897  0.17564900  1
  Au  Au239  1  0.83040707  -0.00161716  0.66125521  1
  Au  Au240  1  0.49717880  0.32431385  0.66406852  1
  Au  Au241  1  0.50403288  0.16524954  0.33566593  1
  Au  Au242  1  0.17139922  0.49951806  0.83078433  1
  Au  Au243  1  0.50029533  0.67371195  0.17160068  1
  Au  Au244  1  0.50275565  0.82745825  0.33041828  1
  Au  Au245  1  0.49829933  0.67394904  0.65747001  1
  Au  Au246  1  0.67835405  0.67713357  0.49505119  1
  Au  Au247  1  0.66771646  0.32259650  0.50046919  1
  Au  Au248  1  0.82898916  0.00308471  0.83929785  1
  Au  Au249  1  0.67456443  0.33791215  0.00122410  1
  Au  Au250  1  -0.00205958  0.66560665  0.32389860  1
  Au  Au251  1  0.00140534  0.16360393  0.66541831  1
  Au  Au252  1  0.50243248  0.66175555  0.83810412  1
  Au  Au253  1  0.17178960  0.32561511  0.49991351  1
  Au  Au254  1  0.32293615  -0.00031480  0.32646587  1
  Au  Au255  1  0.17125653  0.17103708  0.00100213  1
  Au  Au256  1  0.17196047  0.49987048  0.16316469  1
  Au  Au257  1  0.32635458  0.33502719  0.00115895  1
  Au  Au258  1  0.82793227  0.66374230  0.00306088  1
  Au  Au259  1  0.00333887  0.33759240  0.67735691  1
  Au  Au260  1  0.49999728  0.84050544  0.82706635  1
  Au  Au261  1  0.67843825  0.16440097  0.00379959  1
  Au  Au262  1  0.00002764  0.82975109  0.83144200  1
  Au  Au263  1  0.66786872  0.50263674  0.83256209  1
  Au  Au264  1  0.33123151  0.00379124  0.83777669  1
  Au  Au265  1  0.67277496  0.50251694  0.16265035  1
  Au  Au266  1  0.49596502  0.16862456  0.16267847  1
  Au  Au267  1  0.83503277  0.50028805  0.33004969  1
  Au  Au268  1  0.83767868  0.49695051  0.82396836  1
  Au  Au269  1  0.84160179  0.32873582  0.50018058  1
  Au  Au270  1  0.33946261  0.67222151  0.49347755  1
  Au  Au271  1  0.67690698  0.50027993  0.66386191  1
  Au  Au272  1  0.49553244  0.33776080  0.32901022  1
  Au  Au273  1  0.16502555  0.67544867  0.50121939  1
  Au  Au274  1  0.66309461  0.50297625  0.33134074  1
  Au  Au275  1  0.16691074  0.00058127  0.82762672  1
  Au  Au276  1  0.66206764  0.82459973  0.00456994  1
  Au  Au277  1  0.00149972  0.83212653  0.32523602  1
  Au  Au278  1  0.17267266  0.82321687  0.00255096  1
  Au  Au279  1  0.17135561  0.49920136  0.33574478  1
  Au  Au280  1  0.49842944  0.32446733  0.83036584  1
  Au  Au281  1  -0.00135446  0.17200652  0.17667992  1
  Au  Au282  1  -0.00193517  0.17799205  0.83648112  1
  Au  Au283  1  0.32616602  0.00080258  0.66267958  1
  Au  Au284  1  0.83026810  0.82877257  0.00208742  1
  Au  Au285  1  0.66502984  -0.00373493  0.67165110  1
  Au  Au286  1  0.00015714  0.65965355  0.67082809  1
  Au  Au287  1  0.82657297  0.00117692  0.32644397  1
