# generated using pymatgen
data_Ca24Ti8Al207Au49
_symmetry_space_group_name_H-M   'P 1'
_cell_length_a   17.31768224
_cell_length_b   17.31712625
_cell_length_c   17.31859583
_cell_angle_alpha   89.99342195
_cell_angle_beta   89.99570350
_cell_angle_gamma   90.00014663
_symmetry_Int_Tables_number   1
_chemical_formula_structural   Ca24Ti8Al207Au49
_chemical_formula_sum   'Ca24 Ti8 Al207 Au49'
_cell_volume   5193.71677196
_cell_formula_units_Z   1
loop_
 _symmetry_equiv_pos_site_id
 _symmetry_equiv_pos_as_xyz
  1  'x, y, z'
loop_
 _atom_site_type_symbol
 _atom_site_label
 _atom_site_symmetry_multiplicity
 _atom_site_fract_x
 _atom_site_fract_y
 _atom_site_fract_z
 _atom_site_occupancy
  Ca  Ca0  1  0.25075266  0.00345717  -0.00107662  1
  Ca  Ca1  1  0.25273025  0.00136136  0.50163446  1
  Ca  Ca2  1  0.25067685  0.49882237  -0.00247172  1
  Ca  Ca3  1  0.25077268  0.49793128  0.50362365  1
  Ca  Ca4  1  0.74714094  -0.00218187  0.00253217  1
  Ca  Ca5  1  0.74763042  0.00338766  0.49723277  1
  Ca  Ca6  1  0.74907801  0.50196294  0.00034908  1
  Ca  Ca7  1  0.75219071  0.49716317  0.50275444  1
  Ca  Ca8  1  0.00514936  0.24673135  0.00051013  1
  Ca  Ca9  1  -0.00063610  0.25273845  0.50218075  1
  Ca  Ca10  1  -0.00020992  0.74845011  -0.00201427  1
  Ca  Ca11  1  0.00018592  0.74479112  0.50403892  1
  Ca  Ca12  1  0.49458308  0.24790273  -0.00355710  1
  Ca  Ca13  1  0.49988239  0.24958527  0.50592430  1
  Ca  Ca14  1  0.50062292  0.75066623  -0.00172085  1
  Ca  Ca15  1  0.50044494  0.74573248  0.50406790  1
  Ca  Ca16  1  0.00009867  -0.00053389  0.24341239  1
  Ca  Ca17  1  0.00403953  0.00471054  0.75136276  1
  Ca  Ca18  1  -0.00263182  0.50051945  0.24474972  1
  Ca  Ca19  1  0.00076660  0.49641740  0.74292239  1
  Ca  Ca20  1  0.49959556  0.00531069  0.24269672  1
  Ca  Ca21  1  0.49468542  0.00453129  0.74954665  1
  Ca  Ca22  1  0.50028613  0.49844619  0.24830406  1
  Ca  Ca23  1  0.49587370  0.49843919  0.74764420  1
  Ti  Ti24  1  0.24914927  0.24946983  0.24913342  1
  Ti  Ti25  1  0.24986161  0.25115102  0.75146552  1
  Ti  Ti26  1  0.25129921  0.74980263  0.24810961  1
  Ti  Ti27  1  0.25317307  0.75059621  0.75042852  1
  Ti  Ti28  1  0.74890392  0.25090459  0.25064072  1
  Ti  Ti29  1  0.75006494  0.24911916  0.74756792  1
  Ti  Ti30  1  0.74844062  0.74785372  0.24620733  1
  Ti  Ti31  1  0.74723647  0.74930109  0.75247674  1
  Al  Al32  1  0.09312738  0.08380694  0.08013468  1
  Al  Al33  1  0.08776010  0.09528585  0.58239158  1
  Al  Al34  1  0.08230764  0.58222111  0.09131258  1
  Al  Al35  1  0.07563785  0.57478355  0.57730374  1
  Al  Al36  1  0.58429837  0.08969720  0.08664389  1
  Al  Al37  1  0.57585355  0.09131743  0.58275028  1
  Al  Al38  1  0.58238019  0.58572982  0.08403709  1
  Al  Al39  1  0.57876440  0.58706028  0.58879833  1
  Al  Al40  1  0.41017883  0.41033456  0.07040695  1
  Al  Al41  1  0.41648347  0.41523845  0.58883911  1
  Al  Al42  1  0.42095932  0.91245063  0.08756627  1
  Al  Al43  1  0.41143118  0.91870377  0.59782458  1
  Al  Al44  1  0.93207989  0.43250679  0.07969215  1
  Al  Al45  1  0.91144530  0.40696640  0.58982855  1
  Al  Al46  1  0.90044427  0.91291284  0.08488272  1
  Al  Al47  1  0.92207433  0.91268365  0.58053075  1
  Al  Al48  1  0.42167270  0.09176192  0.41368140  1
  Al  Al49  1  0.41497214  0.09269052  0.91619617  1
  Al  Al50  1  0.41500035  0.59095136  0.43024491  1
  Al  Al51  1  0.41030877  0.57632484  0.91307246  1
  Al  Al52  1  0.90871829  0.08631063  0.42076375  1
  Al  Al53  1  0.93209180  0.08754948  0.91627558  1
  Al  Al54  1  0.91876008  0.58180206  0.41678986  1
  Al  Al55  1  0.91239377  0.59230799  0.92416040  1
  Al  Al56  1  0.08780554  0.40977893  0.42775985  1
  Al  Al57  1  0.08897512  0.41112492  0.91768056  1
  Al  Al58  1  0.07954422  0.92922596  0.41948585  1
  Al  Al59  1  0.08440104  0.92291838  0.92384888  1
  Al  Al60  1  0.59366408  0.41846062  0.41851803  1
  Al  Al61  1  0.56612157  0.41063565  0.91097060  1
  Al  Al62  1  0.57449161  0.92131584  0.41784478  1
  Al  Al63  1  0.57692540  0.91359167  0.92246707  1
  Al  Al64  1  0.09177774  0.08803130  0.42212167  1
  Al  Al65  1  0.09160977  0.09307692  0.91734322  1
  Al  Al66  1  0.07674126  0.58192192  0.41597800  1
  Al  Al67  1  0.08190787  0.57984451  0.91870631  1
  Al  Al68  1  0.57978186  0.09347632  0.41500509  1
  Al  Al69  1  0.58010880  0.09576446  0.92231996  1
  Al  Al70  1  0.58586137  0.57624015  0.41862876  1
  Al  Al71  1  0.57737036  0.58482348  0.92034758  1
  Al  Al72  1  0.42110221  0.41604980  0.42704958  1
  Al  Al73  1  0.40543579  0.41061442  0.90706368  1
  Al  Al74  1  0.41967060  0.91857876  0.41934348  1
  Al  Al75  1  0.41606595  0.91849065  0.91431073  1
  Al  Al76  1  0.91251979  0.41165338  0.42748666  1
  Al  Al77  1  0.92844755  0.42265442  0.91344185  1
  Al  Al78  1  0.91310978  0.92475310  0.42215123  1
  Al  Al79  1  0.91548607  0.90698422  0.92576694  1
  Al  Al80  1  0.09568774  0.41929288  0.08480626  1
  Al  Al81  1  0.08110836  0.40122034  0.58730006  1
  Al  Al82  1  0.09143725  0.92260786  0.08476434  1
  Al  Al83  1  0.07712357  0.91972580  0.58686965  1
  Al  Al84  1  0.57693624  0.42117230  0.08124329  1
  Al  Al85  1  0.58431006  0.41279076  0.58365691  1
  Al  Al86  1  0.58244115  0.91560932  0.08785757  1
  Al  Al87  1  0.57055943  0.91303405  0.59036890  1
  Al  Al88  1  0.41789037  0.09411407  0.08320721  1
  Al  Al89  1  0.41342865  0.08348319  0.59149346  1
  Al  Al90  1  0.41890326  0.58559384  0.07744862  1
  Al  Al91  1  0.41420603  0.59324779  0.59189923  1
  Al  Al92  1  0.91762884  0.07156488  0.08664877  1
  Al  Al93  1  0.91227034  0.09877268  0.57936993  1
  Al  Al94  1  0.91935768  0.59939523  0.08580982  1
  Al  Al95  1  0.90910064  0.57187511  0.58873788  1
  Al  Al96  1  0.24990162  0.12999163  0.13466796  1
  Al  Al97  1  0.24749428  0.14182175  0.63544376  1
  Al  Al98  1  0.24832778  0.62793743  0.13576307  1
  Al  Al99  1  0.25703641  0.63639501  0.63320806  1
  Al  Al100  1  0.74708874  0.13706163  0.13396661  1
  Al  Al101  1  0.75255399  0.14068626  0.62790664  1
  Al  Al102  1  0.74925774  0.63231087  0.12923483  1
  Al  Al103  1  0.74861060  0.63509421  0.63792504  1
  Al  Al104  1  0.25121773  0.36667103  0.12903660  1
  Al  Al105  1  0.25064328  0.35992240  0.63443438  1
  Al  Al106  1  0.25249696  0.87170574  0.13688280  1
  Al  Al107  1  0.25570393  0.86512272  0.63619899  1
  Al  Al108  1  0.74350002  0.36924234  0.13553597  1
  Al  Al109  1  0.75390690  0.36297599  0.63564250  1
  Al  Al110  1  0.75142200  0.86185184  0.12827709  1
  Al  Al111  1  0.74642293  0.86654738  0.64157532  1
  Al  Al112  1  0.24684008  0.13837292  0.36994696  1
  Al  Al113  1  0.24978823  0.13764510  0.86483421  1
  Al  Al114  1  0.25563958  0.63503323  0.36551595  1
  Al  Al115  1  0.25497408  0.63452544  0.86172594  1
  Al  Al116  1  0.75180365  0.13813138  0.37032713  1
  Al  Al117  1  0.74182732  0.13947695  0.86540307  1
  Al  Al118  1  0.74758710  0.63049781  0.36189188  1
  Al  Al119  1  0.75332008  0.63788079  0.87099122  1
  Al  Al120  1  0.24999102  0.36315499  0.37074575  1
  Al  Al121  1  0.25219592  0.36273599  0.87172712  1
  Al  Al122  1  0.24922154  0.86267172  0.36575796  1
  Al  Al123  1  0.25795605  0.86621734  0.86304438  1
  Al  Al124  1  0.74871813  0.36610974  0.36555500  1
  Al  Al125  1  0.75517867  0.36097779  0.86187274  1
  Al  Al126  1  0.75385856  0.86227489  0.35854526  1
  Al  Al127  1  0.74468191  0.86204678  0.87027773  1
  Al  Al128  1  0.14063286  0.24856730  0.12622908  1
  Al  Al129  1  0.12973310  0.25211296  0.63510608  1
  Al  Al130  1  0.13504882  0.74369012  0.13564954  1
  Al  Al131  1  0.14013169  0.75052336  0.63263734  1
  Al  Al132  1  0.63249499  0.24672027  0.13384197  1
  Al  Al133  1  0.62972431  0.25100918  0.63393347  1
  Al  Al134  1  0.63767706  0.75055014  0.12673428  1
  Al  Al135  1  0.63144108  0.74770712  0.63783472  1
  Al  Al136  1  0.13536473  0.25016488  0.36654517  1
  Al  Al137  1  0.13609178  0.24913544  0.87263541  1
  Al  Al138  1  0.13730544  0.74703681  0.36345574  1
  Al  Al139  1  0.13935527  0.74748273  0.86657512  1
  Al  Al140  1  0.63592532  0.24574958  0.36647027  1
  Al  Al141  1  0.63210579  0.25156663  0.86250540  1
  Al  Al142  1  0.63315745  0.75286040  0.36125852  1
  Al  Al143  1  0.62948830  0.74731799  0.86904933  1
  Al  Al144  1  0.36158672  0.24823019  0.13404681  1
  Al  Al145  1  0.37393084  0.24889628  0.63908106  1
  Al  Al146  1  0.36181235  0.75311435  0.13281697  1
  Al  Al147  1  0.37180980  0.74831281  0.63776920  1
  Al  Al148  1  0.86309649  0.25092615  0.13529651  1
  Al  Al149  1  0.86994788  0.25288778  0.63279182  1
  Al  Al150  1  0.86511129  0.74719717  0.12968492  1
  Al  Al151  1  0.86247220  0.74693536  0.63520839  1
  Al  Al152  1  0.36574631  0.24764583  0.36468582  1
  Al  Al153  1  0.36702093  0.25393294  0.86535321  1
  Al  Al154  1  0.36791739  0.75036023  0.36464102  1
  Al  Al155  1  0.37414274  0.75194554  0.86094949  1
  Al  Al156  1  0.86275148  0.25060613  0.36889318  1
  Al  Al157  1  0.86799564  0.24313837  0.86368972  1
  Al  Al158  1  0.86142893  0.74422853  0.36099782  1
  Al  Al159  1  0.86457454  0.75118450  0.86891961  1
  Al  Al160  1  0.13611291  0.13585820  0.24585796  1
  Al  Al161  1  0.12768659  0.14048005  0.75104704  1
  Al  Al162  1  0.13774525  0.63158975  0.24871797  1
  Al  Al163  1  0.13653828  0.63630500  0.74798520  1
  Al  Al164  1  0.63252112  0.13717092  0.24861739  1
  Al  Al165  1  0.63365022  0.13578097  0.74283620  1
  Al  Al166  1  0.63558591  0.62947399  0.24829875  1
  Al  Al167  1  0.62844012  0.63609647  0.75130517  1
  Al  Al168  1  0.36516534  0.13613471  0.24825534  1
  Al  Al169  1  0.36162218  0.13295683  0.75099677  1
  Al  Al170  1  0.36683679  0.63456440  0.24373525  1
  Al  Al171  1  0.37054493  0.63583998  0.75006263  1
  Al  Al172  1  0.86250670  0.13666795  0.24811490  1
  Al  Al173  1  0.86966600  0.13637836  0.74403559  1
  Al  Al174  1  0.86489847  0.63311074  0.24368597  1
  Al  Al175  1  0.86430224  0.63596510  0.74801576  1
  Al  Al176  1  0.13966812  0.36170353  0.24504339  1
  Al  Al177  1  0.13501484  0.36200325  0.75081535  1
  Al  Al178  1  0.13500909  0.86543660  0.24253154  1
  Al  Al179  1  0.13824795  0.86467182  0.75111090  1
  Al  Al180  1  0.63367784  0.36884361  0.25251199  1
  Al  Al181  1  0.63013542  0.36098288  0.74734047  1
  Al  Al182  1  0.63099964  0.86247474  0.24380390  1
  Al  Al183  1  0.62964270  0.86417585  0.75131728  1
  Al  Al184  1  0.36070027  0.36646215  0.24539424  1
  Al  Al185  1  0.36971597  0.36350953  0.75229437  1
  Al  Al186  1  0.37076561  0.86416826  0.24697338  1
  Al  Al187  1  0.37065634  0.86840532  0.74787404  1
  Al  Al188  1  0.86303945  0.36555548  0.24994539  1
  Al  Al189  1  0.86977694  0.36521728  0.74549804  1
  Al  Al190  1  0.86431743  0.86427405  0.24112447  1
  Al  Al191  1  0.86360068  0.86207541  0.75346175  1
  Al  Al192  1  0.18338118  0.67532296  0.49926857  1
  Al  Al193  1  0.00120465  0.31203594  0.81425382  1
  Al  Al194  1  -0.00203554  0.82808534  0.33087669  1
  Al  Al195  1  0.31791324  0.67990951  -0.00200749  1
  Al  Al196  1  0.82989874  0.32866119  0.00135060  1
  Al  Al197  1  0.68170849  0.49901153  0.67259562  1
  Al  Al198  1  -0.00013658  0.67922508  0.82239345  1
  Al  Al199  1  0.68474254  -0.00036845  0.17211235  1
  Al  Al200  1  0.17293739  0.49760203  0.66892624  1
  Al  Al201  1  0.18572431  0.00173626  0.66790909  1
  Al  Al202  1  0.67137832  0.49658188  0.82921735  1
  Al  Al203  1  0.00040432  0.67405284  0.31246309  1
  Al  Al204  1  0.19045213  0.49896712  0.82613200  1
  Al  Al205  1  0.00071720  0.81583310  0.68255229  1
  Al  Al206  1  0.32386811  0.17839337  0.50447246  1
  Al  Al207  1  0.66994630  0.31619661  -0.00242548  1
  Al  Al208  1  0.50143412  0.67577043  0.32786065  1
  Al  Al209  1  0.82544186  0.49781789  0.32367896  1
  Al  Al210  1  0.33270909  0.50041098  0.32139050  1
  Al  Al211  1  -0.00007902  0.17140118  0.32532425  1
  Al  Al212  1  0.49761702  0.31299940  0.17404639  1
  Al  Al213  1  0.50166414  0.31633983  0.32861099  1
  Al  Al214  1  0.18120186  0.00197971  0.82572859  1
  Al  Al215  1  0.31074117  0.18975205  -0.00053510  1
  Al  Al216  1  0.32485397  0.49929520  0.68579309  1
  Al  Al217  1  0.17053467  0.49546373  0.31955962  1
  Al  Al218  1  0.68765473  0.32030070  0.50121923  1
  Al  Al219  1  -0.00037188  0.32906966  0.32698629  1
  Al  Al220  1  0.82301725  0.00041755  0.66562625  1
  Al  Al221  1  0.82803272  0.00008980  0.31377165  1
  Al  Al222  1  0.81905670  0.16956728  -0.00057118  1
  Al  Al223  1  0.50032676  0.68757703  0.17224163  1
  Al  Al224  1  0.66571617  0.00281880  0.82719167  1
  Al  Al225  1  0.49888271  0.18767610  0.81147744  1
  Al  Al226  1  0.18396971  0.82031060  0.00063785  1
  Al  Al227  1  0.82491393  0.81823091  0.49920272  1
  Al  Al228  1  0.00244619  0.32770603  0.17152426  1
  Al  Al229  1  0.82729970  0.00150245  0.82859718  1
  Al  Al230  1  0.00094264  0.17289605  0.17022971  1
  Al  Al231  1  0.32579680  0.00021326  0.31825468  1
  Al  Al232  1  0.00055786  0.81853419  0.16693233  1
  Al  Al233  1  0.67856677  0.00092104  0.32919069  1
  Al  Al234  1  0.82754998  0.50072063  0.81359030  1
  Al  Al235  1  0.67470284  0.83371798  0.50063613  1
  Al  Al236  1  0.68079892  0.67191849  0.50004665  1
  Al  Al237  1  0.32706748  0.81606786  0.50310517  1
  Al  Al238  1  0.17187013  0.00069253  0.31614137  1
  Au  Au239  1  0.17396894  0.49936105  0.82168324  1
  Au  Au240  1  0.67639206  0.66495104  -0.00118131  1
  Au  Au241  1  -0.00008926  0.17432044  0.33805882  1
  Au  Au242  1  0.15495669  0.49452178  0.32465457  1
  Au  Au243  1  0.67348365  0.83244377  0.00163838  1
  Au  Au244  1  0.84466585  -0.00026375  0.83168128  1
  Au  Au245  1  0.67198947  0.17330860  0.50168168  1
  Au  Au246  1  -0.00028619  0.66525609  0.66643935  1
  Au  Au247  1  0.16945038  0.00208613  0.67293190  1
  Au  Au248  1  0.82385174  0.49608419  0.33601488  1
  Au  Au249  1  -0.00026193  0.17700171  0.66969775  1
  Au  Au250  1  0.65827146  0.32838910  -0.00435298  1
  Au  Au251  1  0.83020277  0.15692351  0.00063993  1
  Au  Au252  1  0.17394736  0.66107932  0.49936986  1
  Au  Au253  1  -0.00002951  0.67127034  0.83219500  1
  Au  Au254  1  0.83779934  0.34389847  0.00408906  1
  Au  Au255  1  0.83480787  -0.00207990  0.66277210  1
  Au  Au256  1  0.50008127  0.83586670  0.31878273  1
  Au  Au257  1  0.32768755  0.16749204  0.49950920  1
  Au  Au258  1  0.32486509  0.00387960  0.33473284  1
  Au  Au259  1  0.33168541  0.00388675  0.82888792  1
  Au  Au260  1  0.33382925  0.82913830  0.00048451  1
  Au  Au261  1  0.32039885  0.33401170  0.50395337  1
  Au  Au262  1  0.00617686  0.83602360  0.83178639  1
  Au  Au263  1  0.66388671  0.00351272  0.32271115  1
  Au  Au264  1  0.50482683  0.32297359  0.34393439  1
  Au  Au265  1  0.33511730  0.50184238  0.33838071  1
  Au  Au266  1  0.50041839  0.83314236  0.82176717  1
  Au  Au267  1  0.18047435  0.32245314  0.00130662  1
  Au  Au268  1  -0.00226289  0.82319760  0.34621367  1
  Au  Au269  1  0.32757602  0.49920865  0.15567633  1
  Au  Au270  1  0.34149187  0.82489937  0.50403877  1
  Au  Au271  1  0.49402011  0.32348654  0.16144692  1
  Au  Au272  1  0.83295203  0.66662514  0.50188823  1
  Au  Au273  1  0.83620022  0.50333134  0.82828811  1
  Au  Au274  1  0.66197651  0.49961905  0.17535999  1
  Au  Au275  1  0.00138297  0.32020464  0.82962180  1
  Au  Au276  1  0.83165934  0.50471920  0.16187087  1
  Au  Au277  1  0.00028243  0.82692845  0.15332066  1
  Au  Au278  1  0.65834413  0.00276425  0.66688137  1
  Au  Au279  1  0.50066452  0.32405561  0.67619178  1
  Au  Au280  1  0.50391154  0.66367708  0.33020324  1
  Au  Au281  1  0.16522448  0.83873754  0.49887707  1
  Au  Au282  1  0.49634031  0.66496557  0.82658273  1
  Au  Au283  1  0.66810673  0.00216313  0.83968932  1
  Au  Au284  1  0.32871337  0.00256274  0.15844001  1
  Au  Au285  1  0.16724920  0.66783216  0.00507824  1
  Au  Au286  1  0.66036430  0.82511713  0.50379272  1
  Au  Au287  1  0.65583389  0.49566912  0.82117805  1
