# generated using pymatgen
data_Ca24Ti8Al207Au49
_symmetry_space_group_name_H-M   'P 1'
_cell_length_a   17.31623070
_cell_length_b   17.31897826
_cell_length_c   17.31728194
_cell_angle_alpha   89.99875991
_cell_angle_beta   89.99892910
_cell_angle_gamma   90.00085734
_symmetry_Int_Tables_number   1
_chemical_formula_structural   Ca24Ti8Al207Au49
_chemical_formula_sum   'Ca24 Ti8 Al207 Au49'
_cell_volume   5193.44286008
_cell_formula_units_Z   1
loop_
 _symmetry_equiv_pos_site_id
 _symmetry_equiv_pos_as_xyz
  1  'x, y, z'
loop_
 _atom_site_type_symbol
 _atom_site_label
 _atom_site_symmetry_multiplicity
 _atom_site_fract_x
 _atom_site_fract_y
 _atom_site_fract_z
 _atom_site_occupancy
  Ca  Ca0  1  0.25013547  0.00289377  -0.00012281  1
  Ca  Ca1  1  0.24949320  -0.00282579  0.50173906  1
  Ca  Ca2  1  0.24827831  0.50059361  0.00314681  1
  Ca  Ca3  1  0.25399778  0.50041100  0.49801945  1
  Ca  Ca4  1  0.74537386  -0.00650766  -0.00312753  1
  Ca  Ca5  1  0.75083094  -0.00387926  0.50145836  1
  Ca  Ca6  1  0.75012697  0.50699583  -0.00060931  1
  Ca  Ca7  1  0.74723041  0.50403730  0.50240899  1
  Ca  Ca8  1  0.00594625  0.24960285  0.00071883  1
  Ca  Ca9  1  -0.00190403  0.25470048  0.50286007  1
  Ca  Ca10  1  -0.00311094  0.75139516  0.00116030  1
  Ca  Ca11  1  0.00360949  0.75188969  0.49885595  1
  Ca  Ca12  1  0.49528481  0.24969693  -0.00345517  1
  Ca  Ca13  1  0.49875500  0.25579077  0.50333072  1
  Ca  Ca14  1  0.50153474  0.75315591  0.00407130  1
  Ca  Ca15  1  0.49667329  0.74914327  0.49893466  1
  Ca  Ca16  1  0.00314816  -0.00426456  0.24870242  1
  Ca  Ca17  1  0.00482182  0.00014506  0.74873223  1
  Ca  Ca18  1  -0.00076450  0.50036552  0.24688622  1
  Ca  Ca19  1  -0.00239091  0.50255896  0.74383976  1
  Ca  Ca20  1  0.49762938  -0.00306848  0.25003428  1
  Ca  Ca21  1  0.50213097  0.00019658  0.75289344  1
  Ca  Ca22  1  0.50048173  0.50456675  0.25325261  1
  Ca  Ca23  1  0.50084741  0.50217810  0.74375999  1
  Ti  Ti24  1  0.24921565  0.24850862  0.24865059  1
  Ti  Ti25  1  0.25061260  0.25113108  0.74979430  1
  Ti  Ti26  1  0.24954648  0.75162958  0.24915867  1
  Ti  Ti27  1  0.24981385  0.74938341  0.74721915  1
  Ti  Ti28  1  0.75026915  0.25016078  0.24902279  1
  Ti  Ti29  1  0.74819111  0.25083589  0.75053397  1
  Ti  Ti30  1  0.75000639  0.75047692  0.24928603  1
  Ti  Ti31  1  0.74919843  0.74887144  0.74898323  1
  Al  Al32  1  0.09698510  0.08188545  0.08117765  1
  Al  Al33  1  0.08615782  0.07003283  0.59074747  1
  Al  Al34  1  0.08211388  0.58432067  0.09757778  1
  Al  Al35  1  0.08455609  0.58456886  0.57969576  1
  Al  Al36  1  0.57844671  0.06875716  0.07108784  1
  Al  Al37  1  0.58110443  0.07916317  0.57740087  1
  Al  Al38  1  0.59469249  0.59159415  0.08584929  1
  Al  Al39  1  0.59903033  0.58909160  0.58262183  1
  Al  Al40  1  0.39680957  0.41631059  0.08338770  1
  Al  Al41  1  0.40683922  0.41606143  0.58840291  1
  Al  Al42  1  0.41140268  0.92278184  0.08938630  1
  Al  Al43  1  0.40352727  0.91656614  0.58786541  1
  Al  Al44  1  0.92251768  0.42839583  0.07629315  1
  Al  Al45  1  0.90565988  0.42560298  0.58697449  1
  Al  Al46  1  0.90473449  0.90621206  0.07929562  1
  Al  Al47  1  0.92976523  0.90679973  0.58620210  1
  Al  Al48  1  0.41126334  0.07249204  0.41463378  1
  Al  Al49  1  0.41784273  0.09390170  0.91548756  1
  Al  Al50  1  0.41497393  0.58629196  0.42260186  1
  Al  Al51  1  0.42391300  0.57803458  0.92910687  1
  Al  Al52  1  0.92259693  0.08194218  0.41851078  1
  Al  Al53  1  0.91886141  0.07214883  0.91039442  1
  Al  Al54  1  0.90979340  0.59191592  0.42629642  1
  Al  Al55  1  0.90618158  0.58697829  0.92686617  1
  Al  Al56  1  0.09015949  0.41898915  0.41609717  1
  Al  Al57  1  0.08334804  0.40529264  0.92576504  1
  Al  Al58  1  0.10040159  0.91328721  0.42286519  1
  Al  Al59  1  0.08611180  0.92135704  0.92369218  1
  Al  Al60  1  0.57324585  0.43164088  0.42133319  1
  Al  Al61  1  0.57743439  0.42235747  0.91305650  1
  Al  Al62  1  0.58811495  0.91780188  0.41018845  1
  Al  Al63  1  0.59551291  0.91616445  0.91303304  1
  Al  Al64  1  0.08494404  0.07187311  0.40982033  1
  Al  Al65  1  0.09269893  0.08470015  0.91920054  1
  Al  Al66  1  0.08674137  0.58046222  0.41722010  1
  Al  Al67  1  0.07388668  0.57793883  0.93175391  1
  Al  Al68  1  0.59107670  0.07633467  0.41486724  1
  Al  Al69  1  0.58174909  0.07961777  0.90695335  1
  Al  Al70  1  0.59112927  0.59198397  0.42097271  1
  Al  Al71  1  0.59138488  0.58476340  0.92360697  1
  Al  Al72  1  0.41239800  0.41644957  0.42631797  1
  Al  Al73  1  0.41158210  0.40671080  0.92286408  1
  Al  Al74  1  0.40940838  0.91494003  0.41294677  1
  Al  Al75  1  0.42313558  0.92506604  0.92247846  1
  Al  Al76  1  0.92143123  0.42237941  0.42543142  1
  Al  Al77  1  0.92442279  0.41938357  0.91548488  1
  Al  Al78  1  0.92268893  0.91779746  0.42233816  1
  Al  Al79  1  0.89997828  0.91138206  0.91872281  1
  Al  Al80  1  0.10021228  0.42069593  0.08597604  1
  Al  Al81  1  0.08424406  0.41748224  0.57826698  1
  Al  Al82  1  0.08832246  0.91772371  0.08645122  1
  Al  Al83  1  0.09410948  0.90695349  0.58738446  1
  Al  Al84  1  0.58647961  0.43410676  0.08663186  1
  Al  Al85  1  0.58096512  0.42942641  0.59118206  1
  Al  Al86  1  0.59062914  0.90693185  0.07690868  1
  Al  Al87  1  0.58116921  0.91698160  0.58048867  1
  Al  Al88  1  0.40213193  0.08301205  0.07876214  1
  Al  Al89  1  0.40928918  0.07678892  0.59093467  1
  Al  Al90  1  0.41049620  0.57709627  0.09162401  1
  Al  Al91  1  0.40921785  0.57896821  0.58259443  1
  Al  Al92  1  0.92330821  0.06576986  0.07750578  1
  Al  Al93  1  0.92203845  0.08118849  0.58088994  1
  Al  Al94  1  0.91791475  0.59874008  0.08728046  1
  Al  Al95  1  0.89706480  0.58726084  0.58597689  1
  Al  Al96  1  0.25019865  0.12900279  0.13486630  1
  Al  Al97  1  0.25144456  0.13205859  0.63289949  1
  Al  Al98  1  0.24642298  0.63635067  0.13157805  1
  Al  Al99  1  0.25127083  0.63304249  0.63064078  1
  Al  Al100  1  0.75002226  0.13289488  0.13536990  1
  Al  Al101  1  0.75107607  0.13329233  0.63762686  1
  Al  Al102  1  0.75242251  0.63536930  0.13356751  1
  Al  Al103  1  0.74818723  0.63880389  0.62820431  1
  Al  Al104  1  0.24883190  0.36872461  0.13461621  1
  Al  Al105  1  0.25485757  0.37212837  0.63564349  1
  Al  Al106  1  0.25168628  0.87043606  0.13616379  1
  Al  Al107  1  0.24718129  0.86107987  0.62678717  1
  Al  Al108  1  0.74983512  0.37262433  0.13866661  1
  Al  Al109  1  0.74585784  0.37086576  0.63644852  1
  Al  Al110  1  0.74989510  0.85835740  0.12773830  1
  Al  Al111  1  0.74767688  0.86282521  0.63105466  1
  Al  Al112  1  0.24589671  0.13215164  0.36591154  1
  Al  Al113  1  0.25024534  0.13484843  0.86581510  1
  Al  Al114  1  0.25103459  0.63703179  0.36290643  1
  Al  Al115  1  0.25127353  0.63460817  0.86900090  1
  Al  Al116  1  0.75020559  0.13429192  0.36419023  1
  Al  Al117  1  0.74726794  0.13374955  0.86349027  1
  Al  Al118  1  0.75028625  0.63691135  0.36527728  1
  Al  Al119  1  0.75081293  0.63605800  0.86467776  1
  Al  Al120  1  0.25361301  0.36556110  0.36416790  1
  Al  Al121  1  0.25444269  0.36633633  0.86730488  1
  Al  Al122  1  0.24829835  0.86515868  0.37082842  1
  Al  Al123  1  0.25245143  0.86363361  0.86223507  1
  Al  Al124  1  0.74986928  0.36400224  0.36308787  1
  Al  Al125  1  0.74776909  0.36612026  0.86352486  1
  Al  Al126  1  0.74602747  0.86404526  0.36653687  1
  Al  Al127  1  0.74720589  0.86187893  0.86700166  1
  Al  Al128  1  0.13679805  0.24672953  0.13419742  1
  Al  Al129  1  0.13948808  0.25184994  0.63565377  1
  Al  Al130  1  0.12808867  0.75074527  0.13857744  1
  Al  Al131  1  0.13086731  0.75140129  0.63059108  1
  Al  Al132  1  0.63590885  0.24385940  0.13928170  1
  Al  Al133  1  0.63685445  0.24762992  0.63970744  1
  Al  Al134  1  0.62995219  0.75224399  0.13594858  1
  Al  Al135  1  0.63077552  0.74946755  0.63208211  1
  Al  Al136  1  0.13672759  0.25380663  0.36148704  1
  Al  Al137  1  0.13795725  0.24729020  0.86495650  1
  Al  Al138  1  0.13355018  0.75450018  0.36463738  1
  Al  Al139  1  0.13501536  0.74835421  0.86255082  1
  Al  Al140  1  0.63591853  0.24750534  0.35913491  1
  Al  Al141  1  0.62780110  0.25038453  0.86128977  1
  Al  Al142  1  0.63560137  0.74821573  0.36723273  1
  Al  Al143  1  0.63623573  0.75242944  0.86663519  1
  Al  Al144  1  0.36157409  0.25121734  0.13197540  1
  Al  Al145  1  0.36371272  0.25473884  0.63464266  1
  Al  Al146  1  0.36529885  0.74987286  0.12940997  1
  Al  Al147  1  0.36546259  0.74931985  0.62646331  1
  Al  Al148  1  0.86508446  0.25593413  0.13666327  1
  Al  Al149  1  0.86428660  0.24959176  0.63744509  1
  Al  Al150  1  0.86617886  0.74993266  0.13033155  1
  Al  Al151  1  0.86791218  0.74710595  0.63448414  1
  Al  Al152  1  0.36370797  0.24970359  0.36083542  1
  Al  Al153  1  0.36845810  0.25046744  0.86248099  1
  Al  Al154  1  0.36275371  0.75239188  0.36784925  1
  Al  Al155  1  0.36296773  0.74858082  0.86807888  1
  Al  Al156  1  0.86449477  0.25053826  0.36272978  1
  Al  Al157  1  0.86278045  0.24929693  0.86294652  1
  Al  Al158  1  0.86570607  0.74672443  0.36523878  1
  Al  Al159  1  0.86416235  0.75185495  0.86739320  1
  Al  Al160  1  0.13783755  0.12573485  0.24834798  1
  Al  Al161  1  0.14009312  0.13312882  0.74796697  1
  Al  Al162  1  0.13320415  0.63595763  0.24638433  1
  Al  Al163  1  0.13495407  0.63511599  0.74031061  1
  Al  Al164  1  0.63587104  0.12322465  0.25054178  1
  Al  Al165  1  0.63188627  0.13070562  0.75825510  1
  Al  Al166  1  0.63782155  0.63713229  0.24655050  1
  Al  Al167  1  0.63725297  0.63104163  0.74321612  1
  Al  Al168  1  0.36451942  0.13411884  0.24700503  1
  Al  Al169  1  0.36353518  0.13869944  0.74849063  1
  Al  Al170  1  0.36244795  0.63454292  0.24411576  1
  Al  Al171  1  0.36566073  0.63568549  0.74075654  1
  Al  Al172  1  0.86371189  0.13407484  0.24926243  1
  Al  Al173  1  0.86455881  0.13322732  0.75115566  1
  Al  Al174  1  0.86771685  0.63582401  0.24173533  1
  Al  Al175  1  0.86114318  0.62972544  0.74244108  1
  Al  Al176  1  0.13191396  0.36422921  0.24485257  1
  Al  Al177  1  0.13832074  0.36546984  0.74803086  1
  Al  Al178  1  0.13544112  0.87026715  0.24910877  1
  Al  Al179  1  0.13273966  0.86402591  0.74283355  1
  Al  Al180  1  0.63637615  0.36580431  0.24687006  1
  Al  Al181  1  0.63462146  0.37060183  0.75097069  1
  Al  Al182  1  0.63929519  0.87069579  0.24666557  1
  Al  Al183  1  0.63541719  0.86354084  0.74927510  1
  Al  Al184  1  0.36045736  0.36888519  0.24483321  1
  Al  Al185  1  0.36542290  0.36740572  0.75034723  1
  Al  Al186  1  0.36357829  0.86259833  0.24796298  1
  Al  Al187  1  0.36122622  0.86343987  0.74062982  1
  Al  Al188  1  0.87232559  0.36619695  0.24855134  1
  Al  Al189  1  0.86288410  0.36903116  0.74378589  1
  Al  Al190  1  0.87075913  0.85951414  0.24998000  1
  Al  Al191  1  0.86492558  0.85979524  0.74782936  1
  Al  Al192  1  0.49987929  0.16891225  0.68479539  1
  Al  Al193  1  0.50092357  0.82668766  0.32017676  1
  Al  Al194  1  0.80871285  -0.00321824  0.81671105  1
  Al  Al195  1  0.30902403  0.19008401  -0.00197041  1
  Al  Al196  1  0.67103840  0.17268644  -0.00307504  1
  Al  Al197  1  0.67996709  0.00023967  0.68701629  1
  Al  Al198  1  0.50112266  0.67185058  0.82526425  1
  Al  Al199  1  0.82320228  0.32035315  0.50120678  1
  Al  Al200  1  0.16730790  0.50091529  0.82241732  1
  Al  Al201  1  0.33238211  -0.00017620  0.80943969  1
  Al  Al202  1  0.18675826  0.68674023  0.49814261  1
  Al  Al203  1  0.19151004  0.31009599  0.00029935  1
  Al  Al204  1  0.18119638  0.81966446  0.00080324  1
  Al  Al205  1  0.49885023  0.67405261  0.32436404  1
  Al  Al206  1  0.68905422  0.69021726  0.00109341  1
  Al  Al207  1  0.00279897  0.17804496  0.68036266  1
  Al  Al208  1  0.32957306  0.50368778  0.81843150  1
  Al  Al209  1  -0.00036320  0.67660816  0.31872112  1
  Al  Al210  1  0.17705566  -0.00274260  0.81618596  1
  Al  Al211  1  0.68159813  0.17435608  0.50095219  1
  Al  Al212  1  0.81736066  -0.00196513  0.33213151  1
  Al  Al213  1  0.66547043  0.32531393  0.49878513  1
  Al  Al214  1  0.49923094  0.32716247  0.32786320  1
  Al  Al215  1  0.30717176  -0.00197239  0.30766464  1
  Al  Al216  1  -0.00270157  0.66913947  0.82090648  1
  Al  Al217  1  0.50262695  0.16774607  0.16901562  1
  Al  Al218  1  0.18882460  0.32470354  0.49987508  1
  Al  Al219  1  0.66674998  0.32623010  0.00355713  1
  Al  Al220  1  0.50070421  0.32662361  0.68064884  1
  Al  Al221  1  0.32768567  0.50190479  0.31962956  1
  Al  Al222  1  0.82226885  0.49723084  0.82289052  1
  Al  Al223  1  -0.00018853  0.17351525  0.16709579  1
  Al  Al224  1  0.81877823  -0.00497911  0.17490051  1
  Al  Al225  1  0.00203617  0.17840961  0.32470361  1
  Al  Al226  1  0.82739004  0.32693465  -0.00066649  1
  Al  Al227  1  0.00034881  0.31833663  0.81769396  1
  Al  Al228  1  0.49937220  0.17104771  0.32749858  1
  Al  Al229  1  0.00027621  0.83011528  0.82732683  1
  Al  Al230  1  0.32957869  0.18718344  0.49853154  1
  Al  Al231  1  0.67057525  0.50132705  0.31810899  1
  Al  Al232  1  0.49818344  0.82978572  0.82278263  1
  Al  Al233  1  0.16847979  0.16878137  0.49921766  1
  Al  Al234  1  0.82178441  0.81370709  0.49994577  1
  Al  Al235  1  0.82724180  0.50088295  0.32408963  1
  Al  Al236  1  0.83290634  0.17156857  0.00084219  1
  Al  Al237  1  0.17538720  0.50052062  0.31126217  1
  Al  Al238  1  0.49954802  0.33354541  0.16914361  1
  Au  Au239  1  0.49678146  0.83887026  0.67249193  1
  Au  Au240  1  0.50190422  0.17108568  0.66770469  1
  Au  Au241  1  0.67405986  0.34157311  0.00370905  1
  Au  Au242  1  0.49931400  0.66502973  0.65880327  1
  Au  Au243  1  0.49756182  0.16434628  0.15817542  1
  Au  Au244  1  0.50165011  0.67774143  0.84064337  1
  Au  Au245  1  0.82561148  0.15630444  -0.00027083  1
  Au  Au246  1  0.49962349  0.66079445  0.17409138  1
  Au  Au247  1  0.33057359  0.00294264  0.82583074  1
  Au  Au248  1  -0.00254996  0.34210592  0.67003340  1
  Au  Au249  1  0.15589036  0.17057962  0.49903997  1
  Au  Au250  1  0.49854881  0.32579590  0.83206788  1
  Au  Au251  1  0.00403997  0.17019997  0.83736321  1
  Au  Au252  1  0.32914526  0.66472370  0.00338633  1
  Au  Au253  1  0.33049770  0.50031638  0.33197736  1
  Au  Au254  1  0.50451403  0.16745430  0.33838305  1
  Au  Au255  1  -0.00195212  0.82774313  0.16097019  1
  Au  Au256  1  0.00264317  0.16839394  0.67222433  1
  Au  Au257  1  0.34227522  0.50205466  0.82938521  1
  Au  Au258  1  -0.00425337  0.66825953  0.83689699  1
  Au  Au259  1  0.49904933  0.83658892  0.17039241  1
  Au  Au260  1  0.00907688  0.83912247  0.33285864  1
  Au  Au261  1  0.00064477  0.32821059  0.34130042  1
  Au  Au262  1  0.00019706  0.84276243  0.82548744  1
  Au  Au263  1  0.67296580  0.00062496  0.67158013  1
  Au  Au264  1  -0.00077443  0.66240103  0.32827647  1
  Au  Au265  1  0.82076068  0.50037877  0.34000109  1
  Au  Au266  1  0.00017142  0.15753926  0.17290465  1
  Au  Au267  1  0.49706568  0.34991546  0.17344778  1
  Au  Au268  1  -0.00366694  0.67091475  0.65846683  1
  Au  Au269  1  0.83351806  -0.00126743  0.32611310  1
  Au  Au270  1  0.67034381  -0.00247660  0.16467397  1
  Au  Au271  1  0.66581485  0.50302158  0.82063675  1
  Au  Au272  1  0.16027476  0.67248455  0.00638311  1
  Au  Au273  1  0.82596784  0.50419646  0.15806680  1
  Au  Au274  1  0.17701593  0.67266703  0.49635991  1
  Au  Au275  1  0.32630501  0.82679455  0.49821330  1
  Au  Au276  1  0.83127381  0.49946439  0.83141279  1
  Au  Au277  1  0.18308757  -0.00141018  0.17768241  1
  Au  Au278  1  0.32920168  0.83875927  -0.00083647  1
  Au  Au279  1  0.00242999  0.34164366  0.16403490  1
  Au  Au280  1  0.83230852  0.16888730  0.49960822  1
  Au  Au281  1  0.66631237  0.34118576  0.50345983  1
  Au  Au282  1  0.33196852  0.17046213  0.50027204  1
  Au  Au283  1  0.16088659  0.49855456  0.83774454  1
  Au  Au284  1  0.84571922  -0.00657409  0.67319864  1
  Au  Au285  1  0.66104482  0.82209476  0.49718188  1
  Au  Au286  1  0.83741861  0.82065232  0.50087215  1
  Au  Au287  1  0.17701251  0.49990216  0.66048031  1
