# generated using pymatgen
data_Ca24Ti8Al207Au49
_symmetry_space_group_name_H-M   'P 1'
_cell_length_a   17.32461650
_cell_length_b   17.32164724
_cell_length_c   17.32207620
_cell_angle_alpha   89.99899413
_cell_angle_beta   90.00379461
_cell_angle_gamma   89.99998526
_symmetry_Int_Tables_number   1
_chemical_formula_structural   Ca24Ti8Al207Au49
_chemical_formula_sum   'Ca24 Ti8 Al207 Au49'
_cell_volume   5198.19734636
_cell_formula_units_Z   1
loop_
 _symmetry_equiv_pos_site_id
 _symmetry_equiv_pos_as_xyz
  1  'x, y, z'
loop_
 _atom_site_type_symbol
 _atom_site_label
 _atom_site_symmetry_multiplicity
 _atom_site_fract_x
 _atom_site_fract_y
 _atom_site_fract_z
 _atom_site_occupancy
  Ca  Ca0  1  0.25597754  0.00022166  -0.00028743  1
  Ca  Ca1  1  0.25080932  0.00237011  0.50049090  1
  Ca  Ca2  1  0.25691633  0.49712530  -0.00178145  1
  Ca  Ca3  1  0.24683778  0.49774970  0.50397225  1
  Ca  Ca4  1  0.74594203  -0.00209468  0.00080076  1
  Ca  Ca5  1  0.74602610  -0.00785675  0.50027915  1
  Ca  Ca6  1  0.74487283  0.50239045  0.00112536  1
  Ca  Ca7  1  0.74830040  0.50487834  0.49938644  1
  Ca  Ca8  1  0.00309761  0.25385342  0.00184412  1
  Ca  Ca9  1  0.00165803  0.25035128  0.49938981  1
  Ca  Ca10  1  -0.00144477  0.75401523  0.00294786  1
  Ca  Ca11  1  -0.00803455  0.75092621  0.49743659  1
  Ca  Ca12  1  0.49822769  0.25478244  0.00061297  1
  Ca  Ca13  1  0.49775298  0.24478333  0.49909168  1
  Ca  Ca14  1  0.50493506  0.75374913  0.00213067  1
  Ca  Ca15  1  0.50567667  0.75222792  0.50158137  1
  Ca  Ca16  1  -0.00095532  0.00098917  0.25265660  1
  Ca  Ca17  1  -0.00094943  -0.00539717  0.74592783  1
  Ca  Ca18  1  -0.00316705  0.49996775  0.24946251  1
  Ca  Ca19  1  -0.00326766  0.50302572  0.74479625  1
  Ca  Ca20  1  0.50373243  -0.00130977  0.25144044  1
  Ca  Ca21  1  0.49952941  -0.00031450  0.74555443  1
  Ca  Ca22  1  0.50413650  0.50110100  0.24473249  1
  Ca  Ca23  1  0.50167567  0.49879594  0.74888504  1
  Ti  Ti24  1  0.25098127  0.24922855  0.24988736  1
  Ti  Ti25  1  0.24951365  0.24961471  0.74948477  1
  Ti  Ti26  1  0.25300919  0.75178786  0.24909257  1
  Ti  Ti27  1  0.25179606  0.75222194  0.74923797  1
  Ti  Ti28  1  0.74950267  0.24961820  0.25003751  1
  Ti  Ti29  1  0.75042650  0.25183017  0.74894260  1
  Ti  Ti30  1  0.74872753  0.75053949  0.24907885  1
  Ti  Ti31  1  0.74937865  0.74977435  0.75078089  1
  Al  Al32  1  0.07930333  0.08399676  0.08543162  1
  Al  Al33  1  0.09107717  0.08643318  0.58040599  1
  Al  Al34  1  0.07421564  0.57949864  0.08053286  1
  Al  Al35  1  0.08747183  0.57553186  0.58598324  1
  Al  Al36  1  0.58160995  0.07410203  0.09478525  1
  Al  Al37  1  0.59244738  0.07434610  0.58106299  1
  Al  Al38  1  0.58856976  0.58149111  0.09689709  1
  Al  Al39  1  0.58749298  0.59208889  0.58902340  1
  Al  Al40  1  0.42231981  0.40453884  0.08124881  1
  Al  Al41  1  0.41994224  0.41484402  0.58341235  1
  Al  Al42  1  0.41810489  0.90510304  0.08681037  1
  Al  Al43  1  0.42969429  0.91451442  0.58924093  1
  Al  Al44  1  0.91874807  0.41443005  0.09264985  1
  Al  Al45  1  0.92297253  0.42244584  0.59329870  1
  Al  Al46  1  0.91825783  0.91666546  0.08606318  1
  Al  Al47  1  0.90880965  0.90288756  0.58787377  1
  Al  Al48  1  0.40253240  0.08170365  0.41439774  1
  Al  Al49  1  0.41732705  0.08825711  0.91885720  1
  Al  Al50  1  0.42648190  0.58813821  0.41664056  1
  Al  Al51  1  0.42555077  0.58179663  0.92297228  1
  Al  Al52  1  0.91901675  0.07375470  0.41946821  1
  Al  Al53  1  0.92432105  0.07085054  0.92186459  1
  Al  Al54  1  0.90973532  0.59268068  0.41994178  1
  Al  Al55  1  0.91430873  0.58155822  0.91542224  1
  Al  Al56  1  0.07826569  0.41070906  0.42356837  1
  Al  Al57  1  0.08189543  0.41348155  0.92204475  1
  Al  Al58  1  0.07669573  0.92525455  0.41617354  1
  Al  Al59  1  0.08137045  0.90953981  0.90777902  1
  Al  Al60  1  0.58018954  0.42116435  0.41086469  1
  Al  Al61  1  0.57813989  0.41288798  0.91488025  1
  Al  Al62  1  0.59215683  0.91294520  0.41351707  1
  Al  Al63  1  0.57885233  0.91827897  0.91897843  1
  Al  Al64  1  0.09546541  0.08841539  0.42140001  1
  Al  Al65  1  0.08398610  0.07387908  0.92334926  1
  Al  Al66  1  0.07050412  0.58931869  0.42641978  1
  Al  Al67  1  0.07587763  0.57897932  0.91770618  1
  Al  Al68  1  0.59198619  0.07672631  0.41786807  1
  Al  Al69  1  0.57413592  0.07962882  0.91277501  1
  Al  Al70  1  0.58620306  0.59007262  0.41611883  1
  Al  Al71  1  0.58295909  0.58006157  0.91774173  1
  Al  Al72  1  0.42399653  0.41446441  0.42071868  1
  Al  Al73  1  0.41769446  0.40086526  0.91778206  1
  Al  Al74  1  0.41987067  0.92208841  0.40878504  1
  Al  Al75  1  0.41372365  0.91022818  0.92357558  1
  Al  Al76  1  0.92425315  0.42564425  0.41369134  1
  Al  Al77  1  0.91635703  0.42105199  0.91434827  1
  Al  Al78  1  0.90517712  0.90909577  0.42422101  1
  Al  Al79  1  0.92332938  0.90847928  0.91036653  1
  Al  Al80  1  0.07787462  0.40572842  0.08339987  1
  Al  Al81  1  0.08467415  0.41330955  0.59399218  1
  Al  Al82  1  0.08013795  0.91523060  0.08334798  1
  Al  Al83  1  0.07175803  0.91727219  0.59210513  1
  Al  Al84  1  0.58386685  0.41732777  0.08931606  1
  Al  Al85  1  0.58179689  0.42421320  0.58974076  1
  Al  Al86  1  0.58156840  0.91219291  0.09879594  1
  Al  Al87  1  0.59298488  0.90904487  0.58865540  1
  Al  Al88  1  0.41888261  0.08405352  0.08177405  1
  Al  Al89  1  0.41192489  0.08474079  0.57479146  1
  Al  Al90  1  0.43001362  0.58958485  0.08878312  1
  Al  Al91  1  0.42469458  0.59158606  0.59086810  1
  Al  Al92  1  0.92115093  0.07930805  0.09208525  1
  Al  Al93  1  0.92023881  0.07522158  0.58429281  1
  Al  Al94  1  0.91437719  0.57946600  0.08411595  1
  Al  Al95  1  0.90398280  0.58370477  0.58198205  1
  Al  Al96  1  0.25534245  0.13382753  0.13476198  1
  Al  Al97  1  0.25024434  0.13549119  0.63184997  1
  Al  Al98  1  0.25370620  0.63452691  0.13590593  1
  Al  Al99  1  0.25258488  0.63419024  0.63700797  1
  Al  Al100  1  0.74786998  0.13031046  0.13652258  1
  Al  Al101  1  0.74826614  0.13454070  0.63388758  1
  Al  Al102  1  0.74690977  0.63149154  0.13228784  1
  Al  Al103  1  0.75345758  0.63899596  0.63150955  1
  Al  Al104  1  0.25500911  0.36703146  0.13348375  1
  Al  Al105  1  0.24823865  0.37111207  0.63571263  1
  Al  Al106  1  0.25557225  0.86564718  0.12964137  1
  Al  Al107  1  0.25568396  0.86586209  0.63809056  1
  Al  Al108  1  0.74893141  0.37148901  0.13666398  1
  Al  Al109  1  0.75283133  0.36813535  0.63280059  1
  Al  Al110  1  0.74527432  0.86827320  0.13332098  1
  Al  Al111  1  0.74772088  0.86115972  0.63136150  1
  Al  Al112  1  0.25101263  0.13588426  0.36950198  1
  Al  Al113  1  0.25187750  0.13139041  0.86455479  1
  Al  Al114  1  0.25609841  0.63827773  0.36276573  1
  Al  Al115  1  0.25119900  0.63651793  0.86243307  1
  Al  Al116  1  0.74290163  0.12934164  0.36665008  1
  Al  Al117  1  0.74625546  0.13540626  0.86487430  1
  Al  Al118  1  0.74985906  0.63812263  0.36504966  1
  Al  Al119  1  0.74932936  0.63291978  0.86691188  1
  Al  Al120  1  0.25283942  0.36291802  0.36665615  1
  Al  Al121  1  0.24911080  0.36547392  0.86282749  1
  Al  Al122  1  0.25834151  0.86714601  0.36252565  1
  Al  Al123  1  0.25164622  0.86882447  0.86586237  1
  Al  Al124  1  0.74907873  0.36634092  0.36429100  1
  Al  Al125  1  0.75323949  0.37053974  0.86300247  1
  Al  Al126  1  0.74380816  0.86767028  0.36562520  1
  Al  Al127  1  0.74516055  0.86447804  0.86804846  1
  Al  Al128  1  0.13742913  0.25138473  0.13509389  1
  Al  Al129  1  0.13596992  0.24952225  0.63152993  1
  Al  Al130  1  0.13805532  0.75435348  0.13334705  1
  Al  Al131  1  0.13444670  0.75361150  0.63834545  1
  Al  Al132  1  0.63512100  0.25230277  0.13811815  1
  Al  Al133  1  0.63996163  0.24887947  0.63493459  1
  Al  Al134  1  0.63285460  0.75120593  0.13259141  1
  Al  Al135  1  0.63392645  0.75343750  0.63415056  1
  Al  Al136  1  0.13752377  0.24866517  0.37159901  1
  Al  Al137  1  0.13480699  0.25217546  0.86270333  1
  Al  Al138  1  0.13715324  0.75127061  0.36488214  1
  Al  Al139  1  0.13554014  0.75595422  0.86321187  1
  Al  Al140  1  0.63762930  0.24902806  0.36360203  1
  Al  Al141  1  0.63598928  0.25287247  0.86283737  1
  Al  Al142  1  0.63473493  0.75476281  0.36643113  1
  Al  Al143  1  0.63423969  0.75040663  0.86887333  1
  Al  Al144  1  0.36679974  0.25432463  0.13573999  1
  Al  Al145  1  0.36157015  0.24726220  0.63382313  1
  Al  Al146  1  0.37230029  0.75483946  0.13609057  1
  Al  Al147  1  0.36850503  0.75125924  0.63383935  1
  Al  Al148  1  0.86173774  0.25346129  0.13469169  1
  Al  Al149  1  0.86821842  0.25432784  0.63731594  1
  Al  Al150  1  0.85885121  0.75041224  0.12839262  1
  Al  Al151  1  0.86370414  0.75204809  0.63155598  1
  Al  Al152  1  0.36360876  0.24527707  0.36755387  1
  Al  Al153  1  0.36404449  0.25429143  0.86365835  1
  Al  Al154  1  0.36951629  0.75372088  0.36529216  1
  Al  Al155  1  0.36744261  0.75479865  0.86409867  1
  Al  Al156  1  0.86134888  0.24830922  0.36530506  1
  Al  Al157  1  0.86427035  0.25183246  0.86267768  1
  Al  Al158  1  0.85927953  0.75269341  0.36955787  1
  Al  Al159  1  0.86132850  0.75238748  0.86740205  1
  Al  Al160  1  0.13741117  0.13730458  0.25153091  1
  Al  Al161  1  0.13575684  0.13577180  0.74963245  1
  Al  Al162  1  0.13547861  0.63646072  0.24595507  1
  Al  Al163  1  0.13406072  0.63592275  0.74599049  1
  Al  Al164  1  0.63550801  0.13051493  0.24934311  1
  Al  Al165  1  0.63799963  0.12987878  0.74857572  1
  Al  Al166  1  0.63445692  0.63761977  0.24569609  1
  Al  Al167  1  0.63570587  0.63830748  0.74606306  1
  Al  Al168  1  0.36266482  0.12709083  0.25215258  1
  Al  Al169  1  0.36079192  0.12880849  0.75172980  1
  Al  Al170  1  0.36925212  0.63580317  0.24505219  1
  Al  Al171  1  0.36773142  0.63626986  0.74485673  1
  Al  Al172  1  0.86298908  0.13332290  0.25046264  1
  Al  Al173  1  0.86565929  0.13610904  0.74694106  1
  Al  Al174  1  0.86277885  0.63846703  0.24600381  1
  Al  Al175  1  0.86346624  0.63213659  0.74780288  1
  Al  Al176  1  0.13571009  0.36265193  0.24767831  1
  Al  Al177  1  0.13240762  0.36611302  0.74268282  1
  Al  Al178  1  0.13762135  0.86404382  0.25239128  1
  Al  Al179  1  0.13453823  0.86590794  0.75089892  1
  Al  Al180  1  0.63468874  0.36674413  0.24548572  1
  Al  Al181  1  0.63591560  0.36521448  0.75197911  1
  Al  Al182  1  0.63078966  0.86412343  0.24845621  1
  Al  Al183  1  0.63377780  0.86677965  0.74761580  1
  Al  Al184  1  0.36565446  0.36719775  0.24690446  1
  Al  Al185  1  0.36417037  0.36460180  0.74794786  1
  Al  Al186  1  0.37095077  0.86793424  0.24732421  1
  Al  Al187  1  0.36842196  0.86889784  0.75085853  1
  Al  Al188  1  0.86464695  0.36583001  0.24703814  1
  Al  Al189  1  0.86534814  0.37241495  0.74763646  1
  Al  Al190  1  0.86103235  0.86476387  0.25118730  1
  Al  Al191  1  0.86492405  0.86097305  0.74784452  1
  Al  Al192  1  -0.00132517  0.81792795  0.18332284  1
  Al  Al193  1  0.67310288  0.50279191  0.31681884  1
  Al  Al194  1  0.66878245  0.32090960  0.49961212  1
  Al  Al195  1  0.17197067  0.50093323  0.81327132  1
  Al  Al196  1  -0.00055532  0.32086625  0.81183353  1
  Al  Al197  1  0.17316043  0.17176935  -0.00028604  1
  Al  Al198  1  0.17291316  0.50351204  0.33159448  1
  Al  Al199  1  0.68655496  0.50278528  0.67973639  1
  Al  Al200  1  0.33231612  0.82341374  0.50019020  1
  Al  Al201  1  0.83006304  0.17701345  -0.00016130  1
  Al  Al202  1  0.66790424  0.17205761  0.00204958  1
  Al  Al203  1  -0.00000344  0.18995862  0.17892488  1
  Al  Al204  1  0.81950778  -0.00118032  0.82566156  1
  Al  Al205  1  0.81491728  0.17167834  0.50054825  1
  Al  Al206  1  0.50246122  0.68380925  0.31313993  1
  Al  Al207  1  -0.00130738  0.68897351  0.82372950  1
  Al  Al208  1  0.17692489  0.49741486  0.16979071  1
  Al  Al209  1  0.82864347  0.33257946  0.50100952  1
  Al  Al210  1  0.50044426  0.32503908  0.31136962  1
  Al  Al211  1  0.17908701  -0.00047807  0.67604247  1
  Al  Al212  1  0.33232893  0.49926991  0.32351178  1
  Al  Al213  1  0.17043795  0.83319363  0.50158243  1
  Al  Al214  1  0.50095799  0.32430528  0.68685755  1
  Al  Al215  1  -0.00208839  0.68424983  0.31978412  1
  Al  Al216  1  0.68321820  0.68595889  0.49977445  1
  Al  Al217  1  0.00175060  0.17882487  0.67402980  1
  Al  Al218  1  0.50102989  0.16944437  0.67538952  1
  Al  Al219  1  0.18638407  0.00016475  0.33035258  1
  Al  Al220  1  0.81991111  -0.00128318  0.32001516  1
  Al  Al221  1  0.50090277  0.68169643  0.81382028  1
  Al  Al222  1  0.18723998  0.32308335  -0.00068290  1
  Al  Al223  1  0.49930085  0.18530615  0.17384703  1
  Al  Al224  1  0.32155447  0.32150174  0.50034890  1
  Al  Al225  1  -0.00182221  0.68078969  0.66921737  1
  Al  Al226  1  0.67743776  0.32727657  0.00010761  1
  Al  Al227  1  0.33089939  0.68831587  0.00096509  1
  Al  Al228  1  0.33145607  0.49924450  0.82257440  1
  Al  Al229  1  -0.00027328  0.32208753  0.31253149  1
  Al  Al230  1  0.81483194  -0.00263768  0.67079604  1
  Al  Al231  1  0.17683716  -0.00058894  0.17623132  1
  Al  Al232  1  0.18012032  0.67472049  0.50150353  1
  Al  Al233  1  0.49896351  0.18888747  0.82401125  1
  Al  Al234  1  0.32495446  0.18884165  -0.00013019  1
  Al  Al235  1  0.50109112  0.17247864  0.32620405  1
  Al  Al236  1  0.00039514  0.17037010  0.33084740  1
  Al  Al237  1  0.17244736  0.68081386  -0.00111491  1
  Al  Al238  1  0.82518638  0.50286043  0.32203924  1
  Au  Au239  1  0.33434148  -0.00108923  0.83674439  1
  Au  Au240  1  -0.00171758  0.68205875  0.83938271  1
  Au  Au241  1  0.34416416  0.67782550  0.00333043  1
  Au  Au242  1  0.33588599  0.49716277  0.33518121  1
  Au  Au243  1  0.33796365  0.83465218  0.50034067  1
  Au  Au244  1  0.50081029  0.16266288  0.33614493  1
  Au  Au245  1  0.66627575  0.83686621  0.00397123  1
  Au  Au246  1  -0.00391814  0.83381865  0.33166274  1
  Au  Au247  1  0.65972076  -0.00041308  0.82156546  1
  Au  Au248  1  0.16359124  -0.00026642  0.82438520  1
  Au  Au249  1  0.50604113  0.17226146  0.65989219  1
  Au  Au250  1  0.82707039  0.34382650  0.00174562  1
  Au  Au251  1  0.82075057  -0.00178774  0.16698834  1
  Au  Au252  1  0.16550241  -0.00067403  0.17051856  1
  Au  Au253  1  0.81846897  -0.00294886  0.33252662  1
  Au  Au254  1  0.65214998  0.16890682  0.00264386  1
  Au  Au255  1  0.49917055  0.83701865  0.82335408  1
  Au  Au256  1  0.82530517  0.15836216  0.50042589  1
  Au  Au257  1  0.16641866  0.49748942  0.16293929  1
  Au  Au258  1  0.16487126  0.32274334  0.50417512  1
  Au  Au259  1  0.00132945  0.17154543  0.66220252  1
  Au  Au260  1  0.84509635  0.16948713  0.00014407  1
  Au  Au261  1  0.50255175  0.83189033  0.32380333  1
  Au  Au262  1  0.82492988  0.50000299  0.17366022  1
  Au  Au263  1  0.83147527  0.50278729  0.81939380  1
  Au  Au264  1  0.66495522  0.49688149  0.82664285  1
  Au  Au265  1  0.66259487  0.66744668  0.00372442  1
  Au  Au266  1  0.65325145  0.32745787  0.50077567  1
  Au  Au267  1  0.15443360  0.82684814  0.50348345  1
  Au  Au268  1  0.15928925  0.49876036  0.82478430  1
  Au  Au269  1  0.32964115  0.50186593  0.66081425  1
  Au  Au270  1  0.83605451  0.83159541  -0.00069884  1
  Au  Au271  1  -0.00173690  0.67022195  0.17085356  1
  Au  Au272  1  0.82813734  0.66488449  -0.00006609  1
  Au  Au273  1  0.83952620  0.33885792  0.50104067  1
  Au  Au274  1  0.17409626  0.83950044  -0.00204631  1
  Au  Au275  1  0.15699979  0.50599560  0.33849355  1
  Au  Au276  1  -0.00135141  0.33062025  0.82575747  1
  Au  Au277  1  0.00367764  0.16137733  0.83419388  1
  Au  Au278  1  0.50117287  0.66624938  0.82092289  1
  Au  Au279  1  0.83588822  -0.00439345  0.82233082  1
  Au  Au280  1  0.16969889  0.66328379  -0.00111630  1
  Au  Au281  1  0.33582626  0.49679182  0.83881552  1
  Au  Au282  1  0.34088002  0.49840299  0.16019354  1
  Au  Au283  1  0.34090232  -0.00227630  0.17345281  1
  Au  Au284  1  0.32909375  0.00032092  0.66204912  1
  Au  Au285  1  -0.00179098  0.67295687  0.65487425  1
  Au  Au286  1  0.33405440  0.32021917  0.49834546  1
  Au  Au287  1  0.33074068  0.66120456  0.50118153  1
