# generated using pymatgen
data_Ca24Ti8Al207Au49
_symmetry_space_group_name_H-M   'P 1'
_cell_length_a   17.31823061
_cell_length_b   17.31877171
_cell_length_c   17.31832453
_cell_angle_alpha   90.00178808
_cell_angle_beta   89.99906895
_cell_angle_gamma   90.00213673
_symmetry_Int_Tables_number   1
_chemical_formula_structural   Ca24Ti8Al207Au49
_chemical_formula_sum   'Ca24 Ti8 Al207 Au49'
_cell_volume   5194.29342448
_cell_formula_units_Z   1
loop_
 _symmetry_equiv_pos_site_id
 _symmetry_equiv_pos_as_xyz
  1  'x, y, z'
loop_
 _atom_site_type_symbol
 _atom_site_label
 _atom_site_symmetry_multiplicity
 _atom_site_fract_x
 _atom_site_fract_y
 _atom_site_fract_z
 _atom_site_occupancy
  Ca  Ca0  1  0.24844301  0.00214518  -0.00012673  1
  Ca  Ca1  1  0.25101427  0.00049072  0.50341282  1
  Ca  Ca2  1  0.24749360  0.49902698  -0.00014033  1
  Ca  Ca3  1  0.25230695  0.50093629  0.50058357  1
  Ca  Ca4  1  0.75288926  0.00691145  0.00163789  1
  Ca  Ca5  1  0.75228340  -0.00259228  0.49790120  1
  Ca  Ca6  1  0.74987091  0.49704081  0.00265276  1
  Ca  Ca7  1  0.74853688  0.50450460  0.50204730  1
  Ca  Ca8  1  -0.00738923  0.25218416  -0.00228549  1
  Ca  Ca9  1  0.00519331  0.24938347  0.49989338  1
  Ca  Ca10  1  0.00055306  0.75095331  -0.00230015  1
  Ca  Ca11  1  0.00135546  0.74851373  0.49969602  1
  Ca  Ca12  1  0.50636901  0.25433555  -0.00226122  1
  Ca  Ca13  1  0.49970893  0.24897342  0.50362406  1
  Ca  Ca14  1  0.49946254  0.74685378  0.00530133  1
  Ca  Ca15  1  0.49724616  0.74550584  0.49545622  1
  Ca  Ca16  1  -0.00131665  -0.00019176  0.24737742  1
  Ca  Ca17  1  -0.00057178  0.00097249  0.75549090  1
  Ca  Ca18  1  0.00089665  0.50040621  0.24467466  1
  Ca  Ca19  1  -0.00204440  0.49961300  0.75277195  1
  Ca  Ca20  1  0.50152758  -0.00056115  0.24627946  1
  Ca  Ca21  1  0.50082277  0.00426422  0.75392010  1
  Ca  Ca22  1  0.49841324  0.50161164  0.24139677  1
  Ca  Ca23  1  0.50503227  0.49384075  0.75238965  1
  Ti  Ti24  1  0.25171071  0.25068642  0.24818800  1
  Ti  Ti25  1  0.25080559  0.24897647  0.75175763  1
  Ti  Ti26  1  0.24886258  0.74920782  0.24942392  1
  Ti  Ti27  1  0.24789731  0.75180932  0.74977486  1
  Ti  Ti28  1  0.74949444  0.24876091  0.24606369  1
  Ti  Ti29  1  0.74945086  0.25020403  0.75322156  1
  Ti  Ti30  1  0.75105661  0.74913416  0.24798692  1
  Ti  Ti31  1  0.75107013  0.74928733  0.75269039  1
  Al  Al32  1  0.06772157  0.08511379  0.08839222  1
  Al  Al33  1  0.08273796  0.08577329  0.57926955  1
  Al  Al34  1  0.08105201  0.59876942  0.08627954  1
  Al  Al35  1  0.08365492  0.58297234  0.57787950  1
  Al  Al36  1  0.59163133  0.08668832  0.07589881  1
  Al  Al37  1  0.57002803  0.08138968  0.58956151  1
  Al  Al38  1  0.58731870  0.58289434  0.09316318  1
  Al  Al39  1  0.59786909  0.58521277  0.58901096  1
  Al  Al40  1  0.41608971  0.41328466  0.07444892  1
  Al  Al41  1  0.42592931  0.40641583  0.58384138  1
  Al  Al42  1  0.42711247  0.90538999  0.08523850  1
  Al  Al43  1  0.41615422  0.92488305  0.58442980  1
  Al  Al44  1  0.90809178  0.41299832  0.08897012  1
  Al  Al45  1  0.90774767  0.42129711  0.59227038  1
  Al  Al46  1  0.92042861  0.92558862  0.07973296  1
  Al  Al47  1  0.91832273  0.92135582  0.58904307  1
  Al  Al48  1  0.40942422  0.09039049  0.42461816  1
  Al  Al49  1  0.42030676  0.08781849  0.90363888  1
  Al  Al50  1  0.42367335  0.58155390  0.41651294  1
  Al  Al51  1  0.42064430  0.57455104  0.92831351  1
  Al  Al52  1  0.91916206  0.07787798  0.40558617  1
  Al  Al53  1  0.90625106  0.09239605  0.91313670  1
  Al  Al54  1  0.91571028  0.58600844  0.42137647  1
  Al  Al55  1  0.91987662  0.57423405  0.91652626  1
  Al  Al56  1  0.07988800  0.42124286  0.41680363  1
  Al  Al57  1  0.07684203  0.40692682  0.91535005  1
  Al  Al58  1  0.08917270  0.92495304  0.41335441  1
  Al  Al59  1  0.08097256  0.90787407  0.91337137  1
  Al  Al60  1  0.57329280  0.42320744  0.41749160  1
  Al  Al61  1  0.59076593  0.40881035  0.91222046  1
  Al  Al62  1  0.58397351  0.91808745  0.40665950  1
  Al  Al63  1  0.59027464  0.91537914  0.92721233  1
  Al  Al64  1  0.08958238  0.08392313  0.41286855  1
  Al  Al65  1  0.06777928  0.08151854  0.91253196  1
  Al  Al66  1  0.08236488  0.58665776  0.41848491  1
  Al  Al67  1  0.08800291  0.58976451  0.92669737  1
  Al  Al68  1  0.57909640  0.07379275  0.40553509  1
  Al  Al69  1  0.58435423  0.09656942  0.91580498  1
  Al  Al70  1  0.58653464  0.59158820  0.42500577  1
  Al  Al71  1  0.59054128  0.57059018  0.91746949  1
  Al  Al72  1  0.41779918  0.40998081  0.42123646  1
  Al  Al73  1  0.41989262  0.40694567  0.91457542  1
  Al  Al74  1  0.42223486  0.91729881  0.41638855  1
  Al  Al75  1  0.40777687  0.92689988  0.91564796  1
  Al  Al76  1  0.91927836  0.42042824  0.42176842  1
  Al  Al77  1  0.91295119  0.40805440  0.91362146  1
  Al  Al78  1  0.91338736  0.92272459  0.41072044  1
  Al  Al79  1  0.91751679  0.92294175  0.90439723  1
  Al  Al80  1  0.07406763  0.41353415  0.07981960  1
  Al  Al81  1  0.07453237  0.42217043  0.58051009  1
  Al  Al82  1  0.08801413  0.91046515  0.07373005  1
  Al  Al83  1  0.07929420  0.92009775  0.58017712  1
  Al  Al84  1  0.59295091  0.41940040  0.07824657  1
  Al  Al85  1  0.58632154  0.42244947  0.60512532  1
  Al  Al86  1  0.58875872  0.89953884  0.08625058  1
  Al  Al87  1  0.57912343  0.91888503  0.57794010  1
  Al  Al88  1  0.42701980  0.07991302  0.07361869  1
  Al  Al89  1  0.40904803  0.09247330  0.58808944  1
  Al  Al90  1  0.42373952  0.59225519  0.08703900  1
  Al  Al91  1  0.42859757  0.57826151  0.57681347  1
  Al  Al92  1  0.90870924  0.09555337  0.08008868  1
  Al  Al93  1  0.92193876  0.08000690  0.59097111  1
  Al  Al94  1  0.91874396  0.57740472  0.09634006  1
  Al  Al95  1  0.90416913  0.57989464  0.58550989  1
  Al  Al96  1  0.25675561  0.13234178  0.13569565  1
  Al  Al97  1  0.25433718  0.13687916  0.63980878  1
  Al  Al98  1  0.24461268  0.63063208  0.13571415  1
  Al  Al99  1  0.24889866  0.64051598  0.63454376  1
  Al  Al100  1  0.75093737  0.12899062  0.13507286  1
  Al  Al101  1  0.74575820  0.13956893  0.64142821  1
  Al  Al102  1  0.74946217  0.62850905  0.13610958  1
  Al  Al103  1  0.74897806  0.63214704  0.63760144  1
  Al  Al104  1  0.25165631  0.36758693  0.13506077  1
  Al  Al105  1  0.24998729  0.35945868  0.63998095  1
  Al  Al106  1  0.24278147  0.86347514  0.13415591  1
  Al  Al107  1  0.24920413  0.86458958  0.63213815  1
  Al  Al108  1  0.74882672  0.36097964  0.12614884  1
  Al  Al109  1  0.74884139  0.36775813  0.64087167  1
  Al  Al110  1  0.75033236  0.86770684  0.13291253  1
  Al  Al111  1  0.75480763  0.86321129  0.64020050  1
  Al  Al112  1  0.25005387  0.13459077  0.36121495  1
  Al  Al113  1  0.25838983  0.13455186  0.86247789  1
  Al  Al114  1  0.25024492  0.63543931  0.36065568  1
  Al  Al115  1  0.24595197  0.63681932  0.86492314  1
  Al  Al116  1  0.75274638  0.13446641  0.36149879  1
  Al  Al117  1  0.75161501  0.13020350  0.86410737  1
  Al  Al118  1  0.74832623  0.63545781  0.36201107  1
  Al  Al119  1  0.74612216  0.63239707  0.86777707  1
  Al  Al120  1  0.25102497  0.36461648  0.36231580  1
  Al  Al121  1  0.25183143  0.36169376  0.86484948  1
  Al  Al122  1  0.24748717  0.86404750  0.36846600  1
  Al  Al123  1  0.24661543  0.86302901  0.86626280  1
  Al  Al124  1  0.74935860  0.36395793  0.36261258  1
  Al  Al125  1  0.74694337  0.36550748  0.87425276  1
  Al  Al126  1  0.75068228  0.86299482  0.36184174  1
  Al  Al127  1  0.75000313  0.87355068  0.86004801  1
  Al  Al128  1  0.13650484  0.24931486  0.13699190  1
  Al  Al129  1  0.13085053  0.24289030  0.63962720  1
  Al  Al130  1  0.13451180  0.74661980  0.13188218  1
  Al  Al131  1  0.12818443  0.75469500  0.63624894  1
  Al  Al132  1  0.63123652  0.25248334  0.13236617  1
  Al  Al133  1  0.62745349  0.25473109  0.64259580  1
  Al  Al134  1  0.63886566  0.74902573  0.12903269  1
  Al  Al135  1  0.63895735  0.74652904  0.63427292  1
  Al  Al136  1  0.13422424  0.24692115  0.36055948  1
  Al  Al137  1  0.13230913  0.25017151  0.86529901  1
  Al  Al138  1  0.12872673  0.74927783  0.36169990  1
  Al  Al139  1  0.13261433  0.75126907  0.87004581  1
  Al  Al140  1  0.63630624  0.24652554  0.36223167  1
  Al  Al141  1  0.63723507  0.25096625  0.86701133  1
  Al  Al142  1  0.63413688  0.74700265  0.35883397  1
  Al  Al143  1  0.63906129  0.75480809  0.87234860  1
  Al  Al144  1  0.37100257  0.25378774  0.13387480  1
  Al  Al145  1  0.37104006  0.24837686  0.63864824  1
  Al  Al146  1  0.36553707  0.74988371  0.13575126  1
  Al  Al147  1  0.36401914  0.75340452  0.63213317  1
  Al  Al148  1  0.86164163  0.24553251  0.12628987  1
  Al  Al149  1  0.86481690  0.25041443  0.63992641  1
  Al  Al150  1  0.86483969  0.74668998  0.13577049  1
  Al  Al151  1  0.87016085  0.74852117  0.64024151  1
  Al  Al152  1  0.36383117  0.24683992  0.36370548  1
  Al  Al153  1  0.36942267  0.25210266  0.86593137  1
  Al  Al154  1  0.36314443  0.75181425  0.36684578  1
  Al  Al155  1  0.36359825  0.75097097  0.86590846  1
  Al  Al156  1  0.86561661  0.25215349  0.35921019  1
  Al  Al157  1  0.85868283  0.24740921  0.87421558  1
  Al  Al158  1  0.87020395  0.74890679  0.35867282  1
  Al  Al159  1  0.86740221  0.75302054  0.86442663  1
  Al  Al160  1  0.13775822  0.13289060  0.24708952  1
  Al  Al161  1  0.13168858  0.13623874  0.75645382  1
  Al  Al162  1  0.12800801  0.63474410  0.24764434  1
  Al  Al163  1  0.13291066  0.63757866  0.75051531  1
  Al  Al164  1  0.63122094  0.13549832  0.24454260  1
  Al  Al165  1  0.62759349  0.13729759  0.75705740  1
  Al  Al166  1  0.63246666  0.63555560  0.24083788  1
  Al  Al167  1  0.63742867  0.63100415  0.75085457  1
  Al  Al168  1  0.37179990  0.13555220  0.24716078  1
  Al  Al169  1  0.37452282  0.13768628  0.75320812  1
  Al  Al170  1  0.36442852  0.63279599  0.24410885  1
  Al  Al171  1  0.36238912  0.63784014  0.75024006  1
  Al  Al172  1  0.86614082  0.13333985  0.24472525  1
  Al  Al173  1  0.87102978  0.13836110  0.75770306  1
  Al  Al174  1  0.86884361  0.63363266  0.24755163  1
  Al  Al175  1  0.86521113  0.63102724  0.74901848  1
  Al  Al176  1  0.13657800  0.36984419  0.24701184  1
  Al  Al177  1  0.13172659  0.36295847  0.75436577  1
  Al  Al178  1  0.13352965  0.86584587  0.25291061  1
  Al  Al179  1  0.12820165  0.86294964  0.75558320  1
  Al  Al180  1  0.63831241  0.36845551  0.24126336  1
  Al  Al181  1  0.64006223  0.37139422  0.75393806  1
  Al  Al182  1  0.63358814  0.86184440  0.24356637  1
  Al  Al183  1  0.63142923  0.86035246  0.74837220  1
  Al  Al184  1  0.36614134  0.36693342  0.24637656  1
  Al  Al185  1  0.36840762  0.36208776  0.74972366  1
  Al  Al186  1  0.36050809  0.86674709  0.24644339  1
  Al  Al187  1  0.36545517  0.86436593  0.75305688  1
  Al  Al188  1  0.86085329  0.36598262  0.24014607  1
  Al  Al189  1  0.86598774  0.36084588  0.75784228  1
  Al  Al190  1  0.86545265  0.86986841  0.24683544  1
  Al  Al191  1  0.87069553  0.86545934  0.75368597  1
  Al  Al192  1  -0.00314270  0.32585824  0.68042535  1
  Al  Al193  1  0.18286792  0.32635796  0.00087523  1
  Al  Al194  1  0.82712144  0.49931942  0.31234481  1
  Al  Al195  1  0.49779522  0.82596249  0.31245393  1
  Al  Al196  1  0.82178683  0.66886077  0.00342892  1
  Al  Al197  1  0.81086452  0.49785211  0.81682831  1
  Al  Al198  1  0.17372602  0.50007862  0.67585551  1
  Al  Al199  1  0.82691810  0.00274519  0.68883286  1
  Al  Al200  1  0.69528710  0.19365074  0.00041557  1
  Al  Al201  1  0.32603757  0.00131006  0.68767949  1
  Al  Al202  1  0.66979242  0.33300037  0.50281324  1
  Al  Al203  1  0.68776549  -0.00130270  0.31411087  1
  Al  Al204  1  0.83068663  0.16822989  0.49958806  1
  Al  Al205  1  0.50041251  0.83111524  0.82818198  1
  Al  Al206  1  0.16610713  0.16924131  -0.00037248  1
  Al  Al207  1  0.66977370  0.50225708  0.31611012  1
  Al  Al208  1  0.18141097  0.68274770  0.49862488  1
  Al  Al209  1  0.00071746  0.81565095  0.17349200  1
  Al  Al210  1  0.00103900  0.67525200  0.82514849  1
  Al  Al211  1  0.82559205  0.82897078  0.49998133  1
  Al  Al212  1  0.50147545  0.66935481  0.83072959  1
  Al  Al213  1  0.81932441  0.83025060  -0.00486108  1
  Al  Al214  1  0.50152356  0.32062232  0.31714771  1
  Al  Al215  1  0.32677307  0.31002986  0.50166986  1
  Al  Al216  1  0.31703056  0.00035101  0.32392998  1
  Al  Al217  1  0.50151143  0.67813799  0.67324434  1
  Al  Al218  1  0.17362393  0.00073860  0.67380139  1
  Al  Al219  1  -0.00167082  0.31030190  0.17925696  1
  Al  Al220  1  0.67121129  -0.00074704  0.68113258  1
  Al  Al221  1  0.18922237  0.17260622  0.50004079  1
  Al  Al222  1  0.66931932  0.16849218  0.49913902  1
  Al  Al223  1  0.16991383  0.49880518  0.83126960  1
  Al  Al224  1  0.67121010  0.81346925  0.49620883  1
  Al  Al225  1  0.32517086  0.50027330  0.67057834  1
  Al  Al226  1  0.00204280  0.17793263  0.31467811  1
  Al  Al227  1  0.16979278  0.32128185  0.50142353  1
  Al  Al228  1  0.50427623  0.31194460  0.81119091  1
  Al  Al229  1  0.82537329  0.32626810  0.50157490  1
  Al  Al230  1  0.32596092  0.49628973  0.32414494  1
  Al  Al231  1  0.31715023  0.82500327  0.00120169  1
  Al  Al232  1  0.31557669  0.67171160  0.00056187  1
  Al  Al233  1  0.32804969  0.18581963  -0.00012035  1
  Al  Al234  1  0.49909394  0.67446458  0.31595574  1
  Al  Al235  1  0.17564086  -0.00044760  0.17807630  1
  Al  Al236  1  0.18465271  0.00058415  0.83234270  1
  Al  Al237  1  0.81218352  0.67579229  0.50015186  1
  Al  Al238  1  0.32550606  0.49924637  0.82958558  1
  Au  Au239  1  0.16081935  0.50078569  0.16067682  1
  Au  Au240  1  0.00137739  0.16590213  0.31927531  1
  Au  Au241  1  0.34046548  0.17503947  -0.00315079  1
  Au  Au242  1  0.34070689  0.49516728  0.67293453  1
  Au  Au243  1  0.00107435  0.83862778  0.67928153  1
  Au  Au244  1  0.00185516  0.16473703  0.68305383  1
  Au  Au245  1  0.67790948  -0.00211989  0.66545696  1
  Au  Au246  1  0.16843723  0.00000327  0.82731357  1
  Au  Au247  1  0.50306582  0.83399726  0.83993698  1
  Au  Au248  1  0.50020110  0.17998859  0.67918095  1
  Au  Au249  1  0.17835170  0.33610010  0.50341758  1
  Au  Au250  1  0.17000612  0.50357579  0.33290045  1
  Au  Au251  1  0.83622735  0.00327962  0.17592779  1
  Au  Au252  1  0.00268958  0.67626221  0.83764433  1
  Au  Au253  1  0.66191161  0.15429604  0.49811272  1
  Au  Au254  1  -0.00005627  0.82171371  0.15765023  1
  Au  Au255  1  0.65626454  0.82073531  0.49343366  1
  Au  Au256  1  0.67399275  0.00352842  0.84321121  1
  Au  Au257  1  0.33035329  0.66398732  0.49998137  1
  Au  Au258  1  0.32488090  0.00050792  0.33872438  1
  Au  Au259  1  0.34135598  -0.00140807  0.16351492  1
  Au  Au260  1  0.82194550  0.32192875  0.00063190  1
  Au  Au261  1  0.50081785  0.65277205  0.82525062  1
  Au  Au262  1  0.67033836  0.34884870  0.50662277  1
  Au  Au263  1  0.83711125  0.66140019  0.00589278  1
  Au  Au264  1  0.00175536  0.33688207  0.67634120  1
  Au  Au265  1  0.49684554  0.82848712  0.66416689  1
  Au  Au266  1  0.84258943  0.82505584  0.50043228  1
  Au  Au267  1  0.32871727  0.83353130  0.00088284  1
  Au  Au268  1  0.65430045  0.50481367  0.32210462  1
  Au  Au269  1  0.50441594  0.33908708  0.16671462  1
  Au  Au270  1  0.82658961  0.49726176  0.82395744  1
  Au  Au271  1  0.82509982  0.84598665  -0.00702704  1
  Au  Au272  1  0.33483142  0.49835677  0.33272255  1
  Au  Au273  1  0.83146459  0.49968471  0.32899499  1
  Au  Au274  1  0.00162798  0.83917210  0.33060035  1
  Au  Au275  1  0.16436692  0.83093243  0.49884048  1
  Au  Au276  1  0.84667746  0.17365759  0.49856003  1
  Au  Au277  1  -0.00156751  0.66641254  0.32745455  1
  Au  Au278  1  0.16123062  -0.00005307  0.16872194  1
  Au  Au279  1  0.15095009  0.17657741  0.00008436  1
  Au  Au280  1  0.66598341  -0.00357293  0.16767780  1
  Au  Au281  1  0.50365899  0.16769106  0.16618491  1
  Au  Au282  1  0.49670922  0.17360717  0.33690504  1
  Au  Au283  1  0.33549937  0.83248573  0.50091942  1
  Au  Au284  1  0.33273934  0.50100240  0.15894182  1
  Au  Au285  1  0.66079272  0.67083339  0.00115242  1
  Au  Au286  1  -0.00178533  0.33692857  0.32495743  1
  Au  Au287  1  -0.00272527  0.66440803  0.66264454  1
