# generated using pymatgen
data_Ca24Ti8Al207Au49
_symmetry_space_group_name_H-M   'P 1'
_cell_length_a   17.32339055
_cell_length_b   17.32209131
_cell_length_c   17.32218578
_cell_angle_alpha   89.99738563
_cell_angle_beta   89.99872609
_cell_angle_gamma   89.99936218
_symmetry_Int_Tables_number   1
_chemical_formula_structural   Ca24Ti8Al207Au49
_chemical_formula_sum   'Ca24 Ti8 Al207 Au49'
_cell_volume   5197.99564933
_cell_formula_units_Z   1
loop_
 _symmetry_equiv_pos_site_id
 _symmetry_equiv_pos_as_xyz
  1  'x, y, z'
loop_
 _atom_site_type_symbol
 _atom_site_label
 _atom_site_symmetry_multiplicity
 _atom_site_fract_x
 _atom_site_fract_y
 _atom_site_fract_z
 _atom_site_occupancy
  Ca  Ca0  1  0.25086517  0.00369705  -0.00122944  1
  Ca  Ca1  1  0.24731124  0.00135345  0.49970013  1
  Ca  Ca2  1  0.24949642  0.49842373  0.00174406  1
  Ca  Ca3  1  0.25328590  0.49821156  0.49792187  1
  Ca  Ca4  1  0.74786882  0.00350795  0.00302054  1
  Ca  Ca5  1  0.74828635  -0.00635376  0.49508228  1
  Ca  Ca6  1  0.74967763  0.49551140  -0.00036343  1
  Ca  Ca7  1  0.74944851  0.50445020  0.49843534  1
  Ca  Ca8  1  0.00192394  0.25570847  0.00344970  1
  Ca  Ca9  1  0.00494977  0.25328648  0.49794254  1
  Ca  Ca10  1  0.00511569  0.74072818  0.00265077  1
  Ca  Ca11  1  0.00202857  0.74439690  0.49722604  1
  Ca  Ca12  1  0.49736970  0.25428817  0.00149629  1
  Ca  Ca13  1  0.49245232  0.25783887  0.49931940  1
  Ca  Ca14  1  0.49623895  0.74291624  0.00292887  1
  Ca  Ca15  1  0.49771586  0.74379307  0.49641278  1
  Ca  Ca16  1  0.00174678  0.00376663  0.25203228  1
  Ca  Ca17  1  0.00684541  0.00177499  0.75033810  1
  Ca  Ca18  1  0.00158778  0.49858962  0.25149965  1
  Ca  Ca19  1  0.00201692  0.49928261  0.75533684  1
  Ca  Ca20  1  0.50010662  -0.00341855  0.24964895  1
  Ca  Ca21  1  0.49229984  -0.00136400  0.75206596  1
  Ca  Ca22  1  0.49777970  0.50393986  0.25167046  1
  Ca  Ca23  1  0.49810380  0.50253869  0.75022643  1
  Ti  Ti24  1  0.24932618  0.25335099  0.24993048  1
  Ti  Ti25  1  0.24876272  0.24908353  0.74889303  1
  Ti  Ti26  1  0.25034410  0.74775164  0.25069506  1
  Ti  Ti27  1  0.24990718  0.75070405  0.74973986  1
  Ti  Ti28  1  0.75099413  0.25044105  0.24970951  1
  Ti  Ti29  1  0.75171422  0.25365481  0.75119864  1
  Ti  Ti30  1  0.74893051  0.74983771  0.25043813  1
  Ti  Ti31  1  0.75030277  0.74726927  0.75003170  1
  Al  Al32  1  0.08725942  0.09766205  0.08925561  1
  Al  Al33  1  0.09282779  0.07895243  0.58850768  1
  Al  Al34  1  0.09360935  0.58157531  0.08851126  1
  Al  Al35  1  0.09032931  0.58801091  0.57225085  1
  Al  Al36  1  0.57713527  0.08182009  0.08294368  1
  Al  Al37  1  0.56744295  0.07648285  0.58287652  1
  Al  Al38  1  0.57383392  0.58173827  0.09403577  1
  Al  Al39  1  0.57785104  0.58778651  0.58748066  1
  Al  Al40  1  0.41678905  0.42207697  0.08325145  1
  Al  Al41  1  0.41088177  0.41307711  0.58319443  1
  Al  Al42  1  0.42186937  0.91604856  0.08857922  1
  Al  Al43  1  0.41567817  0.92321265  0.58915248  1
  Al  Al44  1  0.91748861  0.41102818  0.08997000  1
  Al  Al45  1  0.92333863  0.42352298  0.58884909  1
  Al  Al46  1  0.92370553  0.92228980  0.07985646  1
  Al  Al47  1  0.91765812  0.90814399  0.57118899  1
  Al  Al48  1  0.41408372  0.08509572  0.41986863  1
  Al  Al49  1  0.40351776  0.08590495  0.91580550  1
  Al  Al50  1  0.41364261  0.58286022  0.40889368  1
  Al  Al51  1  0.41021322  0.58569548  0.90566156  1
  Al  Al52  1  0.92728053  0.08307478  0.40585289  1
  Al  Al53  1  0.92956993  0.08171381  0.92062547  1
  Al  Al54  1  0.91444017  0.58691631  0.40648928  1
  Al  Al55  1  0.91525977  0.57233311  0.91103189  1
  Al  Al56  1  0.08768158  0.41261528  0.41440460  1
  Al  Al57  1  0.07713260  0.41805409  0.91504423  1
  Al  Al58  1  0.08118669  0.91621926  0.42047959  1
  Al  Al59  1  0.08790300  0.92357314  0.91050424  1
  Al  Al60  1  0.57557246  0.42953512  0.41606096  1
  Al  Al61  1  0.58814945  0.41311237  0.91765183  1
  Al  Al62  1  0.58724328  0.90214893  0.41754157  1
  Al  Al63  1  0.57149033  0.91745044  0.91999804  1
  Al  Al64  1  0.08261697  0.08922277  0.41022449  1
  Al  Al65  1  0.09472439  0.08566529  0.91569064  1
  Al  Al66  1  0.08832462  0.59251652  0.41084487  1
  Al  Al67  1  0.09041026  0.58142732  0.92532622  1
  Al  Al68  1  0.57147799  0.07438630  0.41467948  1
  Al  Al69  1  0.57802301  0.08178585  0.92237352  1
  Al  Al70  1  0.57942803  0.58856380  0.40764470  1
  Al  Al71  1  0.57313081  0.58110782  0.90659789  1
  Al  Al72  1  0.40693458  0.41937336  0.41795636  1
  Al  Al73  1  0.41057791  0.42345887  0.91112933  1
  Al  Al74  1  0.42309966  0.91658783  0.41291342  1
  Al  Al75  1  0.41335429  0.92352116  0.91022693  1
  Al  Al76  1  0.91725600  0.42351378  0.40437475  1
  Al  Al77  1  0.91446296  0.41146079  0.90920505  1
  Al  Al78  1  0.91225925  0.90837804  0.41682195  1
  Al  Al79  1  0.92809524  0.91674305  0.92175738  1
  Al  Al80  1  0.08164812  0.41880921  0.09307650  1
  Al  Al81  1  0.08568226  0.41029721  0.57605661  1
  Al  Al82  1  0.08335118  0.92393081  0.08113576  1
  Al  Al83  1  0.09207899  0.91999937  0.58248162  1
  Al  Al84  1  0.58979369  0.41395302  0.07980238  1
  Al  Al85  1  0.57021242  0.42031908  0.59172828  1
  Al  Al86  1  0.57616114  0.90916279  0.09029523  1
  Al  Al87  1  0.58439531  0.90676470  0.57577691  1
  Al  Al88  1  0.40943414  0.08784409  0.07720218  1
  Al  Al89  1  0.40781847  0.08450755  0.58831822  1
  Al  Al90  1  0.41375367  0.58952928  0.09090684  1
  Al  Al91  1  0.41777528  0.58428258  0.58463641  1
  Al  Al92  1  0.92782700  0.08936611  0.09540981  1
  Al  Al93  1  0.93339280  0.07478191  0.57584774  1
  Al  Al94  1  0.92313437  0.57239806  0.08708886  1
  Al  Al95  1  0.91515611  0.58037134  0.57870159  1
  Al  Al96  1  0.24974906  0.13856513  0.13618147  1
  Al  Al97  1  0.24999168  0.13035580  0.63506376  1
  Al  Al98  1  0.24895521  0.62731321  0.13755791  1
  Al  Al99  1  0.25042590  0.63501635  0.63642042  1
  Al  Al100  1  0.74565024  0.13630852  0.13910144  1
  Al  Al101  1  0.74985834  0.14087935  0.63992166  1
  Al  Al102  1  0.74748959  0.63472166  0.13897065  1
  Al  Al103  1  0.74966903  0.63416932  0.63773646  1
  Al  Al104  1  0.24616668  0.37165763  0.13532308  1
  Al  Al105  1  0.25271524  0.36262008  0.63472155  1
  Al  Al106  1  0.24898533  0.86275883  0.13843938  1
  Al  Al107  1  0.25062707  0.87058811  0.63625637  1
  Al  Al108  1  0.75096430  0.36272833  0.13676047  1
  Al  Al109  1  0.75331323  0.36341795  0.63756147  1
  Al  Al110  1  0.74841821  0.86566146  0.13905413  1
  Al  Al111  1  0.74755701  0.86231559  0.63190815  1
  Al  Al112  1  0.24688159  0.13180782  0.36284057  1
  Al  Al113  1  0.25008946  0.13574166  0.86488989  1
  Al  Al114  1  0.25002828  0.62820556  0.36287238  1
  Al  Al115  1  0.25295115  0.63200378  0.86264593  1
  Al  Al116  1  0.75149025  0.13069489  0.35905212  1
  Al  Al117  1  0.74611149  0.13729403  0.86191284  1
  Al  Al118  1  0.75021193  0.63531549  0.36088170  1
  Al  Al119  1  0.75120348  0.62580867  0.86078623  1
  Al  Al120  1  0.24915055  0.37292342  0.36060405  1
  Al  Al121  1  0.25110182  0.36470276  0.86535957  1
  Al  Al122  1  0.25248076  0.86620005  0.36062430  1
  Al  Al123  1  0.25166497  0.86605250  0.86515301  1
  Al  Al124  1  0.75672705  0.36404728  0.36177369  1
  Al  Al125  1  0.75268899  0.37187337  0.86104936  1
  Al  Al126  1  0.74703052  0.86385692  0.36635891  1
  Al  Al127  1  0.75042042  0.86414598  0.86367857  1
  Al  Al128  1  0.13200169  0.25488338  0.13811784  1
  Al  Al129  1  0.13139263  0.24991126  0.63567293  1
  Al  Al130  1  0.13725193  0.74323843  0.13376970  1
  Al  Al131  1  0.13484886  0.74679062  0.63454366  1
  Al  Al132  1  0.62973917  0.25315222  0.13547509  1
  Al  Al133  1  0.62930910  0.25523760  0.63679894  1
  Al  Al134  1  0.62917142  0.74972204  0.13740715  1
  Al  Al135  1  0.63631922  0.74838066  0.63537728  1
  Al  Al136  1  0.12989043  0.25274622  0.36007725  1
  Al  Al137  1  0.13295305  0.25230634  0.86508468  1
  Al  Al138  1  0.13299302  0.74220093  0.36283252  1
  Al  Al139  1  0.13936733  0.74348289  0.86842452  1
  Al  Al140  1  0.63701560  0.25222146  0.36206826  1
  Al  Al141  1  0.63627604  0.25816419  0.86725736  1
  Al  Al142  1  0.62978371  0.74998529  0.36358784  1
  Al  Al143  1  0.63451123  0.74496747  0.86530195  1
  Al  Al144  1  0.36702998  0.25229380  0.13722286  1
  Al  Al145  1  0.36835692  0.25069146  0.63641690  1
  Al  Al146  1  0.36683371  0.74498868  0.14016467  1
  Al  Al147  1  0.36460493  0.74339057  0.63886195  1
  Al  Al148  1  0.86970718  0.25107775  0.13824444  1
  Al  Al149  1  0.87237904  0.25253353  0.63713846  1
  Al  Al150  1  0.86417873  0.74812202  0.13983245  1
  Al  Al151  1  0.86514744  0.75133344  0.63134399  1
  Al  Al152  1  0.36022313  0.25781583  0.36590970  1
  Al  Al153  1  0.36184302  0.24678922  0.86473127  1
  Al  Al154  1  0.37334542  0.74131992  0.35908956  1
  Al  Al155  1  0.36497176  0.74711740  0.86314612  1
  Al  Al156  1  0.87418689  0.24872947  0.36058455  1
  Al  Al157  1  0.87225945  0.25408887  0.86476894  1
  Al  Al158  1  0.86682420  0.75263065  0.36542037  1
  Al  Al159  1  0.86360514  0.74402423  0.86459403  1
  Al  Al160  1  0.13075177  0.13909365  0.24930958  1
  Al  Al161  1  0.13162275  0.13642581  0.75084065  1
  Al  Al162  1  0.13794093  0.62573049  0.25086280  1
  Al  Al163  1  0.13065439  0.63656781  0.75158675  1
  Al  Al164  1  0.63275498  0.13167987  0.24962686  1
  Al  Al165  1  0.63180472  0.13767310  0.75009077  1
  Al  Al166  1  0.62871197  0.63665688  0.25020459  1
  Al  Al167  1  0.62942715  0.63586060  0.75118442  1
  Al  Al168  1  0.36227470  0.13735047  0.25099875  1
  Al  Al169  1  0.36144800  0.12826813  0.74867868  1
  Al  Al170  1  0.36326780  0.62706374  0.25018777  1
  Al  Al171  1  0.36809992  0.63453375  0.75293456  1
  Al  Al172  1  0.86970983  0.13525942  0.24784378  1
  Al  Al173  1  0.87249781  0.13783791  0.75710379  1
  Al  Al174  1  0.86712027  0.63388474  0.25552812  1
  Al  Al175  1  0.87209953  0.63701741  0.74961272  1
  Al  Al176  1  0.13066284  0.37038664  0.25061736  1
  Al  Al177  1  0.13034126  0.36284244  0.75101394  1
  Al  Al178  1  0.13240406  0.86157526  0.25510556  1
  Al  Al179  1  0.13630314  0.86480097  0.74752602  1
  Al  Al180  1  0.63414430  0.36672168  0.24666232  1
  Al  Al181  1  0.63359287  0.36741184  0.75214771  1
  Al  Al182  1  0.62990232  0.86566236  0.25314162  1
  Al  Al183  1  0.63624190  0.86366961  0.75070039  1
  Al  Al184  1  0.36161678  0.37379622  0.24733429  1
  Al  Al185  1  0.36365604  0.36396357  0.74949435  1
  Al  Al186  1  0.37246465  0.86046184  0.25200269  1
  Al  Al187  1  0.36373992  0.86959520  0.74792875  1
  Al  Al188  1  0.87377194  0.36302513  0.24895493  1
  Al  Al189  1  0.87271607  0.36662006  0.75493112  1
  Al  Al190  1  0.86549473  0.86931125  0.25423954  1
  Al  Al191  1  0.86479125  0.86149301  0.75085142  1
  Al  Al192  1  0.82927333  0.17024288  0.00253606  1
  Al  Al193  1  0.83096437  0.82644872  0.00080655  1
  Al  Al194  1  0.18320396  0.49845814  0.82733617  1
  Al  Al195  1  0.81593424  0.32801802  -0.00065190  1
  Al  Al196  1  0.67405704  0.82699359  -0.00056420  1
  Al  Al197  1  0.49778534  0.32990195  0.81884270  1
  Al  Al198  1  0.31496270  0.67110619  0.00087114  1
  Al  Al199  1  0.49691705  0.17267835  0.82078643  1
  Al  Al200  1  0.67508823  0.67967693  0.50088730  1
  Al  Al201  1  0.67257540  0.18412972  -0.00055790  1
  Al  Al202  1  0.66849560  0.33465660  0.50294084  1
  Al  Al203  1  0.17425873  0.81254457  0.49827361  1
  Al  Al204  1  0.00214107  0.82498845  0.67110788  1
  Al  Al205  1  0.82930611  0.33332282  0.50165264  1
  Al  Al206  1  0.32641438  -0.00097356  0.17664760  1
  Al  Al207  1  0.32857642  0.50029131  0.68514426  1
  Al  Al208  1  0.66713800  -0.00183269  0.67537239  1
  Al  Al209  1  0.00218157  0.66856980  0.18517365  1
  Al  Al210  1  0.31550820  0.66997942  0.49809598  1
  Al  Al211  1  0.81901609  0.67719233  0.49761210  1
  Al  Al212  1  0.32813254  0.82766005  0.00228954  1
  Al  Al213  1  0.49661198  0.33159564  0.32254590  1
  Al  Al214  1  0.49923632  0.80955239  0.66972772  1
  Al  Al215  1  0.32085124  0.31662670  0.00044211  1
  Al  Al216  1  0.67201156  0.50075613  0.67853430  1
  Al  Al217  1  0.49850689  0.81513555  0.82575172  1
  Al  Al218  1  0.17494093  0.82433926  0.00016424  1
  Al  Al219  1  0.82497335  -0.00116183  0.83616305  1
  Al  Al220  1  0.82045972  0.49836420  0.18946224  1
  Al  Al221  1  0.00189137  0.81646111  0.82698107  1
  Al  Al222  1  0.17392625  0.00190998  0.17907800  1
  Al  Al223  1  0.31832911  0.18671941  0.49810106  1
  Al  Al224  1  0.82654874  0.66946182  0.00281321  1
  Al  Al225  1  0.17415176  0.49890188  0.67714905  1
  Al  Al226  1  0.82303943  -0.00191698  0.17587670  1
  Al  Al227  1  0.49804202  0.17791353  0.32199148  1
  Al  Al228  1  0.19146835  0.00094224  0.80871304  1
  Al  Al229  1  0.83153445  0.17163800  0.49785804  1
  Al  Al230  1  0.00134815  0.82440575  0.17878948  1
  Al  Al231  1  0.33126384  0.81975012  0.49992689  1
  Al  Al232  1  0.18766457  0.18435302  0.00076745  1
  Al  Al233  1  0.66839449  0.66858788  0.00104474  1
  Al  Al234  1  0.68559024  0.50020043  0.31844857  1
  Al  Al235  1  0.82514402  0.50053518  0.68695884  1
  Al  Al236  1  0.19375548  0.31702026  0.49677213  1
  Al  Al237  1  0.82944464  0.00065159  0.67192865  1
  Al  Al238  1  0.67017602  0.17015106  0.49922541  1
  Au  Au239  1  0.50055411  0.82107839  0.32586652  1
  Au  Au240  1  0.50115283  0.33781562  0.17249510  1
  Au  Au241  1  0.00113404  0.33433814  0.67555012  1
  Au  Au242  1  0.82918537  -0.00314305  0.65458552  1
  Au  Au243  1  0.66597752  -0.00117918  0.16771935  1
  Au  Au244  1  0.49344615  0.16425231  0.17303193  1
  Au  Au245  1  0.84365479  0.17985179  0.00381867  1
  Au  Au246  1  0.84723580  0.16973889  0.49627847  1
  Au  Au247  1  0.66898968  -0.00076333  0.66308344  1
  Au  Au248  1  0.66064310  -0.00082580  0.83318409  1
  Au  Au249  1  0.16282758  0.17293568  0.49916183  1
  Au  Au250  1  0.32734866  0.17784609  0.50055641  1
  Au  Au251  1  0.65873862  0.66473281  0.00133421  1
  Au  Au252  1  0.00107407  0.32808965  0.32524893  1
  Au  Au253  1  0.00292300  0.82753185  0.16666108  1
  Au  Au254  1  0.83250693  -0.00111944  0.33273757  1
  Au  Au255  1  0.66144328  0.18022019  0.00458881  1
  Au  Au256  1  0.17152242  0.50045356  0.33019442  1
  Au  Au257  1  0.66564990  0.83604418  0.00155386  1
  Au  Au258  1  0.00477473  0.83706554  0.66881839  1
  Au  Au259  1  0.66579061  0.67188024  0.49835776  1
  Au  Au260  1  0.15771750  0.33087111  0.00193499  1
  Au  Au261  1  0.83721850  -0.00213526  0.83246593  1
  Au  Au262  1  0.33734093  0.00031525  0.32523849  1
  Au  Au263  1  0.65771609  0.33875802  0.49844353  1
  Au  Au264  1  0.83172779  0.00016589  0.16701249  1
  Au  Au265  1  0.34048888  0.82487768  0.00186116  1
  Au  Au266  1  0.16250915  0.82511364  -0.00287168  1
  Au  Au267  1  0.17411200  0.49890408  0.66105692  1
  Au  Au268  1  0.00504517  0.17700323  0.83752192  1
  Au  Au269  1  0.83119570  0.68054240  0.49739038  1
  Au  Au270  1  0.65462873  0.16551126  0.49883159  1
  Au  Au271  1  0.49792124  0.17798405  0.66730024  1
  Au  Au272  1  0.83218723  0.34461580  0.49695081  1
  Au  Au273  1  0.16379413  -0.00143791  0.32798285  1
  Au  Au274  1  0.00120867  0.82047975  0.33751747  1
  Au  Au275  1  0.32703944  0.50103256  0.17221227  1
  Au  Au276  1  0.50022127  0.82588582  0.67472818  1
  Au  Au277  1  0.66508115  -0.00378104  0.33541161  1
  Au  Au278  1  0.00455219  0.66641883  0.83910544  1
  Au  Au279  1  0.67256654  0.49911199  0.82849245  1
  Au  Au280  1  0.67223206  0.49984568  0.17056672  1
  Au  Au281  1  0.00326518  0.16497413  0.67102788  1
  Au  Au282  1  0.31801771  -0.00004791  0.68130814  1
  Au  Au283  1  0.49841554  0.17589362  0.83282010  1
  Au  Au284  1  0.00125943  0.66169366  0.66519683  1
  Au  Au285  1  0.83828220  0.66212035  0.00234019  1
  Au  Au286  1  0.32276321  0.83433077  0.49999439  1
  Au  Au287  1  0.33496330  0.32546309  -0.00078874  1
