# generated using pymatgen
data_Ca24Ti8Al207Au49
_symmetry_space_group_name_H-M   'P 1'
_cell_length_a   17.31849251
_cell_length_b   17.31909531
_cell_length_c   17.31894466
_cell_angle_alpha   89.99572076
_cell_angle_beta   90.00055747
_cell_angle_gamma   89.99769669
_symmetry_Int_Tables_number   1
_chemical_formula_structural   Ca24Ti8Al207Au49
_chemical_formula_sum   'Ca24 Ti8 Al207 Au49'
_cell_volume   5194.65502311
_cell_formula_units_Z   1
loop_
 _symmetry_equiv_pos_site_id
 _symmetry_equiv_pos_as_xyz
  1  'x, y, z'
loop_
 _atom_site_type_symbol
 _atom_site_label
 _atom_site_symmetry_multiplicity
 _atom_site_fract_x
 _atom_site_fract_y
 _atom_site_fract_z
 _atom_site_occupancy
  Ca  Ca0  1  0.24726989  0.00061415  -0.00269474  1
  Ca  Ca1  1  0.25334118  0.00024776  0.50098966  1
  Ca  Ca2  1  0.25509634  0.50049533  0.00157929  1
  Ca  Ca3  1  0.25656534  0.49798127  0.49963762  1
  Ca  Ca4  1  0.75296068  0.00213666  -0.00336821  1
  Ca  Ca5  1  0.75288640  0.00173247  0.50512764  1
  Ca  Ca6  1  0.74386342  0.49711018  -0.00096843  1
  Ca  Ca7  1  0.75021448  0.49872047  0.49857303  1
  Ca  Ca8  1  -0.00037423  0.24501941  -0.00772991  1
  Ca  Ca9  1  0.00187936  0.24992217  0.50540585  1
  Ca  Ca10  1  0.00164314  0.75735456  -0.00390786  1
  Ca  Ca11  1  -0.00130479  0.75209989  0.50136902  1
  Ca  Ca12  1  0.50060438  0.25225748  0.00076690  1
  Ca  Ca13  1  0.49594792  0.25536321  0.49976443  1
  Ca  Ca14  1  0.49561129  0.75401207  0.00117132  1
  Ca  Ca15  1  0.49995084  0.74566697  0.50105323  1
  Ca  Ca16  1  0.00109893  0.00187257  0.24895753  1
  Ca  Ca17  1  -0.00169928  -0.00058547  0.75085202  1
  Ca  Ca18  1  0.00144080  0.49930045  0.25485864  1
  Ca  Ca19  1  0.00008965  0.49809742  0.74866042  1
  Ca  Ca20  1  0.49646563  0.00089024  0.24791117  1
  Ca  Ca21  1  0.49754537  -0.00416221  0.75255235  1
  Ca  Ca22  1  0.49556680  0.49377569  0.24984110  1
  Ca  Ca23  1  0.49945699  0.50074082  0.74955388  1
  Ti  Ti24  1  0.25172877  0.24983317  0.25011964  1
  Ti  Ti25  1  0.24940201  0.24830330  0.74950096  1
  Ti  Ti26  1  0.25236028  0.75043736  0.24916415  1
  Ti  Ti27  1  0.24923536  0.75133048  0.75100071  1
  Ti  Ti28  1  0.74812696  0.25075780  0.24908409  1
  Ti  Ti29  1  0.75078787  0.24780373  0.75109449  1
  Ti  Ti30  1  0.74881260  0.75027957  0.25174223  1
  Ti  Ti31  1  0.75059018  0.75249595  0.74978151  1
  Al  Al32  1  0.07797868  0.07754256  0.08277828  1
  Al  Al33  1  0.08615886  0.08021548  0.59379985  1
  Al  Al34  1  0.08556343  0.58131228  0.08078434  1
  Al  Al35  1  0.07198538  0.57528633  0.57969362  1
  Al  Al36  1  0.58969206  0.08034351  0.08681507  1
  Al  Al37  1  0.58598139  0.07378607  0.59246552  1
  Al  Al38  1  0.57393841  0.57584030  0.07530112  1
  Al  Al39  1  0.57994653  0.58566508  0.59137873  1
  Al  Al40  1  0.41583929  0.40886005  0.09180683  1
  Al  Al41  1  0.41217198  0.41690332  0.57435643  1
  Al  Al42  1  0.40390928  0.91443975  0.07905022  1
  Al  Al43  1  0.41347179  0.91912624  0.59606674  1
  Al  Al44  1  0.91867134  0.41454201  0.07441287  1
  Al  Al45  1  0.92038219  0.40149738  0.58726781  1
  Al  Al46  1  0.92337198  0.92341167  0.07515599  1
  Al  Al47  1  0.91239295  0.91756484  0.59505160  1
  Al  Al48  1  0.41330223  0.08463446  0.41397413  1
  Al  Al49  1  0.40660630  0.07277778  0.91260360  1
  Al  Al50  1  0.41246857  0.57853992  0.41042695  1
  Al  Al51  1  0.41420182  0.58812008  0.92036148  1
  Al  Al52  1  0.92443499  0.07782244  0.42294584  1
  Al  Al53  1  0.91297843  0.08829550  0.90637799  1
  Al  Al54  1  0.91669449  0.59963768  0.41569561  1
  Al  Al55  1  0.92135553  0.58526912  0.91591170  1
  Al  Al56  1  0.08462884  0.42184132  0.42427990  1
  Al  Al57  1  0.07945857  0.40974342  0.90615150  1
  Al  Al58  1  0.08643971  0.92604968  0.41003221  1
  Al  Al59  1  0.08703168  0.91712028  0.90247716  1
  Al  Al60  1  0.57045517  0.41132111  0.41248052  1
  Al  Al61  1  0.59153814  0.41811159  0.92368560  1
  Al  Al62  1  0.57734588  0.91819889  0.41924533  1
  Al  Al63  1  0.58666308  0.91927837  0.92003903  1
  Al  Al64  1  0.08798817  0.08049931  0.41517915  1
  Al  Al65  1  0.07764263  0.08023146  0.89889371  1
  Al  Al66  1  0.07639945  0.58587096  0.40803467  1
  Al  Al67  1  0.08342666  0.58280393  0.91639819  1
  Al  Al68  1  0.57640465  0.08122485  0.41665839  1
  Al  Al69  1  0.58782911  0.07960533  0.91910755  1
  Al  Al70  1  0.57163863  0.58718941  0.41480488  1
  Al  Al71  1  0.58516721  0.57833961  0.91019561  1
  Al  Al72  1  0.40704211  0.41303312  0.40822256  1
  Al  Al73  1  0.41461380  0.41814963  0.92835128  1
  Al  Al74  1  0.41463736  0.91816249  0.41243617  1
  Al  Al75  1  0.40038523  0.91243864  0.91592137  1
  Al  Al76  1  0.91572963  0.41496705  0.42821465  1
  Al  Al77  1  0.91950357  0.40374036  0.90962766  1
  Al  Al78  1  0.92030188  0.92019594  0.42356927  1
  Al  Al79  1  0.92120376  0.92324063  0.90483695  1
  Al  Al80  1  0.08291118  0.41934103  0.08036949  1
  Al  Al81  1  0.08017291  0.40761699  0.58751350  1
  Al  Al82  1  0.08653619  0.91868646  0.07818205  1
  Al  Al83  1  0.08561338  0.92106265  0.59694071  1
  Al  Al84  1  0.57885780  0.40632079  0.08521852  1
  Al  Al85  1  0.58022971  0.42555883  0.58161591  1
  Al  Al86  1  0.58996572  0.92019040  0.08137215  1
  Al  Al87  1  0.58454811  0.91800724  0.59283950  1
  Al  Al88  1  0.41372977  0.07564067  0.08726508  1
  Al  Al89  1  0.40908072  0.07885125  0.58697864  1
  Al  Al90  1  0.40939338  0.58317621  0.08170272  1
  Al  Al91  1  0.42023234  0.58232171  0.58269206  1
  Al  Al92  1  0.91389181  0.09042167  0.07134604  1
  Al  Al93  1  0.91366489  0.08045223  0.59544816  1
  Al  Al94  1  0.92233574  0.58052947  0.07738217  1
  Al  Al95  1  0.91469818  0.59070191  0.57432462  1
  Al  Al96  1  0.25436925  0.13410298  0.13504685  1
  Al  Al97  1  0.24560845  0.13147080  0.63728890  1
  Al  Al98  1  0.25523821  0.63704717  0.13346731  1
  Al  Al99  1  0.25097507  0.63681801  0.63604972  1
  Al  Al100  1  0.74794949  0.13637973  0.13478084  1
  Al  Al101  1  0.75585043  0.13424394  0.63732397  1
  Al  Al102  1  0.75026475  0.63784328  0.13559840  1
  Al  Al103  1  0.75264568  0.63808592  0.63366708  1
  Al  Al104  1  0.25438160  0.36371558  0.13252348  1
  Al  Al105  1  0.25188370  0.36402509  0.63673436  1
  Al  Al106  1  0.25460876  0.86752284  0.12983764  1
  Al  Al107  1  0.25035577  0.87196146  0.63857778  1
  Al  Al108  1  0.74641683  0.36281363  0.13023958  1
  Al  Al109  1  0.75200890  0.36064634  0.63537457  1
  Al  Al110  1  0.74692501  0.86745298  0.13671953  1
  Al  Al111  1  0.75008574  0.87031069  0.63684043  1
  Al  Al112  1  0.25354859  0.12893499  0.36345129  1
  Al  Al113  1  0.24835684  0.13152052  0.86488528  1
  Al  Al114  1  0.25208188  0.62892529  0.36372329  1
  Al  Al115  1  0.25518671  0.63787390  0.86775898  1
  Al  Al116  1  0.74634632  0.13768423  0.36676996  1
  Al  Al117  1  0.75438003  0.12778083  0.86618162  1
  Al  Al118  1  0.75284638  0.63311947  0.36747777  1
  Al  Al119  1  0.74695500  0.63664711  0.86508680  1
  Al  Al120  1  0.25520325  0.37117637  0.36276203  1
  Al  Al121  1  0.25276451  0.36224808  0.86411405  1
  Al  Al122  1  0.25394195  0.86892108  0.36309844  1
  Al  Al123  1  0.25001582  0.87030445  0.86580054  1
  Al  Al124  1  0.75233248  0.36650437  0.36375275  1
  Al  Al125  1  0.74778086  0.36199614  0.86625307  1
  Al  Al126  1  0.74907858  0.86285124  0.36619037  1
  Al  Al127  1  0.75408137  0.87478260  0.86020768  1
  Al  Al128  1  0.13856570  0.24945696  0.13333835  1
  Al  Al129  1  0.13283361  0.25129185  0.63758459  1
  Al  Al130  1  0.13946401  0.74993176  0.13341922  1
  Al  Al131  1  0.13558978  0.75606157  0.63662448  1
  Al  Al132  1  0.63046222  0.25647321  0.13079517  1
  Al  Al133  1  0.63707070  0.24592500  0.63627092  1
  Al  Al134  1  0.63097209  0.75013421  0.13516996  1
  Al  Al135  1  0.63468330  0.74790785  0.63766971  1
  Al  Al136  1  0.14235121  0.25162631  0.36379635  1
  Al  Al137  1  0.13278089  0.24765196  0.86340713  1
  Al  Al138  1  0.13780916  0.74723976  0.36167169  1
  Al  Al139  1  0.13562970  0.75713475  0.86643982  1
  Al  Al140  1  0.63138729  0.25247356  0.36496975  1
  Al  Al141  1  0.63628379  0.24591532  0.86489281  1
  Al  Al142  1  0.62911134  0.74981800  0.36509122  1
  Al  Al143  1  0.63724384  0.75304219  0.86251981  1
  Al  Al144  1  0.36875590  0.25570030  0.13438298  1
  Al  Al145  1  0.36209380  0.24704609  0.63201529  1
  Al  Al146  1  0.36762853  0.75227099  0.13469405  1
  Al  Al147  1  0.36307949  0.75327898  0.63743509  1
  Al  Al148  1  0.86354669  0.24846208  0.13209390  1
  Al  Al149  1  0.86882300  0.25313282  0.63696286  1
  Al  Al150  1  0.86362603  0.75130809  0.13430987  1
  Al  Al151  1  0.86396992  0.75499245  0.63231665  1
  Al  Al152  1  0.36535394  0.25095865  0.36625162  1
  Al  Al153  1  0.36527785  0.24740687  0.86491952  1
  Al  Al154  1  0.36863396  0.75228309  0.36130688  1
  Al  Al155  1  0.36371689  0.75361897  0.86856919  1
  Al  Al156  1  0.86220612  0.25279880  0.36703854  1
  Al  Al157  1  0.86555820  0.24448190  0.86509258  1
  Al  Al158  1  0.86591508  0.74907289  0.37067754  1
  Al  Al159  1  0.86476987  0.75597890  0.86595678  1
  Al  Al160  1  0.13683220  0.13470152  0.24973903  1
  Al  Al161  1  0.13398242  0.13037157  0.75309580  1
  Al  Al162  1  0.13858433  0.63026379  0.24955716  1
  Al  Al163  1  0.13593665  0.63697161  0.75214713  1
  Al  Al164  1  0.63448078  0.13612852  0.24672094  1
  Al  Al165  1  0.63870127  0.12717471  0.75117895  1
  Al  Al166  1  0.63327931  0.63609354  0.25379174  1
  Al  Al167  1  0.63608257  0.63512026  0.75007154  1
  Al  Al168  1  0.36611214  0.13227621  0.25083808  1
  Al  Al169  1  0.36367836  0.13291432  0.74902250  1
  Al  Al170  1  0.36719669  0.63385806  0.25462026  1
  Al  Al171  1  0.36504040  0.63749505  0.74910846  1
  Al  Al172  1  0.86298319  0.13840995  0.24920525  1
  Al  Al173  1  0.86700805  0.13236304  0.75333198  1
  Al  Al174  1  0.86783151  0.63711782  0.25603031  1
  Al  Al175  1  0.86512395  0.63684149  0.75378916  1
  Al  Al176  1  0.14014714  0.37076209  0.24811260  1
  Al  Al177  1  0.13298332  0.36260676  0.75143354  1
  Al  Al178  1  0.13882343  0.86624769  0.25124352  1
  Al  Al179  1  0.13427132  0.87065568  0.75206274  1
  Al  Al180  1  0.63214991  0.36341134  0.25009773  1
  Al  Al181  1  0.63793320  0.36369116  0.75222383  1
  Al  Al182  1  0.62943588  0.86368573  0.24860616  1
  Al  Al183  1  0.63718374  0.87182408  0.74960037  1
  Al  Al184  1  0.36887987  0.36361503  0.25191082  1
  Al  Al185  1  0.36488529  0.36267949  0.75152313  1
  Al  Al186  1  0.36738529  0.86984952  0.24748932  1
  Al  Al187  1  0.36215085  0.86972861  0.75281679  1
  Al  Al188  1  0.86472627  0.36389333  0.24487530  1
  Al  Al189  1  0.86787698  0.36288643  0.75481795  1
  Al  Al190  1  0.86317816  0.86388262  0.25046158  1
  Al  Al191  1  0.86929783  0.86640350  0.74943116  1
  Al  Al192  1  0.49975507  0.67503504  0.81157756  1
  Al  Al193  1  0.83023311  0.49877459  0.66835475  1
  Al  Al194  1  0.50250427  0.32432613  0.83055156  1
  Al  Al195  1  0.68303926  0.81903155  -0.00111103  1
  Al  Al196  1  0.00194498  0.67106701  0.18583814  1
  Al  Al197  1  -0.00108635  0.68049786  0.67336443  1
  Al  Al198  1  0.18192540  0.32212768  -0.00280029  1
  Al  Al199  1  0.00057920  0.17105603  0.32588771  1
  Al  Al200  1  0.00134681  0.82635871  0.17128203  1
  Al  Al201  1  0.32384872  0.18217539  0.00084716  1
  Al  Al202  1  0.82471011  0.18112489  0.50080757  1
  Al  Al203  1  0.49970484  0.18273843  0.17821600  1
  Al  Al204  1  0.32770765  0.67881488  0.49815396  1
  Al  Al205  1  0.18556765  0.32675388  0.49989741  1
  Al  Al206  1  0.49875230  0.67567327  0.18243445  1
  Al  Al207  1  0.81341716  0.49914240  0.82944456  1
  Al  Al208  1  0.49964814  0.16769889  0.68009871  1
  Al  Al209  1  0.17955891  0.50017715  0.82427150  1
  Al  Al210  1  0.00050458  0.81884875  0.33036419  1
  Al  Al211  1  0.81890097  0.00105812  0.16876542  1
  Al  Al212  1  0.32629461  0.49990572  0.68244428  1
  Al  Al213  1  0.68173286  0.82762736  0.50278822  1
  Al  Al214  1  -0.00032909  0.17740280  0.17199002  1
  Al  Al215  1  0.17107514  0.49954396  0.67120827  1
  Al  Al216  1  0.00091145  0.32867543  0.32483465  1
  Al  Al217  1  0.18001163  0.17020762  0.50077782  1
  Al  Al218  1  0.00169815  0.68390017  0.82577915  1
  Al  Al219  1  0.17910461  0.68130021  -0.00121472  1
  Al  Al220  1  0.82120684  0.67897231  0.00250130  1
  Al  Al221  1  0.50021924  0.81591023  0.67775588  1
  Al  Al222  1  0.82834742  0.50141403  0.17755798  1
  Al  Al223  1  0.32192392  0.49903285  0.18390146  1
  Al  Al224  1  0.00061419  0.18457034  0.68934111  1
  Al  Al225  1  0.67932429  0.67084407  0.49986548  1
  Al  Al226  1  0.16848002  0.67302436  0.50167531  1
  Al  Al227  1  0.68483647  0.18444848  0.00023609  1
  Al  Al228  1  0.67918244  0.32419238  0.49972982  1
  Al  Al229  1  0.49985377  0.32705206  0.67206739  1
  Al  Al230  1  0.81452046  0.31250185  -0.00262374  1
  Al  Al231  1  0.49977161  0.83043452  0.82989131  1
  Al  Al232  1  0.66996740  0.49974830  0.32796762  1
  Al  Al233  1  0.66884626  -0.00175960  0.31299126  1
  Al  Al234  1  0.18030349  0.83314705  0.49907757  1
  Al  Al235  1  0.82562176  0.00144438  0.32699903  1
  Al  Al236  1  0.18636266  -0.00009212  0.18323148  1
  Al  Al237  1  0.67092850  0.49889663  0.17086311  1
  Al  Al238  1  0.67492960  0.49929440  0.68596240  1
  Au  Au239  1  0.17476079  0.50011388  0.16853587  1
  Au  Au240  1  0.82611658  0.49728548  0.16096166  1
  Au  Au241  1  0.49826518  0.66117779  0.17433028  1
  Au  Au242  1  0.00014450  0.32297411  0.34087748  1
  Au  Au243  1  0.82998815  0.67018903  0.00007759  1
  Au  Au244  1  0.49947015  0.82341735  0.33477146  1
  Au  Au245  1  0.83166285  0.84223519  -0.00663124  1
  Au  Au246  1  0.66915603  0.33792155  0.49974881  1
  Au  Au247  1  0.00119960  0.83049068  0.68048518  1
  Au  Au248  1  0.50031673  0.67309663  0.82788196  1
  Au  Au249  1  0.32688152  -0.00011157  0.32493415  1
  Au  Au250  1  0.49788934  0.17187106  0.66826784  1
  Au  Au251  1  0.17116328  0.66050404  0.50160805  1
  Au  Au252  1  0.83608524  0.82914708  0.50175836  1
  Au  Au253  1  0.17594182  0.83568521  -0.00418253  1
  Au  Au254  1  0.49762546  0.15631996  0.83214101  1
  Au  Au255  1  0.00061189  0.16923035  0.68198578  1
  Au  Au256  1  0.32776952  0.49947807  0.83593824  1
  Au  Au257  1  0.49934784  0.18230948  0.33839188  1
  Au  Au258  1  0.83564907  0.00455279  0.16983755  1
  Au  Au259  1  0.17426003  0.33674935  -0.00396203  1
  Au  Au260  1  0.65740317  0.50048950  0.32463645  1
  Au  Au261  1  0.83379408  0.50217647  0.34340668  1
  Au  Au262  1  0.82982618  0.31971258  -0.00274115  1
  Au  Au263  1  0.82599977  0.49794629  0.65276073  1
  Au  Au264  1  0.33297065  0.16803725  0.00105935  1
  Au  Au265  1  0.17509747  0.49947373  0.33497171  1
  Au  Au266  1  0.49864567  0.84322495  0.16623233  1
  Au  Au267  1  0.33263775  0.17445594  0.50082630  1
  Au  Au268  1  0.00026856  0.83517810  0.32452701  1
  Au  Au269  1  0.18212466  0.66895845  0.00034906  1
  Au  Au270  1  0.66417191  0.66831164  0.00054883  1
  Au  Au271  1  0.16782202  0.17318274  0.50195009  1
  Au  Au272  1  0.00206007  0.32520528  0.16084271  1
  Au  Au273  1  0.83857297  0.17105274  0.50059602  1
  Au  Au274  1  0.66818524  0.66499604  0.49992072  1
  Au  Au275  1  0.67011666  0.83218290  0.50267393  1
  Au  Au276  1  0.17116220  -0.00014616  0.17529887  1
  Au  Au277  1  0.67040319  0.00128626  0.33002051  1
  Au  Au278  1  0.34266650  0.82910689  0.50451460  1
  Au  Au279  1  0.67614667  0.16969279  0.00128577  1
  Au  Au280  1  0.82790077  0.49920067  0.83814147  1
  Au  Au281  1  0.15808117  0.16022012  -0.00716521  1
  Au  Au282  1  0.50021045  0.16786871  0.16993787  1
  Au  Au283  1  0.67438292  -0.00151515  0.82547303  1
  Au  Au284  1  0.16545459  0.83863496  0.49957148  1
  Au  Au285  1  0.66422919  0.16076912  0.50449256  1
  Au  Au286  1  0.50296387  0.34019439  0.83428549  1
  Au  Au287  1  0.00178997  0.67132744  0.16853590  1
