# generated using pymatgen
data_Ca24Ti8Al207Au49
_symmetry_space_group_name_H-M   'P 1'
_cell_length_a   17.32230948
_cell_length_b   17.32348096
_cell_length_c   17.32327662
_cell_angle_alpha   89.99944453
_cell_angle_beta   89.99825807
_cell_angle_gamma   90.00027368
_symmetry_Int_Tables_number   1
_chemical_formula_structural   Ca24Ti8Al207Au49
_chemical_formula_sum   'Ca24 Ti8 Al207 Au49'
_cell_volume   5198.41559021
_cell_formula_units_Z   1
loop_
 _symmetry_equiv_pos_site_id
 _symmetry_equiv_pos_as_xyz
  1  'x, y, z'
loop_
 _atom_site_type_symbol
 _atom_site_label
 _atom_site_symmetry_multiplicity
 _atom_site_fract_x
 _atom_site_fract_y
 _atom_site_fract_z
 _atom_site_occupancy
  Ca  Ca0  1  0.25181335  0.00310317  -0.00072238  1
  Ca  Ca1  1  0.25214264  0.00235088  0.50371725  1
  Ca  Ca2  1  0.24388236  0.50233577  -0.00048309  1
  Ca  Ca3  1  0.24931675  0.49792115  0.50104274  1
  Ca  Ca4  1  0.74640244  0.00371707  0.00617109  1
  Ca  Ca5  1  0.74927162  0.00177775  0.49963382  1
  Ca  Ca6  1  0.75429764  0.49954659  -0.00319880  1
  Ca  Ca7  1  0.75280244  0.49825212  0.50269495  1
  Ca  Ca8  1  -0.00102781  0.24766652  -0.00016961  1
  Ca  Ca9  1  -0.00035509  0.25101184  0.50285571  1
  Ca  Ca10  1  0.00810129  0.74917001  -0.00094930  1
  Ca  Ca11  1  -0.00343661  0.74599597  0.50175534  1
  Ca  Ca12  1  0.49993874  0.24221977  0.00357049  1
  Ca  Ca13  1  0.50085480  0.24686455  0.49691897  1
  Ca  Ca14  1  0.49452439  0.75142648  0.00117122  1
  Ca  Ca15  1  0.49994404  0.75173308  0.49846444  1
  Ca  Ca16  1  0.00034243  -0.00104088  0.24794249  1
  Ca  Ca17  1  0.00627030  0.00039425  0.74608453  1
  Ca  Ca18  1  0.00319776  0.50409819  0.24799984  1
  Ca  Ca19  1  -0.00194169  0.49921120  0.74861451  1
  Ca  Ca20  1  0.49529646  0.00595267  0.24987722  1
  Ca  Ca21  1  0.49470329  0.00779622  0.75048981  1
  Ca  Ca22  1  0.49643639  0.49162996  0.25258848  1
  Ca  Ca23  1  0.50160129  0.49492882  0.74815249  1
  Ti  Ti24  1  0.25060859  0.24890678  0.24937787  1
  Ti  Ti25  1  0.25104679  0.25023831  0.75067992  1
  Ti  Ti26  1  0.24897983  0.75084650  0.24912584  1
  Ti  Ti27  1  0.24680910  0.74943728  0.74992920  1
  Ti  Ti28  1  0.74846175  0.25022463  0.25072243  1
  Ti  Ti29  1  0.74810027  0.25124540  0.74808223  1
  Ti  Ti30  1  0.75175332  0.74979295  0.25141617  1
  Ti  Ti31  1  0.75305863  0.74798927  0.74814306  1
  Al  Al32  1  0.09529005  0.07468507  0.08693441  1
  Al  Al33  1  0.08757460  0.08156729  0.58730133  1
  Al  Al34  1  0.08823653  0.59440710  0.08407244  1
  Al  Al35  1  0.07954368  0.57995061  0.58357922  1
  Al  Al36  1  0.57709810  0.09061225  0.09597256  1
  Al  Al37  1  0.58322050  0.09526005  0.58476252  1
  Al  Al38  1  0.57959492  0.57037583  0.07842759  1
  Al  Al39  1  0.59171404  0.57991231  0.57953647  1
  Al  Al40  1  0.42028775  0.40870326  0.09403093  1
  Al  Al41  1  0.41189143  0.41742157  0.58414396  1
  Al  Al42  1  0.40547098  0.92870123  0.08544145  1
  Al  Al43  1  0.41209295  0.92989756  0.58155595  1
  Al  Al44  1  0.92274982  0.42304798  0.07663358  1
  Al  Al45  1  0.91174436  0.41755748  0.59927733  1
  Al  Al46  1  0.92343049  0.92285142  0.08553350  1
  Al  Al47  1  0.91742246  0.90667246  0.58139126  1
  Al  Al48  1  0.41359915  0.08402153  0.40650106  1
  Al  Al49  1  0.40858078  0.09061353  0.91269641  1
  Al  Al50  1  0.41597502  0.57386379  0.42375848  1
  Al  Al51  1  0.41596824  0.58114241  0.91919788  1
  Al  Al52  1  0.91393890  0.08064957  0.42592920  1
  Al  Al53  1  0.92087685  0.08354419  0.92011549  1
  Al  Al54  1  0.91772787  0.59282109  0.42209085  1
  Al  Al55  1  0.92089430  0.58031227  0.90275744  1
  Al  Al56  1  0.08818133  0.42801512  0.41093911  1
  Al  Al57  1  0.07381592  0.41147635  0.91090576  1
  Al  Al58  1  0.08427124  0.91874613  0.41771146  1
  Al  Al59  1  0.09677194  0.91198853  0.91585878  1
  Al  Al60  1  0.57900188  0.40754589  0.41046519  1
  Al  Al61  1  0.58648944  0.41697882  0.91310341  1
  Al  Al62  1  0.58437477  0.92160797  0.41740565  1
  Al  Al63  1  0.57556163  0.93278753  0.92189911  1
  Al  Al64  1  0.08595594  0.07833567  0.42227426  1
  Al  Al65  1  0.08994769  0.07769560  0.91232507  1
  Al  Al66  1  0.08208941  0.58539546  0.40736966  1
  Al  Al67  1  0.08040375  0.59392842  0.91922277  1
  Al  Al68  1  0.58686939  0.09027550  0.41920827  1
  Al  Al69  1  0.57337214  0.09191129  0.90998734  1
  Al  Al70  1  0.58974212  0.57956531  0.42354291  1
  Al  Al71  1  0.58159293  0.57446394  0.91178266  1
  Al  Al72  1  0.41830179  0.40903388  0.41076303  1
  Al  Al73  1  0.42168750  0.41683853  0.91847864  1
  Al  Al74  1  0.41101615  0.92468337  0.41320872  1
  Al  Al75  1  0.40503352  0.92784931  0.91487999  1
  Al  Al76  1  0.92253959  0.42059774  0.42675942  1
  Al  Al77  1  0.91313158  0.41746777  0.90033905  1
  Al  Al78  1  0.90967685  0.91112079  0.42466319  1
  Al  Al79  1  0.92435699  0.92363663  0.91357558  1
  Al  Al80  1  0.08375128  0.42469173  0.08119775  1
  Al  Al81  1  0.07427647  0.41422609  0.59401990  1
  Al  Al82  1  0.09713809  0.91187618  0.08434130  1
  Al  Al83  1  0.08407639  0.91869164  0.58834557  1
  Al  Al84  1  0.57760331  0.40451999  0.09107922  1
  Al  Al85  1  0.58609339  0.41524627  0.58111826  1
  Al  Al86  1  0.58548899  0.93229699  0.08771337  1
  Al  Al87  1  0.58446475  0.92301044  0.57457729  1
  Al  Al88  1  0.40837938  0.09156991  0.08893181  1
  Al  Al89  1  0.41866925  0.08803971  0.59545208  1
  Al  Al90  1  0.41306267  0.57567253  0.07946530  1
  Al  Al91  1  0.40787681  0.57540099  0.58491583  1
  Al  Al92  1  0.91315486  0.07983316  0.08136502  1
  Al  Al93  1  0.92024098  0.08701454  0.58073947  1
  Al  Al94  1  0.92894648  0.58653067  0.08498165  1
  Al  Al95  1  0.90674901  0.58250674  0.58781557  1
  Al  Al96  1  0.25439405  0.13444933  0.13192875  1
  Al  Al97  1  0.24933407  0.13467782  0.63723150  1
  Al  Al98  1  0.24296833  0.63463098  0.13143152  1
  Al  Al99  1  0.24482367  0.62781328  0.63823367  1
  Al  Al100  1  0.74150269  0.13611503  0.13781240  1
  Al  Al101  1  0.74698631  0.13751148  0.63472150  1
  Al  Al102  1  0.75136733  0.63036224  0.13349078  1
  Al  Al103  1  0.75637909  0.62648847  0.63640577  1
  Al  Al104  1  0.24861940  0.36116425  0.13755507  1
  Al  Al105  1  0.25112497  0.37004786  0.63808021  1
  Al  Al106  1  0.24681918  0.86696605  0.13151792  1
  Al  Al107  1  0.24394011  0.86834239  0.63836089  1
  Al  Al108  1  0.74854040  0.36796235  0.13734785  1
  Al  Al109  1  0.74893234  0.36829578  0.63170575  1
  Al  Al110  1  0.75102710  0.86385440  0.13786254  1
  Al  Al111  1  0.75471302  0.86137080  0.62780309  1
  Al  Al112  1  0.25754109  0.13387873  0.36137078  1
  Al  Al113  1  0.25424077  0.13593177  0.87008670  1
  Al  Al114  1  0.24273860  0.63361832  0.36299722  1
  Al  Al115  1  0.24044036  0.63231098  0.86809203  1
  Al  Al116  1  0.74454765  0.13898488  0.36485832  1
  Al  Al117  1  0.74682957  0.14064930  0.86301468  1
  Al  Al118  1  0.75558201  0.63518206  0.36688809  1
  Al  Al119  1  0.75957026  0.63268253  0.86486336  1
  Al  Al120  1  0.24942780  0.36176721  0.36166736  1
  Al  Al121  1  0.25367295  0.36654682  0.86234018  1
  Al  Al122  1  0.25046369  0.86898367  0.36453563  1
  Al  Al123  1  0.24627782  0.86238493  0.87148377  1
  Al  Al124  1  0.74715626  0.36335644  0.36932451  1
  Al  Al125  1  0.75261227  0.36517303  0.86340967  1
  Al  Al126  1  0.74922868  0.86549970  0.37229316  1
  Al  Al127  1  0.75147133  0.85922317  0.86288887  1
  Al  Al128  1  0.13101350  0.24658903  0.13795869  1
  Al  Al129  1  0.13731310  0.25301749  0.63837993  1
  Al  Al130  1  0.13461570  0.74906289  0.13244357  1
  Al  Al131  1  0.13394590  0.74451978  0.63506339  1
  Al  Al132  1  0.63074899  0.24906518  0.13308452  1
  Al  Al133  1  0.63509311  0.24924374  0.62580925  1
  Al  Al134  1  0.63500241  0.74920580  0.13683258  1
  Al  Al135  1  0.63638903  0.74958404  0.63369774  1
  Al  Al136  1  0.13557218  0.24698393  0.36036390  1
  Al  Al137  1  0.13679391  0.25019160  0.86133086  1
  Al  Al138  1  0.13478836  0.75346056  0.36350954  1
  Al  Al139  1  0.13096432  0.74979405  0.86443840  1
  Al  Al140  1  0.62849558  0.25049372  0.36495837  1
  Al  Al141  1  0.63192039  0.25046987  0.86675157  1
  Al  Al142  1  0.63752049  0.75137772  0.36539566  1
  Al  Al143  1  0.63893299  0.74708562  0.86493190  1
  Al  Al144  1  0.36909724  0.24772798  0.13540765  1
  Al  Al145  1  0.36585329  0.24250183  0.63674647  1
  Al  Al146  1  0.36105457  0.75219938  0.13269968  1
  Al  Al147  1  0.36008895  0.75043918  0.63735844  1
  Al  Al148  1  0.86720001  0.25139240  0.13631907  1
  Al  Al149  1  0.86504557  0.25622225  0.63672828  1
  Al  Al150  1  0.86805026  0.74583686  0.13369305  1
  Al  Al151  1  0.86472270  0.74487139  0.62997196  1
  Al  Al152  1  0.37260892  0.24812587  0.36085192  1
  Al  Al153  1  0.37128480  0.24650291  0.86567902  1
  Al  Al154  1  0.36042742  0.75037404  0.36248182  1
  Al  Al155  1  0.35968320  0.74905718  0.86475454  1
  Al  Al156  1  0.86556342  0.25341057  0.36570248  1
  Al  Al157  1  0.86799837  0.25545486  0.86074561  1
  Al  Al158  1  0.86306346  0.75136072  0.36953457  1
  Al  Al159  1  0.87531992  0.74651016  0.86272595  1
  Al  Al160  1  0.13728176  0.13018793  0.24310055  1
  Al  Al161  1  0.13695404  0.13263741  0.75010416  1
  Al  Al162  1  0.13448901  0.63271537  0.24596997  1
  Al  Al163  1  0.12692036  0.63251173  0.75196397  1
  Al  Al164  1  0.62534202  0.13598592  0.24940208  1
  Al  Al165  1  0.62926911  0.13913242  0.74812853  1
  Al  Al166  1  0.63735429  0.63385010  0.25037692  1
  Al  Al167  1  0.63866820  0.63397165  0.74626266  1
  Al  Al168  1  0.37008123  0.13534228  0.24615312  1
  Al  Al169  1  0.36481206  0.13348491  0.75571862  1
  Al  Al170  1  0.36182623  0.63437564  0.25157562  1
  Al  Al171  1  0.36045882  0.63440264  0.74807626  1
  Al  Al172  1  0.86462102  0.13695738  0.24897893  1
  Al  Al173  1  0.86431029  0.13737175  0.74892748  1
  Al  Al174  1  0.86598237  0.63361372  0.24802216  1
  Al  Al175  1  0.87054683  0.63275102  0.74864853  1
  Al  Al176  1  0.13295499  0.36776025  0.24911424  1
  Al  Al177  1  0.13352424  0.36900859  0.74954111  1
  Al  Al178  1  0.13604972  0.86927613  0.24434060  1
  Al  Al179  1  0.13459731  0.86588033  0.75260183  1
  Al  Al180  1  0.62954874  0.35932154  0.24865664  1
  Al  Al181  1  0.63327060  0.36327091  0.74706681  1
  Al  Al182  1  0.63672458  0.86608572  0.24939669  1
  Al  Al183  1  0.63814502  0.86385340  0.74501783  1
  Al  Al184  1  0.36824359  0.36149742  0.25051708  1
  Al  Al185  1  0.36677383  0.36638898  0.74790143  1
  Al  Al186  1  0.35958857  0.87140538  0.24662629  1
  Al  Al187  1  0.36018833  0.86807803  0.75445365  1
  Al  Al188  1  0.86846578  0.36505300  0.24945651  1
  Al  Al189  1  0.86359321  0.36996803  0.74826969  1
  Al  Al190  1  0.86778104  0.86330440  0.25038461  1
  Al  Al191  1  0.86592296  0.86371808  0.75006326  1
  Al  Al192  1  0.81320185  0.18105422  0.50056495  1
  Al  Al193  1  0.50004401  0.66858651  0.32838179  1
  Al  Al194  1  0.67182729  0.49655941  0.32159037  1
  Al  Al195  1  0.67013680  0.67268245  -0.00129930  1
  Al  Al196  1  0.82984313  -0.00004647  0.66865964  1
  Al  Al197  1  0.31697111  0.49791470  0.32857134  1
  Al  Al198  1  0.32293023  0.50044374  0.82258609  1
  Al  Al199  1  0.49917866  0.66963247  0.17406165  1
  Al  Al200  1  0.49951693  0.82864604  0.66912354  1
  Al  Al201  1  0.17604871  0.32820557  0.50076497  1
  Al  Al202  1  0.81700829  0.17439597  0.00072802  1
  Al  Al203  1  0.32700538  0.31671227  0.49929775  1
  Al  Al204  1  -0.00013957  0.68265878  0.31071543  1
  Al  Al205  1  0.49790874  0.83056332  0.16941990  1
  Al  Al206  1  0.31074948  0.00138467  0.68966143  1
  Al  Al207  1  0.33131892  0.31727237  0.00082480  1
  Al  Al208  1  0.82923352  0.00037756  0.32848709  1
  Al  Al209  1  0.81230859  0.00105820  0.17751013  1
  Al  Al210  1  0.17921396  0.82215284  0.50245808  1
  Al  Al211  1  0.69125722  0.68087435  0.50134601  1
  Al  Al212  1  0.31846060  0.67336210  0.50075102  1
  Al  Al213  1  0.00102057  0.18514158  0.67263025  1
  Al  Al214  1  0.82277994  0.33063256  -0.00135889  1
  Al  Al215  1  -0.00038202  0.17431838  0.32454354  1
  Al  Al216  1  0.82757027  0.49852723  0.32838884  1
  Al  Al217  1  0.49828740  0.67269798  0.66809254  1
  Al  Al218  1  0.67254636  0.82949091  0.00091037  1
  Al  Al219  1  0.68752062  0.49943997  0.81635399  1
  Al  Al220  1  0.49714159  0.82841119  0.32785444  1
  Al  Al221  1  0.32573539  0.82912055  0.50067090  1
  Al  Al222  1  0.19454804  -0.00022653  0.81276768  1
  Al  Al223  1  0.00020587  0.81651288  0.68180657  1
  Al  Al224  1  0.67347538  0.00215036  0.67043498  1
  Al  Al225  1  0.67396434  0.00210688  0.82145797  1
  Al  Al226  1  0.18700651  0.00117155  0.31446681  1
  Al  Al227  1  0.49927798  0.83050621  0.82745615  1
  Al  Al228  1  0.31955366  0.68179091  -0.00038051  1
  Al  Al229  1  0.00112885  0.18269460  0.82437335  1
  Al  Al230  1  0.82828375  0.82839681  0.00024425  1
  Al  Al231  1  0.67576194  0.00277310  0.31350759  1
  Al  Al232  1  0.82065528  0.00152272  0.82514210  1
  Al  Al233  1  0.16793796  0.31733082  -0.00123599  1
  Al  Al234  1  0.18273199  0.17391757  0.49921982  1
  Al  Al235  1  0.49900109  0.31363068  0.67758457  1
  Al  Al236  1  0.50015278  0.67325521  0.82532028  1
  Al  Al237  1  0.00206146  0.82172602  0.17950882  1
  Al  Al238  1  0.31897413  0.49793710  0.17601425  1
  Au  Au239  1  0.00154309  0.16266419  0.16070890  1
  Au  Au240  1  0.83757389  0.32740677  0.50474191  1
  Au  Au241  1  0.49857961  0.66005689  0.67080168  1
  Au  Au242  1  0.00107669  0.17035664  0.82798559  1
  Au  Au243  1  0.32319470  0.66940923  -0.00037516  1
  Au  Au244  1  0.66936698  0.33338621  0.00082750  1
  Au  Au245  1  0.49466310  0.82690715  0.84405027  1
  Au  Au246  1  0.17541809  0.00290965  0.32694008  1
  Au  Au247  1  0.83481391  0.50349042  0.16443109  1
  Au  Au248  1  0.66673249  0.32340559  0.49536600  1
  Au  Au249  1  -0.00338051  0.66740046  0.67060173  1
  Au  Au250  1  0.16008019  0.33119052  0.49933000  1
  Au  Au251  1  0.00468695  0.82836571  0.83087729  1
  Au  Au252  1  0.67503841  0.82810519  0.50002934  1
  Au  Au253  1  0.00316715  0.81966047  0.16687039  1
  Au  Au254  1  0.17269065  0.49830414  0.66787560  1
  Au  Au255  1  0.17082058  0.83117690  0.50300988  1
  Au  Au256  1  0.17695229  0.16280773  0.00099642  1
  Au  Au257  1  0.67180810  0.00257388  0.32582991  1
  Au  Au258  1  0.49550622  0.66669874  0.16255834  1
  Au  Au259  1  0.83022075  -0.00223412  0.83338190  1
  Au  Au260  1  0.84588501  0.66596101  -0.00495069  1
  Au  Au261  1  0.17046019  0.32936736  -0.00261666  1
  Au  Au262  1  0.33411600  0.16496931  0.50095536  1
  Au  Au263  1  0.33555911  0.49849561  0.82177636  1
  Au  Au264  1  0.32897739  0.32956020  0.00240124  1
  Au  Au265  1  0.50156083  0.32005066  0.83787323  1
  Au  Au266  1  0.66442100  -0.00098101  0.82988034  1
  Au  Au267  1  0.16902001  0.66499006  0.49732259  1
  Au  Au268  1  0.67312646  0.66035679  -0.00282356  1
  Au  Au269  1  0.84078069  0.82667647  -0.00003187  1
  Au  Au270  1  0.83472607  0.32703405  -0.00310349  1
  Au  Au271  1  0.15936557  0.50272028  0.83426770  1
  Au  Au272  1  0.66067852  0.49433369  0.17413516  1
  Au  Au273  1  0.00199616  0.34158995  0.32972633  1
  Au  Au274  1  -0.00460366  0.82721127  0.34078788  1
  Au  Au275  1  0.66379991  0.83827590  0.00162629  1
  Au  Au276  1  0.49523454  0.83984523  0.66566860  1
  Au  Au277  1  0.67900954  0.49874194  0.66962752  1
  Au  Au278  1  0.49804664  0.84231518  0.17465379  1
  Au  Au279  1  0.66582885  0.16196153  0.00221781  1
  Au  Au280  1  0.49810848  0.32344604  0.66397196  1
  Au  Au281  1  0.17005212  0.50235310  0.17359076  1
  Au  Au282  1  0.00083074  0.33432054  0.16581965  1
  Au  Au283  1  0.31731986  0.83922794  0.00130255  1
  Au  Au284  1  0.83032155  0.50306955  0.33986766  1
  Au  Au285  1  0.49989166  0.17433478  0.32672901  1
  Au  Au286  1  0.50002037  0.67124281  0.34098566  1
  Au  Au287  1  -0.00193121  0.16770411  0.34002033  1
