# generated using pymatgen
data_Ca24Ti8Al207Au49
_symmetry_space_group_name_H-M   'P 1'
_cell_length_a   17.32072057
_cell_length_b   17.31944514
_cell_length_c   17.32224593
_cell_angle_alpha   89.99783309
_cell_angle_beta   90.00361296
_cell_angle_gamma   89.99675741
_symmetry_Int_Tables_number   1
_chemical_formula_structural   Ca24Ti8Al207Au49
_chemical_formula_sum   'Ca24 Ti8 Al207 Au49'
_cell_volume   5196.41859353
_cell_formula_units_Z   1
loop_
 _symmetry_equiv_pos_site_id
 _symmetry_equiv_pos_as_xyz
  1  'x, y, z'
loop_
 _atom_site_type_symbol
 _atom_site_label
 _atom_site_symmetry_multiplicity
 _atom_site_fract_x
 _atom_site_fract_y
 _atom_site_fract_z
 _atom_site_occupancy
  Ca  Ca0  1  0.25020699  -0.00000819  -0.00685072  1
  Ca  Ca1  1  0.24805767  0.00493850  0.50446280  1
  Ca  Ca2  1  0.25242434  0.50208787  0.00163819  1
  Ca  Ca3  1  0.24797556  0.49439929  0.49921655  1
  Ca  Ca4  1  0.74933069  0.00042546  0.00022643  1
  Ca  Ca5  1  0.75543100  0.00057967  0.49607767  1
  Ca  Ca6  1  0.75161735  0.49826999  0.00015960  1
  Ca  Ca7  1  0.75358792  0.50283334  0.50111323  1
  Ca  Ca8  1  -0.00216188  0.24892906  -0.00076592  1
  Ca  Ca9  1  0.00382841  0.25520542  0.50401236  1
  Ca  Ca10  1  -0.00081144  0.74603309  0.00424251  1
  Ca  Ca11  1  0.00175365  0.74656106  0.49757284  1
  Ca  Ca12  1  0.50201548  0.24587008  -0.00090731  1
  Ca  Ca13  1  0.49627512  0.25478907  0.50131299  1
  Ca  Ca14  1  0.50084414  0.74488182  0.00139502  1
  Ca  Ca15  1  0.49765775  0.74280737  0.49765272  1
  Ca  Ca16  1  0.00171275  0.00155556  0.25172507  1
  Ca  Ca17  1  0.00375330  0.00112269  0.74919181  1
  Ca  Ca18  1  0.00080066  0.49861594  0.25274058  1
  Ca  Ca19  1  -0.00190398  0.49978367  0.74588780  1
  Ca  Ca20  1  0.49856908  -0.00558642  0.24438373  1
  Ca  Ca21  1  0.49411295  -0.00008665  0.75171450  1
  Ca  Ca22  1  0.49766183  0.50755907  0.25082978  1
  Ca  Ca23  1  0.50147376  0.50162659  0.74978155  1
  Ti  Ti24  1  0.24868669  0.25117791  0.25092786  1
  Ti  Ti25  1  0.24994842  0.25007665  0.74911949  1
  Ti  Ti26  1  0.25076293  0.74773368  0.25044245  1
  Ti  Ti27  1  0.24995740  0.75064270  0.75016686  1
  Ti  Ti28  1  0.75337426  0.24881810  0.24886097  1
  Ti  Ti29  1  0.74910521  0.25155714  0.75156140  1
  Ti  Ti30  1  0.75023943  0.74951463  0.25043642  1
  Ti  Ti31  1  0.75005590  0.74919419  0.75145706  1
  Al  Al32  1  0.08694864  0.09225035  0.07578930  1
  Al  Al33  1  0.08995097  0.08991297  0.59365409  1
  Al  Al34  1  0.09987638  0.58369800  0.08910768  1
  Al  Al35  1  0.08925837  0.57017589  0.58274360  1
  Al  Al36  1  0.58084838  0.08388659  0.07673382  1
  Al  Al37  1  0.57724904  0.07819772  0.58374335  1
  Al  Al38  1  0.58444412  0.59172465  0.07867945  1
  Al  Al39  1  0.58663950  0.58856279  0.57804477  1
  Al  Al40  1  0.42038572  0.42644960  0.08382251  1
  Al  Al41  1  0.41503986  0.40777149  0.58189162  1
  Al  Al42  1  0.40933850  0.92032656  0.08462273  1
  Al  Al43  1  0.40590820  0.92411872  0.58519749  1
  Al  Al44  1  0.91906410  0.40886204  0.07837861  1
  Al  Al45  1  0.92203383  0.41437031  0.59087556  1
  Al  Al46  1  0.91644047  0.92087201  0.08028199  1
  Al  Al47  1  0.92479528  0.91884969  0.57232804  1
  Al  Al48  1  0.41243665  0.08023432  0.42509823  1
  Al  Al49  1  0.40757788  0.08036332  0.91510870  1
  Al  Al50  1  0.41730247  0.58399080  0.40871161  1
  Al  Al51  1  0.42068573  0.59591182  0.92082184  1
  Al  Al52  1  0.91692123  0.08383251  0.40540240  1
  Al  Al53  1  0.92408207  0.08712390  0.91802555  1
  Al  Al54  1  0.91276968  0.59226095  0.41237214  1
  Al  Al55  1  0.90735795  0.57388857  0.91650922  1
  Al  Al56  1  0.08948997  0.41014629  0.42296632  1
  Al  Al57  1  0.07612075  0.42052369  0.91928216  1
  Al  Al58  1  0.07674702  0.91948593  0.42779168  1
  Al  Al59  1  0.08765576  0.91973896  0.91508159  1
  Al  Al60  1  0.57612904  0.43128036  0.42724719  1
  Al  Al61  1  0.58379702  0.41663616  0.91699309  1
  Al  Al62  1  0.58427241  0.91477243  0.41512216  1
  Al  Al63  1  0.58683644  0.91366425  0.92116629  1
  Al  Al64  1  0.07526201  0.09445877  0.41955203  1
  Al  Al65  1  0.09027086  0.08993999  0.91361762  1
  Al  Al66  1  0.07733147  0.58599796  0.41042754  1
  Al  Al67  1  0.09163498  0.58517203  0.92893587  1
  Al  Al68  1  0.58349985  0.07478754  0.42012410  1
  Al  Al69  1  0.58319601  0.08468029  0.91982027  1
  Al  Al70  1  0.58116399  0.59623288  0.41540348  1
  Al  Al71  1  0.58451353  0.58975784  0.91302913  1
  Al  Al72  1  0.40211191  0.42328546  0.42036305  1
  Al  Al73  1  0.42473193  0.42145947  0.91932795  1
  Al  Al74  1  0.41866500  0.91572997  0.42031091  1
  Al  Al75  1  0.41068418  0.92079507  0.91387187  1
  Al  Al76  1  0.91936699  0.42194882  0.41821284  1
  Al  Al77  1  0.90681957  0.41247585  0.91457056  1
  Al  Al78  1  0.90778808  0.92284764  0.41322093  1
  Al  Al79  1  0.92263470  0.91810153  0.92044365  1
  Al  Al80  1  0.08199441  0.42268892  0.09231659  1
  Al  Al81  1  0.08914620  0.40723157  0.58875808  1
  Al  Al82  1  0.08243316  0.92078734  0.07233738  1
  Al  Al83  1  0.08970406  0.92629159  0.59045634  1
  Al  Al84  1  0.58089988  0.41890694  0.07831205  1
  Al  Al85  1  0.57558565  0.41661741  0.58794507  1
  Al  Al86  1  0.58464389  0.91193495  0.07796991  1
  Al  Al87  1  0.58518857  0.92101624  0.57772977  1
  Al  Al88  1  0.40852767  0.08054905  0.08314154  1
  Al  Al89  1  0.40691350  0.08268381  0.58854701  1
  Al  Al90  1  0.40916777  0.59295104  0.08398012  1
  Al  Al91  1  0.42273843  0.57768284  0.57827882  1
  Al  Al92  1  0.91880463  0.08545401  0.08347076  1
  Al  Al93  1  0.92818107  0.08991808  0.58467150  1
  Al  Al94  1  0.91900379  0.58062875  0.08018228  1
  Al  Al95  1  0.90672281  0.57882835  0.57484478  1
  Al  Al96  1  0.25004430  0.13574423  0.13619984  1
  Al  Al97  1  0.24947617  0.13596227  0.63502877  1
  Al  Al98  1  0.24968779  0.62796387  0.13752415  1
  Al  Al99  1  0.24675111  0.62926060  0.63516867  1
  Al  Al100  1  0.75338886  0.13336158  0.13501572  1
  Al  Al101  1  0.75142072  0.13918275  0.63609912  1
  Al  Al102  1  0.74963743  0.63593426  0.13196146  1
  Al  Al103  1  0.74811433  0.63492253  0.63368821  1
  Al  Al104  1  0.24510339  0.37371862  0.13663864  1
  Al  Al105  1  0.24664875  0.36498925  0.63204535  1
  Al  Al106  1  0.25195651  0.86388455  0.13647635  1
  Al  Al107  1  0.24961134  0.87105864  0.63802136  1
  Al  Al108  1  0.75254806  0.36474595  0.12838937  1
  Al  Al109  1  0.74983089  0.36333873  0.63628810  1
  Al  Al110  1  0.75138010  0.86614190  0.13529083  1
  Al  Al111  1  0.74909622  0.86284435  0.63618568  1
  Al  Al112  1  0.25013764  0.13686998  0.36580956  1
  Al  Al113  1  0.24888202  0.13063694  0.86055750  1
  Al  Al114  1  0.25126538  0.63017753  0.36391989  1
  Al  Al115  1  0.24994859  0.63315669  0.86954205  1
  Al  Al116  1  0.75813642  0.12810643  0.36249934  1
  Al  Al117  1  0.75188682  0.13114989  0.86226971  1
  Al  Al118  1  0.75054410  0.63642702  0.36860109  1
  Al  Al119  1  0.75053741  0.63597449  0.87068493  1
  Al  Al120  1  0.24722162  0.36584696  0.36793891  1
  Al  Al121  1  0.24798951  0.36667680  0.86022762  1
  Al  Al122  1  0.24977662  0.86405801  0.36459940  1
  Al  Al123  1  0.25226848  0.87102960  0.86438108  1
  Al  Al124  1  0.75204947  0.36345446  0.36517678  1
  Al  Al125  1  0.75203578  0.36695650  0.86791446  1
  Al  Al126  1  0.74927717  0.86592261  0.36511806  1
  Al  Al127  1  0.75049412  0.86948264  0.86458373  1
  Al  Al128  1  0.13593080  0.24618979  0.13548830  1
  Al  Al129  1  0.13176197  0.25045645  0.63711467  1
  Al  Al130  1  0.13732331  0.74232838  0.13426493  1
  Al  Al131  1  0.13908400  0.75161406  0.62997718  1
  Al  Al132  1  0.63647421  0.25079351  0.13708990  1
  Al  Al133  1  0.62984644  0.25435836  0.63813081  1
  Al  Al134  1  0.63508397  0.75060460  0.13840838  1
  Al  Al135  1  0.63529695  0.74514084  0.63554585  1
  Al  Al136  1  0.13095963  0.25397187  0.36452474  1
  Al  Al137  1  0.13701861  0.24870575  0.86255410  1
  Al  Al138  1  0.13720460  0.74594985  0.36894426  1
  Al  Al139  1  0.13944373  0.74821434  0.86125334  1
  Al  Al140  1  0.64145361  0.24560346  0.36239203  1
  Al  Al141  1  0.63135909  0.25514528  0.86458257  1
  Al  Al142  1  0.63435697  0.74417263  0.36641978  1
  Al  Al143  1  0.63476138  0.74520223  0.86578031  1
  Al  Al144  1  0.36080897  0.25170456  0.14012217  1
  Al  Al145  1  0.36518280  0.25307015  0.63622265  1
  Al  Al146  1  0.36125104  0.74529975  0.13341934  1
  Al  Al147  1  0.35917789  0.74904570  0.63723274  1
  Al  Al148  1  0.86597336  0.24749791  0.13049235  1
  Al  Al149  1  0.86961808  0.25072602  0.63788947  1
  Al  Al150  1  0.86549371  0.74852175  0.13193968  1
  Al  Al151  1  0.86202554  0.74590756  0.63588683  1
  Al  Al152  1  0.36220197  0.25676976  0.36500989  1
  Al  Al153  1  0.36726777  0.24851644  0.86094333  1
  Al  Al154  1  0.36546552  0.74487734  0.36311968  1
  Al  Al155  1  0.36308358  0.74495267  0.86801523  1
  Al  Al156  1  0.87194388  0.24797722  0.36358685  1
  Al  Al157  1  0.86292256  0.25112640  0.87027857  1
  Al  Al158  1  0.86560180  0.74289763  0.36631587  1
  Al  Al159  1  0.86126846  0.74980946  0.87280791  1
  Al  Al160  1  0.12881779  0.13748579  0.25368063  1
  Al  Al161  1  0.13764715  0.12845338  0.74604796  1
  Al  Al162  1  0.13273284  0.63379654  0.25026645  1
  Al  Al163  1  0.13639254  0.63367310  0.74649131  1
  Al  Al164  1  0.64022857  0.12921408  0.25077586  1
  Al  Al165  1  0.63167288  0.13764237  0.75073943  1
  Al  Al166  1  0.63565997  0.63280723  0.25199244  1
  Al  Al167  1  0.63415228  0.63449403  0.75249219  1
  Al  Al168  1  0.36008138  0.12930791  0.25030742  1
  Al  Al169  1  0.36227615  0.13006710  0.74874369  1
  Al  Al170  1  0.36304000  0.62832967  0.25041201  1
  Al  Al171  1  0.36313640  0.63344201  0.75230543  1
  Al  Al172  1  0.87440221  0.13609955  0.25048528  1
  Al  Al173  1  0.86623555  0.13620253  0.74948021  1
  Al  Al174  1  0.86839638  0.63689904  0.24847424  1
  Al  Al175  1  0.86480263  0.63488524  0.75380497  1
  Al  Al176  1  0.13367183  0.36622000  0.24990576  1
  Al  Al177  1  0.13080479  0.36699252  0.74251161  1
  Al  Al178  1  0.13573074  0.86296535  0.25086222  1
  Al  Al179  1  0.13856835  0.87148081  0.75078745  1
  Al  Al180  1  0.63892623  0.36675732  0.24974911  1
  Al  Al181  1  0.63118610  0.36845808  0.75108870  1
  Al  Al182  1  0.63578184  0.86780922  0.25307777  1
  Al  Al183  1  0.63599191  0.86359754  0.75444213  1
  Al  Al184  1  0.35833241  0.37409223  0.25073535  1
  Al  Al185  1  0.36841754  0.36528094  0.74811387  1
  Al  Al186  1  0.36479930  0.86650835  0.25058590  1
  Al  Al187  1  0.36431249  0.86714399  0.75219047  1
  Al  Al188  1  0.86493774  0.36325511  0.24986877  1
  Al  Al189  1  0.86493621  0.36423474  0.75035617  1
  Al  Al190  1  0.86524355  0.86412929  0.25520979  1
  Al  Al191  1  0.86503347  0.86293594  0.75185988  1
  Al  Al192  1  -0.00119286  0.32332679  0.81784458  1
  Al  Al193  1  0.17581228  0.00190123  0.33007235  1
  Al  Al194  1  0.82795606  0.32435601  0.50123385  1
  Al  Al195  1  0.17227273  0.18627793  0.49995203  1
  Al  Al196  1  0.00007883  0.31822382  0.18337692  1
  Al  Al197  1  0.32589948  0.49709703  0.67422200  1
  Al  Al198  1  0.49822956  0.82954730  0.67018507  1
  Al  Al199  1  0.49812619  0.17314446  0.17058433  1
  Al  Al200  1  0.00238024  0.82574592  0.82585129  1
  Al  Al201  1  0.81937760  0.49962271  0.68620308  1
  Al  Al202  1  0.32693831  0.32760755  0.00082424  1
  Al  Al203  1  0.00106237  0.67200148  0.83307755  1
  Al  Al204  1  0.00197928  0.81778701  0.17290562  1
  Al  Al205  1  0.67144181  0.32847767  0.49983748  1
  Al  Al206  1  0.67545594  0.50338617  0.17426967  1
  Al  Al207  1  0.17126852  0.31627799  0.00192578  1
  Al  Al208  1  0.49698766  0.17408052  0.68037131  1
  Al  Al209  1  0.67376901  0.81132488  0.50051060  1
  Al  Al210  1  0.68171133  0.80995968  0.00013748  1
  Al  Al211  1  0.32298210  0.67046177  0.49993461  1
  Al  Al212  1  0.83198840  -0.00115675  0.67363085  1
  Al  Al213  1  0.17666876  0.49973167  0.81543564  1
  Al  Al214  1  0.00267786  0.17400403  0.81294358  1
  Al  Al215  1  0.18202287  0.49919891  0.31736832  1
  Al  Al216  1  0.67434772  0.00043537  0.67940565  1
  Al  Al217  1  0.32394586  0.18505800  0.50078247  1
  Al  Al218  1  0.31257586  0.17318130  -0.00156777  1
  Al  Al219  1  0.49883014  0.33442980  0.32955066  1
  Al  Al220  1  0.00097047  0.82622534  0.67217427  1
  Al  Al221  1  0.17102582  0.81231887  -0.00139396  1
  Al  Al222  1  0.68382039  0.18172804  -0.00128293  1
  Al  Al223  1  0.49880744  0.67998036  0.18493345  1
  Al  Al224  1  0.49860754  0.32715100  0.17484109  1
  Al  Al225  1  0.82169429  0.50141677  0.31978429  1
  Al  Al226  1  0.49822587  0.67352454  0.68159367  1
  Al  Al227  1  0.49911066  0.17027405  0.32765930  1
  Al  Al228  1  0.68072015  0.17208587  0.50001343  1
  Al  Al229  1  0.00017338  0.67001166  0.66684391  1
  Al  Al230  1  0.18210935  0.00077947  0.16839814  1
  Al  Al231  1  0.00010275  0.81420877  0.32984614  1
  Al  Al232  1  0.32298271  0.81783397  -0.00008270  1
  Al  Al233  1  0.82116086  -0.00001380  0.18744635  1
  Al  Al234  1  0.49967359  0.81271290  0.31902086  1
  Al  Al235  1  0.82930859  0.81560806  0.49955265  1
  Al  Al236  1  0.49891455  0.81064607  0.82920392  1
  Al  Al237  1  0.32112685  0.82488482  0.50024161  1
  Al  Al238  1  0.68410139  0.50326175  0.82344202  1
  Au  Au239  1  0.66096559  0.00021891  0.16754311  1
  Au  Au240  1  -0.00297897  0.82791517  0.33985638  1
  Au  Au241  1  0.32522718  0.83046808  -0.00125055  1
  Au  Au242  1  0.49455515  0.82511651  0.65398143  1
  Au  Au243  1  0.49728296  0.82612385  0.15897848  1
  Au  Au244  1  0.00332002  0.65715619  0.17388052  1
  Au  Au245  1  0.00406479  0.83227415  0.16296005  1
  Au  Au246  1  0.15935641  0.32822034  0.00437757  1
  Au  Au247  1  0.67254785  0.50063748  0.65972602  1
  Au  Au248  1  0.67098697  0.32838358  0.00112165  1
  Au  Au249  1  0.00352308  0.17046648  0.17147294  1
  Au  Au250  1  0.66409514  0.17382138  0.50387618  1
  Au  Au251  1  0.17811005  0.00108104  0.15229005  1
  Au  Au252  1  0.49854243  0.15445786  0.32214236  1
  Au  Au253  1  0.34341191  0.32192823  0.00246549  1
  Au  Au254  1  -0.00263061  0.66939130  0.65144226  1
  Au  Au255  1  0.66120975  0.00100286  0.82795262  1
  Au  Au256  1  0.83458811  0.00103865  0.83714747  1
  Au  Au257  1  0.49919513  0.82491650  0.83820447  1
  Au  Au258  1  0.17268456  0.66019661  0.49831131  1
  Au  Au259  1  0.67990396  0.82758266  0.50100434  1
  Au  Au260  1  0.67900684  -0.00161761  0.33464661  1
  Au  Au261  1  0.83597357  0.00008098  0.17918778  1
  Au  Au262  1  0.17488968  0.00118619  0.82743233  1
  Au  Au263  1  0.16113797  0.00360802  0.33687155  1
  Au  Au264  1  0.67921511  0.49800668  0.83404602  1
  Au  Au265  1  0.49961386  0.33738205  0.82144358  1
  Au  Au266  1  0.16877954  0.49812794  0.32769221  1
  Au  Au267  1  0.82715038  0.83298922  -0.00087715  1
  Au  Au268  1  0.67391895  0.50440845  0.34369308  1
  Au  Au269  1  0.82719165  -0.00048047  0.65734825  1
  Au  Au270  1  0.83254896  0.17460473  -0.00164318  1
  Au  Au271  1  0.82000937  0.66308208  0.00182179  1
  Au  Au272  1  0.84731070  0.17535263  0.49632792  1
  Au  Au273  1  0.33892745  0.50658741  0.83699332  1
  Au  Au274  1  0.83950992  0.49438005  0.17075358  1
  Au  Au275  1  0.49394503  0.34978354  0.32763050  1
  Au  Au276  1  0.49863564  0.17670316  0.66799175  1
  Au  Au277  1  -0.00305765  0.67116697  0.84821328  1
  Au  Au278  1  0.49592644  0.16884905  0.83631254  1
  Au  Au279  1  0.33616508  -0.00280795  0.32774472  1
  Au  Au280  1  0.66501907  0.49855707  0.16927084  1
  Au  Au281  1  0.32780720  0.50152842  0.17048417  1
  Au  Au282  1  -0.00073590  0.32745089  0.33467222  1
  Au  Au283  1  0.32272821  0.49689619  0.66160747  1
  Au  Au284  1  0.17327225  0.83657768  0.50526534  1
  Au  Au285  1  0.16479933  0.50164374  0.82790838  1
  Au  Au286  1  0.49950099  0.82051505  0.33400585  1
  Au  Au287  1  -0.00188158  0.33180888  0.82939256  1
