# generated using pymatgen
data_Ca24Ti8Al207Au49
_symmetry_space_group_name_H-M   'P 1'
_cell_length_a   17.32180986
_cell_length_b   17.32134497
_cell_length_c   17.32213417
_cell_angle_alpha   90.00160836
_cell_angle_beta   89.99849364
_cell_angle_gamma   89.99411816
_symmetry_Int_Tables_number   1
_chemical_formula_structural   Ca24Ti8Al207Au49
_chemical_formula_sum   'Ca24 Ti8 Al207 Au49'
_cell_volume   5197.28190600
_cell_formula_units_Z   1
loop_
 _symmetry_equiv_pos_site_id
 _symmetry_equiv_pos_as_xyz
  1  'x, y, z'
loop_
 _atom_site_type_symbol
 _atom_site_label
 _atom_site_symmetry_multiplicity
 _atom_site_fract_x
 _atom_site_fract_y
 _atom_site_fract_z
 _atom_site_occupancy
  Ca  Ca0  1  0.24700731  0.00253739  0.00421496  1
  Ca  Ca1  1  0.24434056  0.00445681  0.49857883  1
  Ca  Ca2  1  0.24867627  0.49721218  0.00207704  1
  Ca  Ca3  1  0.24559685  0.49569590  0.49907865  1
  Ca  Ca4  1  0.75060050  -0.00145324  -0.00045989  1
  Ca  Ca5  1  0.75272200  0.00043546  0.50161576  1
  Ca  Ca6  1  0.74826520  0.49953142  0.00068347  1
  Ca  Ca7  1  0.74893599  0.50134048  0.49622576  1
  Ca  Ca8  1  0.00452874  0.24684815  0.00090590  1
  Ca  Ca9  1  0.00139734  0.25043847  0.50030596  1
  Ca  Ca10  1  -0.00011816  0.74564839  0.00102988  1
  Ca  Ca11  1  0.00102882  0.75036503  0.50025354  1
  Ca  Ca12  1  0.49835390  0.24847824  0.00459794  1
  Ca  Ca13  1  0.50003163  0.25163920  0.49542469  1
  Ca  Ca14  1  0.50028133  0.74670434  0.00072942  1
  Ca  Ca15  1  0.49977381  0.74071378  0.49997956  1
  Ca  Ca16  1  0.00431914  0.00651149  0.24862263  1
  Ca  Ca17  1  0.00193030  0.00154127  0.74449401  1
  Ca  Ca18  1  -0.00037990  0.49776163  0.25071239  1
  Ca  Ca19  1  -0.00661264  0.49979796  0.74655883  1
  Ca  Ca20  1  0.49464688  0.00026621  0.24896673  1
  Ca  Ca21  1  0.49689267  -0.00018501  0.75037860  1
  Ca  Ca22  1  0.50116538  0.50286647  0.25362705  1
  Ca  Ca23  1  0.50571470  0.49832383  0.75044927  1
  Ti  Ti24  1  0.24971053  0.24978775  0.25046904  1
  Ti  Ti25  1  0.24729025  0.24923491  0.74850484  1
  Ti  Ti26  1  0.24936768  0.75122541  0.24955762  1
  Ti  Ti27  1  0.24778586  0.75133230  0.75109042  1
  Ti  Ti28  1  0.75024093  0.25105947  0.25037676  1
  Ti  Ti29  1  0.75076067  0.24957525  0.74905333  1
  Ti  Ti30  1  0.75040851  0.74823391  0.24897579  1
  Ti  Ti31  1  0.75110121  0.75051969  0.75175806  1
  Al  Al32  1  0.08852171  0.09478849  0.08994880  1
  Al  Al33  1  0.08651122  0.08297860  0.58562780  1
  Al  Al34  1  0.08230104  0.58074146  0.08008372  1
  Al  Al35  1  0.08649089  0.58699219  0.57568802  1
  Al  Al36  1  0.57477971  0.08422733  0.08027085  1
  Al  Al37  1  0.58319714  0.08325898  0.57817488  1
  Al  Al38  1  0.58420488  0.58711303  0.09543376  1
  Al  Al39  1  0.58964305  0.57381963  0.57815660  1
  Al  Al40  1  0.42035028  0.41679594  0.08343477  1
  Al  Al41  1  0.40586042  0.41269949  0.57296756  1
  Al  Al42  1  0.40985400  0.92327458  0.09007571  1
  Al  Al43  1  0.41435862  0.92814730  0.57859228  1
  Al  Al44  1  0.92145063  0.42157105  0.08760219  1
  Al  Al45  1  0.91328287  0.42053290  0.58929159  1
  Al  Al46  1  0.92348135  0.91885017  0.08065256  1
  Al  Al47  1  0.92897130  0.91354809  0.58654422  1
  Al  Al48  1  0.41422120  0.09128613  0.41000991  1
  Al  Al49  1  0.41380332  0.08250860  0.93097674  1
  Al  Al50  1  0.42305035  0.58916666  0.41012908  1
  Al  Al51  1  0.42178931  0.58032938  0.92532151  1
  Al  Al52  1  0.92946096  0.09433046  0.41865712  1
  Al  Al53  1  0.91786212  0.08010968  0.92277716  1
  Al  Al54  1  0.91150366  0.57980233  0.41799432  1
  Al  Al55  1  0.89815725  0.58335955  0.91826728  1
  Al  Al56  1  0.09068819  0.41530497  0.41458668  1
  Al  Al57  1  0.08285056  0.40924208  0.92104287  1
  Al  Al58  1  0.09196417  0.92485897  0.41666214  1
  Al  Al59  1  0.08152934  0.92060860  0.91755070  1
  Al  Al60  1  0.59444964  0.41652479  0.41143079  1
  Al  Al61  1  0.58640091  0.42238814  0.91141611  1
  Al  Al62  1  0.57809613  0.91334003  0.42487984  1
  Al  Al63  1  0.59023253  0.92118669  0.91107879  1
  Al  Al64  1  0.08860285  0.08748508  0.40735733  1
  Al  Al65  1  0.08992831  0.08632899  0.92494077  1
  Al  Al66  1  0.09075445  0.57969445  0.41575595  1
  Al  Al67  1  0.08364576  0.58032356  0.92271696  1
  Al  Al68  1  0.57421086  0.09724702  0.41383996  1
  Al  Al69  1  0.59165291  0.07682102  0.91251257  1
  Al  Al70  1  0.58793871  0.58090514  0.40156567  1
  Al  Al71  1  0.59431887  0.57810526  0.91432215  1
  Al  Al72  1  0.41606570  0.41065644  0.41700333  1
  Al  Al73  1  0.42303972  0.41793239  0.92445208  1
  Al  Al74  1  0.41635912  0.92349837  0.41477281  1
  Al  Al75  1  0.42160880  0.92258964  0.92534126  1
  Al  Al76  1  0.91431950  0.42232304  0.41311981  1
  Al  Al77  1  0.91841767  0.42566553  0.90834908  1
  Al  Al78  1  0.93034831  0.92206851  0.42521642  1
  Al  Al79  1  0.91732453  0.91868137  0.91609061  1
  Al  Al80  1  0.08601337  0.41015619  0.08135795  1
  Al  Al81  1  0.08921247  0.40937572  0.57707282  1
  Al  Al82  1  0.08293017  0.92251847  0.08680558  1
  Al  Al83  1  0.08836592  0.91901114  0.58723390  1
  Al  Al84  1  0.58171472  0.42493476  0.08861138  1
  Al  Al85  1  0.59817065  0.41472524  0.57429770  1
  Al  Al86  1  0.57451159  0.91943053  0.07618004  1
  Al  Al87  1  0.58930091  0.92054839  0.57813861  1
  Al  Al88  1  0.40627066  0.08536063  0.09022390  1
  Al  Al89  1  0.41097165  0.08550369  0.57873317  1
  Al  Al90  1  0.42294247  0.59040717  0.09100644  1
  Al  Al91  1  0.41412047  0.57357639  0.56790050  1
  Al  Al92  1  0.92603487  0.09217952  0.08607769  1
  Al  Al93  1  0.92598041  0.08856819  0.58175769  1
  Al  Al94  1  0.90814545  0.58557747  0.07998665  1
  Al  Al95  1  0.91160844  0.57954452  0.58397560  1
  Al  Al96  1  0.24766377  0.12962151  0.13902978  1
  Al  Al97  1  0.24549843  0.13611517  0.63155559  1
  Al  Al98  1  0.25114049  0.62907599  0.13818378  1
  Al  Al99  1  0.24535104  0.63617382  0.63571435  1
  Al  Al100  1  0.74975448  0.13178583  0.13992854  1
  Al  Al101  1  0.74885933  0.13385575  0.63396984  1
  Al  Al102  1  0.75132152  0.63346094  0.13109301  1
  Al  Al103  1  0.75095757  0.63417476  0.63630482  1
  Al  Al104  1  0.24690558  0.36802829  0.13793343  1
  Al  Al105  1  0.24629065  0.36254504  0.62931561  1
  Al  Al106  1  0.25053221  0.86989862  0.13294566  1
  Al  Al107  1  0.24497125  0.86736538  0.63580404  1
  Al  Al108  1  0.74990321  0.36497266  0.13668742  1
  Al  Al109  1  0.75029637  0.36449584  0.63458264  1
  Al  Al110  1  0.74922111  0.86754312  0.13456414  1
  Al  Al111  1  0.74873130  0.86794951  0.63687939  1
  Al  Al112  1  0.24906389  0.12846777  0.36342018  1
  Al  Al113  1  0.24509598  0.13658430  0.86428249  1
  Al  Al114  1  0.24607265  0.63178573  0.36329894  1
  Al  Al115  1  0.24971835  0.63613546  0.86754157  1
  Al  Al116  1  0.74694273  0.13604193  0.36494737  1
  Al  Al117  1  0.74971118  0.13079277  0.86311618  1
  Al  Al118  1  0.74642657  0.62862794  0.36162695  1
  Al  Al119  1  0.75036136  0.63643272  0.87184369  1
  Al  Al120  1  0.24948402  0.36420706  0.36733981  1
  Al  Al121  1  0.24504428  0.36501660  0.86620856  1
  Al  Al122  1  0.25188944  0.87310672  0.36252067  1
  Al  Al123  1  0.24816396  0.86314975  0.87030894  1
  Al  Al124  1  0.74845190  0.36702689  0.36432638  1
  Al  Al125  1  0.74771773  0.36765042  0.86662655  1
  Al  Al126  1  0.74710524  0.86595353  0.36362152  1
  Al  Al127  1  0.75224573  0.86899108  0.86659135  1
  Al  Al128  1  0.13184588  0.24535523  0.14015014  1
  Al  Al129  1  0.12850124  0.25269146  0.63384789  1
  Al  Al130  1  0.13744087  0.75294017  0.13939196  1
  Al  Al131  1  0.13147201  0.75040006  0.63651059  1
  Al  Al132  1  0.63692183  0.24982703  0.13263936  1
  Al  Al133  1  0.63839297  0.25074360  0.63037459  1
  Al  Al134  1  0.63642237  0.74506037  0.13077441  1
  Al  Al135  1  0.63503755  0.74688891  0.63974538  1
  Al  Al136  1  0.13606072  0.24847660  0.36252960  1
  Al  Al137  1  0.13367234  0.24582461  0.86404467  1
  Al  Al138  1  0.13505680  0.74963432  0.36169714  1
  Al  Al139  1  0.13184014  0.75422428  0.86501116  1
  Al  Al140  1  0.63404968  0.25319224  0.36916462  1
  Al  Al141  1  0.64113923  0.25093090  0.87222202  1
  Al  Al142  1  0.63396927  0.74400006  0.36215425  1
  Al  Al143  1  0.63561379  0.74956259  0.86990885  1
  Al  Al144  1  0.36213608  0.24949766  0.13786936  1
  Al  Al145  1  0.36109528  0.25236975  0.63128868  1
  Al  Al146  1  0.36037481  0.74896656  0.13115666  1
  Al  Al147  1  0.36181441  0.74786927  0.63690971  1
  Al  Al148  1  0.86947374  0.25088461  0.13840537  1
  Al  Al149  1  0.87179507  0.24957453  0.63665952  1
  Al  Al150  1  0.86397404  0.74705457  0.13676929  1
  Al  Al151  1  0.86732451  0.75366522  0.63789880  1
  Al  Al152  1  0.36778449  0.25030112  0.36057402  1
  Al  Al153  1  0.36091751  0.25033731  0.86598444  1
  Al  Al154  1  0.36269724  0.74568111  0.35932606  1
  Al  Al155  1  0.36731223  0.75189455  0.86885414  1
  Al  Al156  1  0.86683512  0.24916141  0.36326035  1
  Al  Al157  1  0.86175324  0.24827388  0.86046035  1
  Al  Al158  1  0.86514205  0.74720506  0.36195042  1
  Al  Al159  1  0.86526655  0.74715845  0.86517137  1
  Al  Al160  1  0.13476437  0.13052023  0.25210391  1
  Al  Al161  1  0.13126298  0.13412760  0.74002413  1
  Al  Al162  1  0.13720468  0.62771339  0.25070941  1
  Al  Al163  1  0.13292079  0.63638925  0.75358308  1
  Al  Al164  1  0.63351400  0.13737254  0.25223118  1
  Al  Al165  1  0.63599720  0.13842342  0.75180110  1
  Al  Al166  1  0.63282630  0.63476529  0.24876193  1
  Al  Al167  1  0.63768312  0.63270438  0.75778614  1
  Al  Al168  1  0.36171049  0.13054346  0.25149833  1
  Al  Al169  1  0.36011385  0.13801483  0.74763934  1
  Al  Al170  1  0.36749617  0.63447765  0.24936897  1
  Al  Al171  1  0.36354595  0.63819539  0.75417574  1
  Al  Al172  1  0.86817051  0.13607482  0.24854118  1
  Al  Al173  1  0.86369201  0.12960821  0.74683001  1
  Al  Al174  1  0.86076094  0.62680319  0.25175923  1
  Al  Al175  1  0.86620798  0.63529301  0.74788156  1
  Al  Al176  1  0.13541917  0.36947897  0.25228219  1
  Al  Al177  1  0.13535219  0.36343272  0.74883304  1
  Al  Al178  1  0.13916543  0.87359329  0.25101394  1
  Al  Al179  1  0.13272679  0.86798408  0.74430508  1
  Al  Al180  1  0.63490536  0.36658625  0.25643358  1
  Al  Al181  1  0.63773720  0.36403802  0.75265215  1
  Al  Al182  1  0.63409246  0.86355497  0.24502909  1
  Al  Al183  1  0.63466413  0.86536953  0.75730216  1
  Al  Al184  1  0.36427944  0.36731328  0.25378411  1
  Al  Al185  1  0.36072228  0.36074714  0.74831152  1
  Al  Al186  1  0.36339450  0.87117288  0.24818077  1
  Al  Al187  1  0.36246666  0.86388564  0.75021442  1
  Al  Al188  1  0.86584220  0.36953042  0.25290733  1
  Al  Al189  1  0.86308081  0.36570946  0.74635973  1
  Al  Al190  1  0.86265197  0.86717954  0.24969635  1
  Al  Al191  1  0.86311500  0.87125964  0.75002460  1
  Al  Al192  1  0.17158212  0.18350684  0.49894544  1
  Al  Al193  1  0.49724012  0.17307070  0.18307776  1
  Al  Al194  1  0.32397073  0.49984263  0.67018311  1
  Al  Al195  1  0.81752970  0.67603630  0.49976789  1
  Al  Al196  1  0.66591975  -0.00122404  0.32387667  1
  Al  Al197  1  0.32838233  0.82019431  0.49807208  1
  Al  Al198  1  0.83282377  0.00378865  0.32580166  1
  Al  Al199  1  0.32423323  0.50031676  0.32522176  1
  Al  Al200  1  0.49875435  0.81381765  0.32572744  1
  Al  Al201  1  0.49815379  0.81041687  0.17318728  1
  Al  Al202  1  0.68186126  0.49996814  0.18912176  1
  Al  Al203  1  0.00126408  0.31970234  0.32739229  1
  Al  Al204  1  0.50036284  0.32614754  0.82571679  1
  Al  Al205  1  0.00039106  0.67502341  0.32922105  1
  Al  Al206  1  0.49887063  0.17430532  0.67225998  1
  Al  Al207  1  0.83145904  0.82908765  0.50016584  1
  Al  Al208  1  0.68843430  0.50010083  0.69153617  1
  Al  Al209  1  0.31266708  0.67086948  0.49813746  1
  Al  Al210  1  0.49795068  0.66392322  0.67632559  1
  Al  Al211  1  0.67858834  0.00191524  0.68625235  1
  Al  Al212  1  0.00026639  0.82560576  0.18093150  1
  Al  Al213  1  -0.00050397  0.67241069  0.17182542  1
  Al  Al214  1  0.82047424  0.17611082  0.50065773  1
  Al  Al215  1  -0.00134277  0.82193542  0.81185973  1
  Al  Al216  1  0.17062167  0.50023364  0.67550450  1
  Al  Al217  1  0.80781387  0.50092918  0.80908270  1
  Al  Al218  1  0.32362184  0.18611115  0.49605262  1
  Al  Al219  1  0.82375277  0.81530607  0.00189857  1
  Al  Al220  1  0.82620838  0.32989635  -0.00072756  1
  Al  Al221  1  0.50134960  0.33079802  0.67251739  1
  Al  Al222  1  0.50133488  0.32532325  0.18302238  1
  Al  Al223  1  0.17047084  0.81587799  0.49917045  1
  Al  Al224  1  0.18323200  0.30731402  0.00232820  1
  Al  Al225  1  0.32419396  0.49800667  0.82804266  1
  Al  Al226  1  0.18029449  0.67943015  0.00284033  1
  Al  Al227  1  0.49991039  0.17600301  0.83136484  1
  Al  Al228  1  -0.00179216  0.32408266  0.81724043  1
  Al  Al229  1  0.82152505  0.17484422  0.00178788  1
  Al  Al230  1  -0.00073554  0.16592544  0.81795371  1
  Al  Al231  1  0.32896833  0.00095172  0.82804314  1
  Al  Al232  1  0.67871131  0.81608829  0.50073006  1
  Al  Al233  1  0.31302919  0.00214884  0.67495087  1
  Al  Al234  1  -0.00030719  0.67285032  0.67563289  1
  Al  Al235  1  0.81307480  0.32955673  0.49845559  1
  Al  Al236  1  0.17260575  0.00189561  0.81212851  1
  Al  Al237  1  0.30787747  0.18022006  0.00227467  1
  Al  Al238  1  0.49937652  0.83026561  0.67599109  1
  Au  Au239  1  0.49823362  0.83494280  0.83681894  1
  Au  Au240  1  0.00684095  0.83994591  0.32784292  1
  Au  Au241  1  0.82921042  0.33407103  0.49954659  1
  Au  Au242  1  0.68593220  0.49767588  0.67454273  1
  Au  Au243  1  -0.00488088  0.66236369  0.83966325  1
  Au  Au244  1  0.49879556  0.83704308  0.66066777  1
  Au  Au245  1  0.49535110  0.65597059  0.66170635  1
  Au  Au246  1  0.49920291  0.81808252  0.34233497  1
  Au  Au247  1  0.50284614  0.32633231  0.33272243  1
  Au  Au248  1  0.33573459  0.50027146  0.16988377  1
  Au  Au249  1  0.66773691  0.17552751  0.49890882  1
  Au  Au250  1  0.15883978  0.82657635  0.00351309  1
  Au  Au251  1  0.32912693  0.66572901  0.00307845  1
  Au  Au252  1  0.65892555  0.33442686  0.00298136  1
  Au  Au253  1  0.66766779  0.66819748  0.49442051  1
  Au  Au254  1  0.17802707  0.00201643  0.82842500  1
  Au  Au255  1  0.82917939  0.50024010  0.17570989  1
  Au  Au256  1  0.84185679  0.00455366  0.33904290  1
  Au  Au257  1  0.34012329  0.49746933  0.82209986  1
  Au  Au258  1  0.32656236  0.83971808  0.00069763  1
  Au  Au259  1  0.33166984  0.32617266  0.00180687  1
  Au  Au260  1  0.66372379  0.00213324  0.67809256  1
  Au  Au261  1  0.32969131  0.00215311  0.32558033  1
  Au  Au262  1  -0.00077230  0.17237151  0.83389332  1
  Au  Au263  1  0.49674991  0.82631677  0.16610008  1
  Au  Au264  1  0.65272639  0.00019675  0.33310548  1
  Au  Au265  1  0.00018043  0.66242502  0.32648724  1
  Au  Au266  1  0.84192139  0.32899518  -0.00576336  1
  Au  Au267  1  0.67467520  0.66068823  0.00289449  1
  Au  Au268  1  0.49419358  0.16008602  0.82974793  1
  Au  Au269  1  0.50458455  0.66641018  0.83879942  1
  Au  Au270  1  0.50121272  0.33245507  0.65579721  1
  Au  Au271  1  0.00080185  0.33073594  0.66696994  1
  Au  Au272  1  0.32111217  0.49860091  0.33744130  1
  Au  Au273  1  0.66608153  0.83074701  -0.00091838  1
  Au  Au274  1  -0.00185325  0.67559369  0.66303562  1
  Au  Au275  1  0.83930788  0.82205524  0.00192668  1
  Au  Au276  1  0.67322125  0.16157535  0.00114268  1
  Au  Au277  1  0.83619446  0.00328315  0.16133434  1
  Au  Au278  1  0.82316743  0.00177613  0.83722059  1
  Au  Au279  1  0.17146551  0.00215866  0.17281722  1
  Au  Au280  1  0.84276340  0.00102622  0.66646269  1
  Au  Au281  1  0.31982377  0.83440020  0.50175126  1
  Au  Au282  1  -0.00015389  0.33191523  0.32519911  1
  Au  Au283  1  0.00194082  0.31983688  0.16546271  1
  Au  Au284  1  0.15600167  0.49728151  0.82597032  1
  Au  Au285  1  -0.00071637  0.83686974  0.82032248  1
  Au  Au286  1  0.66596432  0.00000922  0.16081411  1
  Au  Au287  1  0.16125517  0.49868806  0.17295960  1
