# generated using pymatgen
data_Ca24Ti8Al207Au49
_symmetry_space_group_name_H-M   'P 1'
_cell_length_a   17.32077565
_cell_length_b   17.32066974
_cell_length_c   17.31997415
_cell_angle_alpha   90.00032699
_cell_angle_beta   89.99579264
_cell_angle_gamma   90.00003566
_symmetry_Int_Tables_number   1
_chemical_formula_structural   Ca24Ti8Al207Au49
_chemical_formula_sum   'Ca24 Ti8 Al207 Au49'
_cell_volume   5196.12099979
_cell_formula_units_Z   1
loop_
 _symmetry_equiv_pos_site_id
 _symmetry_equiv_pos_as_xyz
  1  'x, y, z'
loop_
 _atom_site_type_symbol
 _atom_site_label
 _atom_site_symmetry_multiplicity
 _atom_site_fract_x
 _atom_site_fract_y
 _atom_site_fract_z
 _atom_site_occupancy
  Ca  Ca0  1  0.24873029  -0.00371592  -0.00365945  1
  Ca  Ca1  1  0.24800058  -0.00265234  0.50254425  1
  Ca  Ca2  1  0.25450273  0.50183033  -0.00136182  1
  Ca  Ca3  1  0.25090223  0.50536041  0.50078436  1
  Ca  Ca4  1  0.75410676  -0.00310432  0.00225710  1
  Ca  Ca5  1  0.74836281  0.00013858  0.50156436  1
  Ca  Ca6  1  0.75252926  0.50424237  -0.00446509  1
  Ca  Ca7  1  0.74893226  0.50271751  0.50082401  1
  Ca  Ca8  1  0.00675618  0.24558514  -0.00516614  1
  Ca  Ca9  1  0.00032525  0.25280568  0.50434036  1
  Ca  Ca10  1  0.00164056  0.75265075  -0.00311003  1
  Ca  Ca11  1  0.00401776  0.74762639  0.49916778  1
  Ca  Ca12  1  0.49460120  0.25261634  -0.00726501  1
  Ca  Ca13  1  0.49908933  0.25435042  0.50510999  1
  Ca  Ca14  1  0.50053816  0.74706728  -0.00203423  1
  Ca  Ca15  1  0.49271690  0.74849830  0.50256571  1
  Ca  Ca16  1  0.00154355  -0.00220141  0.25027182  1
  Ca  Ca17  1  0.00225773  -0.00476773  0.75550176  1
  Ca  Ca18  1  0.00384597  0.50252182  0.25321317  1
  Ca  Ca19  1  0.00364864  0.50456342  0.75011373  1
  Ca  Ca20  1  0.49957952  -0.00786880  0.24882356  1
  Ca  Ca21  1  0.49548888  -0.00145026  0.75412403  1
  Ca  Ca22  1  0.49725046  0.50596197  0.25182549  1
  Ca  Ca23  1  0.49131799  0.50163612  0.74753911  1
  Ti  Ti24  1  0.25070273  0.24920555  0.24947958  1
  Ti  Ti25  1  0.24996972  0.25013320  0.75114577  1
  Ti  Ti26  1  0.24905813  0.75107381  0.25067354  1
  Ti  Ti27  1  0.24862216  0.74968665  0.75031191  1
  Ti  Ti28  1  0.75045993  0.24972338  0.24973652  1
  Ti  Ti29  1  0.75096499  0.25162673  0.75085737  1
  Ti  Ti30  1  0.75067234  0.74779123  0.25138748  1
  Ti  Ti31  1  0.75244378  0.74846847  0.74866545  1
  Al  Al32  1  0.07900152  0.07495689  0.07120321  1
  Al  Al33  1  0.08231450  0.08060473  0.58578848  1
  Al  Al34  1  0.07832831  0.58506625  0.07833740  1
  Al  Al35  1  0.09309076  0.59050818  0.58134473  1
  Al  Al36  1  0.57682052  0.07302909  0.08685912  1
  Al  Al37  1  0.58048358  0.07766392  0.58150931  1
  Al  Al38  1  0.57859965  0.59582247  0.08356860  1
  Al  Al39  1  0.56969786  0.58385618  0.58516577  1
  Al  Al40  1  0.40798948  0.42142735  0.06772325  1
  Al  Al41  1  0.39821531  0.42084009  0.59199656  1
  Al  Al42  1  0.41140471  0.90528608  0.07664188  1
  Al  Al43  1  0.41041940  0.89960929  0.58638141  1
  Al  Al44  1  0.93062524  0.42771701  0.07373521  1
  Al  Al45  1  0.92352218  0.42436161  0.58725519  1
  Al  Al46  1  0.91355341  0.91710962  0.08660168  1
  Al  Al47  1  0.92726624  0.90929075  0.58975125  1
  Al  Al48  1  0.41492544  0.07242854  0.42224247  1
  Al  Al49  1  0.40784972  0.07941745  0.90943825  1
  Al  Al50  1  0.40974432  0.59840559  0.41618667  1
  Al  Al51  1  0.41328867  0.57416999  0.91658665  1
  Al  Al52  1  0.92323343  0.07359876  0.41773679  1
  Al  Al53  1  0.93182151  0.08457247  0.91177862  1
  Al  Al54  1  0.93140500  0.59167268  0.41120977  1
  Al  Al55  1  0.91440607  0.59781800  0.91282258  1
  Al  Al56  1  0.09462295  0.41857767  0.42523385  1
  Al  Al57  1  0.08418666  0.41055124  0.91105895  1
  Al  Al58  1  0.08784127  0.90945035  0.40774977  1
  Al  Al59  1  0.09396477  0.90975670  0.90842893  1
  Al  Al60  1  0.58206911  0.42884247  0.42861603  1
  Al  Al61  1  0.57282235  0.41948599  0.89750035  1
  Al  Al62  1  0.57261479  0.91578069  0.41827886  1
  Al  Al63  1  0.57877749  0.91963939  0.91658176  1
  Al  Al64  1  0.08747253  0.07154888  0.41040333  1
  Al  Al65  1  0.09248004  0.08176482  0.90542011  1
  Al  Al66  1  0.09255784  0.59500848  0.41718155  1
  Al  Al67  1  0.07760123  0.59126916  0.91049727  1
  Al  Al68  1  0.58237520  0.07468288  0.42388377  1
  Al  Al69  1  0.57394816  0.07626059  0.91237994  1
  Al  Al70  1  0.57206651  0.59213538  0.41119503  1
  Al  Al71  1  0.58780896  0.57924386  0.91557340  1
  Al  Al72  1  0.40432564  0.42128954  0.42984410  1
  Al  Al73  1  0.40947486  0.41052873  0.90419770  1
  Al  Al74  1  0.40816963  0.90511330  0.42302252  1
  Al  Al75  1  0.40209009  0.91290673  0.91323812  1
  Al  Al76  1  0.92678956  0.42745462  0.42460769  1
  Al  Al77  1  0.92609193  0.41714800  0.90495501  1
  Al  Al78  1  0.92542948  0.91176100  0.41009900  1
  Al  Al79  1  0.92780071  0.90829809  0.91299609  1
  Al  Al80  1  0.08616262  0.41800480  0.07599413  1
  Al  Al81  1  0.09626618  0.41429873  0.58447733  1
  Al  Al82  1  0.08795017  0.90666086  0.07308383  1
  Al  Al83  1  0.08395738  0.90764124  0.58806630  1
  Al  Al84  1  0.57053350  0.43460851  0.07136394  1
  Al  Al85  1  0.57736718  0.41811573  0.58395564  1
  Al  Al86  1  0.58069230  0.91775713  0.08228629  1
  Al  Al87  1  0.56994843  0.91099835  0.58829531  1
  Al  Al88  1  0.41772322  0.08152800  0.07353311  1
  Al  Al89  1  0.41819746  0.07486569  0.58248964  1
  Al  Al90  1  0.41879607  0.58740244  0.08666895  1
  Al  Al91  1  0.40475172  0.59112926  0.59030322  1
  Al  Al92  1  0.91722376  0.07358478  0.09002375  1
  Al  Al93  1  0.92369309  0.08065332  0.58260611  1
  Al  Al94  1  0.91456971  0.59458888  0.07496823  1
  Al  Al95  1  0.92550848  0.58266006  0.58787865  1
  Al  Al96  1  0.25413330  0.12962409  0.13426137  1
  Al  Al97  1  0.24990607  0.13313120  0.63627271  1
  Al  Al98  1  0.24983075  0.63769063  0.13660388  1
  Al  Al99  1  0.25032161  0.64122751  0.63010203  1
  Al  Al100  1  0.75574725  0.13375245  0.13313684  1
  Al  Al101  1  0.75197967  0.13644407  0.63216793  1
  Al  Al102  1  0.75114450  0.63430338  0.13666473  1
  Al  Al103  1  0.75072010  0.63932055  0.63128499  1
  Al  Al104  1  0.25283910  0.36589724  0.13358529  1
  Al  Al105  1  0.25010417  0.36756896  0.63660782  1
  Al  Al106  1  0.25024687  0.86603750  0.13506416  1
  Al  Al107  1  0.25154146  0.86465954  0.63345827  1
  Al  Al108  1  0.74452909  0.36663490  0.13291145  1
  Al  Al109  1  0.74969706  0.36588857  0.64186426  1
  Al  Al110  1  0.75438228  0.86041453  0.13765376  1
  Al  Al111  1  0.75327871  0.86048962  0.63253842  1
  Al  Al112  1  0.24804183  0.12585911  0.36642568  1
  Al  Al113  1  0.25222195  0.13138920  0.86487447  1
  Al  Al114  1  0.25114011  0.64034797  0.37091808  1
  Al  Al115  1  0.25177984  0.63463813  0.86409874  1
  Al  Al116  1  0.75007648  0.13523927  0.36963192  1
  Al  Al117  1  0.75316410  0.13904754  0.86678113  1
  Al  Al118  1  0.74890223  0.63351178  0.36571435  1
  Al  Al119  1  0.75545074  0.63153248  0.86116242  1
  Al  Al120  1  0.25141460  0.36725453  0.37040739  1
  Al  Al121  1  0.25397337  0.36923652  0.86486087  1
  Al  Al122  1  0.25057388  0.86492568  0.36678930  1
  Al  Al123  1  0.24903865  0.86616579  0.86486674  1
  Al  Al124  1  0.75074134  0.37083097  0.36455688  1
  Al  Al125  1  0.75069407  0.37319672  0.85931872  1
  Al  Al126  1  0.75099708  0.85832867  0.36930853  1
  Al  Al127  1  0.75404790  0.86262069  0.86096991  1
  Al  Al128  1  0.13872293  0.24897752  0.13577610  1
  Al  Al129  1  0.13593423  0.25313696  0.63535149  1
  Al  Al130  1  0.13666406  0.75524497  0.13353306  1
  Al  Al131  1  0.13116632  0.75015480  0.63689015  1
  Al  Al132  1  0.63597138  0.24870579  0.13541228  1
  Al  Al133  1  0.63440246  0.25207647  0.63842964  1
  Al  Al134  1  0.63318134  0.74509220  0.13587639  1
  Al  Al135  1  0.63341830  0.75063260  0.63479596  1
  Al  Al136  1  0.14130940  0.25338164  0.36485029  1
  Al  Al137  1  0.13758524  0.24935951  0.86455504  1
  Al  Al138  1  0.13320005  0.74733845  0.36748577  1
  Al  Al139  1  0.13473139  0.75442187  0.86705047  1
  Al  Al140  1  0.63717000  0.25132073  0.36312403  1
  Al  Al141  1  0.63530911  0.25343890  0.86345564  1
  Al  Al142  1  0.62825922  0.74705044  0.36275183  1
  Al  Al143  1  0.63576352  0.74814814  0.86453906  1
  Al  Al144  1  0.36004401  0.24978140  0.12767503  1
  Al  Al145  1  0.36235860  0.25903961  0.63478275  1
  Al  Al146  1  0.36494912  0.74976571  0.13749698  1
  Al  Al147  1  0.36267591  0.75053585  0.63300645  1
  Al  Al148  1  0.86428976  0.25035638  0.13460771  1
  Al  Al149  1  0.86773702  0.24798443  0.63706501  1
  Al  Al150  1  0.87071314  0.74470944  0.13664234  1
  Al  Al151  1  0.87617497  0.75059698  0.63736297  1
  Al  Al152  1  0.36076254  0.25206605  0.36561061  1
  Al  Al153  1  0.36136601  0.25219616  0.86805604  1
  Al  Al154  1  0.36542815  0.75034850  0.36725659  1
  Al  Al155  1  0.36412111  0.75345987  0.86397138  1
  Al  Al156  1  0.86335581  0.24722414  0.36488381  1
  Al  Al157  1  0.86777464  0.25135494  0.86391428  1
  Al  Al158  1  0.86945844  0.74698432  0.36632627  1
  Al  Al159  1  0.86891817  0.74754604  0.86477437  1
  Al  Al160  1  0.13806393  0.13283262  0.25107243  1
  Al  Al161  1  0.13382291  0.13331100  0.75617720  1
  Al  Al162  1  0.13181408  0.63973169  0.25206334  1
  Al  Al163  1  0.13033405  0.63920383  0.75240194  1
  Al  Al164  1  0.63962951  0.13413320  0.24877183  1
  Al  Al165  1  0.63906504  0.13486179  0.75019177  1
  Al  Al166  1  0.63500586  0.63219297  0.25021264  1
  Al  Al167  1  0.63576644  0.63451497  0.75418142  1
  Al  Al168  1  0.36053290  0.12890458  0.25323279  1
  Al  Al169  1  0.36114672  0.13179364  0.75134898  1
  Al  Al170  1  0.36655411  0.63835519  0.25443749  1
  Al  Al171  1  0.36120812  0.63312607  0.74841793  1
  Al  Al172  1  0.86548318  0.13511345  0.24775331  1
  Al  Al173  1  0.86756514  0.13210549  0.75530088  1
  Al  Al174  1  0.87085586  0.63445606  0.25371361  1
  Al  Al175  1  0.87632703  0.63813059  0.75188676  1
  Al  Al176  1  0.14141957  0.36583573  0.24987886  1
  Al  Al177  1  0.13390869  0.36432536  0.75248835  1
  Al  Al178  1  0.13227744  0.86568738  0.25748380  1
  Al  Al179  1  0.13375515  0.86362023  0.75244523  1
  Al  Al180  1  0.63583278  0.37133154  0.25149057  1
  Al  Al181  1  0.62649540  0.36692574  0.75208676  1
  Al  Al182  1  0.63360934  0.86201437  0.24775924  1
  Al  Al183  1  0.63295377  0.86224578  0.74789398  1
  Al  Al184  1  0.36278375  0.36501966  0.25265064  1
  Al  Al185  1  0.36521918  0.36767767  0.75214743  1
  Al  Al186  1  0.36361159  0.86925645  0.25228551  1
  Al  Al187  1  0.36274183  0.86645836  0.74911486  1
  Al  Al188  1  0.86132879  0.36690248  0.25003831  1
  Al  Al189  1  0.87174076  0.36431752  0.75232012  1
  Al  Al190  1  0.86824634  0.85999348  0.25227440  1
  Al  Al191  1  0.87077571  0.86321449  0.75159556  1
  Al  Al192  1  0.32618417  0.50186861  0.18018536  1
  Al  Al193  1  0.83208488  0.32595032  -0.00151482  1
  Al  Al194  1  0.00329276  0.17145971  0.17027801  1
  Al  Al195  1  0.00188018  0.32610431  0.17186549  1
  Al  Al196  1  0.67379042  -0.00395567  0.32743997  1
  Al  Al197  1  0.67288030  0.16991980  0.00071098  1
  Al  Al198  1  0.18459647  0.81342597  0.50039498  1
  Al  Al199  1  0.68602618  -0.00236985  0.17452801  1
  Al  Al200  1  0.49703856  0.18091516  0.67539074  1
  Al  Al201  1  0.17224337  0.18293731  0.49901368  1
  Al  Al202  1  0.68258173  -0.00053431  0.82257920  1
  Al  Al203  1  0.17979984  0.17219075  -0.00032220  1
  Al  Al204  1  0.67111484  0.67745372  0.50212027  1
  Al  Al205  1  0.32962092  0.68305102  -0.00002187  1
  Al  Al206  1  0.17198508  0.50225947  0.17137470  1
  Al  Al207  1  0.49995195  0.16720799  0.32812294  1
  Al  Al208  1  0.82831986  0.82367656  0.50054583  1
  Al  Al209  1  0.82707850  0.80873009  0.00073924  1
  Al  Al210  1  0.18897580  0.50469609  0.67346277  1
  Al  Al211  1  0.83027290  0.32653260  0.50247874  1
  Al  Al212  1  0.18077018  0.50357192  0.32578438  1
  Al  Al213  1  0.17424288  -0.00213560  0.18077193  1
  Al  Al214  1  0.82437366  0.49952830  0.17416659  1
  Al  Al215  1  0.49787002  0.68990465  0.68396330  1
  Al  Al216  1  0.67331694  0.82727606  -0.00047382  1
  Al  Al217  1  0.68566525  0.67343850  -0.00210826  1
  Al  Al218  1  0.49881819  0.33231276  0.33411417  1
  Al  Al219  1  0.18338851  0.32561341  -0.00126274  1
  Al  Al220  1  0.00230900  0.18329795  0.68972632  1
  Al  Al221  1  0.17921472  -0.00120873  0.68949398  1
  Al  Al222  1  0.18085411  0.50143497  0.82459002  1
  Al  Al223  1  0.67347177  0.32094197  0.50174214  1
  Al  Al224  1  0.82463835  0.50284527  0.68355675  1
  Al  Al225  1  0.49787142  0.18241246  0.82849758  1
  Al  Al226  1  0.66748986  0.33495024  -0.00619413  1
  Al  Al227  1  0.00115495  0.82060265  0.17700976  1
  Al  Al228  1  0.49979967  0.82063585  0.17856430  1
  Al  Al229  1  0.49766557  0.17499409  0.17165128  1
  Al  Al230  1  0.66694239  0.50157287  0.68480281  1
  Al  Al231  1  0.00211367  0.17206489  0.32529737  1
  Al  Al232  1  0.32465117  0.18658184  0.50060749  1
  Al  Al233  1  0.00008975  0.32980484  0.32345533  1
  Al  Al234  1  0.82156010  -0.00220084  0.67917715  1
  Al  Al235  1  0.82985540  -0.00162943  0.30908615  1
  Al  Al236  1  0.17629085  0.68369610  -0.00115178  1
  Al  Al237  1  0.49559785  0.33281323  0.16688495  1
  Al  Al238  1  0.49843095  0.82138406  0.82212486  1
  Au  Au239  1  0.32128996  -0.00516938  0.34088625  1
  Au  Au240  1  0.66513572  0.50301119  0.33508750  1
  Au  Au241  1  0.83910124  0.83018838  0.50033422  1
  Au  Au242  1  0.49661784  0.81980413  0.33304238  1
  Au  Au243  1  0.66245233  0.66856330  0.50017399  1
  Au  Au244  1  0.16845715  0.50206046  0.82764099  1
  Au  Au245  1  0.65630175  -0.00546066  0.67612968  1
  Au  Au246  1  0.49753463  0.65768741  0.82818107  1
  Au  Au247  1  0.16759723  0.67265106  -0.00164752  1
  Au  Au248  1  0.16472575  -0.00253146  0.16718322  1
  Au  Au249  1  0.49812987  0.33669685  0.34955940  1
  Au  Au250  1  0.66330579  0.83482040  0.50165326  1
  Au  Au251  1  -0.00084746  0.83310046  0.17577013  1
  Au  Au252  1  0.00135656  0.66703403  0.17693220  1
  Au  Au253  1  0.00075837  0.16885214  0.68011710  1
  Au  Au254  1  0.83340484  0.50332090  0.83233954  1
  Au  Au255  1  0.66180342  0.15785250  0.00068686  1
  Au  Au256  1  0.83647369  0.50512295  0.33656670  1
  Au  Au257  1  0.49302587  0.33982223  0.67407492  1
  Au  Au258  1  0.84127011  0.15899120  0.00021757  1
  Au  Au259  1  0.83468925  0.50022188  0.16101326  1
  Au  Au260  1  0.65783669  0.50444008  0.16870243  1
  Au  Au261  1  0.33747104  -0.00464501  0.67511459  1
  Au  Au262  1  0.16752429  -0.00290309  0.67673288  1
  Au  Au263  1  0.50129516  0.16508420  0.67746939  1
  Au  Au264  1  0.66404221  0.17127729  0.50088938  1
  Au  Au265  1  0.84791190  0.32957814  -0.00212538  1
  Au  Au266  1  0.33925692  -0.00115332  0.16642135  1
  Au  Au267  1  0.83292362  -0.00070383  0.84212258  1
  Au  Au268  1  0.49335732  0.32672304  0.15128370  1
  Au  Au269  1  0.17139513  0.82415576  0.49896926  1
  Au  Au270  1  0.15887784  0.17245112  0.49588112  1
  Au  Au271  1  0.82455202  0.34252459  0.50468046  1
  Au  Au272  1  0.50108026  0.15158042  0.32190420  1
  Au  Au273  1  0.82857016  0.82532430  -0.00059172  1
  Au  Au274  1  0.82589437  -0.00221860  0.32556798  1
  Au  Au275  1  0.32921318  0.17266238  -0.00277977  1
  Au  Au276  1  0.66356148  0.35016019  -0.00884811  1
  Au  Au277  1  0.00768230  0.32650053  0.33840272  1
  Au  Au278  1  0.49719231  0.83385265  0.81988402  1
  Au  Au279  1  0.33789832  0.17558890  0.50298167  1
  Au  Au280  1  0.83600741  0.66079756  0.50056435  1
  Au  Au281  1  0.33080292  0.50481608  0.33207298  1
  Au  Au282  1  0.67245285  0.50161446  0.66869164  1
  Au  Au283  1  0.00452258  0.67389369  0.67243910  1
  Au  Au284  1  0.00447436  0.34201061  0.67802262  1
  Au  Au285  1  0.83786895  0.16525705  0.49731753  1
  Au  Au286  1  0.50213237  0.81977467  0.16620687  1
  Au  Au287  1  0.83337216  -0.00269214  0.66738992  1
