# generated using pymatgen
data_Ca24Ti8Al207Au49
_symmetry_space_group_name_H-M   'P 1'
_cell_length_a   17.32143652
_cell_length_b   17.32006197
_cell_length_c   17.31980089
_cell_angle_alpha   90.00397165
_cell_angle_beta   89.99963189
_cell_angle_gamma   89.99945518
_symmetry_Int_Tables_number   1
_chemical_formula_structural   Ca24Ti8Al207Au49
_chemical_formula_sum   'Ca24 Ti8 Al207 Au49'
_cell_volume   5196.08494207
_cell_formula_units_Z   1
loop_
 _symmetry_equiv_pos_site_id
 _symmetry_equiv_pos_as_xyz
  1  'x, y, z'
loop_
 _atom_site_type_symbol
 _atom_site_label
 _atom_site_symmetry_multiplicity
 _atom_site_fract_x
 _atom_site_fract_y
 _atom_site_fract_z
 _atom_site_occupancy
  Ca  Ca0  1  0.25319616  0.00015532  0.00527808  1
  Ca  Ca1  1  0.25180162  0.00291441  0.49467345  1
  Ca  Ca2  1  0.25364064  0.49915451  0.00153516  1
  Ca  Ca3  1  0.24836134  0.49696596  0.49412718  1
  Ca  Ca4  1  0.74146131  0.00266403  0.00186965  1
  Ca  Ca5  1  0.74149555  0.00165187  0.49950874  1
  Ca  Ca6  1  0.74601056  0.49867337  -0.00356456  1
  Ca  Ca7  1  0.75051689  0.49840735  0.50036231  1
  Ca  Ca8  1  -0.00274620  0.25556755  0.00103301  1
  Ca  Ca9  1  0.00120598  0.25476757  0.49992120  1
  Ca  Ca10  1  -0.00068292  0.75231215  -0.00188481  1
  Ca  Ca11  1  0.00509892  0.74841606  0.50194080  1
  Ca  Ca12  1  0.50454233  0.25229154  0.00473894  1
  Ca  Ca13  1  0.49782659  0.24696881  0.49611113  1
  Ca  Ca14  1  0.49800558  0.75499487  0.00194954  1
  Ca  Ca15  1  0.49872380  0.74957917  0.50404548  1
  Ca  Ca16  1  0.00423525  0.00002782  0.25471660  1
  Ca  Ca17  1  0.00054382  -0.00784595  0.74737016  1
  Ca  Ca18  1  -0.00216766  0.49928017  0.25745408  1
  Ca  Ca19  1  -0.00458161  0.50525428  0.74936456  1
  Ca  Ca20  1  0.49855776  0.00516571  0.24618956  1
  Ca  Ca21  1  0.49914535  -0.00340567  0.74876386  1
  Ca  Ca22  1  0.50555434  0.49262085  0.25198777  1
  Ca  Ca23  1  0.50451760  0.49866712  0.75173287  1
  Ti  Ti24  1  0.25043982  0.24963185  0.25096270  1
  Ti  Ti25  1  0.25164932  0.25077963  0.74981423  1
  Ti  Ti26  1  0.25120946  0.75213700  0.25130818  1
  Ti  Ti27  1  0.25000638  0.74995005  0.74862231  1
  Ti  Ti28  1  0.74885815  0.25187112  0.25137356  1
  Ti  Ti29  1  0.74758752  0.25324166  0.74876032  1
  Ti  Ti30  1  0.74883098  0.74778311  0.24900425  1
  Ti  Ti31  1  0.74887124  0.74795526  0.74977087  1
  Al  Al32  1  0.09324083  0.07756741  0.09204891  1
  Al  Al33  1  0.08538490  0.08102368  0.56856092  1
  Al  Al34  1  0.07956760  0.57861438  0.07938059  1
  Al  Al35  1  0.07479833  0.58494005  0.57700436  1
  Al  Al36  1  0.58795287  0.09146370  0.09221068  1
  Al  Al37  1  0.58961178  0.07580336  0.58022564  1
  Al  Al38  1  0.57636502  0.57758617  0.08462893  1
  Al  Al39  1  0.58851277  0.58953343  0.59024018  1
  Al  Al40  1  0.42898901  0.41402772  0.08606142  1
  Al  Al41  1  0.41774440  0.41622209  0.57076886  1
  Al  Al42  1  0.41193386  0.91178400  0.09165160  1
  Al  Al43  1  0.42227909  0.91065298  0.58638913  1
  Al  Al44  1  0.91485885  0.41601456  0.08505871  1
  Al  Al45  1  0.89953223  0.42246495  0.57944354  1
  Al  Al46  1  0.92062878  0.91973356  0.08022233  1
  Al  Al47  1  0.92521014  0.90937483  0.58876296  1
  Al  Al48  1  0.41308010  0.09143613  0.40681117  1
  Al  Al49  1  0.42855990  0.07990492  0.92323621  1
  Al  Al50  1  0.40752452  0.57073678  0.41496133  1
  Al  Al51  1  0.42155410  0.58133091  0.91710896  1
  Al  Al52  1  0.91912770  0.08948041  0.41981994  1
  Al  Al53  1  0.92030757  0.08955215  0.92458856  1
  Al  Al54  1  0.91338636  0.58260558  0.42751174  1
  Al  Al55  1  0.91317659  0.57747424  0.90376906  1
  Al  Al56  1  0.08333935  0.41292496  0.40532817  1
  Al  Al57  1  0.07994811  0.41935351  0.92179201  1
  Al  Al58  1  0.09581478  0.91563826  0.41288639  1
  Al  Al59  1  0.08291606  0.91294796  0.92023396  1
  Al  Al60  1  0.58354422  0.40181386  0.41659853  1
  Al  Al61  1  0.59213215  0.40739785  0.91283841  1
  Al  Al62  1  0.57762347  0.92816099  0.41739318  1
  Al  Al63  1  0.57667124  0.91769340  0.92442464  1
  Al  Al64  1  0.09583620  0.08051509  0.41005330  1
  Al  Al65  1  0.07721869  0.07990321  0.92497884  1
  Al  Al66  1  0.08981714  0.57602621  0.41322447  1
  Al  Al67  1  0.07935559  0.58450095  0.91650706  1
  Al  Al68  1  0.57808495  0.09087365  0.40854305  1
  Al  Al69  1  0.58938433  0.09503062  0.92815318  1
  Al  Al70  1  0.58413094  0.57821340  0.42691736  1
  Al  Al71  1  0.58590812  0.57179687  0.90752141  1
  Al  Al72  1  0.41210429  0.40829589  0.40816114  1
  Al  Al73  1  0.42907435  0.41639058  0.91298794  1
  Al  Al74  1  0.41348888  0.92557661  0.41598272  1
  Al  Al75  1  0.41392096  0.90783144  0.92799055  1
  Al  Al76  1  0.91843064  0.40847703  0.41745288  1
  Al  Al77  1  0.90477373  0.42035311  0.91044920  1
  Al  Al78  1  0.92988289  0.92019495  0.42530153  1
  Al  Al79  1  0.92305921  0.91101655  0.91858896  1
  Al  Al80  1  0.07792700  0.41438485  0.08240768  1
  Al  Al81  1  0.07806028  0.42269887  0.57067510  1
  Al  Al82  1  0.09524054  0.92027621  0.09226841  1
  Al  Al83  1  0.08599038  0.90318159  0.57707420  1
  Al  Al84  1  0.58819461  0.40234833  0.07874559  1
  Al  Al85  1  0.59653036  0.41652959  0.57900557  1
  Al  Al86  1  0.57933866  0.91758794  0.09070507  1
  Al  Al87  1  0.58094620  0.91629856  0.59970350  1
  Al  Al88  1  0.42075201  0.07727378  0.09343977  1
  Al  Al89  1  0.41174280  0.08208501  0.56794151  1
  Al  Al90  1  0.41960227  0.58565446  0.08217988  1
  Al  Al91  1  0.42889444  0.59081165  0.58622957  1
  Al  Al92  1  0.91678773  0.08312165  0.07978069  1
  Al  Al93  1  0.91362652  0.08176124  0.57525498  1
  Al  Al94  1  0.91492136  0.57449688  0.08225852  1
  Al  Al95  1  0.90424295  0.58577256  0.58960633  1
  Al  Al96  1  0.25092498  0.13063016  0.13841800  1
  Al  Al97  1  0.25270597  0.13414654  0.63463750  1
  Al  Al98  1  0.25304956  0.63701520  0.13313339  1
  Al  Al99  1  0.24712606  0.63680945  0.63188253  1
  Al  Al100  1  0.74111835  0.13652083  0.13123752  1
  Al  Al101  1  0.74690794  0.13724920  0.62874948  1
  Al  Al102  1  0.74933512  0.63412879  0.13307665  1
  Al  Al103  1  0.75086324  0.62757155  0.63691419  1
  Al  Al104  1  0.24954740  0.36582125  0.13735036  1
  Al  Al105  1  0.25000610  0.36668486  0.63498104  1
  Al  Al106  1  0.25111216  0.86971749  0.13401918  1
  Al  Al107  1  0.24887129  0.86103584  0.62764087  1
  Al  Al108  1  0.74515653  0.36342395  0.12981770  1
  Al  Al109  1  0.74912417  0.37515622  0.63757818  1
  Al  Al110  1  0.74819127  0.86596870  0.13563427  1
  Al  Al111  1  0.74507739  0.86306469  0.63722928  1
  Al  Al112  1  0.25105901  0.13396419  0.36414176  1
  Al  Al113  1  0.24868841  0.13588692  0.86780496  1
  Al  Al114  1  0.24940061  0.63231299  0.36606310  1
  Al  Al115  1  0.24975017  0.63622128  0.86311369  1
  Al  Al116  1  0.74924333  0.14047283  0.37295998  1
  Al  Al117  1  0.73864840  0.14037761  0.86950189  1
  Al  Al118  1  0.75059232  0.62807446  0.36484053  1
  Al  Al119  1  0.75154126  0.62852967  0.86221017  1
  Al  Al120  1  0.24949023  0.36547237  0.36397827  1
  Al  Al121  1  0.24959638  0.36272747  0.86465554  1
  Al  Al122  1  0.24789882  0.86861317  0.36798835  1
  Al  Al123  1  0.25083096  0.86453030  0.86671605  1
  Al  Al124  1  0.74865809  0.36646397  0.36863275  1
  Al  Al125  1  0.74677349  0.36571062  0.86895626  1
  Al  Al126  1  0.74856714  0.86268122  0.36126953  1
  Al  Al127  1  0.74841038  0.86544071  0.86010854  1
  Al  Al128  1  0.13879477  0.24847653  0.14001661  1
  Al  Al129  1  0.13702991  0.25035526  0.63535903  1
  Al  Al130  1  0.13937916  0.75173365  0.13484881  1
  Al  Al131  1  0.13403231  0.75200368  0.63157836  1
  Al  Al132  1  0.63211957  0.25307743  0.13461993  1
  Al  Al133  1  0.63877685  0.25813858  0.62696901  1
  Al  Al134  1  0.63345856  0.75252774  0.13613641  1
  Al  Al135  1  0.63238452  0.74464738  0.63842009  1
  Al  Al136  1  0.13221363  0.25058422  0.36339596  1
  Al  Al137  1  0.13523642  0.25070357  0.86243001  1
  Al  Al138  1  0.13981172  0.75149132  0.37009874  1
  Al  Al139  1  0.13531084  0.75442559  0.86633559  1
  Al  Al140  1  0.63546597  0.25129755  0.37012087  1
  Al  Al141  1  0.63008587  0.25671841  0.86316363  1
  Al  Al142  1  0.63608946  0.74827480  0.36144137  1
  Al  Al143  1  0.63394131  0.74706451  0.86015354  1
  Al  Al144  1  0.36658176  0.25277308  0.13915776  1
  Al  Al145  1  0.36716507  0.24908244  0.63387994  1
  Al  Al146  1  0.36367860  0.75609292  0.13070761  1
  Al  Al147  1  0.36759738  0.75041408  0.63120946  1
  Al  Al148  1  0.86060803  0.25162509  0.13451025  1
  Al  Al149  1  0.85671022  0.25935096  0.62742072  1
  Al  Al150  1  0.86047065  0.75006917  0.12944848  1
  Al  Al151  1  0.86024052  0.74574499  0.63400497  1
  Al  Al152  1  0.36597851  0.24471948  0.36498967  1
  Al  Al153  1  0.37175475  0.25081227  0.86609046  1
  Al  Al154  1  0.36403905  0.75521340  0.36649969  1
  Al  Al155  1  0.36442060  0.74926950  0.86949641  1
  Al  Al156  1  0.86708126  0.25234607  0.36961880  1
  Al  Al157  1  0.86105314  0.25060676  0.86506513  1
  Al  Al158  1  0.86412930  0.74411305  0.36490903  1
  Al  Al159  1  0.86102632  0.74959590  0.86803718  1
  Al  Al160  1  0.13799973  0.12837815  0.25371616  1
  Al  Al161  1  0.14016405  0.13246534  0.75019321  1
  Al  Al162  1  0.13587646  0.63576156  0.25604664  1
  Al  Al163  1  0.13558553  0.63288714  0.74810099  1
  Al  Al164  1  0.63466908  0.13996028  0.25201283  1
  Al  Al165  1  0.63497381  0.13994388  0.74754069  1
  Al  Al166  1  0.63704941  0.62771204  0.24964218  1
  Al  Al167  1  0.63516621  0.62875655  0.74973795  1
  Al  Al168  1  0.36568247  0.13364974  0.24911764  1
  Al  Al169  1  0.36565352  0.13672265  0.75535432  1
  Al  Al170  1  0.36171067  0.63694245  0.25201451  1
  Al  Al171  1  0.37008998  0.63890906  0.74683260  1
  Al  Al172  1  0.86233495  0.13900419  0.25195813  1
  Al  Al173  1  0.85806476  0.13969666  0.74647578  1
  Al  Al174  1  0.86440438  0.63315513  0.25206024  1
  Al  Al175  1  0.86303373  0.63114270  0.74903137  1
  Al  Al176  1  0.13354539  0.36641517  0.25629599  1
  Al  Al177  1  0.13655936  0.37053294  0.74847682  1
  Al  Al178  1  0.13959809  0.87019373  0.25156871  1
  Al  Al179  1  0.13316188  0.86416456  0.74822352  1
  Al  Al180  1  0.63638032  0.36775571  0.24985626  1
  Al  Al181  1  0.63662977  0.37314671  0.75250873  1
  Al  Al182  1  0.63375928  0.86826681  0.24395173  1
  Al  Al183  1  0.62929540  0.86497025  0.74615952  1
  Al  Al184  1  0.36505852  0.36488753  0.25472984  1
  Al  Al185  1  0.36818721  0.36310919  0.75275814  1
  Al  Al186  1  0.36377077  0.87008545  0.24335141  1
  Al  Al187  1  0.36701873  0.85994528  0.74524368  1
  Al  Al188  1  0.86413199  0.36394289  0.25758113  1
  Al  Al189  1  0.85742293  0.37118374  0.75205801  1
  Al  Al190  1  0.86601783  0.86219867  0.24878115  1
  Al  Al191  1  0.87006531  0.86093478  0.74728385  1
  Al  Al192  1  0.31783409  0.31156398  0.49861502  1
  Al  Al193  1  0.17518712  0.32144346  0.00146646  1
  Al  Al194  1  -0.00210682  0.32908656  0.82671686  1
  Al  Al195  1  0.81175819  0.00255486  0.17469606  1
  Al  Al196  1  0.50102006  0.30800026  0.31063383  1
  Al  Al197  1  -0.00101645  0.67968568  0.82328257  1
  Al  Al198  1  0.19009649  0.18288690  0.49859940  1
  Al  Al199  1  0.68726851  0.67574683  0.50070446  1
  Al  Al200  1  0.50042389  0.83206835  0.30885224  1
  Al  Al201  1  0.49886783  0.68630999  0.17635607  1
  Al  Al202  1  0.32846947  -0.00110590  0.67356182  1
  Al  Al203  1  -0.00074904  0.67396697  0.17930349  1
  Al  Al204  1  0.32215538  0.49941609  0.82654845  1
  Al  Al205  1  0.82960911  -0.00173361  0.32893744  1
  Al  Al206  1  0.33154289  0.33013250  -0.00011898  1
  Al  Al207  1  -0.00526765  0.33273951  0.67145971  1
  Al  Al208  1  0.50239521  0.33002174  0.67974556  1
  Al  Al209  1  0.17850182  0.67847751  0.00237070  1
  Al  Al210  1  -0.00176169  0.68237785  0.67184823  1
  Al  Al211  1  0.81846261  0.18414925  0.00022677  1
  Al  Al212  1  0.17350236  0.50054043  0.18644545  1
  Al  Al213  1  -0.00162260  0.32657647  0.18486095  1
  Al  Al214  1  0.66990736  0.82955062  0.50016346  1
  Al  Al215  1  -0.00074489  0.17544133  0.82596215  1
  Al  Al216  1  0.31484157  0.00067745  0.31337286  1
  Al  Al217  1  0.49796807  0.67046009  0.33175245  1
  Al  Al218  1  0.00238469  0.82925163  0.17406724  1
  Al  Al219  1  0.81538581  -0.00163804  0.67019370  1
  Al  Al220  1  0.32368768  -0.00272802  0.83193337  1
  Al  Al221  1  0.81776505  0.49727379  0.18142356  1
  Al  Al222  1  0.17177215  -0.00379537  0.66990103  1
  Al  Al223  1  0.67355162  0.67168894  -0.00275990  1
  Al  Al224  1  0.32472491  0.50044358  0.66980757  1
  Al  Al225  1  0.33101200  0.49834527  0.18292319  1
  Al  Al226  1  0.67759527  0.82774658  -0.00011186  1
  Al  Al227  1  0.32406584  0.17213927  0.00361174  1
  Al  Al228  1  0.83024318  0.81465150  0.49829494  1
  Al  Al229  1  0.49594489  0.81874590  0.82251424  1
  Al  Al230  1  0.67342649  0.00331952  0.31486549  1
  Al  Al231  1  0.00198198  0.17232591  0.18363352  1
  Al  Al232  1  0.66606433  0.00072003  0.81705463  1
  Al  Al233  1  0.49988911  0.18768180  0.18892168  1
  Al  Al234  1  0.32426514  0.67532654  0.50146782  1
  Al  Al235  1  0.82679815  0.00222524  0.82699262  1
  Al  Al236  1  0.49883017  0.16740624  0.67605999  1
  Al  Al237  1  0.00129665  0.17007602  0.67108713  1
  Al  Al238  1  0.00309523  0.82143022  0.32740002  1
  Au  Au239  1  0.84306286  0.00314492  0.83338871  1
  Au  Au240  1  -0.01051638  0.34797968  0.67207670  1
  Au  Au241  1  0.66278434  0.17486118  0.49894496  1
  Au  Au242  1  0.82533848  0.00047587  0.16451973  1
  Au  Au243  1  0.49838173  0.82827117  0.83045226  1
  Au  Au244  1  0.50353552  0.33659664  0.66461727  1
  Au  Au245  1  0.66875509  0.49500908  0.16267637  1
  Au  Au246  1  0.16968237  0.66979769  0.00021160  1
  Au  Au247  1  0.84635536  0.81775986  0.49903486  1
  Au  Au248  1  0.33604834  0.67469135  -0.00144677  1
  Au  Au249  1  0.16750037  0.67266937  0.49929354  1
  Au  Au250  1  0.83197708  0.18339325  0.50046354  1
  Au  Au251  1  0.34130757  0.50301743  0.67171320  1
  Au  Au252  1  0.16062681  0.17357896  0.00102846  1
  Au  Au253  1  0.32560536  0.83981221  0.49925150  1
  Au  Au254  1  0.50362992  0.18072720  0.84173506  1
  Au  Au255  1  0.34072465  -0.00087407  0.83101151  1
  Au  Au256  1  0.16111835  0.50299102  0.66571970  1
  Au  Au257  1  0.00038604  0.67088632  0.34355557  1
  Au  Au258  1  0.17490828  -0.00425477  0.65733511  1
  Au  Au259  1  0.82154393  0.33671527  -0.00020619  1
  Au  Au260  1  0.66814140  0.49513668  0.33876112  1
  Au  Au261  1  0.82755734  0.83424361  0.00094209  1
  Au  Au262  1  0.17103544  0.49839216  0.83767456  1
  Au  Au263  1  0.83735833  0.49795945  0.33184333  1
  Au  Au264  1  0.65739112  0.67139242  -0.00037514  1
  Au  Au265  1  0.34686327  0.49823903  0.17854594  1
  Au  Au266  1  0.16065711  0.00215508  0.83250629  1
  Au  Au267  1  -0.00079232  0.17316300  0.16699442  1
  Au  Au268  1  0.82189680  -0.00420299  0.65459640  1
  Au  Au269  1  0.49670471  0.15312270  0.66847671  1
  Au  Au270  1  0.67444205  0.50161385  0.67405065  1
  Au  Au271  1  0.17884003  0.83615685  0.00252117  1
  Au  Au272  1  0.17009780  0.32995741  0.49643339  1
  Au  Au273  1  0.65904293  0.00175881  0.83260927  1
  Au  Au274  1  0.82362336  -0.00260765  0.34540671  1
  Au  Au275  1  0.33970367  0.17270603  0.00794729  1
  Au  Au276  1  0.49759583  0.65856237  0.32744859  1
  Au  Au277  1  0.50066357  0.66243696  0.81888319  1
  Au  Au278  1  0.49878117  0.83545279  0.32531532  1
  Au  Au279  1  0.00136141  0.82691382  0.82269897  1
  Au  Au280  1  0.15949251  0.49687619  0.17768195  1
  Au  Au281  1  0.00456824  0.17598154  0.34061565  1
  Au  Au282  1  0.65464490  0.82839622  0.50541690  1
  Au  Au283  1  0.00302222  0.15375792  0.67501046  1
  Au  Au284  1  -0.00507989  0.67525017  0.16291210  1
  Au  Au285  1  0.33282226  0.66646620  0.49929807  1
  Au  Au286  1  0.83544113  0.66107661  -0.00521237  1
  Au  Au287  1  0.82034367  0.17152996  0.00113917  1
