# generated using pymatgen
data_Ca24Ti8Al207Au49
_symmetry_space_group_name_H-M   'P 1'
_cell_length_a   17.32098436
_cell_length_b   17.32100950
_cell_length_c   17.32165063
_cell_angle_alpha   89.99817097
_cell_angle_beta   90.00096448
_cell_angle_gamma   90.00278722
_symmetry_Int_Tables_number   1
_chemical_formula_structural   Ca24Ti8Al207Au49
_chemical_formula_sum   'Ca24 Ti8 Al207 Au49'
_cell_volume   5196.78851452
_cell_formula_units_Z   1
loop_
 _symmetry_equiv_pos_site_id
 _symmetry_equiv_pos_as_xyz
  1  'x, y, z'
loop_
 _atom_site_type_symbol
 _atom_site_label
 _atom_site_symmetry_multiplicity
 _atom_site_fract_x
 _atom_site_fract_y
 _atom_site_fract_z
 _atom_site_occupancy
  Ca  Ca0  1  0.24632493  0.00289584  0.00096501  1
  Ca  Ca1  1  0.24988523  0.00084509  0.49529157  1
  Ca  Ca2  1  0.24867152  0.49776743  -0.00005113  1
  Ca  Ca3  1  0.25020567  0.49505512  0.49959858  1
  Ca  Ca4  1  0.75867036  0.00027151  -0.00093692  1
  Ca  Ca5  1  0.75928474  0.00188798  0.50198442  1
  Ca  Ca6  1  0.75004437  0.49789894  -0.00313875  1
  Ca  Ca7  1  0.75221625  0.49616301  0.50507534  1
  Ca  Ca8  1  0.00016063  0.24920742  0.00032409  1
  Ca  Ca9  1  -0.00349128  0.25224359  0.50014671  1
  Ca  Ca10  1  0.00128529  0.75310624  -0.00210267  1
  Ca  Ca11  1  -0.00308376  0.75345882  0.49902399  1
  Ca  Ca12  1  0.49787556  0.25363127  0.00312715  1
  Ca  Ca13  1  0.50166789  0.25361739  0.49871442  1
  Ca  Ca14  1  0.49844543  0.74695152  0.00228856  1
  Ca  Ca15  1  0.50247801  0.75041127  0.49773767  1
  Ca  Ca16  1  -0.00106715  0.00176725  0.25136987  1
  Ca  Ca17  1  -0.00283942  -0.00143122  0.75650474  1
  Ca  Ca18  1  -0.00355278  0.49885852  0.25117276  1
  Ca  Ca19  1  -0.00174191  0.50168335  0.74767158  1
  Ca  Ca20  1  0.49984406  -0.00347756  0.25395119  1
  Ca  Ca21  1  0.50296372  0.00194526  0.74955050  1
  Ca  Ca22  1  0.50389104  0.49952443  0.25379209  1
  Ca  Ca23  1  0.50016133  0.49519885  0.75140050  1
  Ti  Ti24  1  0.24967465  0.25019698  0.24873222  1
  Ti  Ti25  1  0.24820968  0.25215888  0.75018794  1
  Ti  Ti26  1  0.24924780  0.75015380  0.24864306  1
  Ti  Ti27  1  0.24799087  0.74871392  0.75171418  1
  Ti  Ti28  1  0.75155896  0.24951108  0.24986491  1
  Ti  Ti29  1  0.75142571  0.25224063  0.74985763  1
  Ti  Ti30  1  0.75073305  0.75077121  0.24978820  1
  Ti  Ti31  1  0.75219608  0.74940022  0.75085230  1
  Al  Al32  1  0.08529467  0.09225397  0.08298448  1
  Al  Al33  1  0.07735938  0.08572253  0.57930362  1
  Al  Al34  1  0.08352349  0.58272088  0.07910881  1
  Al  Al35  1  0.07196507  0.58283070  0.58713958  1
  Al  Al36  1  0.57559780  0.08583367  0.07530601  1
  Al  Al37  1  0.58854767  0.09300829  0.57813468  1
  Al  Al38  1  0.58689244  0.57651119  0.09612651  1
  Al  Al39  1  0.58924798  0.57003047  0.58394387  1
  Al  Al40  1  0.41613578  0.41182998  0.07941029  1
  Al  Al41  1  0.41106982  0.40960718  0.57478461  1
  Al  Al42  1  0.41623921  0.90403723  0.08802628  1
  Al  Al43  1  0.41586132  0.92439198  0.57142710  1
  Al  Al44  1  0.91954839  0.40728064  0.08432871  1
  Al  Al45  1  0.91592111  0.41290034  0.58760982  1
  Al  Al46  1  0.91457211  0.91133115  0.07466047  1
  Al  Al47  1  0.91041867  0.90815024  0.58152924  1
  Al  Al48  1  0.42044548  0.08658468  0.41825408  1
  Al  Al49  1  0.41739570  0.09453143  0.92232876  1
  Al  Al50  1  0.42478685  0.57887299  0.41824759  1
  Al  Al51  1  0.41059431  0.58321349  0.91862688  1
  Al  Al52  1  0.91532973  0.09080258  0.41624244  1
  Al  Al53  1  0.91048727  0.07796480  0.91727510  1
  Al  Al54  1  0.91949288  0.58633047  0.41889283  1
  Al  Al55  1  0.92205023  0.58895039  0.90879030  1
  Al  Al56  1  0.08918382  0.41176418  0.42203739  1
  Al  Al57  1  0.08620550  0.41228325  0.92057578  1
  Al  Al58  1  0.07555107  0.91522756  0.41085699  1
  Al  Al59  1  0.07056692  0.91007487  0.91659743  1
  Al  Al60  1  0.58504197  0.41097250  0.40956387  1
  Al  Al61  1  0.58007916  0.41983918  0.91743805  1
  Al  Al62  1  0.57732782  0.90633757  0.41262710  1
  Al  Al63  1  0.58650031  0.92581223  0.92081274  1
  Al  Al64  1  0.07702141  0.08809175  0.41123206  1
  Al  Al65  1  0.08190876  0.08873195  0.92580222  1
  Al  Al66  1  0.07698378  0.57852196  0.41445852  1
  Al  Al67  1  0.08147315  0.59198835  0.91182242  1
  Al  Al68  1  0.58434059  0.09512687  0.42175041  1
  Al  Al69  1  0.58493803  0.08512934  0.91260302  1
  Al  Al70  1  0.58810661  0.57469008  0.40896711  1
  Al  Al71  1  0.57627674  0.57591445  0.91749545  1
  Al  Al72  1  0.41787505  0.40453556  0.41379240  1
  Al  Al73  1  0.40947673  0.41647483  0.92004369  1
  Al  Al74  1  0.42006552  0.90971706  0.41116739  1
  Al  Al75  1  0.41551444  0.91557457  0.92896209  1
  Al  Al76  1  0.91361697  0.41113850  0.42508795  1
  Al  Al77  1  0.91522000  0.41387972  0.91989480  1
  Al  Al78  1  0.91459603  0.90950025  0.41604448  1
  Al  Al79  1  0.90913148  0.91251914  0.91105839  1
  Al  Al80  1  0.08235856  0.40547703  0.08417258  1
  Al  Al81  1  0.08051817  0.40869625  0.58385940  1
  Al  Al82  1  0.07789902  0.91933965  0.08117292  1
  Al  Al83  1  0.07129259  0.91602829  0.57994462  1
  Al  Al84  1  0.58717841  0.42009549  0.09421312  1
  Al  Al85  1  0.59154640  0.41409790  0.58175886  1
  Al  Al86  1  0.57408584  0.90641035  0.08619234  1
  Al  Al87  1  0.58115905  0.92153725  0.57387027  1
  Al  Al88  1  0.41366154  0.09061948  0.07886920  1
  Al  Al89  1  0.41915452  0.08440053  0.57891471  1
  Al  Al90  1  0.41501116  0.58763663  0.07791750  1
  Al  Al91  1  0.42103328  0.57453327  0.57782687  1
  Al  Al92  1  0.91595477  0.09138176  0.07884567  1
  Al  Al93  1  0.91208998  0.08767119  0.58008067  1
  Al  Al94  1  0.92041456  0.58089826  0.08030641  1
  Al  Al95  1  0.91389785  0.58404159  0.58873989  1
  Al  Al96  1  0.24515451  0.13511986  0.13520879  1
  Al  Al97  1  0.24852195  0.13962024  0.63376228  1
  Al  Al98  1  0.25137503  0.63702277  0.12888923  1
  Al  Al99  1  0.25109130  0.62890292  0.63711693  1
  Al  Al100  1  0.75778777  0.13686969  0.13244970  1
  Al  Al101  1  0.75076484  0.14018550  0.63468545  1
  Al  Al102  1  0.74639303  0.63724162  0.13356668  1
  Al  Al103  1  0.75041225  0.63453173  0.63713860  1
  Al  Al104  1  0.24944648  0.36245367  0.12717047  1
  Al  Al105  1  0.24904005  0.36401335  0.63276446  1
  Al  Al106  1  0.24562356  0.86597238  0.13668354  1
  Al  Al107  1  0.24599729  0.86098037  0.63673714  1
  Al  Al108  1  0.74836265  0.36296139  0.13704432  1
  Al  Al109  1  0.75058279  0.36355054  0.63352093  1
  Al  Al110  1  0.75793891  0.86574586  0.13571683  1
  Al  Al111  1  0.75604712  0.86168491  0.62974353  1
  Al  Al112  1  0.24895662  0.13846452  0.36491900  1
  Al  Al113  1  0.24506726  0.13587390  0.86542177  1
  Al  Al114  1  0.25116769  0.63711727  0.36466305  1
  Al  Al115  1  0.24833053  0.63608362  0.87032019  1
  Al  Al116  1  0.75069436  0.13869146  0.36444689  1
  Al  Al117  1  0.75673358  0.13664761  0.86712858  1
  Al  Al118  1  0.74871575  0.63743665  0.36154973  1
  Al  Al119  1  0.75268303  0.63014930  0.86481752  1
  Al  Al120  1  0.25116824  0.36274813  0.36706266  1
  Al  Al121  1  0.24667699  0.36218751  0.87085179  1
  Al  Al122  1  0.24912807  0.86235057  0.36048959  1
  Al  Al123  1  0.24829784  0.86654062  0.86561575  1
  Al  Al124  1  0.75052828  0.36398800  0.36380260  1
  Al  Al125  1  0.75198038  0.37074106  0.86057713  1
  Al  Al126  1  0.75179662  0.86168592  0.36891463  1
  Al  Al127  1  0.75676780  0.86541611  0.86844862  1
  Al  Al128  1  0.13047812  0.25051210  0.13076214  1
  Al  Al129  1  0.13068798  0.25634031  0.63042310  1
  Al  Al130  1  0.12943857  0.74903492  0.13045787  1
  Al  Al131  1  0.13274157  0.74685192  0.63753602  1
  Al  Al132  1  0.63522744  0.24929397  0.13672689  1
  Al  Al133  1  0.63008544  0.25111390  0.63468453  1
  Al  Al134  1  0.63429979  0.75431251  0.13547690  1
  Al  Al135  1  0.63558753  0.75627485  0.63626864  1
  Al  Al136  1  0.13426379  0.25414963  0.36451614  1
  Al  Al137  1  0.13122254  0.25123704  0.87051534  1
  Al  Al138  1  0.13291787  0.75202551  0.36248689  1
  Al  Al139  1  0.13527679  0.75069203  0.87207113  1
  Al  Al140  1  0.62878843  0.25199362  0.36255768  1
  Al  Al141  1  0.63704876  0.25316074  0.86393975  1
  Al  Al142  1  0.63018412  0.75342049  0.36224091  1
  Al  Al143  1  0.64040655  0.74747884  0.86716491  1
  Al  Al144  1  0.36483584  0.25221101  0.13507727  1
  Al  Al145  1  0.36747653  0.25200265  0.62987988  1
  Al  Al146  1  0.36615814  0.75250147  0.13658696  1
  Al  Al147  1  0.36384285  0.74890396  0.63513650  1
  Al  Al148  1  0.87149680  0.24991844  0.13715443  1
  Al  Al149  1  0.86846225  0.25530685  0.63261863  1
  Al  Al150  1  0.86992512  0.75105658  0.13446689  1
  Al  Al151  1  0.86682471  0.74826528  0.63649664  1
  Al  Al152  1  0.36862983  0.25251933  0.37022474  1
  Al  Al153  1  0.36317262  0.25433605  0.86618972  1
  Al  Al154  1  0.37052046  0.74943770  0.36204160  1
  Al  Al155  1  0.36346606  0.74836966  0.86582731  1
  Al  Al156  1  0.86667069  0.25103904  0.36515886  1
  Al  Al157  1  0.86959842  0.25019311  0.86424595  1
  Al  Al158  1  0.86582229  0.75390787  0.36548905  1
  Al  Al159  1  0.86724662  0.75382716  0.86656612  1
  Al  Al160  1  0.12679143  0.14060066  0.24747763  1
  Al  Al161  1  0.13298863  0.13846491  0.75029187  1
  Al  Al162  1  0.13662302  0.63549461  0.24637816  1
  Al  Al163  1  0.13484674  0.63511240  0.75157045  1
  Al  Al164  1  0.63686182  0.13559913  0.25137619  1
  Al  Al165  1  0.63735479  0.13875288  0.75098420  1
  Al  Al166  1  0.63491447  0.63385916  0.25051613  1
  Al  Al167  1  0.63915543  0.62988987  0.74938763  1
  Al  Al168  1  0.36358455  0.13851388  0.25265987  1
  Al  Al169  1  0.36277324  0.14065268  0.74919657  1
  Al  Al170  1  0.36714623  0.63505417  0.24811500  1
  Al  Al171  1  0.36359108  0.63577706  0.75108882  1
  Al  Al172  1  0.87238863  0.13838086  0.25083808  1
  Al  Al173  1  0.86530280  0.13555488  0.74985743  1
  Al  Al174  1  0.86465730  0.63524094  0.24731750  1
  Al  Al175  1  0.86641850  0.63560865  0.75032561  1
  Al  Al176  1  0.13493764  0.36284740  0.24555535  1
  Al  Al177  1  0.13016061  0.36234269  0.75069856  1
  Al  Al178  1  0.12688658  0.86301084  0.24766301  1
  Al  Al179  1  0.13170396  0.86436789  0.75669779  1
  Al  Al180  1  0.63702976  0.36707222  0.25170209  1
  Al  Al181  1  0.63370066  0.36835983  0.74693043  1
  Al  Al182  1  0.63648342  0.86621876  0.24947333  1
  Al  Al183  1  0.63937724  0.86346358  0.75356343  1
  Al  Al184  1  0.36394453  0.36339205  0.25213912  1
  Al  Al185  1  0.36779938  0.36218006  0.74689232  1
  Al  Al186  1  0.36897706  0.86400723  0.24906591  1
  Al  Al187  1  0.36284417  0.86260306  0.74929995  1
  Al  Al188  1  0.86798388  0.36499392  0.24593189  1
  Al  Al189  1  0.87229597  0.36347388  0.74914482  1
  Al  Al190  1  0.87105719  0.86297178  0.25120516  1
  Al  Al191  1  0.86735530  0.86549060  0.75434090  1
  Al  Al192  1  0.32131295  0.49906110  0.17246404  1
  Al  Al193  1  0.32862462  0.49891364  0.32851233  1
  Al  Al194  1  0.68490634  0.82196972  0.00096567  1
  Al  Al195  1  0.17081366  0.82853604  0.49880874  1
  Al  Al196  1  0.67497192  0.00054835  0.16765703  1
  Al  Al197  1  0.49843213  0.68095594  0.17716200  1
  Al  Al198  1  0.68764287  0.31015205  0.49798872  1
  Al  Al199  1  0.82364045  0.68373244  -0.00074642  1
  Al  Al200  1  0.81724133  0.49822034  0.67983441  1
  Al  Al201  1  0.17522987  0.18070362  0.49575173  1
  Al  Al202  1  0.50068050  0.32812974  0.18371836  1
  Al  Al203  1  -0.00103154  0.68436026  0.32086201  1
  Al  Al204  1  0.16803095  -0.00189701  0.67460203  1
  Al  Al205  1  -0.00030312  0.32060300  0.31810201  1
  Al  Al206  1  0.32594017  -0.00001231  0.33024522  1
  Al  Al207  1  0.67237819  0.67501235  0.49975841  1
  Al  Al208  1  0.50398147  0.67393690  0.66946484  1
  Al  Al209  1  0.83052212  -0.00070628  0.68283280  1
  Al  Al210  1  0.31707976  0.81164758  0.00124289  1
  Al  Al211  1  0.82379089  0.31010507  0.00090059  1
  Al  Al212  1  0.17132997  0.00114193  0.32065004  1
  Al  Al213  1  0.81316007  0.49990629  0.17275380  1
  Al  Al214  1  -0.00130031  0.17880124  0.68122739  1
  Al  Al215  1  0.82894191  0.00049167  0.31982948  1
  Al  Al216  1  0.68116044  0.00001003  0.67768942  1
  Al  Al217  1  -0.00036379  0.81233606  0.69027453  1
  Al  Al218  1  0.50017853  0.67377523  0.82742980  1
  Al  Al219  1  0.31915611  0.49847979  0.82010488  1
  Al  Al220  1  0.49926982  0.17519230  0.18058713  1
  Al  Al221  1  0.17357167  0.66954342  0.50052137  1
  Al  Al222  1  0.00104516  0.69336119  0.80770689  1
  Al  Al223  1  0.32590024  0.00176932  0.17417436  1
  Al  Al224  1  0.17255681  0.49946410  0.67622288  1
  Al  Al225  1  0.81799021  0.50033898  0.32832966  1
  Al  Al226  1  0.50000038  0.18119888  0.82026018  1
  Al  Al227  1  0.32443400  0.82107627  0.49827079  1
  Al  Al228  1  0.82899807  0.68278687  0.50020936  1
  Al  Al229  1  0.17462276  0.49881823  0.32301447  1
  Al  Al230  1  0.81144181  0.18932834  0.49949263  1
  Al  Al231  1  0.30894096  0.19179295  0.00021356  1
  Al  Al232  1  0.32527197  0.00072968  0.67298258  1
  Al  Al233  1  0.32418744  0.00260077  0.82824724  1
  Al  Al234  1  0.68943133  0.00104992  0.82690391  1
  Al  Al235  1  0.50087247  0.83208908  0.82419258  1
  Al  Al236  1  0.67329667  0.33256115  0.00039522  1
  Al  Al237  1  0.67487375  -0.00058892  0.33275211  1
  Al  Al238  1  0.68560878  0.17710922  0.00000377  1
  Au  Au239  1  0.66440883  0.65742033  0.00022843  1
  Au  Au240  1  0.67889273  0.65936472  0.49921158  1
  Au  Au241  1  0.66442069  0.49911595  0.82175090  1
  Au  Au242  1  0.67326543  0.00270224  0.34804133  1
  Au  Au243  1  0.17065413  0.50036848  0.83426162  1
  Au  Au244  1  0.17754273  0.66713366  0.00066629  1
  Au  Au245  1  -0.00313483  0.16769110  0.83589327  1
  Au  Au246  1  0.50300345  0.82729593  0.84055071  1
  Au  Au247  1  0.84017976  0.00030219  0.16714399  1
  Au  Au248  1  0.50114598  0.67271352  0.16805579  1
  Au  Au249  1  0.50030454  0.33522000  0.66596966  1
  Au  Au250  1  0.49906231  0.16537994  0.67195962  1
  Au  Au251  1  0.16318930  0.49803563  0.66814232  1
  Au  Au252  1  0.17739825  0.31828728  0.00111308  1
  Au  Au253  1  -0.00052150  0.81866495  0.67452530  1
  Au  Au254  1  0.67359397  0.17234468  -0.00013539  1
  Au  Au255  1  0.67558641  0.83611365  0.00115294  1
  Au  Au256  1  0.66975910  0.00091105  0.66577012  1
  Au  Au257  1  0.67647103  0.83444203  0.49906048  1
  Au  Au258  1  0.83884394  0.67633731  -0.00135204  1
  Au  Au259  1  0.33328847  0.49966601  0.16814585  1
  Au  Au260  1  0.50244423  0.67420439  0.33320300  1
  Au  Au261  1  0.33139835  0.17747240  0.50003463  1
  Au  Au262  1  0.16208780  0.00308194  0.17240487  1
  Au  Au263  1  0.49409184  0.83775894  0.65978155  1
  Au  Au264  1  -0.00249221  0.83267633  0.17239778  1
  Au  Au265  1  0.00147595  0.66512769  0.17467869  1
  Au  Au266  1  -0.00002896  0.33011828  0.33234615  1
  Au  Au267  1  0.15755707  -0.00012447  0.83830833  1
  Au  Au268  1  -0.00201455  0.17607219  0.66886814  1
  Au  Au269  1  0.15760947  0.49640259  0.17402042  1
  Au  Au270  1  0.67883700  0.32441170  0.49659242  1
  Au  Au271  1  0.33617977  0.49522198  0.67003436  1
  Au  Au272  1  0.82551596  0.49761444  0.16127660  1
  Au  Au273  1  0.17311274  -0.00290081  0.65823299  1
  Au  Au274  1  0.15751717  0.67506516  0.50047009  1
  Au  Au275  1  0.16620297  0.17226090  0.49785685  1
  Au  Au276  1  0.33896984  0.67177319  0.49798897  1
  Au  Au277  1  0.49965439  0.17521084  0.32863188  1
  Au  Au278  1  0.00081117  0.33677478  0.82599281  1
  Au  Au279  1  0.33735943  -0.00234688  0.17041523  1
  Au  Au280  1  0.49710960  0.32766042  0.84022138  1
  Au  Au281  1  0.17171031  0.83591205  -0.00076766  1
  Au  Au282  1  0.65846974  0.00049692  0.16508237  1
  Au  Au283  1  0.34054643  0.00306196  0.83159951  1
  Au  Au284  1  -0.00021886  0.17656378  0.16914658  1
  Au  Au285  1  0.50550676  0.65781995  0.67462253  1
  Au  Au286  1  0.83381027  0.50004995  0.82773412  1
  Au  Au287  1  0.82131434  0.50063710  0.34517364  1
