# generated using pymatgen
data_Ca24Ti8Al207Au49
_symmetry_space_group_name_H-M   'P 1'
_cell_length_a   17.32170026
_cell_length_b   17.31938304
_cell_length_c   17.32140723
_cell_angle_alpha   90.00160387
_cell_angle_beta   89.99912296
_cell_angle_gamma   89.99852796
_symmetry_Int_Tables_number   1
_chemical_formula_structural   Ca24Ti8Al207Au49
_chemical_formula_sum   'Ca24 Ti8 Al207 Au49'
_cell_volume   5196.44228886
_cell_formula_units_Z   1
loop_
 _symmetry_equiv_pos_site_id
 _symmetry_equiv_pos_as_xyz
  1  'x, y, z'
loop_
 _atom_site_type_symbol
 _atom_site_label
 _atom_site_symmetry_multiplicity
 _atom_site_fract_x
 _atom_site_fract_y
 _atom_site_fract_z
 _atom_site_occupancy
  Ca  Ca0  1  0.24929872  -0.00262023  0.00007378  1
  Ca  Ca1  1  0.24760192  0.00291456  0.49560167  1
  Ca  Ca2  1  0.24897003  0.50066047  0.00145617  1
  Ca  Ca3  1  0.24644902  0.49826755  0.49676339  1
  Ca  Ca4  1  0.75326876  0.00251878  0.00078249  1
  Ca  Ca5  1  0.75628969  0.00067229  0.49795380  1
  Ca  Ca6  1  0.75451774  0.49735811  -0.00127096  1
  Ca  Ca7  1  0.75368204  0.49873604  0.50094285  1
  Ca  Ca8  1  -0.00524206  0.24922533  -0.00109918  1
  Ca  Ca9  1  0.00119870  0.25151516  0.49949236  1
  Ca  Ca10  1  -0.00084499  0.75165141  -0.00173275  1
  Ca  Ca11  1  -0.00079673  0.74845800  0.50245214  1
  Ca  Ca12  1  0.50535938  0.24794919  0.00156194  1
  Ca  Ca13  1  0.49968574  0.24691047  0.50015729  1
  Ca  Ca14  1  0.50121889  0.74820926  -0.00057576  1
  Ca  Ca15  1  0.49863533  0.74948463  0.49858993  1
  Ca  Ca16  1  0.00198446  0.00173355  0.25659419  1
  Ca  Ca17  1  -0.00226524  0.00045008  0.74277399  1
  Ca  Ca18  1  -0.00251310  0.49443549  0.25735870  1
  Ca  Ca19  1  -0.00113537  0.49949587  0.74461660  1
  Ca  Ca20  1  0.49825077  0.00698293  0.25202106  1
  Ca  Ca21  1  0.49860222  -0.00502569  0.75199108  1
  Ca  Ca22  1  0.50007270  0.49587519  0.25550775  1
  Ca  Ca23  1  0.50088373  0.50483536  0.74760230  1
  Ti  Ti24  1  0.24896735  0.24956745  0.25164151  1
  Ti  Ti25  1  0.24771948  0.25104646  0.74890345  1
  Ti  Ti26  1  0.24986577  0.75071330  0.25159300  1
  Ti  Ti27  1  0.24788601  0.74844787  0.74781245  1
  Ti  Ti28  1  0.75059761  0.25051649  0.25191431  1
  Ti  Ti29  1  0.75212365  0.24922908  0.74794609  1
  Ti  Ti30  1  0.75146705  0.74920497  0.25252073  1
  Ti  Ti31  1  0.75126065  0.75051289  0.74794524  1
  Al  Al32  1  0.07995447  0.07998961  0.08672813  1
  Al  Al33  1  0.08073895  0.09384811  0.58225476  1
  Al  Al34  1  0.07848042  0.57823994  0.08240771  1
  Al  Al35  1  0.08587398  0.57988289  0.59384697  1
  Al  Al36  1  0.57846615  0.09556135  0.09171604  1
  Al  Al37  1  0.59117178  0.07830703  0.56969768  1
  Al  Al38  1  0.57901812  0.57757521  0.07363425  1
  Al  Al39  1  0.57860464  0.59154914  0.58914252  1
  Al  Al40  1  0.42034352  0.41892199  0.08447943  1
  Al  Al41  1  0.40869190  0.41654413  0.57067103  1
  Al  Al42  1  0.40772656  0.92752829  0.08671470  1
  Al  Al43  1  0.42300348  0.91788848  0.57874557  1
  Al  Al44  1  0.91101165  0.40189738  0.08555195  1
  Al  Al45  1  0.90974677  0.40878743  0.57466917  1
  Al  Al46  1  0.92227555  0.92860809  0.08951456  1
  Al  Al47  1  0.90446026  0.91756249  0.58599888  1
  Al  Al48  1  0.41203108  0.08947376  0.40160642  1
  Al  Al49  1  0.41540466  0.07240005  0.92527008  1
  Al  Al50  1  0.41269968  0.57755220  0.41511398  1
  Al  Al51  1  0.42641018  0.59128943  0.90860615  1
  Al  Al52  1  0.91805125  0.09036650  0.42606963  1
  Al  Al53  1  0.91327960  0.09036167  0.92057060  1
  Al  Al54  1  0.91144279  0.57331147  0.41278732  1
  Al  Al55  1  0.91548166  0.57495751  0.90237834  1
  Al  Al56  1  0.08410258  0.40660446  0.41177287  1
  Al  Al57  1  0.07477749  0.42609022  0.92182028  1
  Al  Al58  1  0.08547959  0.92765003  0.41308368  1
  Al  Al59  1  0.08996332  0.91991498  0.90800235  1
  Al  Al60  1  0.58954919  0.41061099  0.42227276  1
  Al  Al61  1  0.59575671  0.42500816  0.91851802  1
  Al  Al62  1  0.58862883  0.91498821  0.42258767  1
  Al  Al63  1  0.57211392  0.91712156  0.91805076  1
  Al  Al64  1  0.09024901  0.09086045  0.41820423  1
  Al  Al65  1  0.08543638  0.07624852  0.90658840  1
  Al  Al66  1  0.08071978  0.57306480  0.41896342  1
  Al  Al67  1  0.07487404  0.58534014  0.91158722  1
  Al  Al68  1  0.57937809  0.09314084  0.40962764  1
  Al  Al69  1  0.58291142  0.08027622  0.93087232  1
  Al  Al70  1  0.57843410  0.57954640  0.42346981  1
  Al  Al71  1  0.58596587  0.58556353  0.90364169  1
  Al  Al72  1  0.40130454  0.41579093  0.41203943  1
  Al  Al73  1  0.42310314  0.42538497  0.92282843  1
  Al  Al74  1  0.41118582  0.92724597  0.41013249  1
  Al  Al75  1  0.41376928  0.91432227  0.91325553  1
  Al  Al76  1  0.90964554  0.40734836  0.40971937  1
  Al  Al77  1  0.90433469  0.41300832  0.92123415  1
  Al  Al78  1  0.91413996  0.91258338  0.42496210  1
  Al  Al79  1  0.92582084  0.92327079  0.91705920  1
  Al  Al80  1  0.07001850  0.40975850  0.09428082  1
  Al  Al81  1  0.09135445  0.41577293  0.58368187  1
  Al  Al82  1  0.08179451  0.92042689  0.08432191  1
  Al  Al83  1  0.07520471  0.92225653  0.58059502  1
  Al  Al84  1  0.58496546  0.41558488  0.07745090  1
  Al  Al85  1  0.59342454  0.41744670  0.57692797  1
  Al  Al86  1  0.57759162  0.92803805  0.08052170  1
  Al  Al87  1  0.59058277  0.90912129  0.57924961  1
  Al  Al88  1  0.41429732  0.08831153  0.10125378  1
  Al  Al89  1  0.41321668  0.07688017  0.56574219  1
  Al  Al90  1  0.41834139  0.58040537  0.08270289  1
  Al  Al91  1  0.41951064  0.58747655  0.58550764  1
  Al  Al92  1  0.90911460  0.08951729  0.08241969  1
  Al  Al93  1  0.91157919  0.09291704  0.58860590  1
  Al  Al94  1  0.92053169  0.57465558  0.08512587  1
  Al  Al95  1  0.92411295  0.58441967  0.58664622  1
  Al  Al96  1  0.25062159  0.13273846  0.13810802  1
  Al  Al97  1  0.24486057  0.13714617  0.63196130  1
  Al  Al98  1  0.24926085  0.63194836  0.13809700  1
  Al  Al99  1  0.24882629  0.63017426  0.63624111  1
  Al  Al100  1  0.75271634  0.13799461  0.13721461  1
  Al  Al101  1  0.75501026  0.13513992  0.62527218  1
  Al  Al102  1  0.75470298  0.62884498  0.13849923  1
  Al  Al103  1  0.74689207  0.63382710  0.63325768  1
  Al  Al104  1  0.25171204  0.36392406  0.13606729  1
  Al  Al105  1  0.24828571  0.36963303  0.63531040  1
  Al  Al106  1  0.25279035  0.86562013  0.13642281  1
  Al  Al107  1  0.24723770  0.86207362  0.63420557  1
  Al  Al108  1  0.75399530  0.37006011  0.13829004  1
  Al  Al109  1  0.75383606  0.36522036  0.62938887  1
  Al  Al110  1  0.75214076  0.86400010  0.13603476  1
  Al  Al111  1  0.75483973  0.86390983  0.63064959  1
  Al  Al112  1  0.24803549  0.13099913  0.36439216  1
  Al  Al113  1  0.24742169  0.13518922  0.86506669  1
  Al  Al114  1  0.25260493  0.63322071  0.36442453  1
  Al  Al115  1  0.24676275  0.63314885  0.86113638  1
  Al  Al116  1  0.75089963  0.13661414  0.37335086  1
  Al  Al117  1  0.75387336  0.13403320  0.86271334  1
  Al  Al118  1  0.75293201  0.63330243  0.36784213  1
  Al  Al119  1  0.75240159  0.63606917  0.85932023  1
  Al  Al120  1  0.25194996  0.36331574  0.36688988  1
  Al  Al121  1  0.24425233  0.36728613  0.86527381  1
  Al  Al122  1  0.24929082  0.87079249  0.36581861  1
  Al  Al123  1  0.24774370  0.86248862  0.86298892  1
  Al  Al124  1  0.75400832  0.36588771  0.36864043  1
  Al  Al125  1  0.75693959  0.36352893  0.86647992  1
  Al  Al126  1  0.75015627  0.86624255  0.37072236  1
  Al  Al127  1  0.75342362  0.86571918  0.86371271  1
  Al  Al128  1  0.13591539  0.25049010  0.13653635  1
  Al  Al129  1  0.13419822  0.24996752  0.63400904  1
  Al  Al130  1  0.13626098  0.74957186  0.13899088  1
  Al  Al131  1  0.12696156  0.75000429  0.63681550  1
  Al  Al132  1  0.63902832  0.24897010  0.13521129  1
  Al  Al133  1  0.64020624  0.25219646  0.62630104  1
  Al  Al134  1  0.63757871  0.74713846  0.13694198  1
  Al  Al135  1  0.63932108  0.75154960  0.63063467  1
  Al  Al136  1  0.13711353  0.24821962  0.36766206  1
  Al  Al137  1  0.13356634  0.24647150  0.86615707  1
  Al  Al138  1  0.13751216  0.74664617  0.36420183  1
  Al  Al139  1  0.13346787  0.74825504  0.86019085  1
  Al  Al140  1  0.63941983  0.25191906  0.36990994  1
  Al  Al141  1  0.63768075  0.25077636  0.86372844  1
  Al  Al142  1  0.63844984  0.75064118  0.36818048  1
  Al  Al143  1  0.63605014  0.74739668  0.86174553  1
  Al  Al144  1  0.36594971  0.24597071  0.13991827  1
  Al  Al145  1  0.36090282  0.25567195  0.63119594  1
  Al  Al146  1  0.36433635  0.74661628  0.13810226  1
  Al  Al147  1  0.36378050  0.74720626  0.63602070  1
  Al  Al148  1  0.86365205  0.25432201  0.13458450  1
  Al  Al149  1  0.86482516  0.24851467  0.62921778  1
  Al  Al150  1  0.86373576  0.74732777  0.13803036  1
  Al  Al151  1  0.86840183  0.75013670  0.63521024  1
  Al  Al152  1  0.36470526  0.24660447  0.36412891  1
  Al  Al153  1  0.36150878  0.25169289  0.86514684  1
  Al  Al154  1  0.36337009  0.75420792  0.36245857  1
  Al  Al155  1  0.36252520  0.74552236  0.86147824  1
  Al  Al156  1  0.86507507  0.25379461  0.36930509  1
  Al  Al157  1  0.86573744  0.24589250  0.86673116  1
  Al  Al158  1  0.86515217  0.74914827  0.36689003  1
  Al  Al159  1  0.86546045  0.75367078  0.86310085  1
  Al  Al160  1  0.13386061  0.13206200  0.25432963  1
  Al  Al161  1  0.12856025  0.13825252  0.74815025  1
  Al  Al162  1  0.12949058  0.63376186  0.25076305  1
  Al  Al163  1  0.13341267  0.62917344  0.74364766  1
  Al  Al164  1  0.63389247  0.13890592  0.25295902  1
  Al  Al165  1  0.64054629  0.13488668  0.74421034  1
  Al  Al166  1  0.63797817  0.63351422  0.25200805  1
  Al  Al167  1  0.63082581  0.63840402  0.74769487  1
  Al  Al168  1  0.36205171  0.13145560  0.25201907  1
  Al  Al169  1  0.36162962  0.13773121  0.74866436  1
  Al  Al170  1  0.36616126  0.63380858  0.25286946  1
  Al  Al171  1  0.36878843  0.63341641  0.74635751  1
  Al  Al172  1  0.86345254  0.13878042  0.25552882  1
  Al  Al173  1  0.87006366  0.13654796  0.74338794  1
  Al  Al174  1  0.86867299  0.63007659  0.25270014  1
  Al  Al175  1  0.86427102  0.63286331  0.74646878  1
  Al  Al176  1  0.13246246  0.36084012  0.25399899  1
  Al  Al177  1  0.13528143  0.36897575  0.74634047  1
  Al  Al178  1  0.13528413  0.86693485  0.25362009  1
  Al  Al179  1  0.12857713  0.86532609  0.75045672  1
  Al  Al180  1  0.63766552  0.36619187  0.24957078  1
  Al  Al181  1  0.63892753  0.36235954  0.74785477  1
  Al  Al182  1  0.63805770  0.86700478  0.25086234  1
  Al  Al183  1  0.63852032  0.86581714  0.74926311  1
  Al  Al184  1  0.36566896  0.36539066  0.25609259  1
  Al  Al185  1  0.36525430  0.36616373  0.74914903  1
  Al  Al186  1  0.36152374  0.87212301  0.25119411  1
  Al  Al187  1  0.36337915  0.86392487  0.75016637  1
  Al  Al188  1  0.86687932  0.36539679  0.25312581  1
  Al  Al189  1  0.86236231  0.36298594  0.74909824  1
  Al  Al190  1  0.86404285  0.86533763  0.25579498  1
  Al  Al191  1  0.86938378  0.86728567  0.74363772  1
  Al  Al192  1  0.17173273  0.00125765  0.68616079  1
  Al  Al193  1  0.69266174  0.49947821  0.81587259  1
  Al  Al194  1  -0.00174108  0.67920199  0.80933993  1
  Al  Al195  1  -0.00050995  0.32217931  0.82682203  1
  Al  Al196  1  0.18619435  0.31413270  0.50092161  1
  Al  Al197  1  0.67631768  -0.00010504  0.32368279  1
  Al  Al198  1  0.82171837  0.68144486  0.50199527  1
  Al  Al199  1  0.67500019  0.67161052  -0.00130067  1
  Al  Al200  1  0.31425916  -0.00031327  0.82405618  1
  Al  Al201  1  0.17990605  0.67171506  0.00089858  1
  Al  Al202  1  0.00000031  0.18611138  0.32904808  1
  Al  Al203  1  0.49887709  0.81261604  0.82591247  1
  Al  Al204  1  0.49602758  0.82562765  0.17086278  1
  Al  Al205  1  0.49885388  0.16672247  0.66831155  1
  Al  Al206  1  0.68336514  0.49911415  0.32411459  1
  Al  Al207  1  0.50133490  0.82845145  0.32903966  1
  Al  Al208  1  0.50038307  0.32996435  0.67296077  1
  Al  Al209  1  0.17635500  0.82925851  0.49797410  1
  Al  Al210  1  0.49844357  0.17757386  0.83007061  1
  Al  Al211  1  -0.00066923  0.31918064  0.67001123  1
  Al  Al212  1  0.31877142  0.49871018  0.18875828  1
  Al  Al213  1  0.68822895  0.32572374  0.00079740  1
  Al  Al214  1  0.32324762  0.17436292  0.00129709  1
  Al  Al215  1  0.68617243  0.17442284  0.00004969  1
  Al  Al216  1  0.83128694  0.67365262  -0.00250754  1
  Al  Al217  1  0.32607964  0.67872917  0.49894794  1
  Al  Al218  1  0.68851520  -0.00132877  0.67455997  1
  Al  Al219  1  0.50128845  0.81109294  0.67133316  1
  Al  Al220  1  0.18461423  0.49801707  0.32252650  1
  Al  Al221  1  0.32101887  0.50038054  0.81906042  1
  Al  Al222  1  0.82344012  0.49803784  0.67545575  1
  Al  Al223  1  0.82422929  0.00109163  0.81421505  1
  Al  Al224  1  0.18703108  -0.00085345  0.18761885  1
  Al  Al225  1  0.50130617  0.31324982  0.17715325  1
  Al  Al226  1  -0.00075768  0.18998698  0.17315622  1
  Al  Al227  1  0.32685084  -0.00005248  0.67063189  1
  Al  Al228  1  0.50094336  0.31567166  0.32928661  1
  Al  Al229  1  0.00070711  0.82106998  0.33051223  1
  Al  Al230  1  0.17266785  0.82815762  0.00084285  1
  Al  Al231  1  0.50096990  0.67356912  0.32459744  1
  Al  Al232  1  0.67632621  0.83080848  -0.00134954  1
  Al  Al233  1  0.17178681  0.67024447  0.50210803  1
  Al  Al234  1  0.31019825  0.18718318  0.49893930  1
  Al  Al235  1  0.82012857  0.00198309  0.18422942  1
  Al  Al236  1  0.17423663  0.32420453  0.00120872  1
  Al  Al237  1  0.32686889  0.82275098  0.00020007  1
  Al  Al238  1  -0.00010524  0.82375702  0.17622768  1
  Au  Au239  1  0.15907653  0.50050771  0.82178627  1
  Au  Au240  1  0.49932109  0.33461057  0.65680352  1
  Au  Au241  1  0.50661993  0.65912495  0.17505707  1
  Au  Au242  1  0.16794643  0.15804873  -0.00248390  1
  Au  Au243  1  0.49878300  0.14971342  0.66416816  1
  Au  Au244  1  0.66039476  0.82459626  -0.00147451  1
  Au  Au245  1  0.50518528  0.32122245  0.16219893  1
  Au  Au246  1  0.00194498  0.82571305  0.83316711  1
  Au  Au247  1  0.65951330  0.67948496  0.49974145  1
  Au  Au248  1  0.66729025  0.00238880  0.33194440  1
  Au  Au249  1  0.83387859  0.00154357  0.82783825  1
  Au  Au250  1  0.17274582  0.00440246  0.66945780  1
  Au  Au251  1  0.17460163  -0.00353957  0.17599159  1
  Au  Au252  1  0.34398958  0.67529896  -0.00126073  1
  Au  Au253  1  0.50181771  0.82772641  0.67477712  1
  Au  Au254  1  0.16372575  0.82680060  0.49701366  1
  Au  Au255  1  0.00069884  0.66798723  0.33715472  1
  Au  Au256  1  0.32306872  0.50036006  0.65621736  1
  Au  Au257  1  0.15539518  0.49574615  0.17809518  1
  Au  Au258  1  0.16326361  0.67336781  -0.00261379  1
  Au  Au259  1  0.16152975  0.33565839  0.00264885  1
  Au  Au260  1  0.83021745  0.65777055  -0.00646688  1
  Au  Au261  1  0.67259288  0.00640626  0.16302016  1
  Au  Au262  1  0.65973331  0.00014059  0.83337256  1
  Au  Au263  1  0.84159084  0.00211377  0.33290994  1
  Au  Au264  1  0.33170777  0.50187993  0.83225188  1
  Au  Au265  1  0.83617489  0.49932566  0.67625398  1
  Au  Au266  1  -0.00450677  0.82621776  0.66343473  1
  Au  Au267  1  0.67482644  0.49929900  0.33877818  1
  Au  Au268  1  -0.00415591  0.17330811  0.17461097  1
  Au  Au269  1  0.83528034  0.67146407  0.50174406  1
  Au  Au270  1  0.50780946  0.34065896  0.83807693  1
  Au  Au271  1  0.67285183  0.17813869  0.49749385  1
  Au  Au272  1  0.32290296  0.17573409  0.49618972  1
  Au  Au273  1  -0.00029932  0.16179260  0.82389600  1
  Au  Au274  1  0.33820728  0.32950528  -0.00104675  1
  Au  Au275  1  0.49406698  0.84149760  0.17650257  1
  Au  Au276  1  -0.00550551  0.33765827  0.82539296  1
  Au  Au277  1  0.67192274  0.50124685  0.16083796  1
  Au  Au278  1  0.66467842  0.50323926  0.67115643  1
  Au  Au279  1  0.33197855  0.49852659  0.17768782  1
  Au  Au280  1  0.49870244  0.32252383  0.34480627  1
  Au  Au281  1  0.49826522  0.16525279  0.84151954  1
  Au  Au282  1  0.83993855  0.49494570  0.17736005  1
  Au  Au283  1  -0.00127252  0.67453628  0.16701243  1
  Au  Au284  1  0.84020965  0.84064526  0.00620351  1
  Au  Au285  1  0.33717430  0.83071173  0.49646892  1
  Au  Au286  1  0.33224047  0.16562007  0.00276753  1
  Au  Au287  1  0.68031191  -0.00203027  0.65979409  1
