# generated using pymatgen
data_Ca24Ti8Al207Au49
_symmetry_space_group_name_H-M   'P 1'
_cell_length_a   17.31946444
_cell_length_b   17.31932564
_cell_length_c   17.31961262
_cell_angle_alpha   90.00109830
_cell_angle_beta   89.99718989
_cell_angle_gamma   90.00096218
_symmetry_Int_Tables_number   1
_chemical_formula_structural   Ca24Ti8Al207Au49
_chemical_formula_sum   'Ca24 Ti8 Al207 Au49'
_cell_volume   5195.21601199
_cell_formula_units_Z   1
loop_
 _symmetry_equiv_pos_site_id
 _symmetry_equiv_pos_as_xyz
  1  'x, y, z'
loop_
 _atom_site_type_symbol
 _atom_site_label
 _atom_site_symmetry_multiplicity
 _atom_site_fract_x
 _atom_site_fract_y
 _atom_site_fract_z
 _atom_site_occupancy
  Ca  Ca0  1  0.24903146  -0.00023031  -0.00303874  1
  Ca  Ca1  1  0.25295673  0.00043550  0.50216271  1
  Ca  Ca2  1  0.24440046  0.50047486  -0.00301005  1
  Ca  Ca3  1  0.24816776  0.50211038  0.50303855  1
  Ca  Ca4  1  0.74918271  -0.00062247  -0.00172005  1
  Ca  Ca5  1  0.74983861  0.00064148  0.50150399  1
  Ca  Ca6  1  0.75223945  0.50012944  0.00387809  1
  Ca  Ca7  1  0.75188549  0.50076642  0.49380790  1
  Ca  Ca8  1  -0.00211430  0.25753238  0.00053523  1
  Ca  Ca9  1  -0.00392290  0.25644423  0.50124688  1
  Ca  Ca10  1  -0.00066926  0.74524243  -0.00307020  1
  Ca  Ca11  1  -0.00020471  0.74823938  0.50320942  1
  Ca  Ca12  1  0.50039625  0.25053512  0.00242998  1
  Ca  Ca13  1  0.50160648  0.24920248  0.49968428  1
  Ca  Ca14  1  0.50058925  0.74502868  0.00233993  1
  Ca  Ca15  1  0.49904879  0.74634683  0.49705513  1
  Ca  Ca16  1  -0.00027633  -0.00073767  0.25249332  1
  Ca  Ca17  1  0.00379521  0.00136304  0.74830858  1
  Ca  Ca18  1  -0.00517671  0.50166647  0.25326997  1
  Ca  Ca19  1  -0.00035178  0.49967863  0.75208054  1
  Ca  Ca20  1  0.50496263  -0.00475910  0.25540764  1
  Ca  Ca21  1  0.49942305  -0.00083234  0.74656601  1
  Ca  Ca22  1  0.50251999  0.50866621  0.24900150  1
  Ca  Ca23  1  0.50079975  0.50373717  0.74941539  1
  Ti  Ti24  1  0.24855001  0.25216288  0.24959369  1
  Ti  Ti25  1  0.25117520  0.24841341  0.74871030  1
  Ti  Ti26  1  0.24975086  0.74746839  0.25055014  1
  Ti  Ti27  1  0.24998213  0.75095294  0.74845085  1
  Ti  Ti28  1  0.75091424  0.25125013  0.25142906  1
  Ti  Ti29  1  0.74925821  0.25019729  0.74963294  1
  Ti  Ti30  1  0.75049703  0.74859444  0.25076289  1
  Ti  Ti31  1  0.75038312  0.74991554  0.74858664  1
  Al  Al32  1  0.09403626  0.08453053  0.07192971  1
  Al  Al33  1  0.08911368  0.07527099  0.58426781  1
  Al  Al34  1  0.08515693  0.58827396  0.07979227  1
  Al  Al35  1  0.08829438  0.58087035  0.58370322  1
  Al  Al36  1  0.57393924  0.09136705  0.08955794  1
  Al  Al37  1  0.58527355  0.09122671  0.58500394  1
  Al  Al38  1  0.58786174  0.59135411  0.08654327  1
  Al  Al39  1  0.57629185  0.59248333  0.58086993  1
  Al  Al40  1  0.42866191  0.41117820  0.08614773  1
  Al  Al41  1  0.41807878  0.42210647  0.58675560  1
  Al  Al42  1  0.42822668  0.91851135  0.07964949  1
  Al  Al43  1  0.40795842  0.91423065  0.58123561  1
  Al  Al44  1  0.90643027  0.41731720  0.08154713  1
  Al  Al45  1  0.91353352  0.41390332  0.57252671  1
  Al  Al46  1  0.91619561  0.91792246  0.08302396  1
  Al  Al47  1  0.90070124  0.91518377  0.58620145  1
  Al  Al48  1  0.41894426  0.07456052  0.41665049  1
  Al  Al49  1  0.40891056  0.08384434  0.91292441  1
  Al  Al50  1  0.42542734  0.59093190  0.41427377  1
  Al  Al51  1  0.42263735  0.59016244  0.91711293  1
  Al  Al52  1  0.90911617  0.08667854  0.42572433  1
  Al  Al53  1  0.91833884  0.08142914  0.91979659  1
  Al  Al54  1  0.90745265  0.57471266  0.41149959  1
  Al  Al55  1  0.92237563  0.57861483  0.92403849  1
  Al  Al56  1  0.07583159  0.41613492  0.40895565  1
  Al  Al57  1  0.07791819  0.41433485  0.90787570  1
  Al  Al58  1  0.08747489  0.92239238  0.41396344  1
  Al  Al59  1  0.08878549  0.91872199  0.91274520  1
  Al  Al60  1  0.59568300  0.42242630  0.41258210  1
  Al  Al61  1  0.58018629  0.40949327  0.91796527  1
  Al  Al62  1  0.58519079  0.90845483  0.42196623  1
  Al  Al63  1  0.58497497  0.91330701  0.92337262  1
  Al  Al64  1  0.09054866  0.07901859  0.41277518  1
  Al  Al65  1  0.09793307  0.08274864  0.91380471  1
  Al  Al66  1  0.08678838  0.57645021  0.41759328  1
  Al  Al67  1  0.08863592  0.58454433  0.91773603  1
  Al  Al68  1  0.58817552  0.08952682  0.42484232  1
  Al  Al69  1  0.57405679  0.08175008  0.91969758  1
  Al  Al70  1  0.58904946  0.58675567  0.40541027  1
  Al  Al71  1  0.58178787  0.59415062  0.92212237  1
  Al  Al72  1  0.42345752  0.42222089  0.42197138  1
  Al  Al73  1  0.42567871  0.41427577  0.91519626  1
  Al  Al74  1  0.41008576  0.91239686  0.41923426  1
  Al  Al75  1  0.41274486  0.92488475  0.91014618  1
  Al  Al76  1  0.91071077  0.41090908  0.40890773  1
  Al  Al77  1  0.91535432  0.40842557  0.91773032  1
  Al  Al78  1  0.91001240  0.91011533  0.42577216  1
  Al  Al79  1  0.92088584  0.91713506  0.91929089  1
  Al  Al80  1  0.08070091  0.42138718  0.07910495  1
  Al  Al81  1  0.08539984  0.42262589  0.58695486  1
  Al  Al82  1  0.08171242  0.91645573  0.07624266  1
  Al  Al83  1  0.08497067  0.91944894  0.58706841  1
  Al  Al84  1  0.58596185  0.41336218  0.08939716  1
  Al  Al85  1  0.58175032  0.41056514  0.57490328  1
  Al  Al86  1  0.58419559  0.90490360  0.08021916  1
  Al  Al87  1  0.59141235  0.91137445  0.57972471  1
  Al  Al88  1  0.41917630  0.09427178  0.08094183  1
  Al  Al89  1  0.42071071  0.07855544  0.59072704  1
  Al  Al90  1  0.42358536  0.59052269  0.08256530  1
  Al  Al91  1  0.41590506  0.58690585  0.59112555  1
  Al  Al92  1  0.91348452  0.07619081  0.07843894  1
  Al  Al93  1  0.89994430  0.07884762  0.58338425  1
  Al  Al94  1  0.91003181  0.57821985  0.09191346  1
  Al  Al95  1  0.92067342  0.58008551  0.57644604  1
  Al  Al96  1  0.24436283  0.13659600  0.13450271  1
  Al  Al97  1  0.25213195  0.12973316  0.63411038  1
  Al  Al98  1  0.24672836  0.63319702  0.13589804  1
  Al  Al99  1  0.25245360  0.63687116  0.63514223  1
  Al  Al100  1  0.75552762  0.13828106  0.13568825  1
  Al  Al101  1  0.74642178  0.13228410  0.63508638  1
  Al  Al102  1  0.75092368  0.63394247  0.13162947  1
  Al  Al103  1  0.75058281  0.64003832  0.62572090  1
  Al  Al104  1  0.24362017  0.37129075  0.13693566  1
  Al  Al105  1  0.24685642  0.36451690  0.63748671  1
  Al  Al106  1  0.24486201  0.86222578  0.13665087  1
  Al  Al107  1  0.25231989  0.87069197  0.63792899  1
  Al  Al108  1  0.75226860  0.36888062  0.13775439  1
  Al  Al109  1  0.75088671  0.36397971  0.63490910  1
  Al  Al110  1  0.74887767  0.86131025  0.13441494  1
  Al  Al111  1  0.74996678  0.86762799  0.63153338  1
  Al  Al112  1  0.25020672  0.13780191  0.36958256  1
  Al  Al113  1  0.24996662  0.13531100  0.86329384  1
  Al  Al114  1  0.24907465  0.63462911  0.36509599  1
  Al  Al115  1  0.24543054  0.63656770  0.86291547  1
  Al  Al116  1  0.74768719  0.13213246  0.36510093  1
  Al  Al117  1  0.75436867  0.13518160  0.86411410  1
  Al  Al118  1  0.74928797  0.63233437  0.36911529  1
  Al  Al119  1  0.74900711  0.63878426  0.87049891  1
  Al  Al120  1  0.24833586  0.36714748  0.36442217  1
  Al  Al121  1  0.24527667  0.36231350  0.86320173  1
  Al  Al122  1  0.25159942  0.86298307  0.36515508  1
  Al  Al123  1  0.25168743  0.86356785  0.86194623  1
  Al  Al124  1  0.75116883  0.36982580  0.36540304  1
  Al  Al125  1  0.75023646  0.36302157  0.86317160  1
  Al  Al126  1  0.74903453  0.86693938  0.36738750  1
  Al  Al127  1  0.74959528  0.86512899  0.86373731  1
  Al  Al128  1  0.13370624  0.25418742  0.13268548  1
  Al  Al129  1  0.13528350  0.24780672  0.63179299  1
  Al  Al130  1  0.13397328  0.74822329  0.13782482  1
  Al  Al131  1  0.12991517  0.75220192  0.63576095  1
  Al  Al132  1  0.63496652  0.25371919  0.13857527  1
  Al  Al133  1  0.63548851  0.24850770  0.63196564  1
  Al  Al134  1  0.63453099  0.74217211  0.13710288  1
  Al  Al135  1  0.63847277  0.75185719  0.62905463  1
  Al  Al136  1  0.13404381  0.25496229  0.36560604  1
  Al  Al137  1  0.13800209  0.24991583  0.86823107  1
  Al  Al138  1  0.13522551  0.74785314  0.36526787  1
  Al  Al139  1  0.13488210  0.74931593  0.86064254  1
  Al  Al140  1  0.63527780  0.24752091  0.36606509  1
  Al  Al141  1  0.62836699  0.24846433  0.86190898  1
  Al  Al142  1  0.63809339  0.74854747  0.36944601  1
  Al  Al143  1  0.63321325  0.74759996  0.86264576  1
  Al  Al144  1  0.36455653  0.24994999  0.13479493  1
  Al  Al145  1  0.36294473  0.24984471  0.63134712  1
  Al  Al146  1  0.36513563  0.74521868  0.13710290  1
  Al  Al147  1  0.36207188  0.75113171  0.63061961  1
  Al  Al148  1  0.86459793  0.25794019  0.13225484  1
  Al  Al149  1  0.86516715  0.25427257  0.63310572  1
  Al  Al150  1  0.86256920  0.74734803  0.12986810  1
  Al  Al151  1  0.86637748  0.75237400  0.62808443  1
  Al  Al152  1  0.36307563  0.25123353  0.37087981  1
  Al  Al153  1  0.36910206  0.24805582  0.86202436  1
  Al  Al154  1  0.36121694  0.74729634  0.37116396  1
  Al  Al155  1  0.36671944  0.74360603  0.86006259  1
  Al  Al156  1  0.86406343  0.25765810  0.36819899  1
  Al  Al157  1  0.86559109  0.25165930  0.86776178  1
  Al  Al158  1  0.86020818  0.74964446  0.37081763  1
  Al  Al159  1  0.86363634  0.74980159  0.86856426  1
  Al  Al160  1  0.13644371  0.13505832  0.25752687  1
  Al  Al161  1  0.13398532  0.13450293  0.74786956  1
  Al  Al162  1  0.13526311  0.62939195  0.25124499  1
  Al  Al163  1  0.13553081  0.63402638  0.74383086  1
  Al  Al164  1  0.63621448  0.13572046  0.24679606  1
  Al  Al165  1  0.63603046  0.12950756  0.75117858  1
  Al  Al166  1  0.63606684  0.63380719  0.25472456  1
  Al  Al167  1  0.63381062  0.63682616  0.74925728  1
  Al  Al168  1  0.36182181  0.13994817  0.24984756  1
  Al  Al169  1  0.36270715  0.12628379  0.75163425  1
  Al  Al170  1  0.36891186  0.63485077  0.25052403  1
  Al  Al171  1  0.36786331  0.63677137  0.74738027  1
  Al  Al172  1  0.86332635  0.13756655  0.25808642  1
  Al  Al173  1  0.86353727  0.13451551  0.74331538  1
  Al  Al174  1  0.85979259  0.63202232  0.25134582  1
  Al  Al175  1  0.86157104  0.63846940  0.74621458  1
  Al  Al176  1  0.13164049  0.36916296  0.25138802  1
  Al  Al177  1  0.12904511  0.35931752  0.74870623  1
  Al  Al178  1  0.13391371  0.86361215  0.25568499  1
  Al  Al179  1  0.13528097  0.86672185  0.74579108  1
  Al  Al180  1  0.63874558  0.36768490  0.25218650  1
  Al  Al181  1  0.62918483  0.36159593  0.74936724  1
  Al  Al182  1  0.63659849  0.86230327  0.25315413  1
  Al  Al183  1  0.63705521  0.86961209  0.74647408  1
  Al  Al184  1  0.36738255  0.36323008  0.24429100  1
  Al  Al185  1  0.36991347  0.36206691  0.75021676  1
  Al  Al186  1  0.36325628  0.86135858  0.25042627  1
  Al  Al187  1  0.36721842  0.87018411  0.74985000  1
  Al  Al188  1  0.86311779  0.37018095  0.25493830  1
  Al  Al189  1  0.86889720  0.36242982  0.75220598  1
  Al  Al190  1  0.86307412  0.86193784  0.25215657  1
  Al  Al191  1  0.86289947  0.86591644  0.74298031  1
  Al  Al192  1  0.80616475  0.18942927  0.50076679  1
  Al  Al193  1  0.31393419  0.17238262  -0.00081184  1
  Al  Al194  1  -0.00197109  0.17599300  0.66752579  1
  Al  Al195  1  0.67839714  0.17542609  -0.00013184  1
  Al  Al196  1  0.49991477  0.32792717  0.31757330  1
  Al  Al197  1  0.32437116  0.50062219  0.83252046  1
  Al  Al198  1  0.17182656  -0.00039182  0.18748328  1
  Al  Al199  1  0.17285016  0.49800844  0.81173528  1
  Al  Al200  1  0.18916897  0.83032190  0.50200291  1
  Al  Al201  1  0.33320898  0.00162305  0.17292425  1
  Al  Al202  1  0.31266315  0.49957583  0.67549311  1
  Al  Al203  1  0.18264103  0.67525509  0.50039545  1
  Al  Al204  1  0.68034937  0.80749967  -0.00007649  1
  Al  Al205  1  0.17554838  0.32811581  0.49701026  1
  Al  Al206  1  0.49851430  0.80912865  0.32962011  1
  Al  Al207  1  0.49934997  0.18386531  0.68329767  1
  Al  Al208  1  0.68344620  0.32894514  0.00108402  1
  Al  Al209  1  -0.00154908  0.82658399  0.32444223  1
  Al  Al210  1  0.49983118  0.81423554  0.66918621  1
  Al  Al211  1  0.33056567  0.82240535  0.00018864  1
  Al  Al212  1  0.68457968  0.50210851  0.18386324  1
  Al  Al213  1  -0.00116074  0.18570059  0.33179259  1
  Al  Al214  1  -0.00033319  0.82622905  0.82123270  1
  Al  Al215  1  0.82234672  -0.00047031  0.81573944  1
  Al  Al216  1  0.17255488  0.81187138  -0.00186800  1
  Al  Al217  1  0.50000512  0.81730495  0.82614069  1
  Al  Al218  1  0.00277630  0.18358188  0.83011663  1
  Al  Al219  1  0.82467370  0.00007729  0.18189703  1
  Al  Al220  1  0.31331751  -0.00013287  0.32645791  1
  Al  Al221  1  -0.00112637  0.67199011  0.82189408  1
  Al  Al222  1  0.50074348  0.81252132  0.17502738  1
  Al  Al223  1  0.49878829  0.17493086  0.31518975  1
  Al  Al224  1  -0.00238384  0.67618545  0.17535911  1
  Al  Al225  1  0.69352987  0.31325410  0.49861478  1
  Al  Al226  1  0.31692655  0.50011806  0.32650780  1
  Al  Al227  1  0.66991360  0.50304192  0.83169947  1
  Al  Al228  1  0.66963691  0.50155284  0.67113172  1
  Al  Al229  1  0.18988151  -0.00055817  0.81123583  1
  Al  Al230  1  -0.00182437  0.66881434  0.32904323  1
  Al  Al231  1  0.67060666  -0.00118423  0.17759770  1
  Al  Al232  1  -0.00585480  0.32998271  0.18132453  1
  Al  Al233  1  0.32290502  0.32867000  0.00025966  1
  Al  Al234  1  0.32708131  0.49986477  0.16799241  1
  Al  Al235  1  0.00017348  0.16836263  0.17121157  1
  Al  Al236  1  0.82790484  0.49950801  0.67162184  1
  Al  Al237  1  0.31516429  0.67263143  -0.00059961  1
  Al  Al238  1  0.82845922  0.50013657  0.82638309  1
  Au  Au239  1  0.32367899  -0.00096030  0.67672542  1
  Au  Au240  1  0.49915429  0.82058573  0.65399838  1
  Au  Au241  1  0.66750634  -0.00053561  0.16088299  1
  Au  Au242  1  0.17280583  0.83391392  0.50063189  1
  Au  Au243  1  -0.00436353  0.84029087  0.67176255  1
  Au  Au244  1  0.49875772  0.82376628  0.84125168  1
  Au  Au245  1  0.50125330  0.16019359  0.32351984  1
  Au  Au246  1  0.00343127  0.16830939  0.15408851  1
  Au  Au247  1  0.32630967  0.50384028  0.34027613  1
  Au  Au248  1  0.49911068  0.33288151  0.67430870  1
  Au  Au249  1  0.83755613  -0.00189805  0.33169274  1
  Au  Au250  1  0.66957889  0.50211959  0.17638071  1
  Au  Au251  1  0.32231554  0.83691465  0.00214597  1
  Au  Au252  1  -0.00293177  0.34255746  0.67335841  1
  Au  Au253  1  0.83827505  -0.00056236  0.82245057  1
  Au  Au254  1  0.66243502  -0.00053949  0.83244617  1
  Au  Au255  1  0.82512493  0.66163863  0.00062456  1
  Au  Au256  1  0.33871403  0.32235443  -0.00019603  1
  Au  Au257  1  -0.00343454  0.33946864  0.17333227  1
  Au  Au258  1  0.16565582  -0.00170089  0.17154508  1
  Au  Au259  1  0.66191670  0.17741823  0.00293153  1
  Au  Au260  1  0.50460399  0.34462704  0.31915695  1
  Au  Au261  1  0.83389623  0.67236814  0.49807022  1
  Au  Au262  1  -0.00016682  0.82431724  0.33697279  1
  Au  Au263  1  0.33580508  0.67324500  0.50152554  1
  Au  Au264  1  -0.00135684  0.17268153  0.34263243  1
  Au  Au265  1  0.67203444  0.50280225  0.84449091  1
  Au  Au266  1  0.67414662  0.00090281  0.66052860  1
  Au  Au267  1  0.16682738  0.33670393  0.49940980  1
  Au  Au268  1  -0.00350179  0.16201179  0.65959677  1
  Au  Au269  1  0.16039559  0.32726871  -0.00319907  1
  Au  Au270  1  0.33893417  0.49678474  0.16583879  1
  Au  Au271  1  0.00022517  0.66124407  0.67229800  1
  Au  Au272  1  0.33316632  0.33340038  0.50243528  1
  Au  Au273  1  0.67765152  0.31932945  0.49556145  1
  Au  Au274  1  0.34028937  0.16457968  0.50190832  1
  Au  Au275  1  0.66302313  0.67719219  0.49747743  1
  Au  Au276  1  0.00480333  0.17632800  0.84472672  1
  Au  Au277  1  0.49678025  0.82597170  0.32791087  1
  Au  Au278  1  0.49653019  0.17197244  0.83028457  1
  Au  Au279  1  0.16272852  0.50314917  0.17331472  1
  Au  Au280  1  0.67480465  0.50397613  0.65614088  1
  Au  Au281  1  0.17322006  0.16234757  0.50144508  1
  Au  Au282  1  0.34962320  0.00380946  0.17783685  1
  Au  Au283  1  0.83533357  0.17694032  0.00138114  1
  Au  Au284  1  -0.00085992  0.82463619  0.16006987  1
  Au  Au285  1  0.33825277  0.50228809  0.82442013  1
  Au  Au286  1  0.67146816  -0.00122552  0.34467192  1
  Au  Au287  1  0.82548688  0.83464295  -0.00120548  1
