# generated using pymatgen
data_Ca24Ti8Al207Au49
_symmetry_space_group_name_H-M   'P 1'
_cell_length_a   17.32422226
_cell_length_b   17.32392478
_cell_length_c   17.32538019
_cell_angle_alpha   90.00252388
_cell_angle_beta   89.99933421
_cell_angle_gamma   89.99769332
_symmetry_Int_Tables_number   1
_chemical_formula_structural   Ca24Ti8Al207Au49
_chemical_formula_sum   'Ca24 Ti8 Al207 Au49'
_cell_volume   5199.75413356
_cell_formula_units_Z   1
loop_
 _symmetry_equiv_pos_site_id
 _symmetry_equiv_pos_as_xyz
  1  'x, y, z'
loop_
 _atom_site_type_symbol
 _atom_site_label
 _atom_site_symmetry_multiplicity
 _atom_site_fract_x
 _atom_site_fract_y
 _atom_site_fract_z
 _atom_site_occupancy
  Ca  Ca0  1  0.24982528  0.00137409  0.00329653  1
  Ca  Ca1  1  0.24822162  0.00028713  0.49697175  1
  Ca  Ca2  1  0.25118477  0.49713974  -0.00221755  1
  Ca  Ca3  1  0.24986150  0.50062737  0.50307519  1
  Ca  Ca4  1  0.75317255  0.00033913  0.00088306  1
  Ca  Ca5  1  0.74753725  0.00283345  0.49633205  1
  Ca  Ca6  1  0.75029806  0.49791258  -0.00256128  1
  Ca  Ca7  1  0.74437119  0.49781178  0.50335657  1
  Ca  Ca8  1  -0.00061821  0.25191679  -0.00016886  1
  Ca  Ca9  1  -0.00099590  0.25076667  0.49948440  1
  Ca  Ca10  1  0.00025240  0.75570556  -0.00093745  1
  Ca  Ca11  1  0.00028363  0.75432966  0.50071555  1
  Ca  Ca12  1  0.49926981  0.25099143  0.00085932  1
  Ca  Ca13  1  0.50502222  0.25034249  0.49946246  1
  Ca  Ca14  1  0.49818304  0.74892362  -0.00375359  1
  Ca  Ca15  1  0.50165565  0.74627764  0.50390205  1
  Ca  Ca16  1  -0.00089713  -0.00045884  0.25217542  1
  Ca  Ca17  1  -0.00058910  -0.00012703  0.75308185  1
  Ca  Ca18  1  -0.00162491  0.50085763  0.25192085  1
  Ca  Ca19  1  -0.00132638  0.49621986  0.75196746  1
  Ca  Ca20  1  0.50276974  -0.00092418  0.25284049  1
  Ca  Ca21  1  0.49986080  -0.00278609  0.75052677  1
  Ca  Ca22  1  0.50274177  0.49983439  0.25235825  1
  Ca  Ca23  1  0.50148131  0.49899327  0.74685140  1
  Ti  Ti24  1  0.24999126  0.24844676  0.25019660  1
  Ti  Ti25  1  0.24998985  0.25017738  0.75014174  1
  Ti  Ti26  1  0.25017963  0.75183428  0.24978476  1
  Ti  Ti27  1  0.24992350  0.74959001  0.74967973  1
  Ti  Ti28  1  0.74990020  0.25044207  0.24988530  1
  Ti  Ti29  1  0.74908943  0.25072993  0.75065988  1
  Ti  Ti30  1  0.74956147  0.75015546  0.25019435  1
  Ti  Ti31  1  0.74968949  0.74998118  0.75022916  1
  Al  Al32  1  0.09066465  0.08218586  0.08010488  1
  Al  Al33  1  0.08118369  0.08484817  0.57908851  1
  Al  Al34  1  0.08048099  0.57964410  0.07280266  1
  Al  Al35  1  0.08791980  0.57845579  0.58433818  1
  Al  Al36  1  0.59142366  0.07925608  0.08691018  1
  Al  Al37  1  0.58396008  0.09075511  0.57215850  1
  Al  Al38  1  0.57808911  0.57822826  0.08378411  1
  Al  Al39  1  0.58202995  0.57807571  0.58928230  1
  Al  Al40  1  0.41076609  0.41514146  0.07370174  1
  Al  Al41  1  0.42535110  0.41252536  0.58709868  1
  Al  Al42  1  0.40671804  0.92255298  0.08059398  1
  Al  Al43  1  0.42390607  0.90875826  0.58643150  1
  Al  Al44  1  0.91038063  0.40962296  0.07334428  1
  Al  Al45  1  0.91668725  0.41408203  0.59082109  1
  Al  Al46  1  0.91167621  0.91311619  0.08250695  1
  Al  Al47  1  0.92019990  0.91690421  0.58175509  1
  Al  Al48  1  0.41776611  0.09396132  0.41271368  1
  Al  Al49  1  0.41378489  0.09043312  0.92637022  1
  Al  Al50  1  0.41631408  0.58972064  0.42630794  1
  Al  Al51  1  0.41193692  0.58838825  0.91770437  1
  Al  Al52  1  0.91365400  0.08169266  0.41772595  1
  Al  Al53  1  0.91590418  0.09242191  0.92106964  1
  Al  Al54  1  0.91877616  0.57778880  0.42053995  1
  Al  Al55  1  0.91491249  0.58089163  0.91827996  1
  Al  Al56  1  0.07482801  0.40902524  0.41575202  1
  Al  Al57  1  0.08370803  0.41250800  0.90578816  1
  Al  Al58  1  0.08505553  0.91486803  0.40908309  1
  Al  Al59  1  0.07559185  0.91249952  0.91344403  1
  Al  Al60  1  0.59437640  0.41335626  0.41931218  1
  Al  Al61  1  0.58449550  0.41542712  0.90967118  1
  Al  Al62  1  0.59123416  0.92778999  0.41691851  1
  Al  Al63  1  0.57828097  0.90733684  0.91885784  1
  Al  Al64  1  0.08935803  0.07825864  0.41164967  1
  Al  Al65  1  0.08123380  0.08904799  0.92099516  1
  Al  Al66  1  0.08205424  0.58302456  0.42408052  1
  Al  Al67  1  0.08873927  0.57615191  0.91118454  1
  Al  Al68  1  0.58884797  0.09153687  0.40891252  1
  Al  Al69  1  0.57963096  0.08484725  0.92412782  1
  Al  Al70  1  0.58562609  0.57454393  0.41440413  1
  Al  Al71  1  0.58105491  0.57806320  0.90859135  1
  Al  Al72  1  0.42444295  0.41647189  0.42141701  1
  Al  Al73  1  0.41470992  0.40946701  0.91483014  1
  Al  Al74  1  0.41599782  0.92498033  0.42132804  1
  Al  Al75  1  0.42055119  0.90586784  0.91873191  1
  Al  Al76  1  0.91898185  0.41031183  0.41489779  1
  Al  Al77  1  0.91777104  0.40475564  0.91163289  1
  Al  Al78  1  0.92226644  0.91623290  0.40850105  1
  Al  Al79  1  0.91581783  0.90733575  0.92015132  1
  Al  Al80  1  0.08129675  0.41512174  0.07381286  1
  Al  Al81  1  0.07941564  0.41532738  0.59230237  1
  Al  Al82  1  0.08129626  0.91867160  0.08691631  1
  Al  Al83  1  0.08105238  0.91451842  0.57762113  1
  Al  Al84  1  0.58581042  0.41769644  0.08012663  1
  Al  Al85  1  0.58786283  0.41150972  0.58698884  1
  Al  Al86  1  0.59262086  0.92199187  0.08204310  1
  Al  Al87  1  0.57878981  0.90820184  0.58253353  1
  Al  Al88  1  0.40549061  0.08382777  0.08488266  1
  Al  Al89  1  0.41761309  0.09296387  0.57347306  1
  Al  Al90  1  0.41372662  0.58666536  0.07767426  1
  Al  Al91  1  0.41719611  0.59031154  0.58280535  1
  Al  Al92  1  0.90764665  0.08372918  0.07845447  1
  Al  Al93  1  0.91734425  0.08687260  0.57839608  1
  Al  Al94  1  0.91481701  0.58152456  0.07505861  1
  Al  Al95  1  0.91410112  0.57401739  0.58652510  1
  Al  Al96  1  0.25069087  0.12969997  0.13726597  1
  Al  Al97  1  0.24883955  0.13770683  0.63016323  1
  Al  Al98  1  0.25195568  0.63566182  0.13311079  1
  Al  Al99  1  0.24967960  0.63756245  0.63205747  1
  Al  Al100  1  0.74792282  0.13601508  0.13354876  1
  Al  Al101  1  0.74704710  0.13598979  0.63631164  1
  Al  Al102  1  0.75057071  0.63026011  0.13722316  1
  Al  Al103  1  0.74735962  0.63442145  0.63834184  1
  Al  Al104  1  0.25003694  0.36167022  0.13099982  1
  Al  Al105  1  0.24847329  0.36516690  0.63536869  1
  Al  Al106  1  0.24843832  0.87191976  0.13665581  1
  Al  Al107  1  0.24812590  0.86439320  0.63831512  1
  Al  Al108  1  0.74930682  0.36715772  0.13294832  1
  Al  Al109  1  0.74599580  0.36592452  0.63274903  1
  Al  Al110  1  0.75006413  0.86658257  0.13558371  1
  Al  Al111  1  0.75330403  0.86497652  0.63829435  1
  Al  Al112  1  0.25091670  0.13720494  0.36958686  1
  Al  Al113  1  0.25162912  0.13384571  0.86530760  1
  Al  Al114  1  0.24957030  0.63757610  0.37144140  1
  Al  Al115  1  0.25108196  0.63568558  0.86372103  1
  Al  Al116  1  0.74307697  0.13590486  0.36530331  1
  Al  Al117  1  0.75323310  0.13705984  0.87212386  1
  Al  Al118  1  0.74797218  0.63231967  0.36491420  1
  Al  Al119  1  0.75206698  0.63704023  0.86198525  1
  Al  Al120  1  0.24745794  0.36078418  0.36840662  1
  Al  Al121  1  0.24748799  0.36467430  0.86753671  1
  Al  Al122  1  0.24775172  0.86912321  0.36544623  1
  Al  Al123  1  0.24820789  0.86502170  0.86223318  1
  Al  Al124  1  0.74334411  0.36410572  0.36933279  1
  Al  Al125  1  0.75157638  0.36302629  0.86936439  1
  Al  Al126  1  0.74901804  0.86687995  0.36357110  1
  Al  Al127  1  0.75422465  0.86469894  0.86386169  1
  Al  Al128  1  0.13575325  0.24923810  0.13547497  1
  Al  Al129  1  0.13581543  0.25257250  0.63214342  1
  Al  Al130  1  0.13830910  0.75382647  0.13540012  1
  Al  Al131  1  0.13020173  0.74822103  0.63793411  1
  Al  Al132  1  0.63816467  0.25091277  0.12969871  1
  Al  Al133  1  0.63353960  0.25405680  0.63158177  1
  Al  Al134  1  0.63838680  0.75070633  0.13976428  1
  Al  Al135  1  0.63494549  0.75195814  0.63644169  1
  Al  Al136  1  0.13203899  0.24562788  0.36695124  1
  Al  Al137  1  0.13369141  0.25447563  0.86522741  1
  Al  Al138  1  0.13501202  0.75384285  0.36350355  1
  Al  Al139  1  0.13357939  0.75360555  0.86561769  1
  Al  Al140  1  0.63217425  0.24861280  0.36455357  1
  Al  Al141  1  0.63753606  0.25105037  0.87138651  1
  Al  Al142  1  0.63895918  0.74987578  0.36284404  1
  Al  Al143  1  0.62893087  0.75153796  0.86110596  1
  Al  Al144  1  0.36339977  0.24712397  0.13032368  1
  Al  Al145  1  0.36691173  0.24988372  0.63443563  1
  Al  Al146  1  0.36157497  0.74986457  0.13338185  1
  Al  Al147  1  0.36549164  0.74935730  0.63605149  1
  Al  Al148  1  0.86343061  0.24973978  0.13099977  1
  Al  Al149  1  0.86432312  0.25444510  0.63706696  1
  Al  Al150  1  0.86157972  0.75413609  0.13471418  1
  Al  Al151  1  0.87015713  0.75151298  0.63839621  1
  Al  Al152  1  0.36936423  0.24701378  0.36614895  1
  Al  Al153  1  0.36229855  0.25084967  0.86910437  1
  Al  Al154  1  0.36316406  0.75009529  0.36406407  1
  Al  Al155  1  0.36802449  0.74981524  0.86351613  1
  Al  Al156  1  0.86655729  0.25043404  0.36425821  1
  Al  Al157  1  0.86526299  0.25238291  0.86695293  1
  Al  Al158  1  0.86376218  0.75455921  0.36392518  1
  Al  Al159  1  0.86746917  0.75450080  0.86439608  1
  Al  Al160  1  0.13651395  0.12962930  0.25186951  1
  Al  Al161  1  0.13822588  0.13293051  0.74932870  1
  Al  Al162  1  0.13947192  0.63519660  0.25392499  1
  Al  Al163  1  0.13536205  0.63462528  0.75255333  1
  Al  Al164  1  0.63509550  0.13429162  0.25110434  1
  Al  Al165  1  0.63405454  0.13726602  0.75007793  1
  Al  Al166  1  0.63625285  0.63067984  0.25068604  1
  Al  Al167  1  0.63347434  0.63417694  0.75043581  1
  Al  Al168  1  0.36469318  0.13570507  0.25063906  1
  Al  Al169  1  0.36598275  0.13666833  0.75028135  1
  Al  Al170  1  0.36314503  0.63835949  0.24994709  1
  Al  Al171  1  0.36614012  0.63527995  0.75205846  1
  Al  Al172  1  0.86339426  0.13643629  0.25112514  1
  Al  Al173  1  0.86158368  0.13279742  0.75195116  1
  Al  Al174  1  0.86331379  0.63399451  0.25127745  1
  Al  Al175  1  0.86696663  0.63504548  0.74940334  1
  Al  Al176  1  0.13530730  0.36175105  0.25430621  1
  Al  Al177  1  0.13174745  0.36336119  0.75211464  1
  Al  Al178  1  0.13629957  0.87152097  0.25173723  1
  Al  Al179  1  0.13074360  0.86614036  0.74995560  1
  Al  Al180  1  0.63652399  0.36806853  0.25135780  1
  Al  Al181  1  0.63504052  0.36488151  0.74566646  1
  Al  Al182  1  0.63743389  0.87254236  0.24983634  1
  Al  Al183  1  0.63213720  0.86541777  0.74969936  1
  Al  Al184  1  0.36335001  0.36095182  0.25298600  1
  Al  Al185  1  0.36431730  0.36365793  0.75040095  1
  Al  Al186  1  0.36195820  0.86793785  0.24733130  1
  Al  Al187  1  0.36801138  0.86459608  0.75108331  1
  Al  Al188  1  0.86192120  0.36381341  0.25173363  1
  Al  Al189  1  0.86662236  0.36364902  0.75344901  1
  Al  Al190  1  0.86417755  0.86660532  0.25060345  1
  Al  Al191  1  0.86955859  0.86709459  0.75157589  1
  Al  Al192  1  0.81600209  0.00113579  0.17305861  1
  Al  Al193  1  0.49895260  0.67408280  0.17405894  1
  Al  Al194  1  0.50090060  0.31878898  0.81240337  1
  Al  Al195  1  0.32231902  0.31558756  0.50092037  1
  Al  Al196  1  0.81653890  0.00169474  0.32479010  1
  Al  Al197  1  0.81262601  0.49813520  0.68404244  1
  Al  Al198  1  0.50135375  0.67245389  0.32758180  1
  Al  Al199  1  0.81483744  0.49785433  0.32149337  1
  Al  Al200  1  0.67801523  -0.00069758  0.83033269  1
  Al  Al201  1  0.50055139  0.68422395  0.68066572  1
  Al  Al202  1  0.32829617  0.50072119  0.66994020  1
  Al  Al203  1  0.68288964  0.49870503  0.81078377  1
  Al  Al204  1  0.32309696  -0.00109241  0.83287114  1
  Al  Al205  1  0.00057687  0.19035144  0.67306938  1
  Al  Al206  1  0.17574863  0.49908029  0.68851635  1
  Al  Al207  1  0.32807321  0.81202835  0.50025025  1
  Al  Al208  1  0.67505384  0.67942155  -0.00029238  1
  Al  Al209  1  0.81239560  0.17414663  0.49929260  1
  Al  Al210  1  0.32808113  0.49928226  0.17285755  1
  Al  Al211  1  -0.00039664  0.17014602  0.17833593  1
  Al  Al212  1  0.66912828  0.67165981  0.50077553  1
  Al  Al213  1  0.31664852  0.49858843  0.82444318  1
  Al  Al214  1  0.17099439  0.49844806  0.17861933  1
  Al  Al215  1  0.49924321  0.82791816  0.16945268  1
  Al  Al216  1  -0.00130109  0.68833214  0.32683924  1
  Al  Al217  1  0.31640305  0.00215448  0.31655438  1
  Al  Al218  1  0.81857206  0.32525939  0.50079806  1
  Al  Al219  1  -0.00111264  0.32785761  0.18489548  1
  Al  Al220  1  0.31768407  0.81427707  -0.00068876  1
  Al  Al221  1  0.67973178  0.82561211  0.49993450  1
  Al  Al222  1  0.32318177  0.00224731  0.66963451  1
  Al  Al223  1  0.18669357  0.18146120  0.00056563  1
  Al  Al224  1  0.67471844  0.00127008  0.66727105  1
  Al  Al225  1  0.49784167  0.32717768  0.17993825  1
  Al  Al226  1  0.82581294  0.67985914  0.50135484  1
  Al  Al227  1  0.82623619  0.68755295  -0.00098773  1
  Al  Al228  1  0.50168066  0.82830915  0.32904524  1
  Al  Al229  1  -0.00040349  0.82800617  0.18473763  1
  Al  Al230  1  0.50129124  0.17838097  0.67852290  1
  Al  Al231  1  0.68695691  0.82697637  -0.00067418  1
  Al  Al232  1  0.00042799  0.68187740  0.82281148  1
  Al  Al233  1  -0.00006174  0.18583438  0.82641100  1
  Al  Al234  1  -0.00043268  0.67239685  0.17281062  1
  Al  Al235  1  0.18520743  0.68051991  -0.00113447  1
  Al  Al236  1  0.32331497  0.50078818  0.33057209  1
  Al  Al237  1  0.17344764  0.81826375  0.49986730  1
  Al  Al238  1  0.49988501  0.16980624  0.18042610  1
  Au  Au239  1  0.00002169  0.17236980  0.34088982  1
  Au  Au240  1  0.49923382  0.15438326  0.17489809  1
  Au  Au241  1  0.50689030  0.82619814  0.34489386  1
  Au  Au242  1  0.49850998  0.67491979  0.82854864  1
  Au  Au243  1  0.83083375  0.32848373  0.50183786  1
  Au  Au244  1  0.17359859  0.32825391  -0.00359156  1
  Au  Au245  1  0.17679216  0.16225176  0.49801122  1
  Au  Au246  1  0.82933443  0.49691971  0.33084116  1
  Au  Au247  1  0.49414089  0.33706168  0.16642484  1
  Au  Au248  1  0.82809271  0.84193342  0.49525937  1
  Au  Au249  1  0.17058038  0.83907965  -0.00029758  1
  Au  Au250  1  0.00034657  0.67606839  0.33882702  1
  Au  Au251  1  0.66366319  0.50030840  0.17692552  1
  Au  Au252  1  0.00018013  0.66599918  0.66282418  1
  Au  Au253  1  0.83763656  0.00237502  0.66778848  1
  Au  Au254  1  0.00042406  0.67339526  0.83742581  1
  Au  Au255  1  0.50255043  0.18189557  0.66625139  1
  Au  Au256  1  0.82954608  0.49671281  0.83209801  1
  Au  Au257  1  0.50605911  0.32509224  0.33877346  1
  Au  Au258  1  -0.00328853  0.34133875  0.17482083  1
  Au  Au259  1  0.16267834  -0.00202593  0.66591509  1
  Au  Au260  1  0.67726904  0.16687600  0.00259246  1
  Au  Au261  1  0.17565909  0.66760903  0.50213368  1
  Au  Au262  1  -0.00099424  0.17343770  0.67427718  1
  Au  Au263  1  0.67527864  0.33472399  -0.00206829  1
  Au  Au264  1  0.32933074  0.00491388  0.32774795  1
  Au  Au265  1  0.15979945  0.32946813  0.50242607  1
  Au  Au266  1  0.17426819  0.49927497  0.16188315  1
  Au  Au267  1  0.33393197  -0.00127065  0.83922573  1
  Au  Au268  1  0.66346040  -0.00235910  0.83647141  1
  Au  Au269  1  0.84142779  -0.00001562  0.83600161  1
  Au  Au270  1  0.00102597  0.83392638  0.67466369  1
  Au  Au271  1  0.82783401  0.49845020  0.15783176  1
  Au  Au272  1  0.66932095  0.66366022  -0.00100126  1
  Au  Au273  1  0.33964847  0.50510023  0.32968633  1
  Au  Au274  1  0.49713577  0.17447559  0.83836652  1
  Au  Au275  1  0.18175996  0.66409501  -0.00449497  1
  Au  Au276  1  0.32756630  0.49857048  0.83373758  1
  Au  Au277  1  0.82305999  0.66350625  0.50508335  1
  Au  Au278  1  0.32828896  0.82905279  0.50227761  1
  Au  Au279  1  -0.00200884  0.67814982  0.15634826  1
  Au  Au280  1  -0.00138090  0.16262372  0.16444856  1
  Au  Au281  1  0.17306201  0.00041523  0.17359718  1
  Au  Au282  1  0.66462266  0.00067332  0.65999744  1
  Au  Au283  1  0.16033623  0.49579864  0.33682943  1
  Au  Au284  1  0.15905732  0.00164460  0.83255806  1
  Au  Au285  1  0.33604888  0.32552048  0.50190975  1
  Au  Au286  1  0.33629756  0.00312878  0.66018286  1
  Au  Au287  1  0.49953164  0.83139151  0.15366295  1
