# generated using pymatgen
data_Ca24Ti8Al207Au49
_symmetry_space_group_name_H-M   'P 1'
_cell_length_a   17.32583066
_cell_length_b   17.32279234
_cell_length_c   17.32299624
_cell_angle_alpha   89.99855188
_cell_angle_beta   90.00118648
_cell_angle_gamma   89.99902351
_symmetry_Int_Tables_number   1
_chemical_formula_structural   Ca24Ti8Al207Au49
_chemical_formula_sum   'Ca24 Ti8 Al207 Au49'
_cell_volume   5199.18146207
_cell_formula_units_Z   1
loop_
 _symmetry_equiv_pos_site_id
 _symmetry_equiv_pos_as_xyz
  1  'x, y, z'
loop_
 _atom_site_type_symbol
 _atom_site_label
 _atom_site_symmetry_multiplicity
 _atom_site_fract_x
 _atom_site_fract_y
 _atom_site_fract_z
 _atom_site_occupancy
  Ca  Ca0  1  0.25255093  0.00226180  -0.00377115  1
  Ca  Ca1  1  0.25213395  0.00129583  0.50829965  1
  Ca  Ca2  1  0.25092464  0.49971905  -0.00620974  1
  Ca  Ca3  1  0.25254346  0.49559125  0.50454944  1
  Ca  Ca4  1  0.75190420  -0.00056796  -0.00012070  1
  Ca  Ca5  1  0.75127093  -0.00290942  0.49971893  1
  Ca  Ca6  1  0.75375520  0.49735923  0.00009319  1
  Ca  Ca7  1  0.74630418  0.50019251  0.49848498  1
  Ca  Ca8  1  0.00268934  0.25506872  -0.00349068  1
  Ca  Ca9  1  -0.00069792  0.25215696  0.50233609  1
  Ca  Ca10  1  0.00154295  0.74702910  -0.00457589  1
  Ca  Ca11  1  0.00088228  0.74862253  0.50533939  1
  Ca  Ca12  1  0.49739005  0.25303953  0.00039716  1
  Ca  Ca13  1  0.49506066  0.25347202  0.50015291  1
  Ca  Ca14  1  0.49619479  0.74958551  -0.00381209  1
  Ca  Ca15  1  0.49698764  0.74488509  0.50071740  1
  Ca  Ca16  1  -0.00066121  0.00083932  0.25042304  1
  Ca  Ca17  1  0.00379560  0.00026369  0.74712282  1
  Ca  Ca18  1  0.00121364  0.49737331  0.24890545  1
  Ca  Ca19  1  0.00184640  0.49763025  0.75150994  1
  Ca  Ca20  1  0.50154884  0.00126760  0.25127196  1
  Ca  Ca21  1  0.49239144  -0.00148031  0.74954276  1
  Ca  Ca22  1  0.49780974  0.49917143  0.25534275  1
  Ca  Ca23  1  0.49893354  0.50394553  0.74751621  1
  Ti  Ti24  1  0.24820545  0.25234006  0.24793503  1
  Ti  Ti25  1  0.24910870  0.25036316  0.74969872  1
  Ti  Ti26  1  0.25101256  0.74851712  0.25072998  1
  Ti  Ti27  1  0.25155907  0.75022326  0.74981256  1
  Ti  Ti28  1  0.75258172  0.25171617  0.24907703  1
  Ti  Ti29  1  0.75197371  0.25050783  0.74945062  1
  Ti  Ti30  1  0.75011040  0.74796533  0.24941873  1
  Ti  Ti31  1  0.74901605  0.74870570  0.74974540  1
  Al  Al32  1  0.07767852  0.09532361  0.07378736  1
  Al  Al33  1  0.08862120  0.08078284  0.59318431  1
  Al  Al34  1  0.07500224  0.57635356  0.07295499  1
  Al  Al35  1  0.08316198  0.58163885  0.58652015  1
  Al  Al36  1  0.57809401  0.08610100  0.09067752  1
  Al  Al37  1  0.57720344  0.08362862  0.57705066  1
  Al  Al38  1  0.57758201  0.57873294  0.08155880  1
  Al  Al39  1  0.58369595  0.58641268  0.58019791  1
  Al  Al40  1  0.41274776  0.41610886  0.08299503  1
  Al  Al41  1  0.40856082  0.41024094  0.58360669  1
  Al  Al42  1  0.41470207  0.90508262  0.07076486  1
  Al  Al43  1  0.40831546  0.91846280  0.59117422  1
  Al  Al44  1  0.92204462  0.41281482  0.08733802  1
  Al  Al45  1  0.92932155  0.41575506  0.59593701  1
  Al  Al46  1  0.91963396  0.92004094  0.08159224  1
  Al  Al47  1  0.93009977  0.91156781  0.59053036  1
  Al  Al48  1  0.42293927  0.08142381  0.41714288  1
  Al  Al49  1  0.40542526  0.07064791  0.91708611  1
  Al  Al50  1  0.41082836  0.58475441  0.41419671  1
  Al  Al51  1  0.41141699  0.58900056  0.90518428  1
  Al  Al52  1  0.92093504  0.08792525  0.40948095  1
  Al  Al53  1  0.92955326  0.09541854  0.91308686  1
  Al  Al54  1  0.91961506  0.58190594  0.41982120  1
  Al  Al55  1  0.92382885  0.57680530  0.91664104  1
  Al  Al56  1  0.09157163  0.40797157  0.42412107  1
  Al  Al57  1  0.09228526  0.40811572  0.90853750  1
  Al  Al58  1  0.07650938  0.91959943  0.42679966  1
  Al  Al59  1  0.08648807  0.91370948  0.90977059  1
  Al  Al60  1  0.57050275  0.42552802  0.41927188  1
  Al  Al61  1  0.57990886  0.42520525  0.92045997  1
  Al  Al62  1  0.57587768  0.90689803  0.41363115  1
  Al  Al63  1  0.56809408  0.90582693  0.91268220  1
  Al  Al64  1  0.07563503  0.09244808  0.41591335  1
  Al  Al65  1  0.08749644  0.09244487  0.90912639  1
  Al  Al66  1  0.08223008  0.58108494  0.42265442  1
  Al  Al67  1  0.08951244  0.57162560  0.90800346  1
  Al  Al68  1  0.57804265  0.09107098  0.41857702  1
  Al  Al69  1  0.57251991  0.07578618  0.92846595  1
  Al  Al70  1  0.57962349  0.59164634  0.41946221  1
  Al  Al71  1  0.57466066  0.59033411  0.90906272  1
  Al  Al72  1  0.40514334  0.41896646  0.41895800  1
  Al  Al73  1  0.40454953  0.42490249  0.91182667  1
  Al  Al74  1  0.41951817  0.91237983  0.41289305  1
  Al  Al75  1  0.40812028  0.90775508  0.90716201  1
  Al  Al76  1  0.92688180  0.41947832  0.41416344  1
  Al  Al77  1  0.92620606  0.40982390  0.90941372  1
  Al  Al78  1  0.92106209  0.92437935  0.41924301  1
  Al  Al79  1  0.92845836  0.91105644  0.91575990  1
  Al  Al80  1  0.08411176  0.40490090  0.07518371  1
  Al  Al81  1  0.09065394  0.40716750  0.58830043  1
  Al  Al82  1  0.07846872  0.91122709  0.07364060  1
  Al  Al83  1  0.08899160  0.91866753  0.59835361  1
  Al  Al84  1  0.57809882  0.41745708  0.08243155  1
  Al  Al85  1  0.56972400  0.41826790  0.59181339  1
  Al  Al86  1  0.57680507  0.92090825  0.07939436  1
  Al  Al87  1  0.57593366  0.91736864  0.57990704  1
  Al  Al88  1  0.42358288  0.09237003  0.07902007  1
  Al  Al89  1  0.41025260  0.07938037  0.59281159  1
  Al  Al90  1  0.41315843  0.58041298  0.07850086  1
  Al  Al91  1  0.41350938  0.58291469  0.57868694  1
  Al  Al92  1  0.92022465  0.08558915  0.08358042  1
  Al  Al93  1  0.92592168  0.08494691  0.58221433  1
  Al  Al94  1  0.91827091  0.57498691  0.08488381  1
  Al  Al95  1  0.92250532  0.58170619  0.58695507  1
  Al  Al96  1  0.24570554  0.14004865  0.13532416  1
  Al  Al97  1  0.24685871  0.13797141  0.63498853  1
  Al  Al98  1  0.25178334  0.63611497  0.13543416  1
  Al  Al99  1  0.25318536  0.63429757  0.63877336  1
  Al  Al100  1  0.75248580  0.13978505  0.13518920  1
  Al  Al101  1  0.75584597  0.13460206  0.63811536  1
  Al  Al102  1  0.74705299  0.63450624  0.13191412  1
  Al  Al103  1  0.74386276  0.63541556  0.63311745  1
  Al  Al104  1  0.24729029  0.35960915  0.12742950  1
  Al  Al105  1  0.24939685  0.36256685  0.63317173  1
  Al  Al106  1  0.25402786  0.86386832  0.13378434  1
  Al  Al107  1  0.25462027  0.86972097  0.63780062  1
  Al  Al108  1  0.75068693  0.36131542  0.13799065  1
  Al  Al109  1  0.75243507  0.36300237  0.63816791  1
  Al  Al110  1  0.75017502  0.86330481  0.13259745  1
  Al  Al111  1  0.74652682  0.86762474  0.63611722  1
  Al  Al112  1  0.25016030  0.14003718  0.36314392  1
  Al  Al113  1  0.25013093  0.13614379  0.86317010  1
  Al  Al114  1  0.25750809  0.63158764  0.36906000  1
  Al  Al115  1  0.25420007  0.63142134  0.86116821  1
  Al  Al116  1  0.75565322  0.14198597  0.36234423  1
  Al  Al117  1  0.75418112  0.13758707  0.86530976  1
  Al  Al118  1  0.74606709  0.63212518  0.36814227  1
  Al  Al119  1  0.74780093  0.63657106  0.86471942  1
  Al  Al120  1  0.25083928  0.36365779  0.36741005  1
  Al  Al121  1  0.24665787  0.36570520  0.86724959  1
  Al  Al122  1  0.25403071  0.86405372  0.36543301  1
  Al  Al123  1  0.25584640  0.86952587  0.86574206  1
  Al  Al124  1  0.75274363  0.37142317  0.35898562  1
  Al  Al125  1  0.75000118  0.36230713  0.86153066  1
  Al  Al126  1  0.75134925  0.86128031  0.36734342  1
  Al  Al127  1  0.74957814  0.86153403  0.86894076  1
  Al  Al128  1  0.12693172  0.25337054  0.13443894  1
  Al  Al129  1  0.12684460  0.25520562  0.63924025  1
  Al  Al130  1  0.13607986  0.75263332  0.13389063  1
  Al  Al131  1  0.13721477  0.74966029  0.64093851  1
  Al  Al132  1  0.62842547  0.25061884  0.13850146  1
  Al  Al133  1  0.63073108  0.25147590  0.63910144  1
  Al  Al134  1  0.63353117  0.75131434  0.13382550  1
  Al  Al135  1  0.62921599  0.74711321  0.63568245  1
  Al  Al136  1  0.13241946  0.25305542  0.36568850  1
  Al  Al137  1  0.13186096  0.25288617  0.86201480  1
  Al  Al138  1  0.13895660  0.75024556  0.36623534  1
  Al  Al139  1  0.13985220  0.75344403  0.86159629  1
  Al  Al140  1  0.63612706  0.25326185  0.36240497  1
  Al  Al141  1  0.63306283  0.24913388  0.86166656  1
  Al  Al142  1  0.63478409  0.74659467  0.36632275  1
  Al  Al143  1  0.62912051  0.74837634  0.86295198  1
  Al  Al144  1  0.36966623  0.25388967  0.13597352  1
  Al  Al145  1  0.36750119  0.25227922  0.63730792  1
  Al  Al146  1  0.36650639  0.75050034  0.13508679  1
  Al  Al147  1  0.36419985  0.75065489  0.63116899  1
  Al  Al148  1  0.87371525  0.25155144  0.13631536  1
  Al  Al149  1  0.87417511  0.25024107  0.63809651  1
  Al  Al150  1  0.86256950  0.75047334  0.12923125  1
  Al  Al151  1  0.86236558  0.75041260  0.63302294  1
  Al  Al152  1  0.36364046  0.25535276  0.36672086  1
  Al  Al153  1  0.36324292  0.25461207  0.86450032  1
  Al  Al154  1  0.36437628  0.74895869  0.37093711  1
  Al  Al155  1  0.36892193  0.75162592  0.86258429  1
  Al  Al156  1  0.87366037  0.25136472  0.36578563  1
  Al  Al157  1  0.87158601  0.25174080  0.86202920  1
  Al  Al158  1  0.86391566  0.74955509  0.36722394  1
  Al  Al159  1  0.86411317  0.74958183  0.86761148  1
  Al  Al160  1  0.12766212  0.13986688  0.24996441  1
  Al  Al161  1  0.12976849  0.13857768  0.74994740  1
  Al  Al162  1  0.13752157  0.63378118  0.25241248  1
  Al  Al163  1  0.13680319  0.63211976  0.75475381  1
  Al  Al164  1  0.63519566  0.13793487  0.24887238  1
  Al  Al165  1  0.63557821  0.13358110  0.74537269  1
  Al  Al166  1  0.63567123  0.62916998  0.25090433  1
  Al  Al167  1  0.63092994  0.63197176  0.75098289  1
  Al  Al168  1  0.36350833  0.13915923  0.24670382  1
  Al  Al169  1  0.36230637  0.13379334  0.74694080  1
  Al  Al170  1  0.36465237  0.63494279  0.25272512  1
  Al  Al171  1  0.37178981  0.63731988  0.75208667  1
  Al  Al172  1  0.87288734  0.13813465  0.24961082  1
  Al  Al173  1  0.87381406  0.13673566  0.74989893  1
  Al  Al174  1  0.86369025  0.63512758  0.25214492  1
  Al  Al175  1  0.86409593  0.63581357  0.75028371  1
  Al  Al176  1  0.12984904  0.36440525  0.25167628  1
  Al  Al177  1  0.13360475  0.36587119  0.75262335  1
  Al  Al178  1  0.13223474  0.86262568  0.24937518  1
  Al  Al179  1  0.13777531  0.86940526  0.74639785  1
  Al  Al180  1  0.63031367  0.36971691  0.25007298  1
  Al  Al181  1  0.63508863  0.37145909  0.74729387  1
  Al  Al182  1  0.63407511  0.86020626  0.25548825  1
  Al  Al183  1  0.63431721  0.86295770  0.75231463  1
  Al  Al184  1  0.36679600  0.36519055  0.25274059  1
  Al  Al185  1  0.36097489  0.36635636  0.75067269  1
  Al  Al186  1  0.36800269  0.86213535  0.25481462  1
  Al  Al187  1  0.36602545  0.86690318  0.75256569  1
  Al  Al188  1  0.87482077  0.36247658  0.25117449  1
  Al  Al189  1  0.87141547  0.36418095  0.75132885  1
  Al  Al190  1  0.86897491  0.86178818  0.24825431  1
  Al  Al191  1  0.86431361  0.86475589  0.74682085  1
  Al  Al192  1  0.49866192  0.18266363  0.31418671  1
  Al  Al193  1  0.17447770  0.49865059  0.68363296  1
  Al  Al194  1  0.33189816  -0.00053686  0.16919485  1
  Al  Al195  1  0.16863320  0.00237408  0.17024600  1
  Al  Al196  1  0.83226523  0.32425884  0.50276393  1
  Al  Al197  1  0.00008283  0.67559489  0.17316865  1
  Al  Al198  1  0.49553838  0.16874890  0.82132420  1
  Al  Al199  1  0.32512312  0.68501573  -0.00190624  1
  Al  Al200  1  0.68106273  0.17493443  0.50085016  1
  Al  Al201  1  0.50013248  0.33169841  0.81715829  1
  Al  Al202  1  0.67546576  0.17187367  0.00209994  1
  Al  Al203  1  0.82350240  0.49844087  0.82752700  1
  Al  Al204  1  0.82773789  0.00033341  0.32317660  1
  Al  Al205  1  0.17055958  0.00117980  0.32963360  1
  Al  Al206  1  0.83215956  0.00071396  0.82486423  1
  Al  Al207  1  0.17345347  0.66801737  -0.00299160  1
  Al  Al208  1  0.67266417  0.67796782  0.00154574  1
  Al  Al209  1  0.32550230  0.18162606  0.00028946  1
  Al  Al210  1  0.82094677  0.49735234  0.17949272  1
  Al  Al211  1  0.00032223  0.68667161  0.68194993  1
  Al  Al212  1  0.17445358  0.18965536  -0.00253295  1
  Al  Al213  1  0.18796720  0.82312700  -0.00160600  1
  Al  Al214  1  0.82347339  0.67494457  0.50202953  1
  Al  Al215  1  0.67749157  0.00174951  0.32979770  1
  Al  Al216  1  0.82685954  0.00102751  0.17218074  1
  Al  Al217  1  0.49901081  0.68634876  0.32071482  1
  Al  Al218  1  0.17076068  0.18844266  0.50209448  1
  Al  Al219  1  0.16985717  0.49793293  0.17063765  1
  Al  Al220  1  0.32783668  0.00177809  0.32495547  1
  Al  Al221  1  0.66729990  0.33102076  0.50195338  1
  Al  Al222  1  0.66979388  -0.00145496  0.82394206  1
  Al  Al223  1  0.18441617  0.67062972  0.50298122  1
  Al  Al224  1  0.17938743  0.82784303  0.50511970  1
  Al  Al225  1  0.67432618  -0.00083883  0.17350114  1
  Al  Al226  1  0.00180276  0.67868375  0.32762401  1
  Al  Al227  1  0.82280830  0.50017713  0.67471775  1
  Al  Al228  1  0.32644252  0.50061408  0.68170848  1
  Al  Al229  1  0.67729022  0.81348380  0.50093198  1
  Al  Al230  1  0.50271879  0.82202942  0.18100577  1
  Al  Al231  1  0.50051599  0.82117666  0.68401007  1
  Al  Al232  1  0.18472762  0.49939423  0.32971501  1
  Al  Al233  1  0.32499704  0.49881452  0.18470510  1
  Al  Al234  1  0.00173535  0.81523799  0.80798042  1
  Al  Al235  1  0.18570974  0.00258711  0.81322386  1
  Al  Al236  1  0.32893540  0.18479219  0.50053284  1
  Al  Al237  1  0.67423529  0.32734649  -0.00069777  1
  Al  Al238  1  0.82891584  0.32385894  -0.00050838  1
  Au  Au239  1  0.66552251  0.50344155  0.33658798  1
  Au  Au240  1  0.83972392  0.17517218  -0.00199822  1
  Au  Au241  1  0.83894498  0.83650468  0.50230250  1
  Au  Au242  1  0.83436685  0.83344038  -0.00137566  1
  Au  Au243  1  0.49840602  0.34623804  0.82475695  1
  Au  Au244  1  0.49781343  0.66555176  0.67197009  1
  Au  Au245  1  0.17335544  0.49961303  0.33510699  1
  Au  Au246  1  0.83687476  0.66277938  -0.00006244  1
  Au  Au247  1  0.33536054  0.16984698  0.49938801  1
  Au  Au248  1  0.15703418  0.17986200  0.50389243  1
  Au  Au249  1  0.00394329  0.32622419  0.32915304  1
  Au  Au250  1  0.17073599  0.00234849  0.82126796  1
  Au  Au251  1  0.83780108  0.50094833  0.32636007  1
  Au  Au252  1  0.49773286  0.83027443  0.67541288  1
  Au  Au253  1  0.33922315  0.82569288  0.49926669  1
  Au  Au254  1  0.49398023  0.33001322  0.33434296  1
  Au  Au255  1  0.49162322  0.16119718  0.83525739  1
  Au  Au256  1  0.17566187  0.00274589  0.34641438  1
  Au  Au257  1  0.50024962  0.17527043  0.66275517  1
  Au  Au258  1  0.65524447  -0.00313434  0.83224149  1
  Au  Au259  1  0.00032752  0.17606616  0.17397444  1
  Au  Au260  1  0.66297051  0.17520505  0.00222156  1
  Au  Au261  1  0.32291726  0.33186870  -0.00242429  1
  Au  Au262  1  0.84180692  0.33737660  0.50404313  1
  Au  Au263  1  0.50013971  0.83159736  0.17288024  1
  Au  Au264  1  0.67224012  0.50054160  0.66217214  1
  Au  Au265  1  0.17587596  0.82778610  -0.00159946  1
  Au  Au266  1  0.65234606  0.32491346  0.50306068  1
  Au  Au267  1  0.82298238  0.66233100  0.50439994  1
  Au  Au268  1  0.84659086  0.00235135  0.83228173  1
  Au  Au269  1  0.66099923  0.00048525  0.33029949  1
  Au  Au270  1  0.34777118  0.00229798  0.16815297  1
  Au  Au271  1  0.67382904  0.50249754  0.83602917  1
  Au  Au272  1  0.15811287  0.00345393  0.15805347  1
  Au  Au273  1  0.49940746  0.32421147  0.16624667  1
  Au  Au274  1  0.82907404  0.15873318  0.49805741  1
  Au  Au275  1  -0.00047338  0.82794979  0.33517215  1
  Au  Au276  1  0.66166454  0.82029672  0.50039664  1
  Au  Au277  1  0.49654394  0.65991937  0.17430955  1
  Au  Au278  1  0.67277286  0.49668595  0.16372708  1
  Au  Au279  1  -0.00175202  0.82460660  0.16541363  1
  Au  Au280  1  0.00166277  0.17248075  0.67725301  1
  Au  Au281  1  0.00275663  0.66756270  0.82886057  1
  Au  Au282  1  0.83479395  -0.00161077  0.66056513  1
  Au  Au283  1  0.16434569  0.82244474  0.50785592  1
  Au  Au284  1  0.17391763  0.49781231  0.15863893  1
  Au  Au285  1  0.66458040  0.83375907  -0.00150909  1
  Au  Au286  1  0.66380808  0.66936901  -0.00076642  1
  Au  Au287  1  0.66744952  0.00283966  0.65983856  1
