# generated using pymatgen
data_Ca24Ti8Al207Au49
_symmetry_space_group_name_H-M   'P 1'
_cell_length_a   17.32131403
_cell_length_b   17.32106573
_cell_length_c   17.32025084
_cell_angle_alpha   90.00153922
_cell_angle_beta   89.99658841
_cell_angle_gamma   89.99471060
_symmetry_Int_Tables_number   1
_chemical_formula_structural   Ca24Ti8Al207Au49
_chemical_formula_sum   'Ca24 Ti8 Al207 Au49'
_cell_volume   5196.48430468
_cell_formula_units_Z   1
loop_
 _symmetry_equiv_pos_site_id
 _symmetry_equiv_pos_as_xyz
  1  'x, y, z'
loop_
 _atom_site_type_symbol
 _atom_site_label
 _atom_site_symmetry_multiplicity
 _atom_site_fract_x
 _atom_site_fract_y
 _atom_site_fract_z
 _atom_site_occupancy
  Ca  Ca0  1  0.24512264  0.00235701  0.00314580  1
  Ca  Ca1  1  0.24502375  -0.00066684  0.49655114  1
  Ca  Ca2  1  0.24864432  0.49667081  -0.00607144  1
  Ca  Ca3  1  0.24803364  0.49928623  0.50271942  1
  Ca  Ca4  1  0.75445727  0.00430215  -0.00284723  1
  Ca  Ca5  1  0.75284061  -0.00219813  0.50201299  1
  Ca  Ca6  1  0.75186322  0.49698207  0.00161545  1
  Ca  Ca7  1  0.74927277  0.50137013  0.49631351  1
  Ca  Ca8  1  0.00578751  0.24980338  -0.00239164  1
  Ca  Ca9  1  0.00417219  0.25175092  0.49982746  1
  Ca  Ca10  1  0.00752883  0.75548047  -0.00183901  1
  Ca  Ca11  1  0.00228897  0.74997663  0.49913218  1
  Ca  Ca12  1  0.49418653  0.25136662  -0.00426176  1
  Ca  Ca13  1  0.49831915  0.25211963  0.50292634  1
  Ca  Ca14  1  0.49728365  0.75023213  0.00086320  1
  Ca  Ca15  1  0.49707955  0.74935701  0.49824917  1
  Ca  Ca16  1  0.00744229  0.00504988  0.25327335  1
  Ca  Ca17  1  0.00456598  -0.00232029  0.75949887  1
  Ca  Ca18  1  0.00220848  0.49681799  0.25907248  1
  Ca  Ca19  1  0.00528918  0.50202070  0.75063733  1
  Ca  Ca20  1  0.49069583  -0.00108394  0.25270690  1
  Ca  Ca21  1  0.49604557  0.00387480  0.75002267  1
  Ca  Ca22  1  0.49692271  0.50404607  0.25190498  1
  Ca  Ca23  1  0.49401604  0.49468898  0.75042708  1
  Ti  Ti24  1  0.24955747  0.24841361  0.25038169  1
  Ti  Ti25  1  0.25012882  0.24918576  0.74863795  1
  Ti  Ti26  1  0.24789944  0.75194870  0.25204328  1
  Ti  Ti27  1  0.25097974  0.75078883  0.74938183  1
  Ti  Ti28  1  0.75134138  0.25168898  0.25094920  1
  Ti  Ti29  1  0.74726494  0.25132762  0.74910334  1
  Ti  Ti30  1  0.75136067  0.74979190  0.25292315  1
  Ti  Ti31  1  0.74952071  0.74991555  0.74805444  1
  Al  Al32  1  0.08803491  0.08762666  0.09115924  1
  Al  Al33  1  0.08590055  0.07857447  0.57576846  1
  Al  Al34  1  0.08382913  0.57241447  0.07820909  1
  Al  Al35  1  0.08931352  0.58077930  0.58867169  1
  Al  Al36  1  0.56876393  0.07900743  0.07096195  1
  Al  Al37  1  0.58064338  0.10059642  0.58996434  1
  Al  Al38  1  0.57646208  0.57753157  0.08951225  1
  Al  Al39  1  0.57617947  0.57210638  0.57526380  1
  Al  Al40  1  0.40705676  0.41094618  0.06873442  1
  Al  Al41  1  0.41401730  0.41142631  0.59440067  1
  Al  Al42  1  0.40935194  0.92381070  0.09477994  1
  Al  Al43  1  0.40846058  0.91110535  0.57245977  1
  Al  Al44  1  0.91996328  0.41477422  0.08471506  1
  Al  Al45  1  0.92529580  0.42230566  0.57707616  1
  Al  Al46  1  0.92772865  0.92463193  0.07345147  1
  Al  Al47  1  0.91471364  0.91302518  0.57135150  1
  Al  Al48  1  0.40191393  0.07847453  0.42118699  1
  Al  Al49  1  0.41324606  0.09633483  0.92132564  1
  Al  Al50  1  0.41429469  0.59286975  0.41898815  1
  Al  Al51  1  0.40953950  0.57258557  0.91069378  1
  Al  Al52  1  0.92738497  0.09030836  0.41130945  1
  Al  Al53  1  0.92174576  0.08177611  0.91939743  1
  Al  Al54  1  0.90650261  0.58219157  0.41537095  1
  Al  Al55  1  0.93337413  0.58498625  0.91066070  1
  Al  Al56  1  0.09079693  0.41334227  0.41644886  1
  Al  Al57  1  0.09369529  0.41183564  0.90563370  1
  Al  Al58  1  0.09051861  0.91146057  0.40920209  1
  Al  Al59  1  0.09170681  0.91539945  0.91484359  1
  Al  Al60  1  0.59526224  0.42380511  0.41703921  1
  Al  Al61  1  0.57050872  0.41070163  0.90565701  1
  Al  Al62  1  0.57900871  0.91327475  0.42210695  1
  Al  Al63  1  0.58616598  0.92605423  0.90670403  1
  Al  Al64  1  0.08975797  0.08559188  0.40447012  1
  Al  Al65  1  0.08926593  0.08041738  0.91400448  1
  Al  Al66  1  0.09070795  0.57812939  0.41608815  1
  Al  Al67  1  0.09193171  0.57933470  0.89939323  1
  Al  Al68  1  0.58754090  0.08488442  0.43229836  1
  Al  Al69  1  0.58233045  0.08395961  0.90570170  1
  Al  Al70  1  0.58255111  0.58201488  0.40932903  1
  Al  Al71  1  0.56908736  0.56965138  0.91254613  1
  Al  Al72  1  0.41294848  0.42277089  0.42528015  1
  Al  Al73  1  0.40671009  0.40786991  0.90556740  1
  Al  Al74  1  0.40015970  0.91507016  0.41321778  1
  Al  Al75  1  0.42093715  0.92090629  0.92158319  1
  Al  Al76  1  0.91808084  0.42104353  0.40954992  1
  Al  Al77  1  0.93072946  0.40949744  0.91177606  1
  Al  Al78  1  0.92664023  0.90481366  0.41342976  1
  Al  Al79  1  0.92356286  0.92007228  0.91449421  1
  Al  Al80  1  0.08830470  0.41204068  0.07924482  1
  Al  Al81  1  0.09525419  0.41766040  0.57989230  1
  Al  Al82  1  0.09445571  0.91898051  0.07873433  1
  Al  Al83  1  0.09046869  0.91387563  0.57229615  1
  Al  Al84  1  0.58024586  0.41956443  0.08145379  1
  Al  Al85  1  0.57615419  0.40554361  0.59070376  1
  Al  Al86  1  0.56554656  0.91793467  0.07850092  1
  Al  Al87  1  0.58411089  0.91929019  0.57867479  1
  Al  Al88  1  0.39756188  0.08546379  0.08225084  1
  Al  Al89  1  0.41735626  0.09670374  0.58168863  1
  Al  Al90  1  0.41949706  0.57821836  0.07567373  1
  Al  Al91  1  0.40369869  0.58007532  0.57897096  1
  Al  Al92  1  0.92755013  0.09241405  0.08710464  1
  Al  Al93  1  0.92190281  0.07286698  0.57669936  1
  Al  Al94  1  0.92281658  0.57281527  0.08217738  1
  Al  Al95  1  0.92350999  0.58894858  0.57780276  1
  Al  Al96  1  0.24967456  0.13092489  0.13131676  1
  Al  Al97  1  0.25057102  0.13826302  0.62721873  1
  Al  Al98  1  0.24590725  0.63628762  0.13703081  1
  Al  Al99  1  0.24959328  0.63239381  0.63486444  1
  Al  Al100  1  0.75439125  0.13916874  0.13797235  1
  Al  Al101  1  0.74394987  0.13680199  0.63335018  1
  Al  Al102  1  0.75155122  0.63235181  0.13871091  1
  Al  Al103  1  0.75136818  0.63098919  0.63595901  1
  Al  Al104  1  0.25000223  0.36100539  0.13400011  1
  Al  Al105  1  0.24723009  0.36726071  0.63489757  1
  Al  Al106  1  0.24870657  0.87316845  0.13978402  1
  Al  Al107  1  0.25038579  0.86649078  0.63195079  1
  Al  Al108  1  0.75088661  0.36326129  0.12972260  1
  Al  Al109  1  0.74648986  0.36813775  0.63230971  1
  Al  Al110  1  0.75545968  0.86418937  0.13955808  1
  Al  Al111  1  0.75215719  0.86650712  0.63607080  1
  Al  Al112  1  0.24800761  0.13497883  0.37055910  1
  Al  Al113  1  0.25181205  0.14163148  0.87041192  1
  Al  Al114  1  0.25011583  0.63459601  0.36777983  1
  Al  Al115  1  0.24996698  0.62847671  0.86275520  1
  Al  Al116  1  0.75024796  0.13575869  0.36267495  1
  Al  Al117  1  0.74442568  0.13961312  0.86065740  1
  Al  Al118  1  0.75128382  0.63414944  0.36561789  1
  Al  Al119  1  0.74767506  0.63545710  0.86071596  1
  Al  Al120  1  0.24911069  0.36865595  0.36827954  1
  Al  Al121  1  0.25350877  0.36709877  0.86347046  1
  Al  Al122  1  0.24552047  0.86415896  0.37164297  1
  Al  Al123  1  0.24399070  0.86737059  0.86822242  1
  Al  Al124  1  0.75127065  0.36413418  0.36977171  1
  Al  Al125  1  0.74577727  0.36096671  0.86657977  1
  Al  Al126  1  0.75530666  0.86730352  0.36671191  1
  Al  Al127  1  0.74716098  0.86447250  0.86206170  1
  Al  Al128  1  0.13589592  0.24189652  0.13592836  1
  Al  Al129  1  0.13830695  0.25387088  0.62868784  1
  Al  Al130  1  0.13776225  0.75752346  0.13617365  1
  Al  Al131  1  0.13959615  0.75123189  0.63597569  1
  Al  Al132  1  0.62931458  0.25537677  0.13615662  1
  Al  Al133  1  0.63224492  0.25054763  0.63143414  1
  Al  Al134  1  0.63559090  0.74542024  0.13844750  1
  Al  Al135  1  0.63372603  0.75415754  0.63571676  1
  Al  Al136  1  0.13877399  0.24832892  0.36991951  1
  Al  Al137  1  0.13584995  0.25141446  0.86208812  1
  Al  Al138  1  0.13114216  0.75336034  0.36687195  1
  Al  Al139  1  0.13754959  0.74757043  0.86189065  1
  Al  Al140  1  0.63593891  0.24953970  0.37323419  1
  Al  Al141  1  0.62263413  0.25417535  0.86230695  1
  Al  Al142  1  0.63679730  0.75091566  0.36619842  1
  Al  Al143  1  0.63334065  0.75075910  0.86224820  1
  Al  Al144  1  0.36357576  0.24818231  0.13259015  1
  Al  Al145  1  0.36638095  0.25194499  0.63627185  1
  Al  Al146  1  0.36053692  0.75018899  0.13819665  1
  Al  Al147  1  0.36094637  0.74914007  0.63111224  1
  Al  Al148  1  0.86762266  0.25112786  0.13786603  1
  Al  Al149  1  0.86138414  0.25379532  0.63082607  1
  Al  Al150  1  0.86722727  0.74914411  0.13998938  1
  Al  Al151  1  0.86455352  0.75060052  0.63588515  1
  Al  Al152  1  0.36138737  0.24396641  0.36861278  1
  Al  Al153  1  0.36883679  0.25242088  0.86239749  1
  Al  Al154  1  0.35966530  0.75358959  0.37069949  1
  Al  Al155  1  0.36049845  0.75474497  0.86482752  1
  Al  Al156  1  0.86607559  0.25034029  0.36677346  1
  Al  Al157  1  0.86449911  0.25310072  0.86257065  1
  Al  Al158  1  0.87074832  0.74895099  0.36355957  1
  Al  Al159  1  0.86442398  0.74805811  0.86165781  1
  Al  Al160  1  0.14096445  0.12908181  0.25332453  1
  Al  Al161  1  0.14097866  0.13167654  0.74936110  1
  Al  Al162  1  0.13569107  0.63712646  0.25611939  1
  Al  Al163  1  0.14007650  0.63061773  0.75034339  1
  Al  Al164  1  0.63235588  0.14012398  0.24835357  1
  Al  Al165  1  0.62476389  0.14272518  0.74978861  1
  Al  Al166  1  0.63551998  0.63202585  0.25525944  1
  Al  Al167  1  0.63355453  0.63369748  0.74512591  1
  Al  Al168  1  0.36294628  0.13379997  0.24569791  1
  Al  Al169  1  0.37047158  0.13757295  0.74772611  1
  Al  Al170  1  0.36231761  0.63571049  0.25573264  1
  Al  Al171  1  0.36115670  0.63322626  0.75227069  1
  Al  Al172  1  0.87092170  0.13718957  0.25261046  1
  Al  Al173  1  0.86132600  0.13805383  0.74915430  1
  Al  Al174  1  0.86580811  0.62987532  0.25466246  1
  Al  Al175  1  0.86688633  0.63432489  0.74901889  1
  Al  Al176  1  0.13821132  0.36261431  0.25380725  1
  Al  Al177  1  0.13972308  0.36940040  0.75328804  1
  Al  Al178  1  0.13698212  0.87419895  0.25589644  1
  Al  Al179  1  0.13956629  0.87058527  0.75157799  1
  Al  Al180  1  0.63837769  0.36450148  0.25539719  1
  Al  Al181  1  0.62932907  0.36171916  0.74544441  1
  Al  Al182  1  0.63634399  0.86339515  0.25370746  1
  Al  Al183  1  0.62994101  0.86537706  0.75109934  1
  Al  Al184  1  0.36289025  0.36164541  0.25295971  1
  Al  Al185  1  0.36482859  0.36430311  0.74999597  1
  Al  Al186  1  0.36077518  0.86565636  0.25315795  1
  Al  Al187  1  0.36738505  0.86529139  0.74719417  1
  Al  Al188  1  0.86448612  0.36878292  0.25252673  1
  Al  Al189  1  0.86444205  0.36514297  0.74816469  1
  Al  Al190  1  0.86916098  0.86723661  0.25606283  1
  Al  Al191  1  0.86282690  0.86594511  0.75413126  1
  Al  Al192  1  0.68819556  0.82254858  0.50065192  1
  Al  Al193  1  0.81682639  0.17570840  0.50018679  1
  Al  Al194  1  0.00492616  0.33013531  0.68584334  1
  Al  Al195  1  0.32198546  0.00387078  0.66830987  1
  Al  Al196  1  0.16861013  0.68242979  -0.00059838  1
  Al  Al197  1  0.32714529  0.49862863  0.17725574  1
  Al  Al198  1  0.49862256  0.16749155  0.32795826  1
  Al  Al199  1  0.31408773  0.00286929  0.82791223  1
  Al  Al200  1  0.82880894  0.17957454  -0.00071544  1
  Al  Al201  1  0.00397153  0.67294082  0.68600498  1
  Al  Al202  1  0.50065851  0.33103249  0.32430729  1
  Al  Al203  1  0.67019052  0.83197512  0.00181926  1
  Al  Al204  1  0.66819518  0.00346213  0.69024573  1
  Al  Al205  1  0.00282465  0.67313484  0.18209507  1
  Al  Al206  1  0.67923013  -0.00003545  0.33370077  1
  Al  Al207  1  0.00082075  0.18123161  0.82721426  1
  Al  Al208  1  0.49800842  0.81991088  0.18362923  1
  Al  Al209  1  0.00231354  0.81549529  0.82623599  1
  Al  Al210  1  0.00217646  0.83299377  0.18338028  1
  Al  Al211  1  0.49705040  0.67521015  0.66878940  1
  Al  Al212  1  0.18373931  0.68535508  0.50071052  1
  Al  Al213  1  0.66997761  0.67050592  0.50109518  1
  Al  Al214  1  0.68246083  0.49751761  0.18740910  1
  Al  Al215  1  0.31466344  0.83145714  0.00324314  1
  Al  Al216  1  0.82848488  0.82773281  -0.00093504  1
  Al  Al217  1  0.32476269  0.67310621  -0.00191810  1
  Al  Al218  1  0.49866814  0.68324470  0.31905126  1
  Al  Al219  1  0.83375299  0.00254238  0.17485377  1
  Al  Al220  1  0.00268404  0.31524095  0.32949458  1
  Al  Al221  1  0.81719152  0.00256266  0.82949976  1
  Al  Al222  1  0.00162557  0.17492777  0.67138450  1
  Al  Al223  1  0.83449154  0.67029411  -0.00046904  1
  Al  Al224  1  0.18751012  0.31741948  -0.00210558  1
  Al  Al225  1  0.82922978  0.49915227  0.82176782  1
  Al  Al226  1  0.31566708  0.31472014  0.50114323  1
  Al  Al227  1  0.30370608  0.00112206  0.31205948  1
  Al  Al228  1  0.67008739  0.17770822  -0.00011154  1
  Al  Al229  1  0.00401626  0.31630679  0.17839648  1
  Al  Al230  1  0.00094030  0.83107478  0.67493341  1
  Al  Al231  1  0.82242710  0.68847150  0.50027448  1
  Al  Al232  1  0.49626185  0.67830969  0.82619675  1
  Al  Al233  1  0.66923642  0.00029034  0.17393097  1
  Al  Al234  1  0.82867086  -0.00192490  0.67757990  1
  Al  Al235  1  0.31437516  0.49867358  0.68516795  1
  Al  Al236  1  0.17153788  0.49851662  0.18478199  1
  Al  Al237  1  0.67261854  0.49690066  0.81911994  1
  Al  Al238  1  0.66900488  0.66776332  -0.00365586  1
  Au  Au239  1  0.49786802  0.16264145  0.34350533  1
  Au  Au240  1  0.85024804  0.67685684  -0.00150509  1
  Au  Au241  1  0.16811695  0.66533807  -0.00176852  1
  Au  Au242  1  0.32206335  0.50525405  0.34136619  1
  Au  Au243  1  0.66663828  0.49740597  0.18085396  1
  Au  Au244  1  0.50005318  0.82937079  0.83482374  1
  Au  Au245  1  0.32834777  0.32582471  0.50387609  1
  Au  Au246  1  0.83178055  0.33902960  0.49698114  1
  Au  Au247  1  0.84461058  -0.00201800  0.33331442  1
  Au  Au248  1  0.17584979  0.67026813  0.50111328  1
  Au  Au249  1  0.67618152  0.84772014  0.00038915  1
  Au  Au250  1  0.82888072  0.16367939  0.49895577  1
  Au  Au251  1  0.49496086  0.83173692  0.33377202  1
  Au  Au252  1  0.83750045  0.49869591  0.17990635  1
  Au  Au253  1  0.67566351  0.16177038  -0.00116599  1
  Au  Au254  1  0.32425971  0.00459984  0.84128230  1
  Au  Au255  1  0.49282223  0.32952841  0.15673826  1
  Au  Au256  1  0.49437797  0.67276698  0.16804986  1
  Au  Au257  1  0.17362615  0.17016236  -0.00127697  1
  Au  Au258  1  0.17897272  0.00174800  0.17718679  1
  Au  Au259  1  0.66824720  -0.00004234  0.33978307  1
  Au  Au260  1  0.33118097  0.83052262  0.00708433  1
  Au  Au261  1  0.00252969  0.15890537  0.67827616  1
  Au  Au262  1  0.84042618  0.32812875  -0.00316597  1
  Au  Au263  1  0.83466330  -0.00026320  0.16241490  1
  Au  Au264  1  0.00402643  0.32773418  0.16965689  1
  Au  Au265  1  0.49640131  0.17479014  0.82551920  1
  Au  Au266  1  0.83213191  0.49782904  0.83825255  1
  Au  Au267  1  0.66320303  0.00457060  0.67429069  1
  Au  Au268  1  0.50200064  0.34710260  0.32989406  1
  Au  Au269  1  0.17047635  0.17019137  0.49769442  1
  Au  Au270  1  0.00199402  0.82204776  0.66137320  1
  Au  Au271  1  0.33219196  0.00196828  0.66538869  1
  Au  Au272  1  0.66035966  0.65357592  -0.00659840  1
  Au  Au273  1  0.00512770  0.65784194  0.17370808  1
  Au  Au274  1  0.32098177  0.49850626  0.16142366  1
  Au  Au275  1  0.65176768  0.00003589  0.17201617  1
  Au  Au276  1  -0.00004382  0.66954754  0.34211967  1
  Au  Au277  1  0.66309660  0.32568656  0.50223743  1
  Au  Au278  1  0.83778490  0.00190224  0.66912560  1
  Au  Au279  1  0.66533617  0.33997631  -0.00605195  1
  Au  Au280  1  0.00779377  0.34325159  0.67549274  1
  Au  Au281  1  0.49262532  0.65968972  0.66970051  1
  Au  Au282  1  0.49677619  0.83563460  0.66168381  1
  Au  Au283  1  0.00487578  0.83527468  0.16655790  1
  Au  Au284  1  0.49212892  0.16563116  0.16111649  1
  Au  Au285  1  0.16566675  -0.00192169  0.67194696  1
  Au  Au286  1  0.83224465  0.50402862  0.65785045  1
  Au  Au287  1  0.66115024  0.49680741  0.67007845  1
