# generated using pymatgen
data_Ca24Ti8Al207Au49
_symmetry_space_group_name_H-M   'P 1'
_cell_length_a   17.32117106
_cell_length_b   17.32143966
_cell_length_c   17.32246676
_cell_angle_alpha   89.99971734
_cell_angle_beta   89.99952916
_cell_angle_gamma   89.99763217
_symmetry_Int_Tables_number   1
_chemical_formula_structural   Ca24Ti8Al207Au49
_chemical_formula_sum   'Ca24 Ti8 Al207 Au49'
_cell_volume   5197.21845757
_cell_formula_units_Z   1
loop_
 _symmetry_equiv_pos_site_id
 _symmetry_equiv_pos_as_xyz
  1  'x, y, z'
loop_
 _atom_site_type_symbol
 _atom_site_label
 _atom_site_symmetry_multiplicity
 _atom_site_fract_x
 _atom_site_fract_y
 _atom_site_fract_z
 _atom_site_occupancy
  Ca  Ca0  1  0.24734220  0.00504405  -0.00347760  1
  Ca  Ca1  1  0.24885915  -0.00204652  0.50655765  1
  Ca  Ca2  1  0.24729288  0.49277389  0.00027084  1
  Ca  Ca3  1  0.24947666  0.49887240  0.50111978  1
  Ca  Ca4  1  0.74877335  0.00396338  -0.00102838  1
  Ca  Ca5  1  0.74857216  -0.00218850  0.50216596  1
  Ca  Ca6  1  0.74786931  0.49582545  -0.00305991  1
  Ca  Ca7  1  0.75360453  0.50254396  0.50209257  1
  Ca  Ca8  1  0.00104856  0.24900069  -0.00137058  1
  Ca  Ca9  1  -0.00056671  0.25648567  0.50032452  1
  Ca  Ca10  1  0.00128802  0.74602195  -0.00474858  1
  Ca  Ca11  1  -0.00231039  0.74731243  0.50435368  1
  Ca  Ca12  1  0.50130441  0.25123889  -0.00217957  1
  Ca  Ca13  1  0.49628855  0.25403739  0.50322702  1
  Ca  Ca14  1  0.49734186  0.74892476  -0.00135807  1
  Ca  Ca15  1  0.50186264  0.74804296  0.50103844  1
  Ca  Ca16  1  -0.00503293  0.00554813  0.25062974  1
  Ca  Ca17  1  -0.00174795  0.00090053  0.75082447  1
  Ca  Ca18  1  0.00440686  0.49490810  0.25333423  1
  Ca  Ca19  1  -0.00002996  0.50259281  0.74818127  1
  Ca  Ca20  1  0.50737891  -0.00176722  0.25253561  1
  Ca  Ca21  1  0.50424194  0.00285112  0.74867193  1
  Ca  Ca22  1  0.49682697  0.50119257  0.25233048  1
  Ca  Ca23  1  0.50050526  0.49562395  0.75133576  1
  Ti  Ti24  1  0.24744066  0.25141245  0.24998749  1
  Ti  Ti25  1  0.24987332  0.25101027  0.74992356  1
  Ti  Ti26  1  0.24846556  0.74813674  0.25230537  1
  Ti  Ti27  1  0.24881300  0.74919193  0.74847025  1
  Ti  Ti28  1  0.75259059  0.24918024  0.24804997  1
  Ti  Ti29  1  0.75016128  0.25061328  0.75215746  1
  Ti  Ti30  1  0.75020178  0.74981986  0.25139168  1
  Ti  Ti31  1  0.75032153  0.74940227  0.75062521  1
  Al  Al32  1  0.08231450  0.09368279  0.07804612  1
  Al  Al33  1  0.07801674  0.08449554  0.58382466  1
  Al  Al34  1  0.09026911  0.58491867  0.07777239  1
  Al  Al35  1  0.07796246  0.58606611  0.58905912  1
  Al  Al36  1  0.59730984  0.08754209  0.08225794  1
  Al  Al37  1  0.58666745  0.07868425  0.58844647  1
  Al  Al38  1  0.57246501  0.58638663  0.08685968  1
  Al  Al39  1  0.59029084  0.58387176  0.58174670  1
  Al  Al40  1  0.40994532  0.41586889  0.07623080  1
  Al  Al41  1  0.40870451  0.41197628  0.58807534  1
  Al  Al42  1  0.43065761  0.92156693  0.07782935  1
  Al  Al43  1  0.41140397  0.91199404  0.58109551  1
  Al  Al44  1  0.92473786  0.40712936  0.08842305  1
  Al  Al45  1  0.92234483  0.41629552  0.58583444  1
  Al  Al46  1  0.91340870  0.92694101  0.08940406  1
  Al  Al47  1  0.91777161  0.91419095  0.59534847  1
  Al  Al48  1  0.42177825  0.07964515  0.42602586  1
  Al  Al49  1  0.41239812  0.08852958  0.91368992  1
  Al  Al50  1  0.42005885  0.58393190  0.41739268  1
  Al  Al51  1  0.42150470  0.57567099  0.92036950  1
  Al  Al52  1  0.91425104  0.08228902  0.41127903  1
  Al  Al53  1  0.91120931  0.07938131  0.91589637  1
  Al  Al54  1  0.91944337  0.58659001  0.41570993  1
  Al  Al55  1  0.92496962  0.58303059  0.90477453  1
  Al  Al56  1  0.08642374  0.41781011  0.40784532  1
  Al  Al57  1  0.08536121  0.41172140  0.92163497  1
  Al  Al58  1  0.07966347  0.91313119  0.42402052  1
  Al  Al59  1  0.07825820  0.91570711  0.91101598  1
  Al  Al60  1  0.57464901  0.42532374  0.42272283  1
  Al  Al61  1  0.58510699  0.40781537  0.90687751  1
  Al  Al62  1  0.59107738  0.91701251  0.41756732  1
  Al  Al63  1  0.59025108  0.92809024  0.90767535  1
  Al  Al64  1  0.07763941  0.08557621  0.42053816  1
  Al  Al65  1  0.08502079  0.08773188  0.92160656  1
  Al  Al66  1  0.08227113  0.58084620  0.41134791  1
  Al  Al67  1  0.08483428  0.59567456  0.91456433  1
  Al  Al68  1  0.58881827  0.07452028  0.41571615  1
  Al  Al69  1  0.59659890  0.08913871  0.91499210  1
  Al  Al70  1  0.58325792  0.59388926  0.42041747  1
  Al  Al71  1  0.58620264  0.57010481  0.91194096  1
  Al  Al72  1  0.41061684  0.41326527  0.42518627  1
  Al  Al73  1  0.41779169  0.40645833  0.91535265  1
  Al  Al74  1  0.41480517  0.91061490  0.42503288  1
  Al  Al75  1  0.42285818  0.92984811  0.91158688  1
  Al  Al76  1  0.92374576  0.41688619  0.41152395  1
  Al  Al77  1  0.91873967  0.41834564  0.91549374  1
  Al  Al78  1  0.91497043  0.92144254  0.41396335  1
  Al  Al79  1  0.91628791  0.92091008  0.90527582  1
  Al  Al80  1  0.08705527  0.40450237  0.08806182  1
  Al  Al81  1  0.08197378  0.41312593  0.58603332  1
  Al  Al82  1  0.07566970  0.92150496  0.07312283  1
  Al  Al83  1  0.07852578  0.90605390  0.58878102  1
  Al  Al84  1  0.58033180  0.41631292  0.06881489  1
  Al  Al85  1  0.57730490  0.42288528  0.59059241  1
  Al  Al86  1  0.58979976  0.92423082  0.09247401  1
  Al  Al87  1  0.59093857  0.92019124  0.58189548  1
  Al  Al88  1  0.41849993  0.08813808  0.07248134  1
  Al  Al89  1  0.41886018  0.08385130  0.58313466  1
  Al  Al90  1  0.41847337  0.58127229  0.09271049  1
  Al  Al91  1  0.40969313  0.57357400  0.58408374  1
  Al  Al92  1  0.91140322  0.08532148  0.08709430  1
  Al  Al93  1  0.91611779  0.08113802  0.59130161  1
  Al  Al94  1  0.92631038  0.57320459  0.07899162  1
  Al  Al95  1  0.91698361  0.59093190  0.58689835  1
  Al  Al96  1  0.24112157  0.14096094  0.13199178  1
  Al  Al97  1  0.25123895  0.13108192  0.63864249  1
  Al  Al98  1  0.24473356  0.63223620  0.13695097  1
  Al  Al99  1  0.24631032  0.62924955  0.63646968  1
  Al  Al100  1  0.75253789  0.13678335  0.12997656  1
  Al  Al101  1  0.74802929  0.13294911  0.63806232  1
  Al  Al102  1  0.75193920  0.63323764  0.13436574  1
  Al  Al103  1  0.74984130  0.63573652  0.63630433  1
  Al  Al104  1  0.24769176  0.36356379  0.13370550  1
  Al  Al105  1  0.24977459  0.37042078  0.63290987  1
  Al  Al106  1  0.24930810  0.86257982  0.13665917  1
  Al  Al107  1  0.24838740  0.86627361  0.63598696  1
  Al  Al108  1  0.75442451  0.36413613  0.13463811  1
  Al  Al109  1  0.75053143  0.36548229  0.63834930  1
  Al  Al110  1  0.74917761  0.86408686  0.13462265  1
  Al  Al111  1  0.74892907  0.86440921  0.63771491  1
  Al  Al112  1  0.24798552  0.13519927  0.36309043  1
  Al  Al113  1  0.24842375  0.13764166  0.86453566  1
  Al  Al114  1  0.24673563  0.63379809  0.36510351  1
  Al  Al115  1  0.24563026  0.63498265  0.86532639  1
  Al  Al116  1  0.75208044  0.13651470  0.36426016  1
  Al  Al117  1  0.74795357  0.13867562  0.87048434  1
  Al  Al118  1  0.74710833  0.63588233  0.36440005  1
  Al  Al119  1  0.75191243  0.63077862  0.86424779  1
  Al  Al120  1  0.24497202  0.36570363  0.36785563  1
  Al  Al121  1  0.25337812  0.36444345  0.86633972  1
  Al  Al122  1  0.24907820  0.86148082  0.37227610  1
  Al  Al123  1  0.24358348  0.86301480  0.85927164  1
  Al  Al124  1  0.75304733  0.36501020  0.35952637  1
  Al  Al125  1  0.74948605  0.37120245  0.86250918  1
  Al  Al126  1  0.74833639  0.86543941  0.36643110  1
  Al  Al127  1  0.75226013  0.86432032  0.86211159  1
  Al  Al128  1  0.12624219  0.25452296  0.13955926  1
  Al  Al129  1  0.13752088  0.25402469  0.63418774  1
  Al  Al130  1  0.13626757  0.74503807  0.13378011  1
  Al  Al131  1  0.13266647  0.74819186  0.63617429  1
  Al  Al132  1  0.63737614  0.24766664  0.13405819  1
  Al  Al133  1  0.63492507  0.24975458  0.64058445  1
  Al  Al134  1  0.63742137  0.74834522  0.13569294  1
  Al  Al135  1  0.63319072  0.74695550  0.63657859  1
  Al  Al136  1  0.12648073  0.25588004  0.36402425  1
  Al  Al137  1  0.13593420  0.25103412  0.86338846  1
  Al  Al138  1  0.12666515  0.74604830  0.36387433  1
  Al  Al139  1  0.12712121  0.74803194  0.86206964  1
  Al  Al140  1  0.63883219  0.25037811  0.36223605  1
  Al  Al141  1  0.63080916  0.24924034  0.86390361  1
  Al  Al142  1  0.63530729  0.74943540  0.36497836  1
  Al  Al143  1  0.63289216  0.75278031  0.86345414  1
  Al  Al144  1  0.36427654  0.25369065  0.13185399  1
  Al  Al145  1  0.36277858  0.25424572  0.63482826  1
  Al  Al146  1  0.36670380  0.74168422  0.13695763  1
  Al  Al147  1  0.36743014  0.75120820  0.63530723  1
  Al  Al148  1  0.86957906  0.24935171  0.12990531  1
  Al  Al149  1  0.86265173  0.25123404  0.63751675  1
  Al  Al150  1  0.86555876  0.75155659  0.13653734  1
  Al  Al151  1  0.86714150  0.74805668  0.63807588  1
  Al  Al152  1  0.36170292  0.25480766  0.36642497  1
  Al  Al153  1  0.37171335  0.25223519  0.86389711  1
  Al  Al154  1  0.36374458  0.75027733  0.36542440  1
  Al  Al155  1  0.36909759  0.74877987  0.86019134  1
  Al  Al156  1  0.86927397  0.25039588  0.36215446  1
  Al  Al157  1  0.86266308  0.25423082  0.87180811  1
  Al  Al158  1  0.86700854  0.74916540  0.36492751  1
  Al  Al159  1  0.87124099  0.75110686  0.86160458  1
  Al  Al160  1  0.12711622  0.13754898  0.25104694  1
  Al  Al161  1  0.13571838  0.13213618  0.74903522  1
  Al  Al162  1  0.13302486  0.62791672  0.25308386  1
  Al  Al163  1  0.13201649  0.63260385  0.75019249  1
  Al  Al164  1  0.63914020  0.13414284  0.24940441  1
  Al  Al165  1  0.63041230  0.13471664  0.75176805  1
  Al  Al166  1  0.63415169  0.63354114  0.24952065  1
  Al  Al167  1  0.63353316  0.63411274  0.75282631  1
  Al  Al168  1  0.35887149  0.13829991  0.24646298  1
  Al  Al169  1  0.37192364  0.13955438  0.75022006  1
  Al  Al170  1  0.36251408  0.63369162  0.25139990  1
  Al  Al171  1  0.36245280  0.63046508  0.74654366  1
  Al  Al172  1  0.87013497  0.13671973  0.24561052  1
  Al  Al173  1  0.86209034  0.13358436  0.75428511  1
  Al  Al174  1  0.86901079  0.63524070  0.25421408  1
  Al  Al175  1  0.86565317  0.63085019  0.74910586  1
  Al  Al176  1  0.13668702  0.37083493  0.24985433  1
  Al  Al177  1  0.13588558  0.37120415  0.74838299  1
  Al  Al178  1  0.13500222  0.86560151  0.25365159  1
  Al  Al179  1  0.12789580  0.86516627  0.74710083  1
  Al  Al180  1  0.63628285  0.36459754  0.24841658  1
  Al  Al181  1  0.63306618  0.36600116  0.75581047  1
  Al  Al182  1  0.63387071  0.86598398  0.25257327  1
  Al  Al183  1  0.63149572  0.86550901  0.74811132  1
  Al  Al184  1  0.36185433  0.36393502  0.25029072  1
  Al  Al185  1  0.36359969  0.36751297  0.74800729  1
  Al  Al186  1  0.36543610  0.86475981  0.25222807  1
  Al  Al187  1  0.36884587  0.86474205  0.74730872  1
  Al  Al188  1  0.87122283  0.36191449  0.24829482  1
  Al  Al189  1  0.86691294  0.37035247  0.74908298  1
  Al  Al190  1  0.86341716  0.86619205  0.25171712  1
  Al  Al191  1  0.87147266  0.86457055  0.74811349  1
  Al  Al192  1  0.69385568  0.00108925  0.18880706  1
  Al  Al193  1  0.49880357  0.67956141  0.31365604  1
  Al  Al194  1  0.00337546  0.67173932  0.17822960  1
  Al  Al195  1  0.50037504  0.81252897  0.18063473  1
  Al  Al196  1  0.32282922  0.49797712  0.82503098  1
  Al  Al197  1  0.31992613  0.00189115  0.81671441  1
  Al  Al198  1  0.49918238  0.32930638  0.32509323  1
  Al  Al199  1  0.00164466  0.32372178  0.81237513  1
  Al  Al200  1  0.31954125  0.49901009  0.33081478  1
  Al  Al201  1  0.83199130  0.67295960  -0.00065518  1
  Al  Al202  1  0.33000618  0.00077534  0.17139131  1
  Al  Al203  1  0.69647946  0.00172019  0.80598661  1
  Al  Al204  1  0.16929452  0.00198931  0.17301221  1
  Al  Al205  1  0.67133807  0.67028678  -0.00108069  1
  Al  Al206  1  0.17327125  0.18204502  0.50021806  1
  Al  Al207  1  0.18781085  0.30690144  0.00026398  1
  Al  Al208  1  0.49904792  0.32186645  0.68569185  1
  Al  Al209  1  0.30982525  0.19378714  -0.00180400  1
  Al  Al210  1  0.68116040  0.31319897  -0.00226520  1
  Al  Al211  1  0.31518910  0.66902181  0.00174544  1
  Al  Al212  1  0.16978841  0.67903599  0.49937316  1
  Al  Al213  1  -0.00023804  0.19058720  0.67683038  1
  Al  Al214  1  0.81237750  -0.00111266  0.68516421  1
  Al  Al215  1  0.82950023  0.32739505  0.49819330  1
  Al  Al216  1  0.16942708  0.81352607  -0.00257557  1
  Al  Al217  1  0.81501409  0.67629527  0.49931863  1
  Al  Al218  1  0.32684150  0.68074407  0.50131780  1
  Al  Al219  1  0.82839534  0.17282314  0.50137040  1
  Al  Al220  1  -0.00004951  0.83186479  0.18275538  1
  Al  Al221  1  0.82976333  0.82810188  0.50231540  1
  Al  Al222  1  0.67808559  0.81278290  0.50170815  1
  Al  Al223  1  0.32654249  0.18312260  0.50083631  1
  Al  Al224  1  0.50145117  0.17480904  0.17065227  1
  Al  Al225  1  0.49990178  0.33007647  0.16926118  1
  Al  Al226  1  -0.00136594  0.17000472  0.82781271  1
  Al  Al227  1  0.82313177  0.50014248  0.32238315  1
  Al  Al228  1  0.32560091  0.82844506  -0.00340184  1
  Al  Al229  1  0.67620370  0.32890185  0.49975624  1
  Al  Al230  1  0.82954728  0.82783097  -0.00157388  1
  Al  Al231  1  0.67523146  0.49832987  0.17514687  1
  Al  Al232  1  0.80776639  0.00205441  0.30877139  1
  Al  Al233  1  0.49801404  0.17152182  0.32218524  1
  Al  Al234  1  0.32031772  -0.00019462  0.33382819  1
  Al  Al235  1  0.68106090  0.49989647  0.68661110  1
  Al  Al236  1  0.67470977  0.17135053  0.50065533  1
  Al  Al237  1  0.49538963  0.67090463  0.67524933  1
  Al  Al238  1  0.31926669  0.49766683  0.17737429  1
  Au  Au239  1  0.15696295  -0.00114985  0.33226482  1
  Au  Au240  1  0.82493165  -0.00089122  0.68279004  1
  Au  Au241  1  0.17640415  0.83206778  0.50354271  1
  Au  Au242  1  -0.00122254  0.82700662  0.82065215  1
  Au  Au243  1  0.00161792  0.32768890  0.82471655  1
  Au  Au244  1  0.50528660  0.17457468  0.33719593  1
  Au  Au245  1  0.67201737  0.50351912  0.34346368  1
  Au  Au246  1  0.33515437  0.49566648  0.82410500  1
  Au  Au247  1  0.16818603  0.50281409  0.83716300  1
  Au  Au248  1  0.49787545  0.66264516  0.66628695  1
  Au  Au249  1  0.17261433  0.00377521  0.83797426  1
  Au  Au250  1  0.50257716  0.17450601  0.83589076  1
  Au  Au251  1  0.50145793  0.82597999  0.34300827  1
  Au  Au252  1  0.50155324  0.83673098  0.83243689  1
  Au  Au253  1  0.82353039  0.50084172  0.83131468  1
  Au  Au254  1  0.81996826  0.00108729  0.32054106  1
  Au  Au255  1  0.16443775  0.82524388  -0.00213102  1
  Au  Au256  1  0.50202696  0.17495024  0.66472924  1
  Au  Au257  1  0.82309404  0.16449256  -0.00148158  1
  Au  Au258  1  0.32632780  0.65633959  0.00353607  1
  Au  Au259  1  0.82898706  0.50003589  0.66405091  1
  Au  Au260  1  0.17240561  0.66676606  0.50044850  1
  Au  Au261  1  0.66052834  0.32632225  0.50504203  1
  Au  Au262  1  0.17126434  0.00189540  0.16038080  1
  Au  Au263  1  0.82842219  0.33427277  0.00136048  1
  Au  Au264  1  -0.00282487  0.82197022  0.34028869  1
  Au  Au265  1  0.33355184  0.00001831  0.66979795  1
  Au  Au266  1  0.33150011  0.84482276  -0.00597815  1
  Au  Au267  1  0.17131080  0.33537393  0.49777080  1
  Au  Au268  1  0.32016648  0.18028510  -0.00163595  1
  Au  Au269  1  0.66349148  0.49820724  0.16357036  1
  Au  Au270  1  0.83535992  0.66187701  -0.00563837  1
  Au  Au271  1  0.00140205  0.83118696  0.17033745  1
  Au  Au272  1  0.50395331  0.83572906  0.66421302  1
  Au  Au273  1  0.82733398  0.84012323  -0.00176414  1
  Au  Au274  1  -0.00118305  0.17792720  0.16498509  1
  Au  Au275  1  0.17007906  0.49804865  0.16998197  1
  Au  Au276  1  -0.00184698  0.66127353  0.17407867  1
  Au  Au277  1  0.65870946  0.67191521  -0.00183996  1
  Au  Au278  1  0.33117194  -0.00030944  0.34022670  1
  Au  Au279  1  -0.00165428  0.17946483  0.33484075  1
  Au  Au280  1  0.34028394  0.00656058  0.16714621  1
  Au  Au281  1  0.66575887  0.83937526  -0.00181850  1
  Au  Au282  1  0.16962629  0.49966658  0.66706161  1
  Au  Au283  1  0.50203584  0.82080058  0.16578780  1
  Au  Au284  1  0.50144585  0.66394234  0.83138869  1
  Au  Au285  1  0.84346506  0.49522361  0.17495598  1
  Au  Au286  1  0.17714051  0.17019876  0.50212076  1
  Au  Au287  1  0.15927813  -0.00238909  0.67082190  1
