# generated using pymatgen
data_Ca24Ti8Al207Au49
_symmetry_space_group_name_H-M   'P 1'
_cell_length_a   17.32464481
_cell_length_b   17.32417449
_cell_length_c   17.32483958
_cell_angle_alpha   90.00555740
_cell_angle_beta   90.00061852
_cell_angle_gamma   90.00510684
_symmetry_Int_Tables_number   1
_chemical_formula_structural   Ca24Ti8Al207Au49
_chemical_formula_sum   'Ca24 Ti8 Al207 Au49'
_cell_volume   5199.79362317
_cell_formula_units_Z   1
loop_
 _symmetry_equiv_pos_site_id
 _symmetry_equiv_pos_as_xyz
  1  'x, y, z'
loop_
 _atom_site_type_symbol
 _atom_site_label
 _atom_site_symmetry_multiplicity
 _atom_site_fract_x
 _atom_site_fract_y
 _atom_site_fract_z
 _atom_site_occupancy
  Ca  Ca0  1  0.25204654  -0.00438486  -0.00225143  1
  Ca  Ca1  1  0.25306653  -0.00455022  0.50264172  1
  Ca  Ca2  1  0.25161449  0.50431735  -0.00652793  1
  Ca  Ca3  1  0.25220719  0.50849883  0.50469129  1
  Ca  Ca4  1  0.74994350  -0.00173748  -0.00187340  1
  Ca  Ca5  1  0.74849699  -0.00211879  0.50254643  1
  Ca  Ca6  1  0.74937956  0.50444680  0.00027654  1
  Ca  Ca7  1  0.74963579  0.50128870  0.50027200  1
  Ca  Ca8  1  -0.00231413  0.24709113  0.00171659  1
  Ca  Ca9  1  -0.00188542  0.25128502  0.49843350  1
  Ca  Ca10  1  -0.00188085  0.74806969  -0.00065855  1
  Ca  Ca11  1  0.00180275  0.75312035  0.50221079  1
  Ca  Ca12  1  0.50224013  0.24171657  -0.00579127  1
  Ca  Ca13  1  0.50453257  0.24579700  0.50155243  1
  Ca  Ca14  1  0.50049088  0.75051339  -0.00585091  1
  Ca  Ca15  1  0.49829807  0.75187254  0.50566795  1
  Ca  Ca16  1  -0.00098191  0.00247635  0.25254749  1
  Ca  Ca17  1  -0.00115126  -0.00058431  0.74952212  1
  Ca  Ca18  1  0.00203371  0.49662205  0.25117472  1
  Ca  Ca19  1  0.00380929  0.50070663  0.75125616  1
  Ca  Ca20  1  0.50085416  -0.00282897  0.24961132  1
  Ca  Ca21  1  0.50164156  -0.00286371  0.74999632  1
  Ca  Ca22  1  0.49870527  0.50298743  0.25260586  1
  Ca  Ca23  1  0.49580560  0.50509967  0.75002479  1
  Ti  Ti24  1  0.24905855  0.24892215  0.24962130  1
  Ti  Ti25  1  0.25054144  0.24913349  0.75111225  1
  Ti  Ti26  1  0.24975748  0.75081717  0.25118638  1
  Ti  Ti27  1  0.25110352  0.75137021  0.75015143  1
  Ti  Ti28  1  0.75120496  0.24744746  0.25180248  1
  Ti  Ti29  1  0.74983103  0.24873902  0.74914091  1
  Ti  Ti30  1  0.74916613  0.75291850  0.24998064  1
  Ti  Ti31  1  0.74780849  0.75125813  0.75024904  1
  Al  Al32  1  0.07531397  0.08243615  0.08286196  1
  Al  Al33  1  0.07498669  0.06955382  0.58643353  1
  Al  Al34  1  0.09045208  0.57603419  0.08012833  1
  Al  Al35  1  0.08867894  0.58979225  0.59529321  1
  Al  Al36  1  0.58697572  0.08126596  0.08337211  1
  Al  Al37  1  0.58214659  0.07904965  0.59241932  1
  Al  Al38  1  0.59150339  0.59288911  0.07700476  1
  Al  Al39  1  0.57674358  0.60481174  0.58416562  1
  Al  Al40  1  0.41632025  0.42327904  0.07354692  1
  Al  Al41  1  0.41404051  0.42856835  0.58711953  1
  Al  Al42  1  0.41221233  0.92030226  0.07896291  1
  Al  Al43  1  0.41678270  0.91146144  0.59787096  1
  Al  Al44  1  0.91571901  0.41935768  0.08131979  1
  Al  Al45  1  0.91585135  0.40570092  0.57573935  1
  Al  Al46  1  0.91684712  0.91765671  0.08083906  1
  Al  Al47  1  0.92177199  0.91532465  0.58789588  1
  Al  Al48  1  0.41406217  0.07292134  0.41131649  1
  Al  Al49  1  0.41199727  0.07512690  0.90364309  1
  Al  Al50  1  0.41370820  0.58856408  0.42770602  1
  Al  Al51  1  0.41354857  0.58453823  0.90864635  1
  Al  Al52  1  0.91352573  0.08036485  0.41990057  1
  Al  Al53  1  0.91081061  0.08602776  0.91927789  1
  Al  Al54  1  0.92509858  0.58748516  0.41941595  1
  Al  Al55  1  0.91194934  0.59214764  0.92021877  1
  Al  Al56  1  0.07582282  0.42300400  0.41338691  1
  Al  Al57  1  0.08650732  0.42203959  0.90898199  1
  Al  Al58  1  0.08207370  0.90922823  0.41349127  1
  Al  Al59  1  0.08430055  0.91462611  0.91325112  1
  Al  Al60  1  0.58786436  0.42527323  0.42105351  1
  Al  Al61  1  0.57272922  0.42156173  0.91647157  1
  Al  Al62  1  0.58987403  0.91963391  0.41801856  1
  Al  Al63  1  0.57918345  0.90868694  0.90452441  1
  Al  Al64  1  0.07686971  0.07163276  0.41254547  1
  Al  Al65  1  0.07792575  0.07620697  0.91810810  1
  Al  Al66  1  0.08510779  0.58906494  0.41659829  1
  Al  Al67  1  0.08811506  0.57941504  0.91240116  1
  Al  Al68  1  0.58625487  0.07491820  0.41768760  1
  Al  Al69  1  0.58527954  0.07955170  0.91471125  1
  Al  Al70  1  0.58788325  0.58719975  0.42475581  1
  Al  Al71  1  0.58447269  0.59773180  0.91799812  1
  Al  Al72  1  0.41673377  0.43032252  0.42676484  1
  Al  Al73  1  0.41387612  0.42411324  0.90358154  1
  Al  Al74  1  0.41191878  0.91844075  0.42351714  1
  Al  Al75  1  0.41590690  0.91291355  0.89631126  1
  Al  Al76  1  0.91621515  0.40283368  0.41916395  1
  Al  Al77  1  0.92009063  0.41672040  0.92211526  1
  Al  Al78  1  0.92022286  0.91344717  0.41157335  1
  Al  Al79  1  0.91818310  0.91566917  0.91576014  1
  Al  Al80  1  0.08577363  0.42139842  0.09016919  1
  Al  Al81  1  0.08329836  0.42908530  0.59334324  1
  Al  Al82  1  0.08110331  0.91834711  0.08131583  1
  Al  Al83  1  0.08191699  0.90894815  0.58751324  1
  Al  Al84  1  0.58140111  0.42796295  0.07672209  1
  Al  Al85  1  0.57821944  0.41640859  0.57682015  1
  Al  Al86  1  0.58896234  0.92117514  0.07780295  1
  Al  Al87  1  0.58161824  0.91360408  0.59789247  1
  Al  Al88  1  0.42025224  0.07594445  0.08634052  1
  Al  Al89  1  0.41894252  0.07590573  0.60072415  1
  Al  Al90  1  0.41896728  0.58289281  0.07499605  1
  Al  Al91  1  0.41259999  0.59705362  0.59081071  1
  Al  Al92  1  0.91383936  0.09125363  0.08063092  1
  Al  Al93  1  0.91484387  0.08151701  0.58162988  1
  Al  Al94  1  0.90739057  0.58222705  0.07661447  1
  Al  Al95  1  0.92783656  0.59004009  0.58284019  1
  Al  Al96  1  0.24857755  0.13439954  0.13683331  1
  Al  Al97  1  0.25455661  0.12367873  0.64084734  1
  Al  Al98  1  0.24752895  0.63431212  0.13359523  1
  Al  Al99  1  0.25362723  0.63568870  0.63362394  1
  Al  Al100  1  0.75322572  0.13416377  0.13559531  1
  Al  Al101  1  0.74658589  0.13262240  0.63789352  1
  Al  Al102  1  0.74867320  0.63775554  0.13139219  1
  Al  Al103  1  0.74120165  0.64108570  0.63086951  1
  Al  Al104  1  0.24954572  0.36797669  0.13353531  1
  Al  Al105  1  0.24957060  0.37264220  0.64062086  1
  Al  Al106  1  0.24728466  0.86577221  0.12965280  1
  Al  Al107  1  0.25332957  0.86901188  0.63879687  1
  Al  Al108  1  0.74785781  0.36404903  0.13558995  1
  Al  Al109  1  0.75137151  0.36580520  0.63159785  1
  Al  Al110  1  0.75279243  0.86532886  0.12757806  1
  Al  Al111  1  0.74355340  0.86399164  0.63123102  1
  Al  Al112  1  0.25112041  0.12508005  0.36414986  1
  Al  Al113  1  0.25603445  0.12769076  0.86060494  1
  Al  Al114  1  0.24646319  0.63776508  0.37318383  1
  Al  Al115  1  0.25445355  0.63704414  0.86175858  1
  Al  Al116  1  0.74953246  0.12705552  0.36600940  1
  Al  Al117  1  0.74883276  0.13322637  0.86217141  1
  Al  Al118  1  0.74289785  0.64066316  0.36987214  1
  Al  Al119  1  0.74523758  0.63495844  0.86304579  1
  Al  Al120  1  0.24774945  0.36419197  0.36370981  1
  Al  Al121  1  0.25394881  0.36660332  0.86192808  1
  Al  Al122  1  0.25183371  0.86742510  0.36764336  1
  Al  Al123  1  0.25461493  0.87029918  0.86244263  1
  Al  Al124  1  0.75199220  0.36171906  0.37019515  1
  Al  Al125  1  0.75140684  0.36914713  0.86003121  1
  Al  Al126  1  0.75021300  0.86810441  0.37170988  1
  Al  Al127  1  0.74525096  0.86153028  0.87056971  1
  Al  Al128  1  0.13539949  0.25303188  0.13737920  1
  Al  Al129  1  0.14086633  0.24838567  0.63811828  1
  Al  Al130  1  0.13391321  0.75483406  0.13746655  1
  Al  Al131  1  0.13848049  0.74981140  0.63691158  1
  Al  Al132  1  0.63769524  0.24525027  0.13834224  1
  Al  Al133  1  0.63396107  0.24547980  0.63712575  1
  Al  Al134  1  0.63874674  0.75221648  0.12700651  1
  Al  Al135  1  0.62778711  0.75355289  0.63538113  1
  Al  Al136  1  0.13859222  0.24454397  0.36289197  1
  Al  Al137  1  0.13817952  0.25316838  0.86184665  1
  Al  Al138  1  0.13534143  0.75147866  0.36393930  1
  Al  Al139  1  0.13715392  0.75551232  0.86194441  1
  Al  Al140  1  0.63450407  0.24958062  0.36659116  1
  Al  Al141  1  0.63515088  0.24504421  0.85960145  1
  Al  Al142  1  0.63662451  0.75377018  0.37588137  1
  Al  Al143  1  0.62944558  0.75128152  0.86426690  1
  Al  Al144  1  0.36045272  0.24913597  0.13200255  1
  Al  Al145  1  0.36007939  0.24808889  0.64141642  1
  Al  Al146  1  0.36086360  0.75283348  0.13534664  1
  Al  Al147  1  0.37008995  0.74936943  0.63952168  1
  Al  Al148  1  0.86342217  0.24801312  0.13548233  1
  Al  Al149  1  0.86469054  0.25303153  0.63640945  1
  Al  Al150  1  0.86340697  0.75053584  0.12935679  1
  Al  Al151  1  0.86306458  0.75275704  0.63510494  1
  Al  Al152  1  0.36286190  0.24788063  0.36407685  1
  Al  Al153  1  0.36472500  0.24633853  0.86329048  1
  Al  Al154  1  0.36323206  0.74706668  0.36958192  1
  Al  Al155  1  0.37396985  0.75342621  0.85730805  1
  Al  Al156  1  0.86403565  0.24761222  0.36410414  1
  Al  Al157  1  0.86240572  0.24787635  0.86478882  1
  Al  Al158  1  0.86380957  0.75359787  0.36562706  1
  Al  Al159  1  0.86267574  0.74937841  0.86969468  1
  Al  Al160  1  0.13548663  0.12678802  0.25191463  1
  Al  Al161  1  0.13661286  0.12736415  0.75145552  1
  Al  Al162  1  0.13834766  0.63155148  0.25101196  1
  Al  Al163  1  0.13719489  0.63475043  0.74846269  1
  Al  Al164  1  0.63712125  0.13341306  0.25354654  1
  Al  Al165  1  0.63135295  0.12805771  0.75019953  1
  Al  Al166  1  0.63733881  0.64058656  0.24729937  1
  Al  Al167  1  0.62514927  0.64145407  0.75055750  1
  Al  Al168  1  0.36497168  0.13509163  0.25324302  1
  Al  Al169  1  0.37242365  0.13221250  0.74922188  1
  Al  Al170  1  0.36233122  0.63720316  0.25069542  1
  Al  Al171  1  0.36898265  0.63311464  0.74903427  1
  Al  Al172  1  0.86347548  0.12754494  0.25286601  1
  Al  Al173  1  0.86446300  0.13467742  0.74908302  1
  Al  Al174  1  0.85985826  0.63952186  0.25115862  1
  Al  Al175  1  0.86000791  0.63488542  0.75145126  1
  Al  Al176  1  0.13709386  0.37091174  0.24927714  1
  Al  Al177  1  0.13059627  0.36580596  0.74818793  1
  Al  Al178  1  0.13738957  0.87127161  0.25374673  1
  Al  Al179  1  0.13582844  0.87205439  0.74842962  1
  Al  Al180  1  0.63694766  0.36478104  0.25183163  1
  Al  Al181  1  0.63645540  0.36779625  0.74850449  1
  Al  Al182  1  0.63799300  0.86270329  0.25340747  1
  Al  Al183  1  0.63376015  0.86733832  0.74920285  1
  Al  Al184  1  0.36291809  0.36759434  0.25101436  1
  Al  Al185  1  0.36509056  0.37578035  0.74724758  1
  Al  Al186  1  0.36328509  0.86454321  0.25240934  1
  Al  Al187  1  0.36931690  0.86683916  0.74719795  1
  Al  Al188  1  0.86402430  0.36153837  0.24875677  1
  Al  Al189  1  0.87069327  0.36408509  0.75225242  1
  Al  Al190  1  0.85969659  0.87160543  0.25188699  1
  Al  Al191  1  0.86128735  0.86299098  0.74755180  1
  Al  Al192  1  0.32725621  0.68224774  -0.00335846  1
  Al  Al193  1  0.49731242  0.32456362  0.33273332  1
  Al  Al194  1  0.83100920  0.49943585  0.67504094  1
  Al  Al195  1  0.00011804  0.18296901  0.18190786  1
  Al  Al196  1  0.50080098  0.83003090  0.17452422  1
  Al  Al197  1  0.82615613  0.18439282  0.50159114  1
  Al  Al198  1  0.00072647  0.17597978  0.67420179  1
  Al  Al199  1  0.49657990  0.31376262  0.66512002  1
  Al  Al200  1  0.32754292  0.17081476  0.00072859  1
  Al  Al201  1  -0.00321293  0.82032090  0.81127875  1
  Al  Al202  1  0.81839813  -0.00191006  0.67281630  1
  Al  Al203  1  0.49978754  0.32929527  0.16969289  1
  Al  Al204  1  0.17128160  0.17325128  -0.00229893  1
  Al  Al205  1  -0.00028611  0.68893166  0.32337697  1
  Al  Al206  1  0.82618431  0.31520330  0.00017942  1
  Al  Al207  1  0.82649986  0.50022799  0.33482053  1
  Al  Al208  1  -0.00004986  0.66651731  0.16991755  1
  Al  Al209  1  0.68625729  0.17026219  -0.00028708  1
  Al  Al210  1  0.00090347  0.17724061  0.82835821  1
  Al  Al211  1  0.31782030  0.50260040  0.17270699  1
  Al  Al212  1  0.81706042  0.50054990  0.17537006  1
  Al  Al213  1  0.67354090  0.31833153  -0.00193225  1
  Al  Al214  1  0.31671153  0.50314411  0.32871002  1
  Al  Al215  1  -0.00048187  0.69376297  0.68449416  1
  Al  Al216  1  0.49970296  0.31848239  0.82221022  1
  Al  Al217  1  0.67056837  0.17628402  0.50182534  1
  Al  Al218  1  0.17400261  0.67707378  -0.00206972  1
  Al  Al219  1  0.66676412  0.50616560  0.67538107  1
  Al  Al220  1  0.49962016  0.82726276  0.32853307  1
  Al  Al221  1  0.67536321  0.50302961  0.31906079  1
  Al  Al222  1  0.33189083  0.16954778  0.50275042  1
  Al  Al223  1  0.17520338  0.81931677  0.50116816  1
  Al  Al224  1  0.31998819  -0.00043854  0.18833342  1
  Al  Al225  1  0.19197260  0.50066269  0.80737200  1
  Al  Al226  1  0.00257087  0.31565098  0.31906433  1
  Al  Al227  1  0.49932386  0.67342195  0.17209074  1
  Al  Al228  1  0.81935274  -0.00236266  0.82586299  1
  Al  Al229  1  0.50048902  0.17237139  0.17804124  1
  Al  Al230  1  -0.00202483  0.82635218  0.19128729  1
  Al  Al231  1  0.82003383  0.67542636  0.50078865  1
  Al  Al232  1  0.68002288  -0.00139991  0.18631303  1
  Al  Al233  1  0.32817333  0.32692439  0.50277187  1
  Al  Al234  1  0.32730976  0.81842284  0.50580121  1
  Al  Al235  1  0.16869471  0.16771166  0.50228651  1
  Al  Al236  1  0.17382555  0.33490034  0.50075002  1
  Al  Al237  1  0.50111724  0.67110346  0.32852898  1
  Al  Al238  1  0.17810684  0.32932949  0.00007927  1
  Au  Au239  1  0.49710245  0.33674170  0.34437607  1
  Au  Au240  1  0.84112569  0.49637924  0.32692727  1
  Au  Au241  1  0.50084410  0.82728359  0.16195606  1
  Au  Au242  1  0.17807653  -0.00535087  0.33456942  1
  Au  Au243  1  -0.00097223  0.32689917  0.83452142  1
  Au  Au244  1  0.49645863  0.83016431  0.34020418  1
  Au  Au245  1  0.33637031  0.83125107  -0.00866327  1
  Au  Au246  1  0.84459100  0.49830305  0.66599249  1
  Au  Au247  1  -0.00101160  0.84115481  0.18325555  1
  Au  Au248  1  0.83002457  0.50056418  0.84177548  1
  Au  Au249  1  0.17527132  -0.00415975  0.66670828  1
  Au  Au250  1  0.49812674  0.67417250  0.82525760  1
  Au  Au251  1  0.33310400  0.33474866  -0.01009628  1
  Au  Au252  1  0.17734238  0.00150630  0.83583438  1
  Au  Au253  1  0.34780810  0.16989039  0.50704660  1
  Au  Au254  1  0.66305422  0.82950063  0.50636083  1
  Au  Au255  1  0.82590638  0.00319183  0.16136590  1
  Au  Au256  1  0.83066978  0.66863627  0.50086304  1
  Au  Au257  1  0.83464341  0.82332504  -0.00119590  1
  Au  Au258  1  0.67137284  0.33404818  -0.00766423  1
  Au  Au259  1  0.49674742  0.33003979  0.67116163  1
  Au  Au260  1  0.00116383  0.66409436  0.82830766  1
  Au  Au261  1  0.66482372  0.82449668  -0.00441673  1
  Au  Au262  1  -0.00019372  0.65115556  0.17410833  1
  Au  Au263  1  0.67040726  -0.00314442  0.82307812  1
  Au  Au264  1  -0.00053016  0.82941204  0.82009771  1
  Au  Au265  1  0.17414286  0.00316797  0.16154115  1
  Au  Au266  1  0.17432823  0.67007099  0.50417589  1
  Au  Au267  1  0.49929254  0.32300617  0.15395721  1
  Au  Au268  1  0.16604217  0.50184682  0.32520503  1
  Au  Au269  1  0.68052484  0.33742195  0.49998720  1
  Au  Au270  1  -0.00360252  0.16721817  0.32996937  1
  Au  Au271  1  0.82266764  -0.00279968  0.33565452  1
  Au  Au272  1  0.33008227  0.50279407  0.16877755  1
  Au  Au273  1  0.16623274  0.33326147  0.00101062  1
  Au  Au274  1  0.67363718  0.16413336  0.50315930  1
  Au  Au275  1  0.32082917  0.50532465  0.67669948  1
  Au  Au276  1  0.50135742  0.16696353  0.82750440  1
  Au  Au277  1  0.50211375  0.15311629  0.32563492  1
  Au  Au278  1  0.16279555  0.82434640  0.00017709  1
  Au  Au279  1  0.33044874  0.15874961  0.00325342  1
  Au  Au280  1  0.65524555  0.50753245  0.66392702  1
  Au  Au281  1  0.00361062  0.32441923  0.66249009  1
  Au  Au282  1  0.66374012  0.50414012  0.83804424  1
  Au  Au283  1  -0.00233256  0.33490372  0.17101976  1
  Au  Au284  1  0.66705846  0.50523708  0.16920100  1
  Au  Au285  1  0.15330944  0.16295770  0.50200830  1
  Au  Au286  1  0.83774520  0.83039815  0.50166439  1
  Au  Au287  1  0.17431650  0.35068870  0.50440419  1
