# generated using pymatgen
data_Ca24Ti8Al207Au49
_symmetry_space_group_name_H-M   'P 1'
_cell_length_a   17.32259621
_cell_length_b   17.32516854
_cell_length_c   17.32187502
_cell_angle_alpha   89.99529316
_cell_angle_beta   90.00326875
_cell_angle_gamma   89.99580334
_symmetry_Int_Tables_number   1
_chemical_formula_structural   Ca24Ti8Al207Au49
_chemical_formula_sum   'Ca24 Ti8 Al207 Au49'
_cell_volume   5198.58737415
_cell_formula_units_Z   1
loop_
 _symmetry_equiv_pos_site_id
 _symmetry_equiv_pos_as_xyz
  1  'x, y, z'
loop_
 _atom_site_type_symbol
 _atom_site_label
 _atom_site_symmetry_multiplicity
 _atom_site_fract_x
 _atom_site_fract_y
 _atom_site_fract_z
 _atom_site_occupancy
  Ca  Ca0  1  0.24846460  -0.00112473  0.00440300  1
  Ca  Ca1  1  0.25024806  0.00523765  0.49539521  1
  Ca  Ca2  1  0.24870314  0.50289863  -0.00116432  1
  Ca  Ca3  1  0.24828708  0.49379500  0.50244823  1
  Ca  Ca4  1  0.75235987  -0.00667272  0.00015803  1
  Ca  Ca5  1  0.75393180  0.00171615  0.49795863  1
  Ca  Ca6  1  0.75019099  0.50601833  -0.00701585  1
  Ca  Ca7  1  0.75146094  0.49907800  0.50495003  1
  Ca  Ca8  1  0.00422652  0.24843220  0.00203666  1
  Ca  Ca9  1  0.00216053  0.24368444  0.49813711  1
  Ca  Ca10  1  -0.00232285  0.74457719  -0.00089306  1
  Ca  Ca11  1  0.00051118  0.75028021  0.49926550  1
  Ca  Ca12  1  0.49595366  0.25168772  -0.00536944  1
  Ca  Ca13  1  0.49897220  0.24667352  0.50154844  1
  Ca  Ca14  1  0.49923016  0.74585830  -0.00336848  1
  Ca  Ca15  1  0.49803168  0.74962233  0.50131069  1
  Ca  Ca16  1  0.00356680  0.00175381  0.25413891  1
  Ca  Ca17  1  0.00011907  0.00011407  0.75125953  1
  Ca  Ca18  1  0.00055448  0.49869036  0.25038117  1
  Ca  Ca19  1  0.00138230  0.50151249  0.75156183  1
  Ca  Ca20  1  0.49730192  -0.00012301  0.25523777  1
  Ca  Ca21  1  0.49682545  0.00364467  0.74769380  1
  Ca  Ca22  1  0.49827420  0.50240563  0.24901014  1
  Ca  Ca23  1  0.49935893  0.49840695  0.75022767  1
  Ti  Ti24  1  0.25003131  0.25115616  0.25150637  1
  Ti  Ti25  1  0.24933205  0.25023258  0.74919958  1
  Ti  Ti26  1  0.25197818  0.74982855  0.24716781  1
  Ti  Ti27  1  0.25170414  0.74846151  0.75237435  1
  Ti  Ti28  1  0.75044343  0.24927456  0.25068830  1
  Ti  Ti29  1  0.74954841  0.25044409  0.74982047  1
  Ti  Ti30  1  0.74770942  0.75109580  0.24720951  1
  Ti  Ti31  1  0.74842692  0.74917614  0.75161626  1
  Al  Al32  1  0.08512584  0.08338504  0.10016401  1
  Al  Al33  1  0.08116188  0.07933870  0.57627683  1
  Al  Al34  1  0.08332274  0.58063900  0.07631379  1
  Al  Al35  1  0.09189568  0.57934673  0.59221425  1
  Al  Al36  1  0.57117526  0.07716350  0.07916173  1
  Al  Al37  1  0.57659772  0.08597961  0.58215995  1
  Al  Al38  1  0.58757135  0.59089380  0.07083913  1
  Al  Al39  1  0.58493050  0.57300091  0.59436522  1
  Al  Al40  1  0.41836625  0.42928372  0.08358973  1
  Al  Al41  1  0.41624587  0.41091141  0.60145516  1
  Al  Al42  1  0.40715024  0.91747925  0.08693479  1
  Al  Al43  1  0.42530150  0.91541054  0.58740777  1
  Al  Al44  1  0.92266516  0.42165218  0.08261667  1
  Al  Al45  1  0.91781571  0.42161278  0.58672138  1
  Al  Al46  1  0.91096662  0.91641898  0.08339245  1
  Al  Al47  1  0.92365110  0.92094526  0.57833990  1
  Al  Al48  1  0.40912463  0.09331543  0.41014251  1
  Al  Al49  1  0.42212452  0.08425651  0.90626243  1
  Al  Al50  1  0.41180007  0.57264626  0.40803437  1
  Al  Al51  1  0.40228215  0.58001491  0.91376977  1
  Al  Al52  1  0.91058144  0.08862238  0.40989364  1
  Al  Al53  1  0.92771692  0.07733107  0.92002255  1
  Al  Al54  1  0.92289400  0.57828808  0.42405578  1
  Al  Al55  1  0.90473562  0.58825730  0.91213629  1
  Al  Al56  1  0.08586833  0.41916008  0.41372636  1
  Al  Al57  1  0.08953870  0.42311187  0.90680964  1
  Al  Al58  1  0.08707282  0.92487318  0.41344696  1
  Al  Al59  1  0.09416546  0.92204515  0.91915847  1
  Al  Al60  1  0.57110517  0.41904332  0.42194933  1
  Al  Al61  1  0.58186205  0.41759591  0.89795583  1
  Al  Al62  1  0.58350657  0.92644326  0.42192341  1
  Al  Al63  1  0.58669517  0.91128729  0.91910726  1
  Al  Al64  1  0.08637085  0.08347884  0.40694153  1
  Al  Al65  1  0.08781524  0.07994001  0.90781864  1
  Al  Al66  1  0.08591119  0.57673781  0.41722694  1
  Al  Al67  1  0.09249649  0.58219652  0.90704878  1
  Al  Al68  1  0.57778631  0.08815091  0.40988302  1
  Al  Al69  1  0.57631547  0.08614269  0.90916474  1
  Al  Al70  1  0.57544316  0.57863449  0.42308596  1
  Al  Al71  1  0.59641870  0.57988483  0.91105113  1
  Al  Al72  1  0.41183268  0.41682172  0.40935754  1
  Al  Al73  1  0.41801892  0.41875629  0.89287332  1
  Al  Al74  1  0.41556632  0.93219312  0.41201571  1
  Al  Al75  1  0.41706115  0.91677349  0.92043211  1
  Al  Al76  1  0.92396596  0.41792014  0.41955217  1
  Al  Al77  1  0.91589114  0.42789642  0.90925408  1
  Al  Al78  1  0.91452401  0.92808693  0.41226824  1
  Al  Al79  1  0.90945676  0.91119542  0.92675979  1
  Al  Al80  1  0.08142576  0.41819177  0.08346113  1
  Al  Al81  1  0.09074470  0.42261733  0.59381374  1
  Al  Al82  1  0.09092768  0.92321872  0.08148416  1
  Al  Al83  1  0.07980899  0.91874676  0.57907926  1
  Al  Al84  1  0.57564766  0.42944347  0.07774741  1
  Al  Al85  1  0.57947533  0.41057484  0.60304979  1
  Al  Al86  1  0.58454770  0.91056988  0.07641413  1
  Al  Al87  1  0.57978868  0.91201680  0.58586783  1
  Al  Al88  1  0.41060587  0.07422108  0.09713613  1
  Al  Al89  1  0.41628903  0.09681814  0.57500515  1
  Al  Al90  1  0.40705927  0.58913591  0.07633922  1
  Al  Al91  1  0.41561897  0.57077839  0.59541479  1
  Al  Al92  1  0.92524933  0.08161041  0.09406287  1
  Al  Al93  1  0.91196469  0.08959285  0.57177546  1
  Al  Al94  1  0.91018819  0.58587622  0.07358551  1
  Al  Al95  1  0.91714316  0.58103059  0.58707514  1
  Al  Al96  1  0.24953532  0.13434295  0.13611403  1
  Al  Al97  1  0.25196473  0.13548296  0.62956004  1
  Al  Al98  1  0.25378716  0.63153369  0.12982976  1
  Al  Al99  1  0.25313469  0.62862842  0.64050761  1
  Al  Al100  1  0.75266922  0.13813106  0.13527162  1
  Al  Al101  1  0.74765144  0.13582791  0.62982922  1
  Al  Al102  1  0.74567131  0.63796215  0.13302840  1
  Al  Al103  1  0.74577243  0.62782730  0.64236069  1
  Al  Al104  1  0.24839597  0.36810029  0.13504677  1
  Al  Al105  1  0.25282404  0.37060229  0.63735192  1
  Al  Al106  1  0.25552230  0.86558430  0.13493996  1
  Al  Al107  1  0.24849764  0.86681840  0.63786817  1
  Al  Al108  1  0.74759618  0.36243500  0.13568864  1
  Al  Al109  1  0.74447289  0.37500411  0.64054704  1
  Al  Al110  1  0.74885746  0.86111572  0.12734484  1
  Al  Al111  1  0.75231250  0.86541239  0.63558316  1
  Al  Al112  1  0.24944261  0.13590244  0.36857117  1
  Al  Al113  1  0.24580854  0.13720911  0.86728307  1
  Al  Al114  1  0.25587674  0.63516372  0.36214895  1
  Al  Al115  1  0.25214417  0.62965380  0.86781514  1
  Al  Al116  1  0.75180336  0.13693050  0.36917827  1
  Al  Al117  1  0.75135012  0.13223504  0.86279756  1
  Al  Al118  1  0.74458745  0.63768195  0.36116115  1
  Al  Al119  1  0.74685051  0.63069248  0.86422450  1
  Al  Al120  1  0.25358375  0.36373131  0.36740372  1
  Al  Al121  1  0.25169624  0.37320589  0.85931828  1
  Al  Al122  1  0.25028887  0.86558161  0.36099986  1
  Al  Al123  1  0.25246206  0.86371706  0.86730173  1
  Al  Al124  1  0.74976270  0.35998168  0.36544555  1
  Al  Al125  1  0.74664813  0.36999046  0.86103827  1
  Al  Al126  1  0.75003316  0.86332002  0.36269614  1
  Al  Al127  1  0.74864444  0.86449501  0.86985034  1
  Al  Al128  1  0.13461950  0.24837972  0.13399445  1
  Al  Al129  1  0.14007195  0.25094790  0.63102951  1
  Al  Al130  1  0.13824668  0.74741812  0.13395049  1
  Al  Al131  1  0.13939107  0.74542017  0.63967593  1
  Al  Al132  1  0.63418367  0.24723017  0.13448240  1
  Al  Al133  1  0.63266614  0.25162687  0.63853968  1
  Al  Al134  1  0.63009621  0.75127208  0.12739539  1
  Al  Al135  1  0.63170847  0.75054299  0.64116985  1
  Al  Al136  1  0.13793328  0.25022268  0.37064548  1
  Al  Al137  1  0.13963765  0.25591093  0.86829987  1
  Al  Al138  1  0.13931675  0.74934845  0.36219163  1
  Al  Al139  1  0.13872521  0.74287269  0.86538096  1
  Al  Al140  1  0.63428221  0.24498281  0.36931875  1
  Al  Al141  1  0.62836003  0.25220588  0.86048272  1
  Al  Al142  1  0.62812141  0.75137731  0.36062710  1
  Al  Al143  1  0.63470231  0.74700169  0.87089190  1
  Al  Al144  1  0.36340677  0.24794033  0.13699944  1
  Al  Al145  1  0.36557775  0.25126276  0.63703134  1
  Al  Al146  1  0.36858073  0.74832520  0.13059883  1
  Al  Al147  1  0.36667378  0.75075622  0.63931546  1
  Al  Al148  1  0.87338523  0.24684398  0.14000328  1
  Al  Al149  1  0.86289889  0.25090823  0.63870840  1
  Al  Al150  1  0.86465742  0.75296033  0.13333504  1
  Al  Al151  1  0.86210543  0.74447798  0.64063582  1
  Al  Al152  1  0.36470556  0.24541281  0.36848022  1
  Al  Al153  1  0.36646686  0.25248238  0.86291136  1
  Al  Al154  1  0.37208789  0.75101921  0.35894026  1
  Al  Al155  1  0.36448496  0.74641723  0.87006311  1
  Al  Al156  1  0.86689917  0.24782065  0.36583069  1
  Al  Al157  1  0.86154001  0.25254707  0.86289080  1
  Al  Al158  1  0.86298763  0.74920612  0.36276955  1
  Al  Al159  1  0.86259640  0.75000444  0.86246003  1
  Al  Al160  1  0.13837951  0.13481653  0.25178656  1
  Al  Al161  1  0.13791495  0.13402892  0.75022744  1
  Al  Al162  1  0.13865103  0.63461650  0.24771904  1
  Al  Al163  1  0.14036377  0.62706154  0.75098567  1
  Al  Al164  1  0.63034774  0.13647302  0.25307490  1
  Al  Al165  1  0.63309968  0.13471541  0.75130644  1
  Al  Al166  1  0.62627461  0.63839809  0.24430666  1
  Al  Al167  1  0.63402726  0.62997218  0.75410907  1
  Al  Al168  1  0.36724948  0.13665288  0.25244762  1
  Al  Al169  1  0.36395884  0.13551490  0.75190606  1
  Al  Al170  1  0.36920605  0.63316302  0.24592534  1
  Al  Al171  1  0.36332635  0.62827142  0.75375906  1
  Al  Al172  1  0.86426967  0.13345971  0.25450239  1
  Al  Al173  1  0.86267654  0.12993657  0.74711044  1
  Al  Al174  1  0.86150998  0.63659897  0.24755375  1
  Al  Al175  1  0.86042580  0.62624545  0.75319313  1
  Al  Al176  1  0.12960963  0.36148522  0.24880716  1
  Al  Al177  1  0.13623414  0.36846311  0.74845531  1
  Al  Al178  1  0.13453970  0.86535322  0.24905876  1
  Al  Al179  1  0.13870888  0.86697846  0.75510002  1
  Al  Al180  1  0.63459743  0.36244749  0.25200288  1
  Al  Al181  1  0.63057377  0.36575018  0.75095189  1
  Al  Al182  1  0.62929861  0.86207272  0.24720575  1
  Al  Al183  1  0.63617208  0.86593544  0.75089501  1
  Al  Al184  1  0.36232266  0.37102674  0.25013560  1
  Al  Al185  1  0.36634699  0.36551000  0.74901842  1
  Al  Al186  1  0.36973076  0.86546898  0.24719247  1
  Al  Al187  1  0.36502418  0.86752724  0.74975684  1
  Al  Al188  1  0.86948562  0.36342410  0.24958857  1
  Al  Al189  1  0.86360852  0.37353042  0.74848179  1
  Al  Al190  1  0.86481461  0.86438948  0.25060255  1
  Al  Al191  1  0.86045222  0.87002421  0.75203664  1
  Al  Al192  1  -0.00151462  0.66924970  0.17190246  1
  Al  Al193  1  0.49831867  0.31550304  0.32694340  1
  Al  Al194  1  0.82757772  0.50000378  0.32839417  1
  Al  Al195  1  0.67330708  -0.00223553  0.67579128  1
  Al  Al196  1  0.00024317  0.82738591  0.33059179  1
  Al  Al197  1  0.17255668  0.82658591  0.49984270  1
  Al  Al198  1  0.00059383  0.83031784  0.82643672  1
  Al  Al199  1  0.32928516  0.83060649  0.49828446  1
  Al  Al200  1  0.18239818  0.81796178  0.00082764  1
  Al  Al201  1  0.00211735  0.17938647  0.31386545  1
  Al  Al202  1  0.82761503  0.31355534  0.50185837  1
  Al  Al203  1  0.00012467  0.16955673  0.67081521  1
  Al  Al204  1  0.82289562  0.50030214  0.17341944  1
  Al  Al205  1  0.49856976  0.18556322  0.68460847  1
  Al  Al206  1  0.83043574  0.82852592  0.49920681  1
  Al  Al207  1  0.67090577  0.49933062  0.31987245  1
  Al  Al208  1  0.49886355  0.67827657  0.67936638  1
  Al  Al209  1  0.66824754  0.67693675  0.50261941  1
  Al  Al210  1  0.00380407  0.82629778  0.17331884  1
  Al  Al211  1  0.18897065  0.49859272  0.31951476  1
  Al  Al212  1  0.82986638  0.17289748  0.00372415  1
  Al  Al213  1  0.00080681  0.18076643  0.82348460  1
  Al  Al214  1  0.80690055  0.69241072  -0.00182019  1
  Al  Al215  1  0.82695496  0.67462800  0.50040150  1
  Al  Al216  1  0.66765202  0.32456043  0.50446452  1
  Al  Al217  1  0.31202263  0.00056386  0.82112470  1
  Al  Al218  1  0.32587640  0.32107163  0.50254238  1
  Al  Al219  1  0.32538602  0.16854281  0.00057829  1
  Al  Al220  1  0.30968284  0.00215735  0.30822053  1
  Al  Al221  1  0.49908396  0.32054068  0.17035406  1
  Al  Al222  1  0.32538086  0.33555477  -0.00476604  1
  Al  Al223  1  0.82844838  -0.00046877  0.18772327  1
  Al  Al224  1  0.68589704  0.00090001  0.32756211  1
  Al  Al225  1  0.82500366  0.33079331  -0.00243512  1
  Al  Al226  1  0.67972143  -0.00008068  0.17838337  1
  Al  Al227  1  0.00205644  0.32501512  0.68152027  1
  Al  Al228  1  0.17303303  0.67265472  0.50003239  1
  Al  Al229  1  0.49923617  0.81988990  0.81465710  1
  Al  Al230  1  -0.00062033  0.67272752  0.81795492  1
  Al  Al231  1  0.17644574  0.00020950  0.67549828  1
  Al  Al232  1  0.67294104  0.17089082  -0.00214364  1
  Al  Al233  1  0.66802715  0.32899327  -0.00167138  1
  Al  Al234  1  0.00000878  0.81846140  0.67433968  1
  Al  Al235  1  0.19085392  -0.00134609  0.19072182  1
  Al  Al236  1  0.00069106  0.67172530  0.32689143  1
  Al  Al237  1  0.67550612  0.82751734  0.49987416  1
  Al  Al238  1  0.32870471  0.66398905  0.50338650  1
  Au  Au239  1  0.17316604  0.16247813  0.49797545  1
  Au  Au240  1  0.49699027  0.66599166  0.33209982  1
  Au  Au241  1  0.66185291  0.16529418  -0.00351638  1
  Au  Au242  1  0.33779109  0.34529360  -0.00656940  1
  Au  Au243  1  0.50225853  0.83736650  0.33696223  1
  Au  Au244  1  0.00309562  0.66825020  0.66824068  1
  Au  Au245  1  0.49806735  0.16048711  0.18068217  1
  Au  Au246  1  0.32482365  0.84597990  0.49891123  1
  Au  Au247  1  0.49988506  0.33631190  0.17754659  1
  Au  Au248  1  0.16435640  0.50095573  0.17425177  1
  Au  Au249  1  0.32474770  0.64859886  0.50335128  1
  Au  Au250  1  0.34021005  0.32872472  0.50318591  1
  Au  Au251  1  0.49958680  0.66781817  0.15932047  1
  Au  Au252  1  0.67160237  0.16243875  0.49820551  1
  Au  Au253  1  0.67569480  0.66258563  0.50790330  1
  Au  Au254  1  0.17200831  0.66920017  -0.00154687  1
  Au  Au255  1  0.49965425  0.83504153  0.82238899  1
  Au  Au256  1  0.16577209  0.33598036  -0.00221005  1
  Au  Au257  1  0.67593923  0.50621540  0.15577353  1
  Au  Au258  1  0.33972901  0.16167647  0.00123209  1
  Au  Au259  1  0.32170104  0.00019492  0.83502375  1
  Au  Au260  1  0.33022152  0.50334281  0.17754475  1
  Au  Au261  1  0.83811737  0.16370939  0.00180496  1
  Au  Au262  1  0.33088536  0.82410248  0.00090915  1
  Au  Au263  1  0.00104628  0.32202464  0.16564790  1
  Au  Au264  1  0.66867887  -0.00080691  0.16574549  1
  Au  Au265  1  0.16051198  0.16295561  0.00292428  1
  Au  Au266  1  0.00200126  0.32910740  0.66962589  1
  Au  Au267  1  0.00156759  0.32663556  0.33213146  1
  Au  Au268  1  0.83467096  0.32908813  0.50092851  1
  Au  Au269  1  0.67291495  0.49484049  0.33622686  1
  Au  Au270  1  0.82392172  0.50141492  0.67423433  1
  Au  Au271  1  -0.00058306  0.33002053  0.83586509  1
  Au  Au272  1  0.83739286  0.00191279  0.66409312  1
  Au  Au273  1  0.66290117  0.00274626  0.67106426  1
  Au  Au274  1  0.67999594  0.81684039  -0.00148964  1
  Au  Au275  1  0.16408372  -0.00137071  0.67814566  1
  Au  Au276  1  0.49891044  0.66685104  0.67374175  1
  Au  Au277  1  0.49774438  0.83527878  0.16771802  1
  Au  Au278  1  0.00205994  0.83465159  0.16410547  1
  Au  Au279  1  0.16426154  0.33297739  0.50251660  1
  Au  Au280  1  0.83378936  -0.00086184  0.83686821  1
  Au  Au281  1  0.00550925  0.82923485  0.84202601  1
  Au  Au282  1  0.65985409  0.33806302  -0.00422568  1
  Au  Au283  1  0.83326395  0.34015401  -0.00150450  1
  Au  Au284  1  0.66620362  -0.00030538  0.83116337  1
  Au  Au285  1  0.66492263  0.33652561  0.50190435  1
  Au  Au286  1  0.33921199  0.00685156  0.66158564  1
  Au  Au287  1  0.49848014  0.65768133  0.83369253  1
