# generated using pymatgen
data_Ca24Ti8Al207Au49
_symmetry_space_group_name_H-M   'P 1'
_cell_length_a   17.32359333
_cell_length_b   17.32140155
_cell_length_c   17.32349694
_cell_angle_alpha   89.99884158
_cell_angle_beta   90.00233107
_cell_angle_gamma   90.00414192
_symmetry_Int_Tables_number   1
_chemical_formula_structural   Ca24Ti8Al207Au49
_chemical_formula_sum   'Ca24 Ti8 Al207 Au49'
_cell_volume   5198.24293513
_cell_formula_units_Z   1
loop_
 _symmetry_equiv_pos_site_id
 _symmetry_equiv_pos_as_xyz
  1  'x, y, z'
loop_
 _atom_site_type_symbol
 _atom_site_label
 _atom_site_symmetry_multiplicity
 _atom_site_fract_x
 _atom_site_fract_y
 _atom_site_fract_z
 _atom_site_occupancy
  Ca  Ca0  1  0.24576867  -0.00157275  0.00113256  1
  Ca  Ca1  1  0.24681786  0.00211189  0.49800077  1
  Ca  Ca2  1  0.24449743  0.49818512  0.00382598  1
  Ca  Ca3  1  0.25004883  0.49794898  0.49595885  1
  Ca  Ca4  1  0.75223873  0.00236779  -0.00589608  1
  Ca  Ca5  1  0.75023669  0.00210274  0.50460251  1
  Ca  Ca6  1  0.75146527  0.49694797  0.00304568  1
  Ca  Ca7  1  0.74859182  0.49371847  0.50102094  1
  Ca  Ca8  1  -0.00415704  0.25505618  0.00624796  1
  Ca  Ca9  1  -0.00452562  0.25444182  0.49342826  1
  Ca  Ca10  1  -0.00445153  0.74909793  0.00907967  1
  Ca  Ca11  1  -0.00044718  0.74957744  0.49569502  1
  Ca  Ca12  1  0.50163060  0.25612389  -0.00395957  1
  Ca  Ca13  1  0.50789989  0.25359177  0.50533581  1
  Ca  Ca14  1  0.50096399  0.75060034  -0.00171086  1
  Ca  Ca15  1  0.49771508  0.75016380  0.50329892  1
  Ca  Ca16  1  -0.00180728  0.00423877  0.24473337  1
  Ca  Ca17  1  -0.00555392  0.00540020  0.75156380  1
  Ca  Ca18  1  -0.00125578  0.49741694  0.24721733  1
  Ca  Ca19  1  -0.00481797  0.49753672  0.75605341  1
  Ca  Ca20  1  0.50046210  0.00254244  0.24631288  1
  Ca  Ca21  1  0.50622800  0.00185656  0.74905999  1
  Ca  Ca22  1  0.50074156  0.49896802  0.24969725  1
  Ca  Ca23  1  0.50745240  0.50038569  0.75406244  1
  Ti  Ti24  1  0.24887698  0.25435151  0.24958839  1
  Ti  Ti25  1  0.24959928  0.24968066  0.74954445  1
  Ti  Ti26  1  0.24877143  0.74853821  0.24983943  1
  Ti  Ti27  1  0.25087671  0.75130008  0.74983022  1
  Ti  Ti28  1  0.75074058  0.25143513  0.24943536  1
  Ti  Ti29  1  0.75015521  0.24851183  0.75052808  1
  Ti  Ti30  1  0.75194167  0.74714006  0.24835078  1
  Ti  Ti31  1  0.75052706  0.75280165  0.75089320  1
  Al  Al32  1  0.07455015  0.08207886  0.09059732  1
  Al  Al33  1  0.08065691  0.09114893  0.57281337  1
  Al  Al34  1  0.07817702  0.58752871  0.09361383  1
  Al  Al35  1  0.08175952  0.58113943  0.56759646  1
  Al  Al36  1  0.58901427  0.09263147  0.07128868  1
  Al  Al37  1  0.59799616  0.08904884  0.59228599  1
  Al  Al38  1  0.58464707  0.57267292  0.07576306  1
  Al  Al39  1  0.58518205  0.57506644  0.58111609  1
  Al  Al40  1  0.41673403  0.41273236  0.09784298  1
  Al  Al41  1  0.43297040  0.41034613  0.58495635  1
  Al  Al42  1  0.41931144  0.91863675  0.07951230  1
  Al  Al43  1  0.42011696  0.90882603  0.58049841  1
  Al  Al44  1  0.91456142  0.41785447  0.09594797  1
  Al  Al45  1  0.91413803  0.41234929  0.57427040  1
  Al  Al46  1  0.91449590  0.90015254  0.07678846  1
  Al  Al47  1  0.90631277  0.92494807  0.59253088  1
  Al  Al48  1  0.41757493  0.08433237  0.42994605  1
  Al  Al49  1  0.43229345  0.07666500  0.91593912  1
  Al  Al50  1  0.40272204  0.57589225  0.41264662  1
  Al  Al51  1  0.42504062  0.58078521  0.92086676  1
  Al  Al52  1  0.92420602  0.09716607  0.42203687  1
  Al  Al53  1  0.90647557  0.07835819  0.91139784  1
  Al  Al54  1  0.91323727  0.57247209  0.40482702  1
  Al  Al55  1  0.90569335  0.58491636  0.93313369  1
  Al  Al56  1  0.08143491  0.41366754  0.40234860  1
  Al  Al57  1  0.08692464  0.40960039  0.92670420  1
  Al  Al58  1  0.08133747  0.90920999  0.41746666  1
  Al  Al59  1  0.07094020  0.91909402  0.92741057  1
  Al  Al60  1  0.59147982  0.40672326  0.41935058  1
  Al  Al61  1  0.59015384  0.41939087  0.91332154  1
  Al  Al62  1  0.56993551  0.92525303  0.42830756  1
  Al  Al63  1  0.58952921  0.91992296  0.91265333  1
  Al  Al64  1  0.08285305  0.10526662  0.41485977  1
  Al  Al65  1  0.07107938  0.08160516  0.92357055  1
  Al  Al66  1  0.09124361  0.57748578  0.40964464  1
  Al  Al67  1  0.07913540  0.57230825  0.93379078  1
  Al  Al68  1  0.58925264  0.09115808  0.43518222  1
  Al  Al69  1  0.59366295  0.09080101  0.91263773  1
  Al  Al70  1  0.58628374  0.57059367  0.42315740  1
  Al  Al71  1  0.59102114  0.57958835  0.91090241  1
  Al  Al72  1  0.41429366  0.41885730  0.40754514  1
  Al  Al73  1  0.42438213  0.41938717  0.92493205  1
  Al  Al74  1  0.40827672  0.90627785  0.42597815  1
  Al  Al75  1  0.42276206  0.91830903  0.91713151  1
  Al  Al76  1  0.91359004  0.40967717  0.40471601  1
  Al  Al77  1  0.92237652  0.42220705  0.92420995  1
  Al  Al78  1  0.92572663  0.91550265  0.42236298  1
  Al  Al79  1  0.90492560  0.91390402  0.91441996  1
  Al  Al80  1  0.08565618  0.41086615  0.09073600  1
  Al  Al81  1  0.07374344  0.41716064  0.57177523  1
  Al  Al82  1  0.07490272  0.91188677  0.09282809  1
  Al  Al83  1  0.07915534  0.91855320  0.57780896  1
  Al  Al84  1  0.57980218  0.41040155  0.08811151  1
  Al  Al85  1  0.59305451  0.40424971  0.58588803  1
  Al  Al86  1  0.58488345  0.91777069  0.07505763  1
  Al  Al87  1  0.58543364  0.92693476  0.59271123  1
  Al  Al88  1  0.42407696  0.07931944  0.07933318  1
  Al  Al89  1  0.41975968  0.09229444  0.58318734  1
  Al  Al90  1  0.40501696  0.57054764  0.08687673  1
  Al  Al91  1  0.42383292  0.58159972  0.57158603  1
  Al  Al92  1  0.91712897  0.09201132  0.08100793  1
  Al  Al93  1  0.90546593  0.08455883  0.58869990  1
  Al  Al94  1  0.91341200  0.59132189  0.09427638  1
  Al  Al95  1  0.91838426  0.57233392  0.57208334  1
  Al  Al96  1  0.25119393  0.13918690  0.13409294  1
  Al  Al97  1  0.24679775  0.13420136  0.63629348  1
  Al  Al98  1  0.24903383  0.62814278  0.13837482  1
  Al  Al99  1  0.25169486  0.63641343  0.63279773  1
  Al  Al100  1  0.75121289  0.13599044  0.12812778  1
  Al  Al101  1  0.74896206  0.13649627  0.63047703  1
  Al  Al102  1  0.75575769  0.62792522  0.13094872  1
  Al  Al103  1  0.75216211  0.63515569  0.63519191  1
  Al  Al104  1  0.24875456  0.37199055  0.13482180  1
  Al  Al105  1  0.25245703  0.36065513  0.63048801  1
  Al  Al106  1  0.24853344  0.86127782  0.13161718  1
  Al  Al107  1  0.25090304  0.86481717  0.62892507  1
  Al  Al108  1  0.75449163  0.37056927  0.13760841  1
  Al  Al109  1  0.74781061  0.36199095  0.63385703  1
  Al  Al110  1  0.75320840  0.86236369  0.13015454  1
  Al  Al111  1  0.75141473  0.87290943  0.63605482  1
  Al  Al112  1  0.24646391  0.13760123  0.36333552  1
  Al  Al113  1  0.24831602  0.13614290  0.86193734  1
  Al  Al114  1  0.24936029  0.63418628  0.36323003  1
  Al  Al115  1  0.25015524  0.63539255  0.86459197  1
  Al  Al116  1  0.74636052  0.13917932  0.37020745  1
  Al  Al117  1  0.75066569  0.13022427  0.86534748  1
  Al  Al118  1  0.75385587  0.62836506  0.35988256  1
  Al  Al119  1  0.75299184  0.63775960  0.86790555  1
  Al  Al120  1  0.24773275  0.36820858  0.36574291  1
  Al  Al121  1  0.24911502  0.36287061  0.86972837  1
  Al  Al122  1  0.25096086  0.86426868  0.36761900  1
  Al  Al123  1  0.24905321  0.86340591  0.87141773  1
  Al  Al124  1  0.75180076  0.37087236  0.36209473  1
  Al  Al125  1  0.74590040  0.36421064  0.86511589  1
  Al  Al126  1  0.75535268  0.86552572  0.36109693  1
  Al  Al127  1  0.75410666  0.87322970  0.86741108  1
  Al  Al128  1  0.13600771  0.25858288  0.13682485  1
  Al  Al129  1  0.13348942  0.24652279  0.63184274  1
  Al  Al130  1  0.13163230  0.74790410  0.13852134  1
  Al  Al131  1  0.13282705  0.75366134  0.63308908  1
  Al  Al132  1  0.63749230  0.25502143  0.13641224  1
  Al  Al133  1  0.63291089  0.24969501  0.63673339  1
  Al  Al134  1  0.63830486  0.74659766  0.13412806  1
  Al  Al135  1  0.63951182  0.75158923  0.63978601  1
  Al  Al136  1  0.13100163  0.25328128  0.36008437  1
  Al  Al137  1  0.13485976  0.25051803  0.86855568  1
  Al  Al138  1  0.13216576  0.74901762  0.36199868  1
  Al  Al139  1  0.13580088  0.75276231  0.86640739  1
  Al  Al140  1  0.63848177  0.25621411  0.36672565  1
  Al  Al141  1  0.63621019  0.24570891  0.86378757  1
  Al  Al142  1  0.63804055  0.74985897  0.36134336  1
  Al  Al143  1  0.63903523  0.75817850  0.86521209  1
  Al  Al144  1  0.36418147  0.25845445  0.13232365  1
  Al  Al145  1  0.37225385  0.25051061  0.63557072  1
  Al  Al146  1  0.36199904  0.74844054  0.12796973  1
  Al  Al147  1  0.36513126  0.75029636  0.63040642  1
  Al  Al148  1  0.86564357  0.24936926  0.13656793  1
  Al  Al149  1  0.86379807  0.24580526  0.63237527  1
  Al  Al150  1  0.86413143  0.74467185  0.13127389  1
  Al  Al151  1  0.86247414  0.75464995  0.63151524  1
  Al  Al152  1  0.36246779  0.25439428  0.36296268  1
  Al  Al153  1  0.36636674  0.25494757  0.86528668  1
  Al  Al154  1  0.36340151  0.74876840  0.36849109  1
  Al  Al155  1  0.36358434  0.75022962  0.87152329  1
  Al  Al156  1  0.86408943  0.25195819  0.36385843  1
  Al  Al157  1  0.86302747  0.24333078  0.86579166  1
  Al  Al158  1  0.86378756  0.74749403  0.36818071  1
  Al  Al159  1  0.86330384  0.75376980  0.86837470  1
  Al  Al160  1  0.13267143  0.13980837  0.24506734  1
  Al  Al161  1  0.12632341  0.13854643  0.75047842  1
  Al  Al162  1  0.13413490  0.62824108  0.24801532  1
  Al  Al163  1  0.13641002  0.63837585  0.74797492  1
  Al  Al164  1  0.63829267  0.13708250  0.24532347  1
  Al  Al165  1  0.64041270  0.12740692  0.74695369  1
  Al  Al166  1  0.64092861  0.62539644  0.24607013  1
  Al  Al167  1  0.63924255  0.63585123  0.75357650  1
  Al  Al168  1  0.36447669  0.13771216  0.24609187  1
  Al  Al169  1  0.36396498  0.13612326  0.74583619  1
  Al  Al170  1  0.36661691  0.63635159  0.24800018  1
  Al  Al171  1  0.36446608  0.63950004  0.75040468  1
  Al  Al172  1  0.86139377  0.13481627  0.24673780  1
  Al  Al173  1  0.86361202  0.13155963  0.74764297  1
  Al  Al174  1  0.86879189  0.63295009  0.24611752  1
  Al  Al175  1  0.86484555  0.63862278  0.75005172  1
  Al  Al176  1  0.13601014  0.37508313  0.25229869  1
  Al  Al177  1  0.13642429  0.36005824  0.75005129  1
  Al  Al178  1  0.13169588  0.86358110  0.24952648  1
  Al  Al179  1  0.13706807  0.86615404  0.74642174  1
  Al  Al180  1  0.63775841  0.37111515  0.24893766  1
  Al  Al181  1  0.63564038  0.36285892  0.74882059  1
  Al  Al182  1  0.63611984  0.86417374  0.24743473  1
  Al  Al183  1  0.64198214  0.87515919  0.75073000  1
  Al  Al184  1  0.36460710  0.36792058  0.24645382  1
  Al  Al185  1  0.36392441  0.36228293  0.74890652  1
  Al  Al186  1  0.36776726  0.85925933  0.24816450  1
  Al  Al187  1  0.36242279  0.86183418  0.75073946  1
  Al  Al188  1  0.86651930  0.36781140  0.25212965  1
  Al  Al189  1  0.86242574  0.36075185  0.75238312  1
  Al  Al190  1  0.87289794  0.85839278  0.24085221  1
  Al  Al191  1  0.86254715  0.86833882  0.75081696  1
  Al  Al192  1  0.50212613  0.68036273  0.82525028  1
  Al  Al193  1  -0.00000942  0.66824234  0.83697510  1
  Al  Al194  1  0.50121694  0.32968393  0.81914007  1
  Al  Al195  1  0.66552695  0.00157115  0.32329670  1
  Al  Al196  1  0.67873101  0.67390026  0.49898214  1
  Al  Al197  1  0.32700557  -0.00222302  0.66816455  1
  Al  Al198  1  0.67443141  0.49976833  0.68373317  1
  Al  Al199  1  0.50218886  0.17350893  0.33331539  1
  Al  Al200  1  0.82651613  0.32327964  0.00070171  1
  Al  Al201  1  -0.00106561  0.82675269  0.82405747  1
  Al  Al202  1  0.33196357  0.17775530  -0.00510524  1
  Al  Al203  1  0.33449194  0.49964730  0.67117219  1
  Al  Al204  1  0.30770666  0.50023474  0.30486351  1
  Al  Al205  1  0.67314603  0.31898981  0.00024121  1
  Al  Al206  1  0.16629940  -0.00136272  0.82470694  1
  Al  Al207  1  0.50121075  0.32880249  0.31390555  1
  Al  Al208  1  0.16726332  0.00268162  0.32694392  1
  Al  Al209  1  0.82566010  -0.00347618  0.16587729  1
  Al  Al210  1  -0.00096300  0.32215578  0.82931500  1
  Al  Al211  1  0.32786050  0.49898768  0.82864115  1
  Al  Al212  1  0.67591942  0.83176687  0.50106698  1
  Al  Al213  1  0.67821370  0.67846051  -0.00062352  1
  Al  Al214  1  0.81268722  0.32026428  0.49730814  1
  Al  Al215  1  0.18058530  0.68138990  0.49694783  1
  Al  Al216  1  -0.00196575  0.32346149  0.67404093  1
  Al  Al217  1  0.50128819  0.17595279  0.81719211  1
  Al  Al218  1  -0.00168907  0.67588814  0.66919550  1
  Al  Al219  1  0.32649640  0.00024619  0.82518652  1
  Al  Al220  1  0.82749906  0.49748247  0.67429136  1
  Al  Al221  1  0.17688594  0.67700284  0.00295425  1
  Al  Al222  1  0.16929169  0.17931701  0.00392167  1
  Al  Al223  1  0.17730493  0.31462898  0.49702588  1
  Al  Al224  1  0.17185201  0.49878126  0.82884797  1
  Al  Al225  1  0.49982028  0.67545408  0.16689779  1
  Al  Al226  1  0.17757293  -0.00038280  0.17304233  1
  Al  Al227  1  0.00059162  0.67499447  0.32197302  1
  Al  Al228  1  0.50284235  0.67411966  0.33203405  1
  Al  Al229  1  0.50311580  0.82440862  0.68200800  1
  Al  Al230  1  0.33358502  -0.00023284  0.32030555  1
  Al  Al231  1  0.16853302  0.49797773  0.66996670  1
  Al  Al232  1  0.50024303  0.19015059  0.17190923  1
  Al  Al233  1  -0.00347330  0.19209134  0.30700318  1
  Al  Al234  1  0.81208878  0.49952960  0.83027720  1
  Al  Al235  1  0.31091598  0.18315054  0.50072727  1
  Al  Al236  1  0.50310582  0.67098775  0.67143553  1
  Al  Al237  1  0.00045432  0.31278182  0.19134441  1
  Al  Al238  1  0.82887273  0.00314868  0.32848035  1
  Au  Au239  1  0.82559067  0.65375467  0.49371969  1
  Au  Au240  1  0.66005919  0.82700371  0.50484977  1
  Au  Au241  1  0.16495458  0.00650158  0.65831623  1
  Au  Au242  1  0.50175301  0.18061981  0.34786202  1
  Au  Au243  1  0.67863251  0.49821626  0.33511926  1
  Au  Au244  1  0.32571185  0.00053809  0.15977094  1
  Au  Au245  1  0.50361859  0.83835461  0.16914153  1
  Au  Au246  1  0.15344345  0.17842173  0.00910811  1
  Au  Au247  1  0.67146268  0.00468570  0.15554756  1
  Au  Au248  1  0.32646057  0.34268890  0.00338905  1
  Au  Au249  1  0.82438474  0.17266782  -0.00213719  1
  Au  Au250  1  0.17466425  0.82999848  0.50004572  1
  Au  Au251  1  0.68115673  0.66604756  0.00053482  1
  Au  Au252  1  0.17180926  -0.00225998  0.84076536  1
  Au  Au253  1  0.15207340  0.00739999  0.32796945  1
  Au  Au254  1  0.15644547  0.82489375  0.00544456  1
  Au  Au255  1  0.50174060  0.83014241  0.82918304  1
  Au  Au256  1  0.50421686  0.17646268  0.66892815  1
  Au  Au257  1  -0.00358330  0.66985706  0.65406423  1
  Au  Au258  1  0.67547749  0.49640076  0.16631267  1
  Au  Au259  1  0.66316627  0.00289397  0.34017330  1
  Au  Au260  1  0.50234694  0.66326097  0.34425791  1
  Au  Au261  1  0.33745561  0.00092064  0.33662272  1
  Au  Au262  1  0.50275021  0.17815334  0.16018815  1
  Au  Au263  1  0.16278236  0.32283899  0.49614965  1
  Au  Au264  1  0.33136375  0.83268854  -0.00214165  1
  Au  Au265  1  0.32464452  0.65703836  -0.00139344  1
  Au  Au266  1  0.34519559  0.32705395  0.50022300  1
  Au  Au267  1  0.00002915  0.67321995  0.85250398  1
  Au  Au268  1  -0.00181967  0.17421953  0.66154408  1
  Au  Au269  1  -0.00235814  0.84538733  0.67639071  1
  Au  Au270  1  0.15250311  0.49803219  0.67525360  1
  Au  Au271  1  0.83778964  -0.00586504  0.16380481  1
  Au  Au272  1  0.68124707  0.83220023  -0.00201617  1
  Au  Au273  1  0.82918021  0.49849460  0.82905484  1
  Au  Au274  1  0.49876534  0.83462829  0.33430083  1
  Au  Au275  1  0.35000236  0.49954334  0.67575451  1
  Au  Au276  1  -0.00175278  0.82893603  0.31938358  1
  Au  Au277  1  0.83720500  0.83039649  0.50169892  1
  Au  Au278  1  0.67750624  0.00250731  0.82508313  1
  Au  Au279  1  0.17418036  0.50034098  0.17553557  1
  Au  Au280  1  0.00231877  0.66275194  0.31904599  1
  Au  Au281  1  0.33966351  -0.00224583  0.67084801  1
  Au  Au282  1  0.82004140  0.17287179  0.49955232  1
  Au  Au283  1  0.33346737  0.16189096  -0.01154924  1
  Au  Au284  1  0.32820016  0.67231517  0.50042434  1
  Au  Au285  1  -0.00577935  0.17158925  0.83303743  1
  Au  Au286  1  0.84280376  0.00464190  0.33890186  1
  Au  Au287  1  0.49873619  0.66156130  0.15830839  1
