# generated using pymatgen
data_Ca24Ti8Al207Au49
_symmetry_space_group_name_H-M   'P 1'
_cell_length_a   17.32249857
_cell_length_b   17.32368775
_cell_length_c   17.32241882
_cell_angle_alpha   89.99821272
_cell_angle_beta   90.00072293
_cell_angle_gamma   90.00419137
_symmetry_Int_Tables_number   1
_chemical_formula_structural   Ca24Ti8Al207Au49
_chemical_formula_sum   'Ca24 Ti8 Al207 Au49'
_cell_volume   5198.27695923
_cell_formula_units_Z   1
loop_
 _symmetry_equiv_pos_site_id
 _symmetry_equiv_pos_as_xyz
  1  'x, y, z'
loop_
 _atom_site_type_symbol
 _atom_site_label
 _atom_site_symmetry_multiplicity
 _atom_site_fract_x
 _atom_site_fract_y
 _atom_site_fract_z
 _atom_site_occupancy
  Ca  Ca0  1  0.24840493  0.00130050  0.00002731  1
  Ca  Ca1  1  0.25020107  0.00471955  0.49947080  1
  Ca  Ca2  1  0.24841547  0.50008390  0.00263848  1
  Ca  Ca3  1  0.24608171  0.48992324  0.49482079  1
  Ca  Ca4  1  0.74728292  -0.00051277  0.00018137  1
  Ca  Ca5  1  0.75124776  -0.00099336  0.50070486  1
  Ca  Ca6  1  0.75075627  0.49969104  -0.00010826  1
  Ca  Ca7  1  0.75515776  0.49986116  0.49925976  1
  Ca  Ca8  1  0.00479383  0.24497580  0.00010727  1
  Ca  Ca9  1  0.00382467  0.24494185  0.49873884  1
  Ca  Ca10  1  0.00316514  0.74930463  0.00200344  1
  Ca  Ca11  1  0.00475069  0.75358261  0.49721801  1
  Ca  Ca12  1  0.49630896  0.24676066  0.00101744  1
  Ca  Ca13  1  0.49464766  0.24513797  0.50124981  1
  Ca  Ca14  1  0.49681470  0.75284161  0.00041480  1
  Ca  Ca15  1  0.50100906  0.75874811  0.50161894  1
  Ca  Ca16  1  0.00438537  0.00539345  0.25265839  1
  Ca  Ca17  1  0.00316599  0.00681779  0.74535068  1
  Ca  Ca18  1  -0.00274397  0.49817249  0.24922048  1
  Ca  Ca19  1  0.00005699  0.49391377  0.74821479  1
  Ca  Ca20  1  0.49738497  -0.00123840  0.24976712  1
  Ca  Ca21  1  0.49755841  -0.00341434  0.75113454  1
  Ca  Ca22  1  0.50064720  0.49871526  0.24821974  1
  Ca  Ca23  1  0.49894175  0.50380532  0.75282601  1
  Ti  Ti24  1  0.24915801  0.24987999  0.25052139  1
  Ti  Ti25  1  0.24966478  0.24884743  0.74838250  1
  Ti  Ti26  1  0.25007840  0.75132293  0.24760406  1
  Ti  Ti27  1  0.25022987  0.75152915  0.75144107  1
  Ti  Ti28  1  0.75192541  0.24761732  0.25029147  1
  Ti  Ti29  1  0.75170592  0.24715606  0.75021287  1
  Ti  Ti30  1  0.74963478  0.75208485  0.24900535  1
  Ti  Ti31  1  0.74832127  0.75266255  0.75086336  1
  Al  Al32  1  0.09203573  0.08859677  0.09122735  1
  Al  Al33  1  0.08969655  0.09349282  0.58645225  1
  Al  Al34  1  0.08722643  0.58560977  0.07980548  1
  Al  Al35  1  0.08696384  0.56437669  0.58852186  1
  Al  Al36  1  0.58381104  0.07961423  0.08161322  1
  Al  Al37  1  0.58762094  0.06756867  0.58633794  1
  Al  Al38  1  0.59032849  0.59065400  0.08218877  1
  Al  Al39  1  0.57774417  0.58113807  0.59162254  1
  Al  Al40  1  0.40782319  0.41120748  0.08135477  1
  Al  Al41  1  0.41037048  0.41454503  0.57354914  1
  Al  Al42  1  0.41312537  0.91350565  0.08927448  1
  Al  Al43  1  0.41757260  0.91870514  0.59613407  1
  Al  Al44  1  0.91473256  0.41911239  0.09451329  1
  Al  Al45  1  0.92738645  0.41702714  0.58588786  1
  Al  Al46  1  0.92055703  0.92222486  0.08220643  1
  Al  Al47  1  0.90964558  0.92864051  0.58556549  1
  Al  Al48  1  0.41188994  0.08868402  0.41879335  1
  Al  Al49  1  0.41052089  0.07998852  0.91840360  1
  Al  Al50  1  0.41462482  0.58046900  0.42002525  1
  Al  Al51  1  0.42051547  0.58519132  0.92365991  1
  Al  Al52  1  0.92605563  0.08450979  0.41199991  1
  Al  Al53  1  0.92413663  0.08438510  0.91239272  1
  Al  Al54  1  0.91159708  0.57227532  0.40528066  1
  Al  Al55  1  0.90960665  0.57855187  0.91858131  1
  Al  Al56  1  0.08407901  0.40187409  0.41760107  1
  Al  Al57  1  0.08170748  0.41847064  0.92285495  1
  Al  Al58  1  0.08283237  0.92998642  0.40609758  1
  Al  Al59  1  0.08939699  0.92585625  0.92038219  1
  Al  Al60  1  0.58391425  0.41999472  0.41595407  1
  Al  Al61  1  0.57753831  0.42367825  0.92230878  1
  Al  Al62  1  0.58621384  0.92125023  0.41167501  1
  Al  Al63  1  0.57951395  0.91385729  0.91279642  1
  Al  Al64  1  0.08996325  0.09258426  0.41003126  1
  Al  Al65  1  0.08905336  0.08902713  0.91548343  1
  Al  Al66  1  0.07271569  0.56858438  0.41980295  1
  Al  Al67  1  0.09063524  0.58607880  0.92124254  1
  Al  Al68  1  0.57860502  0.07779353  0.40890771  1
  Al  Al69  1  0.58584267  0.07730598  0.92004095  1
  Al  Al70  1  0.57799014  0.57637186  0.41421832  1
  Al  Al71  1  0.59068260  0.59080158  0.92306148  1
  Al  Al72  1  0.40985824  0.41254002  0.41745136  1
  Al  Al73  1  0.41062689  0.41038229  0.92709156  1
  Al  Al74  1  0.42045542  0.92388613  0.41759781  1
  Al  Al75  1  0.41558135  0.91291130  0.91425603  1
  Al  Al76  1  0.92228404  0.41083679  0.39845835  1
  Al  Al77  1  0.91626007  0.42326401  0.91213161  1
  Al  Al78  1  0.92085614  0.92216442  0.41665172  1
  Al  Al79  1  0.91717358  0.92549222  0.92010756  1
  Al  Al80  1  0.08139618  0.41349695  0.08504072  1
  Al  Al81  1  0.09301723  0.40413808  0.58332791  1
  Al  Al82  1  0.09406889  0.92562799  0.08877242  1
  Al  Al83  1  0.08534460  0.93307673  0.58708100  1
  Al  Al84  1  0.58028737  0.42205094  0.08354192  1
  Al  Al85  1  0.58599325  0.42708944  0.57489621  1
  Al  Al86  1  0.57677140  0.91050960  0.09148506  1
  Al  Al87  1  0.58235188  0.91101773  0.59624719  1
  Al  Al88  1  0.41069631  0.07812859  0.08336560  1
  Al  Al89  1  0.39686957  0.07989238  0.58095145  1
  Al  Al90  1  0.41684019  0.58513665  0.08347981  1
  Al  Al91  1  0.41841515  0.58666081  0.58102504  1
  Al  Al92  1  0.92737457  0.08438188  0.08634434  1
  Al  Al93  1  0.92251355  0.08748874  0.59120708  1
  Al  Al94  1  0.90861089  0.57757021  0.08581887  1
  Al  Al95  1  0.92414913  0.57586760  0.58239768  1
  Al  Al96  1  0.24374177  0.13300836  0.13365605  1
  Al  Al97  1  0.24964209  0.12860321  0.63418257  1
  Al  Al98  1  0.24900661  0.63472597  0.12938663  1
  Al  Al99  1  0.25012598  0.63889297  0.63859157  1
  Al  Al100  1  0.75119809  0.12957907  0.13694243  1
  Al  Al101  1  0.74996097  0.12975061  0.63571526  1
  Al  Al102  1  0.74896717  0.63878755  0.13603175  1
  Al  Al103  1  0.74952756  0.63776157  0.63697430  1
  Al  Al104  1  0.24803459  0.36948039  0.13716406  1
  Al  Al105  1  0.24707939  0.36327852  0.62791216  1
  Al  Al106  1  0.24658340  0.86663489  0.13359560  1
  Al  Al107  1  0.25331252  0.86764665  0.63167708  1
  Al  Al108  1  0.75526529  0.36400768  0.13882240  1
  Al  Al109  1  0.75482234  0.36248008  0.63618709  1
  Al  Al110  1  0.74423649  0.87187990  0.13440919  1
  Al  Al111  1  0.74693724  0.86764675  0.63530966  1
  Al  Al112  1  0.24855407  0.12897078  0.36305817  1
  Al  Al113  1  0.24867241  0.13495462  0.86678022  1
  Al  Al114  1  0.25019110  0.63548518  0.36194489  1
  Al  Al115  1  0.24940180  0.63460522  0.86975571  1
  Al  Al116  1  0.74937255  0.13503896  0.36308333  1
  Al  Al117  1  0.75043252  0.12859941  0.86268545  1
  Al  Al118  1  0.75451142  0.63469727  0.36360894  1
  Al  Al119  1  0.74942322  0.63783746  0.86389593  1
  Al  Al120  1  0.24451785  0.35947737  0.37140414  1
  Al  Al121  1  0.25003751  0.36308753  0.86588431  1
  Al  Al122  1  0.24933513  0.87470391  0.36174317  1
  Al  Al123  1  0.25047396  0.86667632  0.86470598  1
  Al  Al124  1  0.75618061  0.36377434  0.36095840  1
  Al  Al125  1  0.75112336  0.36569289  0.86366288  1
  Al  Al126  1  0.74766680  0.86727480  0.36335377  1
  Al  Al127  1  0.74522522  0.87410639  0.86265846  1
  Al  Al128  1  0.13564779  0.24855842  0.13293793  1
  Al  Al129  1  0.13685732  0.24846923  0.63284759  1
  Al  Al130  1  0.13478642  0.75037664  0.13079694  1
  Al  Al131  1  0.13297832  0.75227432  0.63841471  1
  Al  Al132  1  0.63707901  0.24934400  0.13751651  1
  Al  Al133  1  0.63640725  0.24921835  0.63856300  1
  Al  Al134  1  0.63366727  0.75277849  0.13405507  1
  Al  Al135  1  0.62818081  0.75243673  0.63990090  1
  Al  Al136  1  0.12973539  0.24854076  0.36356189  1
  Al  Al137  1  0.13657955  0.24751991  0.86424462  1
  Al  Al138  1  0.13841404  0.75457317  0.36253162  1
  Al  Al139  1  0.13597294  0.74854669  0.86917742  1
  Al  Al140  1  0.63710775  0.25024086  0.36206450  1
  Al  Al141  1  0.63295543  0.24639154  0.86128008  1
  Al  Al142  1  0.63654318  0.75137198  0.36135648  1
  Al  Al143  1  0.63721388  0.75340660  0.86867073  1
  Al  Al144  1  0.36212251  0.25077907  0.13407393  1
  Al  Al145  1  0.35947948  0.24447192  0.62689388  1
  Al  Al146  1  0.36850765  0.75169651  0.13501028  1
  Al  Al147  1  0.36892334  0.75518099  0.63836336  1
  Al  Al148  1  0.86836465  0.25051156  0.13799759  1
  Al  Al149  1  0.86640845  0.24386472  0.63689859  1
  Al  Al150  1  0.86510476  0.75081809  0.13782666  1
  Al  Al151  1  0.86422160  0.75272951  0.64049097  1
  Al  Al152  1  0.35932580  0.24700151  0.37154023  1
  Al  Al153  1  0.36662600  0.24717475  0.86345489  1
  Al  Al154  1  0.36179436  0.75425704  0.36314416  1
  Al  Al155  1  0.36420192  0.74801584  0.86450617  1
  Al  Al156  1  0.87228855  0.24840545  0.36271594  1
  Al  Al157  1  0.86456824  0.24687074  0.85998515  1
  Al  Al158  1  0.86393395  0.75085257  0.35838084  1
  Al  Al159  1  0.86381030  0.75149426  0.85980448  1
  Al  Al160  1  0.13611530  0.13255623  0.25304748  1
  Al  Al161  1  0.13652570  0.13441488  0.74312725  1
  Al  Al162  1  0.13560761  0.63497088  0.24719658  1
  Al  Al163  1  0.13790718  0.63095701  0.75322321  1
  Al  Al164  1  0.63595976  0.12872383  0.24882728  1
  Al  Al165  1  0.63431492  0.12875954  0.74839171  1
  Al  Al166  1  0.63251420  0.63710855  0.24959128  1
  Al  Al167  1  0.62943886  0.63747776  0.75317382  1
  Al  Al168  1  0.36143463  0.13539040  0.24986337  1
  Al  Al169  1  0.36093586  0.12910017  0.75021574  1
  Al  Al170  1  0.36302145  0.63477848  0.24361088  1
  Al  Al171  1  0.36966564  0.63595077  0.74890903  1
  Al  Al172  1  0.86861313  0.13485338  0.25253110  1
  Al  Al173  1  0.86486849  0.12759122  0.74506216  1
  Al  Al174  1  0.86537062  0.62971071  0.24784427  1
  Al  Al175  1  0.86345663  0.62846596  0.74978071  1
  Al  Al176  1  0.12888111  0.35967807  0.25012724  1
  Al  Al177  1  0.13912762  0.36680978  0.74762766  1
  Al  Al178  1  0.13763400  0.87054129  0.24751844  1
  Al  Al179  1  0.13819617  0.86832398  0.74567554  1
  Al  Al180  1  0.63331024  0.36431350  0.25006413  1
  Al  Al181  1  0.63521286  0.36372080  0.75443340  1
  Al  Al182  1  0.63520302  0.86990383  0.24902335  1
  Al  Al183  1  0.63410271  0.87142692  0.74665015  1
  Al  Al184  1  0.36535803  0.36081366  0.25154631  1
  Al  Al185  1  0.36372273  0.36075476  0.74703834  1
  Al  Al186  1  0.36424281  0.86668540  0.24750892  1
  Al  Al187  1  0.36288861  0.87130137  0.74758508  1
  Al  Al188  1  0.87070925  0.36382776  0.25139860  1
  Al  Al189  1  0.86522014  0.36737810  0.74898417  1
  Al  Al190  1  0.86447272  0.86862807  0.24609898  1
  Al  Al191  1  0.86165557  0.87525659  0.74786261  1
  Al  Al192  1  0.00160819  0.17678961  0.81027501  1
  Al  Al193  1  0.31261770  0.18571469  0.00071089  1
  Al  Al194  1  0.32543704  0.68258939  0.50018243  1
  Al  Al195  1  0.00217343  0.31067358  0.67626396  1
  Al  Al196  1  0.31924300  0.81959339  0.00031958  1
  Al  Al197  1  0.00137838  0.32740010  0.82757703  1
  Al  Al198  1  0.81916233  0.00098300  0.32337333  1
  Al  Al199  1  0.81587467  0.67209213  0.00027882  1
  Al  Al200  1  -0.00307711  0.67506979  0.17325313  1
  Al  Al201  1  0.49576476  0.16673588  0.67244153  1
  Al  Al202  1  0.81916593  0.82814356  -0.00050037  1
  Al  Al203  1  0.17347857  0.83418745  0.49736533  1
  Al  Al204  1  0.31197390  0.00018230  0.18187437  1
  Al  Al205  1  0.67098021  0.67326829  0.50089372  1
  Al  Al206  1  0.82250081  0.32977614  -0.00070129  1
  Al  Al207  1  0.68083887  0.50118925  0.83116943  1
  Al  Al208  1  0.67119072  0.17488207  0.50042209  1
  Al  Al209  1  -0.00117475  0.82601307  0.66988210  1
  Al  Al210  1  0.00056474  0.82159304  0.32073146  1
  Al  Al211  1  0.31935965  0.49905681  0.82722449  1
  Al  Al212  1  0.82956343  0.16937075  0.49877183  1
  Al  Al213  1  0.50017571  0.82916801  0.31668709  1
  Al  Al214  1  0.00385926  0.83118256  0.82652427  1
  Al  Al215  1  0.67571206  0.32650553  0.49990771  1
  Al  Al216  1  0.67657634  0.17720284  -0.00019156  1
  Al  Al217  1  0.82695746  0.82919588  0.49897342  1
  Al  Al218  1  0.31501410  0.50008995  0.67072857  1
  Al  Al219  1  0.19114814  0.18840071  0.49784367  1
  Al  Al220  1  0.16974230  0.66501353  0.50005063  1
  Al  Al221  1  0.83052796  0.17135339  0.00030569  1
  Al  Al222  1  0.83204966  0.67518616  0.50070433  1
  Al  Al223  1  0.69173620  0.50081675  0.17074185  1
  Al  Al224  1  0.49570303  0.32016183  0.17567184  1
  Al  Al225  1  0.00302050  0.18125407  0.18841928  1
  Al  Al226  1  -0.00031404  0.67010581  0.82566219  1
  Al  Al227  1  0.50258618  0.33041664  0.67496798  1
  Al  Al228  1  0.68640550  0.49938862  0.32622200  1
  Al  Al229  1  0.67218362  0.82845745  0.50046911  1
  Al  Al230  1  0.18106622  0.00252687  0.81351005  1
  Al  Al231  1  0.17002180  0.49527663  0.32194739  1
  Al  Al232  1  0.49668439  0.67316061  0.31806513  1
  Al  Al233  1  0.83137671  0.32220560  0.49849166  1
  Al  Al234  1  0.68409122  0.49991441  0.67578939  1
  Al  Al235  1  0.32355538  0.49818695  0.32163138  1
  Al  Al236  1  0.49841103  0.17938965  0.31978510  1
  Al  Al237  1  0.18614247  0.31532152  0.00044410  1
  Al  Al238  1  0.49889372  0.81955643  0.81056453  1
  Au  Au239  1  0.17008417  0.83092165  0.00055544  1
  Au  Au240  1  0.83544789  0.00494726  0.17452169  1
  Au  Au241  1  0.66516171  -0.00078813  0.82287300  1
  Au  Au242  1  0.50388450  0.34470716  0.66615369  1
  Au  Au243  1  0.16867746  0.84952967  0.49615091  1
  Au  Au244  1  0.32546021  0.00218466  0.33035979  1
  Au  Au245  1  0.49425827  0.15180588  0.66608111  1
  Au  Au246  1  0.66803010  0.15890353  0.49857604  1
  Au  Au247  1  0.17473714  0.32769095  -0.00050009  1
  Au  Au248  1  0.00540512  0.84457516  0.17472174  1
  Au  Au249  1  -0.00040658  0.84211979  0.83053385  1
  Au  Au250  1  0.00144258  0.67045831  0.16256867  1
  Au  Au251  1  0.50110598  0.16540313  0.83910758  1
  Au  Au252  1  0.65518518  0.66976606  0.50139146  1
  Au  Au253  1  0.17610443  0.64942260  0.50015613  1
  Au  Au254  1  0.00149364  0.67082298  0.33542235  1
  Au  Au255  1  0.67524612  0.50154586  0.17532034  1
  Au  Au256  1  0.16492078  0.50045707  0.17270605  1
  Au  Au257  1  0.83580101  0.33762902  0.49638651  1
  Au  Au258  1  -0.00401706  0.66765335  0.83741886  1
  Au  Au259  1  0.50068596  0.32624190  0.34092950  1
  Au  Au260  1  0.15993182  0.49761620  0.82487321  1
  Au  Au261  1  0.49810719  0.32904734  0.16722705  1
  Au  Au262  1  0.50189349  0.67959476  0.16280518  1
  Au  Au263  1  -0.00122962  0.83698155  0.66381146  1
  Au  Au264  1  0.49658278  0.33051391  0.84004793  1
  Au  Au265  1  0.00796240  0.65939681  0.67149152  1
  Au  Au266  1  0.32405587  0.17337011  0.00180895  1
  Au  Au267  1  0.32382109  0.67071272  0.00105422  1
  Au  Au268  1  0.33452178  0.49956554  0.17269454  1
  Au  Au269  1  0.66916674  0.49946766  0.82617543  1
  Au  Au270  1  0.49800218  0.67620946  0.33022880  1
  Au  Au271  1  0.33328629  0.49887719  0.83735894  1
  Au  Au272  1  0.31858729  0.31718343  0.49891356  1
  Au  Au273  1  0.83367490  0.00385787  0.82391400  1
  Au  Au274  1  0.65712440  0.82406403  0.00197093  1
  Au  Au275  1  0.65917499  0.32434651  -0.00062019  1
  Au  Au276  1  0.83345346  0.49832008  0.67331608  1
  Au  Au277  1  0.34390386  0.83119168  0.50301439  1
  Au  Au278  1  0.49880386  0.15925167  0.17206130  1
  Au  Au279  1  0.66444741  -0.00180802  0.17490825  1
  Au  Au280  1  0.83525326  0.82261095  -0.00011979  1
  Au  Au281  1  0.32818871  -0.00232167  0.82449527  1
  Au  Au282  1  -0.00081020  0.32803238  0.17826601  1
  Au  Au283  1  0.84753790  0.67358004  0.49643492  1
  Au  Au284  1  0.50268661  0.67570777  0.83912088  1
  Au  Au285  1  0.49702362  0.67876284  0.67015319  1
  Au  Au286  1  0.83857366  0.32696806  -0.00148669  1
  Au  Au287  1  0.32065248  0.50212801  0.65484169  1
