# generated using pymatgen
data_Ca24Ti8Al207Au49
_symmetry_space_group_name_H-M   'P 1'
_cell_length_a   17.32427930
_cell_length_b   17.32465709
_cell_length_c   17.32426955
_cell_angle_alpha   90.00429463
_cell_angle_beta   90.00150621
_cell_angle_gamma   90.00353289
_symmetry_Int_Tables_number   1
_chemical_formula_structural   Ca24Ti8Al207Au49
_chemical_formula_sum   'Ca24 Ti8 Al207 Au49'
_cell_volume   5199.65769801
_cell_formula_units_Z   1
loop_
 _symmetry_equiv_pos_site_id
 _symmetry_equiv_pos_as_xyz
  1  'x, y, z'
loop_
 _atom_site_type_symbol
 _atom_site_label
 _atom_site_symmetry_multiplicity
 _atom_site_fract_x
 _atom_site_fract_y
 _atom_site_fract_z
 _atom_site_occupancy
  Ca  Ca0  1  0.24939668  -0.00059910  0.00579658  1
  Ca  Ca1  1  0.25156311  0.00245784  0.49453367  1
  Ca  Ca2  1  0.24565756  0.50229082  -0.00160733  1
  Ca  Ca3  1  0.24804856  0.49823927  0.49964780  1
  Ca  Ca4  1  0.75234697  0.00132633  0.00249749  1
  Ca  Ca5  1  0.75097322  -0.00158995  0.49507693  1
  Ca  Ca6  1  0.75214763  0.49614213  0.00048032  1
  Ca  Ca7  1  0.75313426  0.49768491  0.50050155  1
  Ca  Ca8  1  0.00011380  0.25326270  -0.00175090  1
  Ca  Ca9  1  0.00153084  0.25304521  0.49953643  1
  Ca  Ca10  1  0.00145755  0.75425244  -0.00109039  1
  Ca  Ca11  1  -0.00391738  0.75543154  0.50142419  1
  Ca  Ca12  1  0.50020117  0.25080813  0.00244154  1
  Ca  Ca13  1  0.50055212  0.25070820  0.49929120  1
  Ca  Ca14  1  0.50181518  0.75139283  0.00246848  1
  Ca  Ca15  1  0.50202350  0.75601865  0.49627162  1
  Ca  Ca16  1  -0.00159910  -0.00207253  0.24824295  1
  Ca  Ca17  1  0.00034051  -0.00179112  0.74931028  1
  Ca  Ca18  1  0.00080269  0.49861564  0.24960121  1
  Ca  Ca19  1  0.00225400  0.49770700  0.75107918  1
  Ca  Ca20  1  0.50348598  0.00015829  0.24994050  1
  Ca  Ca21  1  0.50181383  -0.00046262  0.75030421  1
  Ca  Ca22  1  0.49933029  0.49848710  0.25123392  1
  Ca  Ca23  1  0.49741152  0.50138359  0.75161595  1
  Ti  Ti24  1  0.25017519  0.25079178  0.25085620  1
  Ti  Ti25  1  0.24905414  0.25147735  0.74983921  1
  Ti  Ti26  1  0.25004169  0.74951886  0.24939279  1
  Ti  Ti27  1  0.24937580  0.74807363  0.75138054  1
  Ti  Ti28  1  0.74995897  0.24885594  0.25004243  1
  Ti  Ti29  1  0.75140357  0.24997544  0.74998583  1
  Ti  Ti30  1  0.74886998  0.75197827  0.24944976  1
  Ti  Ti31  1  0.75007470  0.75068767  0.75060202  1
  Al  Al32  1  0.07768998  0.08363152  0.08947678  1
  Al  Al33  1  0.07493753  0.08588699  0.57978536  1
  Al  Al34  1  0.08847879  0.58271228  0.07756008  1
  Al  Al35  1  0.08500502  0.57589223  0.59328157  1
  Al  Al36  1  0.58932012  0.07638296  0.08915680  1
  Al  Al37  1  0.58287222  0.07764289  0.57703363  1
  Al  Al38  1  0.58779860  0.58736556  0.08254395  1
  Al  Al39  1  0.58059233  0.58551549  0.58144539  1
  Al  Al40  1  0.41771581  0.41592084  0.08191559  1
  Al  Al41  1  0.40613339  0.41273441  0.57540265  1
  Al  Al42  1  0.41259984  0.91720829  0.09026761  1
  Al  Al43  1  0.42587332  0.92225704  0.58127185  1
  Al  Al44  1  0.91197228  0.40821163  0.07744642  1
  Al  Al45  1  0.92549426  0.40899456  0.58906151  1
  Al  Al46  1  0.91843561  0.91356971  0.09283562  1
  Al  Al47  1  0.91476231  0.91456699  0.58552231  1
  Al  Al48  1  0.41707388  0.07711117  0.41592765  1
  Al  Al49  1  0.41997445  0.07778598  0.92262512  1
  Al  Al50  1  0.41902386  0.57861628  0.41124377  1
  Al  Al51  1  0.41689837  0.57796765  0.91830840  1
  Al  Al52  1  0.90762176  0.07941001  0.41000789  1
  Al  Al53  1  0.91819484  0.08978754  0.91520999  1
  Al  Al54  1  0.91809875  0.57640531  0.42110089  1
  Al  Al55  1  0.92255449  0.57952653  0.92025975  1
  Al  Al56  1  0.08493229  0.41557263  0.41019696  1
  Al  Al57  1  0.08198945  0.41558979  0.90159277  1
  Al  Al58  1  0.07039901  0.91136610  0.41270007  1
  Al  Al59  1  0.08161075  0.90646920  0.92544665  1
  Al  Al60  1  0.57250783  0.40846515  0.41361091  1
  Al  Al61  1  0.58442231  0.41438494  0.92193031  1
  Al  Al62  1  0.59205674  0.91121803  0.40792428  1
  Al  Al63  1  0.58074918  0.91505693  0.91959600  1
  Al  Al64  1  0.07510463  0.08251870  0.41813093  1
  Al  Al65  1  0.07445661  0.09061590  0.91443116  1
  Al  Al66  1  0.08514374  0.57519087  0.40959827  1
  Al  Al67  1  0.09184869  0.58011810  0.91440599  1
  Al  Al68  1  0.59081713  0.07428532  0.40890110  1
  Al  Al69  1  0.58149244  0.08142776  0.92093491  1
  Al  Al70  1  0.57824957  0.58702342  0.41913548  1
  Al  Al71  1  0.58985461  0.58850415  0.92630752  1
  Al  Al72  1  0.41182528  0.40639237  0.41448381  1
  Al  Al73  1  0.41773822  0.41674188  0.91827594  1
  Al  Al74  1  0.42755600  0.91587656  0.40527553  1
  Al  Al75  1  0.41993409  0.91552564  0.92016673  1
  Al  Al76  1  0.92292291  0.41712650  0.41581205  1
  Al  Al77  1  0.91933056  0.40201605  0.91431387  1
  Al  Al78  1  0.90931167  0.91612451  0.40449300  1
  Al  Al79  1  0.92087146  0.91453778  0.91857420  1
  Al  Al80  1  0.07972518  0.41962810  0.08360640  1
  Al  Al81  1  0.08653763  0.41412434  0.59769953  1
  Al  Al82  1  0.08339561  0.90971316  0.08870930  1
  Al  Al83  1  0.07181587  0.91119828  0.58331556  1
  Al  Al84  1  0.58781166  0.41527775  0.08077575  1
  Al  Al85  1  0.58058718  0.42170121  0.57695847  1
  Al  Al86  1  0.58941367  0.91785335  0.09234527  1
  Al  Al87  1  0.58938103  0.91120530  0.57260463  1
  Al  Al88  1  0.41280965  0.07453538  0.08715258  1
  Al  Al89  1  0.41776655  0.08126027  0.57749238  1
  Al  Al90  1  0.42164877  0.58103604  0.08359452  1
  Al  Al91  1  0.42184933  0.57815352  0.58628150  1
  Al  Al92  1  0.91639409  0.08469308  0.08887285  1
  Al  Al93  1  0.91444945  0.08238455  0.58217044  1
  Al  Al94  1  0.91957879  0.58041457  0.08144202  1
  Al  Al95  1  0.92294517  0.58128205  0.58109393  1
  Al  Al96  1  0.24934143  0.13776317  0.13876921  1
  Al  Al97  1  0.24653965  0.13968674  0.63600572  1
  Al  Al98  1  0.24895808  0.63780168  0.13613023  1
  Al  Al99  1  0.24336749  0.63351619  0.63740406  1
  Al  Al100  1  0.74806796  0.13387184  0.13590574  1
  Al  Al101  1  0.74946244  0.13523534  0.63682625  1
  Al  Al102  1  0.74790250  0.63812665  0.13557687  1
  Al  Al103  1  0.75137665  0.63208243  0.63708603  1
  Al  Al104  1  0.24768317  0.36159704  0.13692528  1
  Al  Al105  1  0.24493536  0.36686887  0.63224713  1
  Al  Al106  1  0.24920274  0.86476453  0.13626361  1
  Al  Al107  1  0.25028612  0.86084342  0.63665987  1
  Al  Al108  1  0.75249961  0.36173062  0.13631056  1
  Al  Al109  1  0.75246951  0.36763845  0.63271557  1
  Al  Al110  1  0.74598100  0.86937284  0.13843193  1
  Al  Al111  1  0.74938964  0.86598319  0.63349350  1
  Al  Al112  1  0.25316014  0.13811154  0.36349043  1
  Al  Al113  1  0.24699820  0.13972267  0.86347665  1
  Al  Al114  1  0.25069271  0.63279524  0.36454870  1
  Al  Al115  1  0.24915416  0.62918719  0.86264744  1
  Al  Al116  1  0.74906816  0.13030226  0.36117357  1
  Al  Al117  1  0.75086511  0.13038045  0.86461247  1
  Al  Al118  1  0.75111513  0.64085752  0.36363299  1
  Al  Al119  1  0.74691668  0.63351409  0.86545120  1
  Al  Al120  1  0.24896605  0.36673300  0.36735829  1
  Al  Al121  1  0.24297139  0.37056414  0.86109248  1
  Al  Al122  1  0.25154655  0.86114523  0.35987256  1
  Al  Al123  1  0.24663139  0.86141760  0.86673192  1
  Al  Al124  1  0.75177476  0.36067155  0.36998195  1
  Al  Al125  1  0.75545746  0.36666392  0.86528130  1
  Al  Al126  1  0.74774121  0.87098931  0.36232599  1
  Al  Al127  1  0.74901636  0.87030818  0.86450140  1
  Al  Al128  1  0.12774332  0.24985456  0.13776781  1
  Al  Al129  1  0.13080082  0.25486955  0.63180363  1
  Al  Al130  1  0.13443056  0.75653576  0.13288373  1
  Al  Al131  1  0.13233575  0.75164290  0.63617230  1
  Al  Al132  1  0.63021071  0.24833709  0.13860334  1
  Al  Al133  1  0.63834904  0.24853430  0.62880573  1
  Al  Al134  1  0.63634068  0.75325827  0.13183262  1
  Al  Al135  1  0.63648238  0.75513485  0.63580923  1
  Al  Al136  1  0.13602359  0.25094951  0.36964423  1
  Al  Al137  1  0.13032026  0.25542293  0.86569522  1
  Al  Al138  1  0.13394527  0.75194230  0.36278927  1
  Al  Al139  1  0.13556542  0.74817102  0.86497525  1
  Al  Al140  1  0.63640451  0.25015362  0.36824124  1
  Al  Al141  1  0.63781052  0.24676399  0.86357896  1
  Al  Al142  1  0.62979899  0.75704233  0.36363283  1
  Al  Al143  1  0.63803354  0.75273918  0.87016316  1
  Al  Al144  1  0.36913396  0.25257038  0.13797082  1
  Al  Al145  1  0.36163178  0.25409676  0.63125625  1
  Al  Al146  1  0.36586096  0.75009561  0.13500648  1
  Al  Al147  1  0.36303111  0.74644368  0.63478654  1
  Al  Al148  1  0.86969204  0.24764760  0.13587392  1
  Al  Al149  1  0.86664314  0.25436975  0.63569861  1
  Al  Al150  1  0.86620357  0.75671702  0.13701857  1
  Al  Al151  1  0.86603198  0.75349375  0.63654481  1
  Al  Al152  1  0.36675817  0.25649990  0.36939363  1
  Al  Al153  1  0.36226159  0.24985898  0.86433395  1
  Al  Al154  1  0.37007220  0.74916229  0.36262154  1
  Al  Al155  1  0.36370312  0.74851174  0.86599062  1
  Al  Al156  1  0.86504411  0.24698040  0.36400748  1
  Al  Al157  1  0.86808260  0.25312222  0.86614533  1
  Al  Al158  1  0.86410154  0.75678240  0.36258534  1
  Al  Al159  1  0.86377509  0.74862025  0.86456352  1
  Al  Al160  1  0.12703116  0.13890406  0.25003411  1
  Al  Al161  1  0.13018674  0.14136891  0.75406409  1
  Al  Al162  1  0.13398155  0.63622891  0.25179665  1
  Al  Al163  1  0.13375810  0.63066526  0.75167084  1
  Al  Al164  1  0.63430345  0.13115719  0.25117123  1
  Al  Al165  1  0.63268103  0.13300554  0.74925862  1
  Al  Al166  1  0.63524486  0.63863252  0.25304090  1
  Al  Al167  1  0.63649872  0.63398546  0.75023038  1
  Al  Al168  1  0.36783686  0.13685401  0.24844623  1
  Al  Al169  1  0.36736365  0.13853454  0.74850117  1
  Al  Al170  1  0.36561085  0.63191434  0.25520854  1
  Al  Al171  1  0.36441437  0.63117080  0.74935098  1
  Al  Al172  1  0.86734369  0.13380678  0.25148205  1
  Al  Al173  1  0.86678036  0.13718926  0.75472748  1
  Al  Al174  1  0.86518488  0.63630811  0.24603980  1
  Al  Al175  1  0.86389324  0.62897972  0.75037580  1
  Al  Al176  1  0.13549646  0.36536818  0.25198724  1
  Al  Al177  1  0.13119148  0.36512283  0.74816269  1
  Al  Al178  1  0.12823559  0.86322266  0.24757500  1
  Al  Al179  1  0.13251886  0.86378440  0.74873814  1
  Al  Al180  1  0.63168441  0.36088781  0.25009878  1
  Al  Al181  1  0.63894393  0.36338909  0.74901615  1
  Al  Al182  1  0.63614436  0.87103722  0.25227338  1
  Al  Al183  1  0.63786481  0.87045237  0.75026488  1
  Al  Al184  1  0.37121362  0.36524897  0.25308767  1
  Al  Al185  1  0.36150410  0.36616396  0.75201102  1
  Al  Al186  1  0.36505849  0.86453566  0.24848624  1
  Al  Al187  1  0.36259036  0.86343778  0.74938153  1
  Al  Al188  1  0.86597202  0.36323924  0.24583021  1
  Al  Al189  1  0.86769198  0.36668971  0.75045507  1
  Al  Al190  1  0.86459822  0.86867739  0.25246903  1
  Al  Al191  1  0.86467761  0.86535752  0.75031148  1
  Al  Al192  1  0.31845838  0.82371411  0.00090626  1
  Al  Al193  1  0.82197235  0.00124250  0.67968300  1
  Al  Al194  1  -0.00073862  0.81861601  0.81497287  1
  Al  Al195  1  0.18263603  0.00053209  0.17288941  1
  Al  Al196  1  0.50019681  0.82359268  0.81760141  1
  Al  Al197  1  0.81871376  0.00120163  0.18456031  1
  Al  Al198  1  0.31686449  0.50166096  0.67626022  1
  Al  Al199  1  0.32806757  0.17157312  0.00200483  1
  Al  Al200  1  -0.00306199  0.68636198  0.32819267  1
  Al  Al201  1  0.17164976  0.50107310  0.18356279  1
  Al  Al202  1  0.17062866  0.82549454  0.49869045  1
  Al  Al203  1  0.68183931  0.50000879  0.17311579  1
  Al  Al204  1  0.82803996  0.67513566  0.50008186  1
  Al  Al205  1  0.00239499  0.68784210  0.17243295  1
  Al  Al206  1  0.16963728  -0.00057022  0.83007121  1
  Al  Al207  1  0.50136350  0.67532545  0.17879605  1
  Al  Al208  1  0.17083681  -0.00157874  0.66837833  1
  Al  Al209  1  0.67728915  0.49945083  0.33068120  1
  Al  Al210  1  0.81905025  0.82772157  0.00142288  1
  Al  Al211  1  0.82288832  0.18025149  0.00040510  1
  Al  Al212  1  0.32588533  0.00076744  0.82736737  1
  Al  Al213  1  0.50045911  0.18256760  0.32384382  1
  Al  Al214  1  0.17880045  0.67029804  0.49877006  1
  Al  Al215  1  0.82136593  0.17839682  0.50004502  1
  Al  Al216  1  0.50088769  0.68183141  0.67759389  1
  Al  Al217  1  0.50107419  0.32050228  0.82663927  1
  Al  Al218  1  0.81238996  0.67118922  0.00146738  1
  Al  Al219  1  0.33032803  0.82779362  0.49765629  1
  Al  Al220  1  0.69014333  0.31658821  0.00029348  1
  Al  Al221  1  0.50186442  0.67169640  0.83123145  1
  Al  Al222  1  0.17362877  0.17917641  0.00234932  1
  Al  Al223  1  0.49971977  0.32183728  0.66955419  1
  Al  Al224  1  0.82756923  0.49936702  0.31909363  1
  Al  Al225  1  0.18239104  0.68699295  -0.00048313  1
  Al  Al226  1  -0.00124023  0.18588689  0.68602580  1
  Al  Al227  1  -0.00122376  0.68356218  0.67910608  1
  Al  Al228  1  0.67335960  0.69164566  0.49915921  1
  Al  Al229  1  0.32011341  0.17471127  0.49970113  1
  Al  Al230  1  0.32647643  0.00134391  0.67427534  1
  Al  Al231  1  0.32133496  0.49933314  0.17644777  1
  Al  Al232  1  0.17137906  0.00029171  0.32132874  1
  Al  Al233  1  0.00053439  0.31665305  0.31644905  1
  Al  Al234  1  0.50132787  0.82818376  0.18484178  1
  Al  Al235  1  0.31910964  0.32469114  -0.00083985  1
  Al  Al236  1  0.81679165  0.82851544  0.49816859  1
  Al  Al237  1  0.67409946  0.50169636  0.82452800  1
  Al  Al238  1  0.32695765  0.00024607  0.31197926  1
  Au  Au239  1  0.32493277  0.49933347  0.66689886  1
  Au  Au240  1  0.49672706  0.17165537  0.83826563  1
  Au  Au241  1  0.17260191  -0.00589383  0.33668159  1
  Au  Au242  1  0.50143677  0.16038729  0.66913512  1
  Au  Au243  1  -0.00125798  0.67184948  0.67396083  1
  Au  Au244  1  -0.00062903  0.32582302  0.16664409  1
  Au  Au245  1  -0.00416095  0.17321386  0.67474382  1
  Au  Au246  1  0.32311830  0.49739742  0.83251955  1
  Au  Au247  1  0.16264464  0.66550525  0.49994208  1
  Au  Au248  1  0.83325009  0.49687423  0.16775170  1
  Au  Au249  1  0.66737250  0.50147397  0.66778153  1
  Au  Au250  1  -0.00404838  0.16737500  0.32644856  1
  Au  Au251  1  0.49862296  0.16540611  0.16293388  1
  Au  Au252  1  0.66504175  0.17146726  0.00349547  1
  Au  Au253  1  0.50132068  0.17113245  0.33606570  1
  Au  Au254  1  0.00379979  0.67090176  0.83468159  1
  Au  Au255  1  0.66536720  0.49940835  0.83314895  1
  Au  Au256  1  0.32699465  0.84432486  0.49530062  1
  Au  Au257  1  0.50000035  0.67686875  0.32728692  1
  Au  Au258  1  0.67406977  -0.00265598  0.66086097  1
  Au  Au259  1  0.67466879  0.16102548  0.49634476  1
  Au  Au260  1  0.83894064  0.49509577  0.83310339  1
  Au  Au261  1  0.50250951  0.33746344  0.17336095  1
  Au  Au262  1  0.82914514  0.67341067  -0.00133683  1
  Au  Au263  1  0.49685141  0.33821670  0.67339975  1
  Au  Au264  1  0.84117167  -0.00069705  0.82825200  1
  Au  Au265  1  0.33257116  0.17720759  0.49817066  1
  Au  Au266  1  0.66798639  0.83005065  0.00187753  1
  Au  Au267  1  -0.00410089  0.67203842  0.33678171  1
  Au  Au268  1  0.83542794  0.18361675  0.00052089  1
  Au  Au269  1  0.67459096  0.67481563  0.50172074  1
  Au  Au270  1  0.17145254  -0.00412388  0.84647217  1
  Au  Au271  1  0.16366587  0.16932908  0.00213770  1
  Au  Au272  1  0.66721299  0.00018534  0.83325275  1
  Au  Au273  1  0.83632239  0.49744766  0.66441312  1
  Au  Au274  1  0.17153999  0.34122711  0.50046549  1
  Au  Au275  1  0.66156405  0.49442634  0.32743515  1
  Au  Au276  1  0.32137547  0.49591135  0.33891328  1
  Au  Au277  1  0.66614868  0.33024637  0.49886424  1
  Au  Au278  1  0.16557121  0.17302858  0.49928507  1
  Au  Au279  1  0.00441347  0.67577875  0.16040881  1
  Au  Au280  1  0.32996770  0.49928225  0.16581192  1
  Au  Au281  1  0.17461668  -0.00488308  0.65183085  1
  Au  Au282  1  0.32818010  0.66341465  0.00015664  1
  Au  Au283  1  0.17128040  0.34416551  -0.00338859  1
  Au  Au284  1  0.84041463  0.32774421  0.49896059  1
  Au  Au285  1  0.50218642  0.83013989  0.66778285  1
  Au  Au286  1  0.34270445  0.66625660  0.50066267  1
  Au  Au287  1  0.32446512  0.83605988  0.00098022  1
