# generated using pymatgen
data_Ca24Ti8Al207Au49
_symmetry_space_group_name_H-M   'P 1'
_cell_length_a   17.31962401
_cell_length_b   17.32059434
_cell_length_c   17.32188370
_cell_angle_alpha   89.99835698
_cell_angle_beta   89.99479406
_cell_angle_gamma   89.99743177
_symmetry_Int_Tables_number   1
_chemical_formula_structural   Ca24Ti8Al207Au49
_chemical_formula_sum   'Ca24 Ti8 Al207 Au49'
_cell_volume   5196.32571934
_cell_formula_units_Z   1
loop_
 _symmetry_equiv_pos_site_id
 _symmetry_equiv_pos_as_xyz
  1  'x, y, z'
loop_
 _atom_site_type_symbol
 _atom_site_label
 _atom_site_symmetry_multiplicity
 _atom_site_fract_x
 _atom_site_fract_y
 _atom_site_fract_z
 _atom_site_occupancy
  Ca  Ca0  1  0.24768407  -0.00008972  0.00201902  1
  Ca  Ca1  1  0.25130647  0.00291830  0.49776656  1
  Ca  Ca2  1  0.25243336  0.50015089  -0.00157217  1
  Ca  Ca3  1  0.25346004  0.49126020  0.50074090  1
  Ca  Ca4  1  0.75329652  -0.00051634  -0.00226115  1
  Ca  Ca5  1  0.75145468  0.00060518  0.50092476  1
  Ca  Ca6  1  0.75074119  0.50035321  -0.00505262  1
  Ca  Ca7  1  0.75103508  0.50208538  0.50457283  1
  Ca  Ca8  1  0.00238451  0.24845566  0.00164990  1
  Ca  Ca9  1  0.00245109  0.24852576  0.49752029  1
  Ca  Ca10  1  -0.00359225  0.75444216  0.00042723  1
  Ca  Ca11  1  -0.00660659  0.75271296  0.49655518  1
  Ca  Ca12  1  0.49572968  0.25149035  -0.00226395  1
  Ca  Ca13  1  0.49783429  0.24524999  0.50132725  1
  Ca  Ca14  1  0.50171385  0.74295212  -0.00260630  1
  Ca  Ca15  1  0.50441990  0.74704042  0.49856931  1
  Ca  Ca16  1  0.00076989  0.00252920  0.24929100  1
  Ca  Ca17  1  -0.00024491  -0.00025493  0.75005635  1
  Ca  Ca18  1  -0.00010057  0.50141458  0.25142975  1
  Ca  Ca19  1  -0.00081643  0.50301532  0.75392943  1
  Ca  Ca20  1  0.50019216  0.00546188  0.25419471  1
  Ca  Ca21  1  0.50190586  0.00244893  0.74628498  1
  Ca  Ca22  1  0.49810410  0.49525508  0.24530081  1
  Ca  Ca23  1  0.49892245  0.49741651  0.75261899  1
  Ti  Ti24  1  0.25062764  0.24877389  0.24999358  1
  Ti  Ti25  1  0.25166897  0.25118223  0.75079232  1
  Ti  Ti26  1  0.24864939  0.75049222  0.24867062  1
  Ti  Ti27  1  0.25005705  0.74889633  0.75131644  1
  Ti  Ti28  1  0.74959226  0.24828756  0.25029422  1
  Ti  Ti29  1  0.74694358  0.25011801  0.75058758  1
  Ti  Ti30  1  0.75106520  0.75124378  0.25148720  1
  Ti  Ti31  1  0.75038320  0.75180617  0.74882602  1
  Al  Al32  1  0.08017392  0.08831532  0.08724454  1
  Al  Al33  1  0.09711147  0.07549082  0.58470794  1
  Al  Al34  1  0.09111223  0.59216653  0.07767647  1
  Al  Al35  1  0.08345583  0.57972806  0.58189949  1
  Al  Al36  1  0.57912667  0.08097858  0.08469130  1
  Al  Al37  1  0.58371902  0.08559307  0.58853382  1
  Al  Al38  1  0.57449285  0.57437998  0.07176992  1
  Al  Al39  1  0.58543125  0.58225548  0.58627353  1
  Al  Al40  1  0.40959367  0.41027177  0.08021531  1
  Al  Al41  1  0.41341236  0.40015171  0.58733681  1
  Al  Al42  1  0.40956546  0.92643583  0.08719839  1
  Al  Al43  1  0.42479053  0.93017525  0.57712774  1
  Al  Al44  1  0.92132534  0.42017343  0.07835588  1
  Al  Al45  1  0.91843104  0.42265867  0.58200837  1
  Al  Al46  1  0.91749791  0.92104411  0.08249235  1
  Al  Al47  1  0.91460039  0.90811748  0.58810858  1
  Al  Al48  1  0.41704948  0.09724114  0.41522456  1
  Al  Al49  1  0.41824527  0.08750964  0.91839446  1
  Al  Al50  1  0.41858785  0.57061210  0.42312609  1
  Al  Al51  1  0.40186057  0.57975375  0.91316171  1
  Al  Al52  1  0.90839055  0.08836231  0.41756321  1
  Al  Al53  1  0.91042990  0.07108360  0.91400155  1
  Al  Al54  1  0.90550032  0.58364695  0.41681523  1
  Al  Al55  1  0.90859703  0.57940319  0.91428797  1
  Al  Al56  1  0.08861875  0.41274673  0.42400073  1
  Al  Al57  1  0.08346075  0.41742927  0.91777903  1
  Al  Al58  1  0.07522531  0.92649960  0.41653930  1
  Al  Al59  1  0.08036377  0.91270614  0.89858273  1
  Al  Al60  1  0.57416395  0.41885842  0.41650462  1
  Al  Al61  1  0.58370777  0.41940078  0.90949249  1
  Al  Al62  1  0.60421363  0.92380350  0.42176169  1
  Al  Al63  1  0.59471773  0.92246453  0.91334930  1
  Al  Al64  1  0.08414394  0.08471429  0.41998003  1
  Al  Al65  1  0.09115473  0.07124529  0.91733158  1
  Al  Al66  1  0.08043895  0.57985060  0.42211606  1
  Al  Al67  1  0.09420282  0.58801771  0.92014864  1
  Al  Al68  1  0.58163508  0.08428643  0.41531239  1
  Al  Al69  1  0.59014907  0.08003932  0.90435830  1
  Al  Al70  1  0.58825356  0.58137563  0.42533757  1
  Al  Al71  1  0.58852504  0.57751262  0.90915140  1
  Al  Al72  1  0.41016701  0.40427103  0.42327599  1
  Al  Al73  1  0.40668154  0.41500079  0.91614205  1
  Al  Al74  1  0.42089552  0.93322788  0.41796168  1
  Al  Al75  1  0.42019249  0.92292842  0.92445245  1
  Al  Al76  1  0.91284244  0.42345794  0.41330042  1
  Al  Al77  1  0.91259762  0.42034246  0.91034697  1
  Al  Al78  1  0.90721349  0.91294063  0.42345779  1
  Al  Al79  1  0.91593903  0.91256310  0.90241578  1
  Al  Al80  1  0.08392796  0.41725027  0.07818268  1
  Al  Al81  1  0.09351337  0.40821240  0.58030584  1
  Al  Al82  1  0.07819156  0.92248177  0.08231417  1
  Al  Al83  1  0.07842630  0.91565646  0.60515926  1
  Al  Al84  1  0.56946710  0.41038290  0.08401929  1
  Al  Al85  1  0.57437884  0.41372433  0.59392420  1
  Al  Al86  1  0.58640186  0.91935003  0.07605677  1
  Al  Al87  1  0.60054963  0.92299339  0.58412117  1
  Al  Al88  1  0.40965985  0.08546894  0.08866119  1
  Al  Al89  1  0.41935509  0.09885606  0.58125168  1
  Al  Al90  1  0.40645001  0.57879520  0.07384487  1
  Al  Al91  1  0.42240635  0.57665331  0.58571654  1
  Al  Al92  1  0.92023960  0.08382842  0.08956725  1
  Al  Al93  1  0.90614676  0.08010805  0.57637967  1
  Al  Al94  1  0.91957211  0.58443435  0.07680046  1
  Al  Al95  1  0.91076688  0.58349060  0.57863787  1
  Al  Al96  1  0.25566539  0.13515336  0.13698993  1
  Al  Al97  1  0.25158292  0.14051100  0.63367587  1
  Al  Al98  1  0.24789909  0.63520307  0.13127635  1
  Al  Al99  1  0.25158125  0.63529184  0.63654284  1
  Al  Al100  1  0.74675246  0.13512161  0.13816248  1
  Al  Al101  1  0.74584638  0.13221425  0.63724995  1
  Al  Al102  1  0.75251912  0.63284466  0.13664318  1
  Al  Al103  1  0.74997901  0.63557314  0.63641958  1
  Al  Al104  1  0.25193033  0.36209321  0.13379329  1
  Al  Al105  1  0.25364647  0.36548824  0.63254519  1
  Al  Al106  1  0.25178164  0.86603072  0.13332973  1
  Al  Al107  1  0.24455078  0.86944894  0.63945225  1
  Al  Al108  1  0.75218839  0.36563503  0.13742596  1
  Al  Al109  1  0.74858089  0.36458011  0.63813180  1
  Al  Al110  1  0.75153802  0.86553899  0.13624254  1
  Al  Al111  1  0.74830637  0.86834868  0.63219844  1
  Al  Al112  1  0.25594198  0.13689853  0.36791977  1
  Al  Al113  1  0.25349130  0.13686521  0.86199593  1
  Al  Al114  1  0.24973342  0.63589488  0.36408966  1
  Al  Al115  1  0.25065145  0.63244162  0.86809778  1
  Al  Al116  1  0.75040879  0.13021327  0.36240753  1
  Al  Al117  1  0.74625409  0.13104314  0.86152909  1
  Al  Al118  1  0.75208135  0.63377665  0.36580407  1
  Al  Al119  1  0.75163478  0.63323871  0.86318332  1
  Al  Al120  1  0.25234720  0.35946354  0.36803895  1
  Al  Al121  1  0.25634330  0.37014928  0.86352491  1
  Al  Al122  1  0.25591869  0.86676448  0.36256064  1
  Al  Al123  1  0.24243046  0.86738826  0.86408236  1
  Al  Al124  1  0.75044090  0.36146302  0.36679204  1
  Al  Al125  1  0.74548232  0.36781347  0.86257920  1
  Al  Al126  1  0.75133586  0.86887944  0.36932630  1
  Al  Al127  1  0.75404718  0.87232640  0.86107233  1
  Al  Al128  1  0.13572325  0.24699568  0.13482645  1
  Al  Al129  1  0.13575100  0.25398171  0.63411420  1
  Al  Al130  1  0.13614125  0.74730078  0.13392085  1
  Al  Al131  1  0.13309827  0.75247302  0.64100533  1
  Al  Al132  1  0.63318826  0.25296149  0.13496391  1
  Al  Al133  1  0.62941020  0.24753811  0.63712020  1
  Al  Al134  1  0.63486450  0.75160107  0.13842133  1
  Al  Al135  1  0.64002310  0.75250638  0.63206648  1
  Al  Al136  1  0.13223571  0.25014061  0.36448123  1
  Al  Al137  1  0.13935346  0.25030972  0.86302579  1
  Al  Al138  1  0.12980784  0.74888550  0.36195442  1
  Al  Al139  1  0.13617015  0.74848661  0.86291140  1
  Al  Al140  1  0.63348453  0.24460009  0.36435696  1
  Al  Al141  1  0.62758981  0.24833990  0.86303282  1
  Al  Al142  1  0.64256768  0.75335051  0.37332852  1
  Al  Al143  1  0.63744529  0.75172695  0.86156734  1
  Al  Al144  1  0.36732864  0.25083442  0.13040722  1
  Al  Al145  1  0.36554090  0.25165321  0.63229288  1
  Al  Al146  1  0.36492192  0.74505421  0.13554864  1
  Al  Al147  1  0.36259111  0.75077563  0.63674774  1
  Al  Al148  1  0.86545134  0.24683974  0.13787252  1
  Al  Al149  1  0.86259310  0.24533948  0.63828634  1
  Al  Al150  1  0.86472968  0.74942602  0.13842996  1
  Al  Al151  1  0.86474492  0.75780052  0.63533202  1
  Al  Al152  1  0.36812154  0.24754251  0.36752183  1
  Al  Al153  1  0.36852033  0.25138260  0.86762576  1
  Al  Al154  1  0.36447245  0.74724808  0.36317774  1
  Al  Al155  1  0.36600274  0.74471932  0.86554348  1
  Al  Al156  1  0.86876228  0.24412751  0.36360982  1
  Al  Al157  1  0.86015734  0.24900814  0.86275437  1
  Al  Al158  1  0.86721702  0.75279896  0.36615421  1
  Al  Al159  1  0.86395465  0.75684062  0.86286218  1
  Al  Al160  1  0.13163511  0.13703880  0.25022179  1
  Al  Al161  1  0.13551645  0.13374362  0.74821892  1
  Al  Al162  1  0.13051353  0.63311266  0.24901266  1
  Al  Al163  1  0.13589430  0.63075385  0.75409407  1
  Al  Al164  1  0.63359494  0.12949921  0.25243665  1
  Al  Al165  1  0.63157109  0.13296731  0.74809520  1
  Al  Al166  1  0.63702451  0.63518988  0.25053404  1
  Al  Al167  1  0.63653090  0.63480766  0.75399250  1
  Al  Al168  1  0.36782951  0.13457914  0.25238432  1
  Al  Al169  1  0.37444585  0.14038357  0.74519627  1
  Al  Al170  1  0.36274017  0.63377276  0.24788607  1
  Al  Al171  1  0.36158331  0.62688647  0.75425614  1
  Al  Al172  1  0.87066049  0.13439211  0.25196945  1
  Al  Al173  1  0.86290466  0.12996276  0.75353550  1
  Al  Al174  1  0.86953542  0.63543443  0.25461062  1
  Al  Al175  1  0.86615306  0.63664898  0.75228870  1
  Al  Al176  1  0.13611513  0.36650987  0.25010052  1
  Al  Al177  1  0.13795279  0.36583638  0.75010530  1
  Al  Al178  1  0.13633682  0.86565871  0.25073917  1
  Al  Al179  1  0.13071212  0.86550852  0.75157167  1
  Al  Al180  1  0.63381053  0.36514416  0.25036305  1
  Al  Al181  1  0.62723162  0.36175781  0.75087493  1
  Al  Al182  1  0.64017372  0.87326850  0.25280793  1
  Al  Al183  1  0.63918133  0.87321440  0.75106141  1
  Al  Al184  1  0.36624769  0.36054054  0.24832715  1
  Al  Al185  1  0.36887143  0.36376027  0.74878608  1
  Al  Al186  1  0.36497213  0.87080438  0.24532684  1
  Al  Al187  1  0.36385267  0.86389525  0.75646073  1
  Al  Al188  1  0.86753990  0.36461721  0.25486993  1
  Al  Al189  1  0.86382819  0.36433826  0.75066002  1
  Al  Al190  1  0.86449541  0.86736950  0.25576810  1
  Al  Al191  1  0.86829743  0.86780461  0.74974564  1
  Al  Al192  1  0.81967283  0.00128097  0.18353434  1
  Al  Al193  1  0.32815567  0.82083628  0.49981140  1
  Al  Al194  1  0.31749127  0.00366647  0.67314046  1
  Al  Al195  1  0.82490721  0.49923575  0.18376375  1
  Al  Al196  1  0.00026087  0.31639962  0.17742770  1
  Al  Al197  1  0.32461775  0.81337462  -0.00082492  1
  Al  Al198  1  0.32079939  0.49790686  0.17814627  1
  Al  Al199  1  0.67338119  0.16876078  -0.00112157  1
  Al  Al200  1  0.17756964  0.49803921  0.32352599  1
  Al  Al201  1  0.50089533  0.31309280  0.31604115  1
  Al  Al202  1  0.00024265  0.82339954  0.17976967  1
  Al  Al203  1  0.50032287  0.66954825  0.32052810  1
  Al  Al204  1  0.67150241  0.67079372  -0.00002080  1
  Al  Al205  1  0.66966578  0.32658003  0.50264879  1
  Al  Al206  1  0.82280115  0.68241572  -0.00067134  1
  Al  Al207  1  0.81484542  -0.00127880  0.68492305  1
  Al  Al208  1  0.16751774  0.83229513  0.50122351  1
  Al  Al209  1  0.67219872  0.49816486  0.68638555  1
  Al  Al210  1  0.68485089  0.82346987  -0.00157121  1
  Al  Al211  1  0.82911686  0.32505979  -0.00057158  1
  Al  Al212  1  0.31638856  0.00051768  0.82374530  1
  Al  Al213  1  0.00007619  0.32423362  0.82190936  1
  Al  Al214  1  0.00069988  0.16959439  0.83191196  1
  Al  Al215  1  0.81778847  0.68790163  0.50091417  1
  Al  Al216  1  0.83139420  0.31068726  0.49944795  1
  Al  Al217  1  0.18392957  0.18841056  0.49981486  1
  Al  Al218  1  0.18227847  0.49693570  0.67757812  1
  Al  Al219  1  0.50486786  0.83126938  0.33031269  1
  Al  Al220  1  0.18107711  0.00200166  0.32494940  1
  Al  Al221  1  0.17943101  0.00177884  0.17222989  1
  Al  Al222  1  0.16988889  0.81795243  -0.00046028  1
  Al  Al223  1  0.50262576  0.82396667  0.82975962  1
  Al  Al224  1  0.00013527  0.17450106  0.66753513  1
  Al  Al225  1  0.49998405  0.82750017  0.17069265  1
  Al  Al226  1  -0.00194262  0.68303049  0.67130333  1
  Al  Al227  1  0.68204635  0.16983824  0.49947832  1
  Al  Al228  1  0.18505063  0.32459332  -0.00218324  1
  Al  Al229  1  0.50091387  0.18488966  0.18405444  1
  Al  Al230  1  0.82741928  0.17012683  0.00044016  1
  Al  Al231  1  0.82480667  0.50105876  0.68347176  1
  Al  Al232  1  0.50465873  0.83243578  0.67158296  1
  Al  Al233  1  0.17846411  0.67633854  0.50037911  1
  Al  Al234  1  0.67276153  0.32484042  0.00211981  1
  Al  Al235  1  0.18028965  0.17147043  -0.00013283  1
  Al  Al236  1  -0.00082126  0.68266243  0.82939576  1
  Al  Al237  1  0.68479132  0.49813642  0.32301445  1
  Al  Al238  1  0.49984822  0.67567801  0.68149210  1
  Au  Au239  1  0.49637188  0.83907964  0.16753355  1
  Au  Au240  1  -0.00306271  0.67720553  0.65550473  1
  Au  Au241  1  0.34111478  0.83111247  0.49702658  1
  Au  Au242  1  0.67156842  -0.00009665  0.16937015  1
  Au  Au243  1  0.49992816  0.17215385  0.17315085  1
  Au  Au244  1  0.49792076  0.32504375  0.32769729  1
  Au  Au245  1  0.49572320  0.65955484  0.83097847  1
  Au  Au246  1  0.65866237  0.49839081  0.16561207  1
  Au  Au247  1  -0.00169111  0.67557004  0.84456076  1
  Au  Au248  1  0.18010138  0.17150914  0.49920611  1
  Au  Au249  1  0.32606211  0.00812866  0.65861611  1
  Au  Au250  1  0.50162655  0.16538672  0.82251309  1
  Au  Au251  1  0.00078670  0.33318304  0.33652632  1
  Au  Au252  1  0.65741632  0.32286488  0.50293066  1
  Au  Au253  1  0.33826063  0.82284116  0.00320157  1
  Au  Au254  1  0.67157091  0.67759241  0.50412219  1
  Au  Au255  1  -0.00210974  0.83907407  0.32755346  1
  Au  Au256  1  0.00070554  0.32316716  0.16192532  1
  Au  Au257  1  0.33082392  0.00618874  0.32644770  1
  Au  Au258  1  0.82489480  -0.00258900  0.67148436  1
  Au  Au259  1  0.00422739  0.16793227  0.84719524  1
  Au  Au260  1  0.00037976  0.16413055  0.65491126  1
  Au  Au261  1  0.32710962  0.65584264  0.50298172  1
  Au  Au262  1  0.66410486  0.33362480  -0.00031122  1
  Au  Au263  1  0.67824024  0.49663541  0.33888233  1
  Au  Au264  1  0.17293437  0.50103910  0.15920512  1
  Au  Au265  1  0.17654074  0.49863632  0.83520158  1
  Au  Au266  1  -0.00248346  0.66529668  0.33596161  1
  Au  Au267  1  0.51380533  0.84383639  0.33862012  1
  Au  Au268  1  0.33354870  0.49387797  0.32885335  1
  Au  Au269  1  0.49525625  0.33609296  0.82554569  1
  Au  Au270  1  0.17392795  0.50067509  0.66914211  1
  Au  Au271  1  0.00046013  0.16257598  0.32784022  1
  Au  Au272  1  0.33884752  0.49557008  0.67572444  1
  Au  Au273  1  0.17162114  0.49809603  0.33459275  1
  Au  Au274  1  0.49970291  0.65951329  0.33413454  1
  Au  Au275  1  0.83437880  0.83311385  -0.00119581  1
  Au  Au276  1  0.32832512  0.17592264  0.00055062  1
  Au  Au277  1  0.15636089  0.82802230  -0.00265010  1
  Au  Au278  1  0.00089757  0.67545859  0.15949448  1
  Au  Au279  1  0.32159284  -0.00106850  0.83998573  1
  Au  Au280  1  0.82420630  -0.00031976  0.33473497  1
  Au  Au281  1  0.50401227  0.83581751  0.83378829  1
  Au  Au282  1  0.83356107  0.32761735  0.50115342  1
  Au  Au283  1  0.50753125  0.82777615  0.65492385  1
  Au  Au284  1  0.83632644  0.50104178  0.17134723  1
  Au  Au285  1  0.49515199  0.66415883  0.15661997  1
  Au  Au286  1  0.00016469  0.34202531  0.67337380  1
  Au  Au287  1  0.15148809  0.82986613  0.50587437  1
