# generated using pymatgen
data_Ca24Ti8Al207Au49
_symmetry_space_group_name_H-M   'P 1'
_cell_length_a   17.32364834
_cell_length_b   17.32516515
_cell_length_c   17.32468975
_cell_angle_alpha   90.00526231
_cell_angle_beta   89.99887864
_cell_angle_gamma   89.99965694
_symmetry_Int_Tables_number   1
_chemical_formula_structural   Ca24Ti8Al207Au49
_chemical_formula_sum   'Ca24 Ti8 Al207 Au49'
_cell_volume   5199.74692096
_cell_formula_units_Z   1
loop_
 _symmetry_equiv_pos_site_id
 _symmetry_equiv_pos_as_xyz
  1  'x, y, z'
loop_
 _atom_site_type_symbol
 _atom_site_label
 _atom_site_symmetry_multiplicity
 _atom_site_fract_x
 _atom_site_fract_y
 _atom_site_fract_z
 _atom_site_occupancy
  Ca  Ca0  1  0.24766461  -0.00093384  -0.00188406  1
  Ca  Ca1  1  0.24950378  0.00010460  0.50082251  1
  Ca  Ca2  1  0.24904153  0.50132727  -0.00104576  1
  Ca  Ca3  1  0.25117680  0.49904381  0.49968555  1
  Ca  Ca4  1  0.75588582  -0.00038427  -0.00318990  1
  Ca  Ca5  1  0.74893111  0.00071241  0.50316832  1
  Ca  Ca6  1  0.75248074  0.49813695  0.00239660  1
  Ca  Ca7  1  0.74871712  0.50095324  0.49938016  1
  Ca  Ca8  1  0.00218803  0.24809144  0.00368416  1
  Ca  Ca9  1  0.00222007  0.24948337  0.49819873  1
  Ca  Ca10  1  0.00306732  0.75398734  -0.00336157  1
  Ca  Ca11  1  0.00225503  0.75165133  0.50236627  1
  Ca  Ca12  1  0.49857424  0.24665070  -0.00247123  1
  Ca  Ca13  1  0.49778140  0.24906511  0.49495333  1
  Ca  Ca14  1  0.49498217  0.75037137  -0.00226566  1
  Ca  Ca15  1  0.49873336  0.75085233  0.50139308  1
  Ca  Ca16  1  0.00188864  0.00033355  0.24839736  1
  Ca  Ca17  1  0.00241192  -0.00094768  0.75239559  1
  Ca  Ca18  1  0.00158962  0.49957118  0.25068883  1
  Ca  Ca19  1  0.00539743  0.50096820  0.75188259  1
  Ca  Ca20  1  0.49607657  -0.00250210  0.25867805  1
  Ca  Ca21  1  0.50025420  -0.00457819  0.75398887  1
  Ca  Ca22  1  0.49535647  0.50150818  0.25623518  1
  Ca  Ca23  1  0.49804887  0.50416228  0.75114680  1
  Ti  Ti24  1  0.25016425  0.24676218  0.25286061  1
  Ti  Ti25  1  0.24971896  0.24984984  0.74763536  1
  Ti  Ti26  1  0.24840727  0.75355600  0.24943557  1
  Ti  Ti27  1  0.24814818  0.74980931  0.74976388  1
  Ti  Ti28  1  0.74965262  0.24908139  0.24995100  1
  Ti  Ti29  1  0.75135942  0.24860651  0.74983753  1
  Ti  Ti30  1  0.75256498  0.74968651  0.24958703  1
  Ti  Ti31  1  0.75338455  0.75109649  0.74958312  1
  Al  Al32  1  0.08056975  0.08791117  0.08451084  1
  Al  Al33  1  0.09393798  0.08018692  0.58587863  1
  Al  Al34  1  0.08330302  0.58650408  0.07469800  1
  Al  Al35  1  0.08592181  0.58389665  0.59640352  1
  Al  Al36  1  0.58100326  0.07903492  0.07770193  1
  Al  Al37  1  0.58647266  0.08732569  0.57778092  1
  Al  Al38  1  0.57870618  0.58136092  0.08284602  1
  Al  Al39  1  0.57483493  0.58100245  0.58119067  1
  Al  Al40  1  0.41267177  0.42324717  0.08077161  1
  Al  Al41  1  0.40862687  0.41277347  0.57729153  1
  Al  Al42  1  0.41051000  0.91566265  0.08348277  1
  Al  Al43  1  0.40932426  0.91055490  0.58084039  1
  Al  Al44  1  0.92196251  0.40922658  0.08909489  1
  Al  Al45  1  0.92075443  0.42117044  0.57852468  1
  Al  Al46  1  0.92705002  0.92710727  0.07247632  1
  Al  Al47  1  0.91886391  0.91610212  0.58628076  1
  Al  Al48  1  0.40687399  0.07791115  0.41520552  1
  Al  Al49  1  0.41000743  0.08607758  0.92289981  1
  Al  Al50  1  0.41137668  0.58103124  0.41147217  1
  Al  Al51  1  0.40747700  0.59055263  0.91855803  1
  Al  Al52  1  0.91661413  0.08215286  0.41789413  1
  Al  Al53  1  0.90912160  0.07897659  0.91864605  1
  Al  Al54  1  0.91552057  0.58000487  0.42342164  1
  Al  Al55  1  0.92436947  0.58424987  0.91687328  1
  Al  Al56  1  0.08719966  0.41522675  0.41595621  1
  Al  Al57  1  0.08916505  0.42131450  0.91122496  1
  Al  Al58  1  0.08607353  0.92095524  0.42351146  1
  Al  Al59  1  0.08421098  0.91012528  0.91128470  1
  Al  Al60  1  0.58482576  0.41689414  0.42216634  1
  Al  Al61  1  0.58255780  0.42254199  0.91524231  1
  Al  Al62  1  0.57726861  0.92013703  0.42263963  1
  Al  Al63  1  0.57970738  0.91357332  0.90807319  1
  Al  Al64  1  0.09174263  0.08791993  0.42354668  1
  Al  Al65  1  0.08426022  0.07920126  0.91912238  1
  Al  Al66  1  0.08574303  0.57616689  0.41901810  1
  Al  Al67  1  0.09560164  0.58671714  0.90964352  1
  Al  Al68  1  0.58762269  0.08957414  0.42253598  1
  Al  Al69  1  0.58544510  0.07543579  0.91591558  1
  Al  Al70  1  0.57440037  0.58098345  0.41685254  1
  Al  Al71  1  0.57930312  0.58044033  0.91359997  1
  Al  Al72  1  0.40092217  0.41791602  0.41644707  1
  Al  Al73  1  0.41723433  0.42100740  0.92175757  1
  Al  Al74  1  0.40058308  0.91523183  0.41748161  1
  Al  Al75  1  0.41769766  0.90774931  0.91704473  1
  Al  Al76  1  0.91994571  0.41810031  0.41751191  1
  Al  Al77  1  0.92470758  0.42002228  0.92024772  1
  Al  Al78  1  0.91685112  0.92062614  0.41903989  1
  Al  Al79  1  0.92048059  0.91726208  0.90507580  1
  Al  Al80  1  0.07818091  0.40859101  0.08186886  1
  Al  Al81  1  0.09395619  0.42223083  0.58925757  1
  Al  Al82  1  0.09065697  0.91265502  0.07302944  1
  Al  Al83  1  0.09036711  0.91835009  0.58941191  1
  Al  Al84  1  0.58102029  0.42108563  0.08117708  1
  Al  Al85  1  0.58358393  0.41400731  0.57899878  1
  Al  Al86  1  0.57753976  0.92142273  0.07681636  1
  Al  Al87  1  0.57685344  0.91675441  0.58126568  1
  Al  Al88  1  0.40813320  0.08604719  0.07952105  1
  Al  Al89  1  0.41486598  0.08068223  0.57885072  1
  Al  Al90  1  0.40632617  0.58457883  0.07915513  1
  Al  Al91  1  0.41453219  0.58109069  0.58230785  1
  Al  Al92  1  0.91741699  0.09397291  0.08020919  1
  Al  Al93  1  0.91630922  0.07895074  0.58054878  1
  Al  Al94  1  0.92034238  0.57871820  0.07824788  1
  Al  Al95  1  0.92514936  0.59126096  0.58599054  1
  Al  Al96  1  0.24887422  0.12927023  0.13241667  1
  Al  Al97  1  0.24801473  0.13529586  0.62569988  1
  Al  Al98  1  0.25156328  0.63887630  0.13157317  1
  Al  Al99  1  0.24628785  0.62898264  0.63955641  1
  Al  Al100  1  0.74996138  0.13550852  0.12759961  1
  Al  Al101  1  0.75399538  0.13365391  0.63089395  1
  Al  Al102  1  0.75226732  0.62943456  0.13740473  1
  Al  Al103  1  0.75297398  0.63635679  0.63764610  1
  Al  Al104  1  0.25210756  0.36140495  0.13544634  1
  Al  Al105  1  0.24665793  0.36920884  0.63177638  1
  Al  Al106  1  0.24869569  0.87090901  0.13428707  1
  Al  Al107  1  0.24617537  0.86366438  0.63908349  1
  Al  Al108  1  0.75065224  0.36967651  0.13544083  1
  Al  Al109  1  0.75237179  0.36771588  0.63511488  1
  Al  Al110  1  0.75152412  0.86225493  0.13670550  1
  Al  Al111  1  0.75572494  0.86222855  0.63956998  1
  Al  Al112  1  0.24924671  0.13301995  0.37132080  1
  Al  Al113  1  0.24972925  0.13431455  0.87005527  1
  Al  Al114  1  0.25055677  0.63743616  0.36577944  1
  Al  Al115  1  0.24634753  0.63304233  0.86279342  1
  Al  Al116  1  0.74700289  0.13861617  0.37130617  1
  Al  Al117  1  0.75108307  0.13441316  0.87027761  1
  Al  Al118  1  0.75217789  0.63687265  0.36324755  1
  Al  Al119  1  0.75413727  0.63818353  0.86098976  1
  Al  Al120  1  0.25130038  0.36098809  0.37413268  1
  Al  Al121  1  0.24572385  0.36729695  0.86423480  1
  Al  Al122  1  0.25132157  0.87185951  0.36389088  1
  Al  Al123  1  0.24329960  0.86271892  0.86495458  1
  Al  Al124  1  0.75191449  0.36351895  0.36305996  1
  Al  Al125  1  0.75145198  0.36315831  0.86592224  1
  Al  Al126  1  0.75303613  0.86240822  0.36347768  1
  Al  Al127  1  0.75602387  0.86330953  0.86136729  1
  Al  Al128  1  0.13827182  0.24528044  0.13570308  1
  Al  Al129  1  0.13846957  0.25119893  0.62777086  1
  Al  Al130  1  0.13205455  0.75241879  0.13212425  1
  Al  Al131  1  0.12815400  0.74775213  0.63734616  1
  Al  Al132  1  0.63980893  0.25006718  0.12735872  1
  Al  Al133  1  0.63944634  0.24531024  0.63140909  1
  Al  Al134  1  0.63444220  0.74969051  0.13580227  1
  Al  Al135  1  0.63479885  0.75388698  0.63564141  1
  Al  Al136  1  0.13523366  0.24938208  0.37277697  1
  Al  Al137  1  0.13558102  0.24456591  0.86165200  1
  Al  Al138  1  0.13231322  0.75422616  0.36294440  1
  Al  Al139  1  0.12675540  0.75065140  0.86531717  1
  Al  Al140  1  0.62994925  0.24826668  0.36342669  1
  Al  Al141  1  0.63728605  0.24858520  0.86836034  1
  Al  Al142  1  0.63581164  0.75061087  0.36437215  1
  Al  Al143  1  0.63487890  0.75366103  0.86304678  1
  Al  Al144  1  0.36141859  0.24484440  0.13757678  1
  Al  Al145  1  0.35720388  0.25248251  0.62259732  1
  Al  Al146  1  0.36445160  0.75125289  0.13413834  1
  Al  Al147  1  0.35909425  0.75142851  0.62864269  1
  Al  Al148  1  0.86340398  0.24585064  0.13365072  1
  Al  Al149  1  0.86444563  0.24749702  0.63030622  1
  Al  Al150  1  0.87126524  0.75174355  0.13575899  1
  Al  Al151  1  0.87472893  0.75268473  0.63883044  1
  Al  Al152  1  0.36481423  0.24714192  0.37059166  1
  Al  Al153  1  0.36176280  0.24762230  0.86319483  1
  Al  Al154  1  0.36047685  0.75506890  0.36922849  1
  Al  Al155  1  0.36096090  0.74949836  0.86486360  1
  Al  Al156  1  0.86613607  0.24961812  0.37102735  1
  Al  Al157  1  0.86473334  0.24318971  0.87074934  1
  Al  Al158  1  0.87385302  0.75045359  0.36292702  1
  Al  Al159  1  0.87475656  0.75091352  0.86187881  1
  Al  Al160  1  0.13963295  0.12832084  0.25328685  1
  Al  Al161  1  0.13805746  0.13377592  0.74350156  1
  Al  Al162  1  0.13170669  0.63947123  0.24934466  1
  Al  Al163  1  0.13028103  0.63675013  0.75047642  1
  Al  Al164  1  0.63584317  0.13439055  0.24806198  1
  Al  Al165  1  0.63831766  0.13599932  0.75083791  1
  Al  Al166  1  0.63518008  0.63580496  0.24788509  1
  Al  Al167  1  0.63497443  0.63828316  0.74889781  1
  Al  Al168  1  0.36126613  0.12881094  0.25390443  1
  Al  Al169  1  0.36113797  0.13809845  0.74497551  1
  Al  Al170  1  0.36077645  0.63834932  0.25159086  1
  Al  Al171  1  0.36412195  0.63540345  0.74861448  1
  Al  Al172  1  0.86245512  0.13732308  0.25282386  1
  Al  Al173  1  0.86735990  0.13384388  0.75575726  1
  Al  Al174  1  0.87230000  0.63699203  0.24842552  1
  Al  Al175  1  0.87609008  0.63642427  0.74813780  1
  Al  Al176  1  0.13863802  0.35787710  0.25093139  1
  Al  Al177  1  0.13671334  0.36722276  0.74938706  1
  Al  Al178  1  0.13332962  0.87082606  0.24991898  1
  Al  Al179  1  0.12871763  0.86223169  0.74950321  1
  Al  Al180  1  0.63305387  0.36183508  0.24991057  1
  Al  Al181  1  0.63506530  0.36141175  0.74649489  1
  Al  Al182  1  0.63345605  0.86667870  0.25186173  1
  Al  Al183  1  0.62948961  0.86356507  0.75083942  1
  Al  Al184  1  0.36239943  0.36322408  0.25924259  1
  Al  Al185  1  0.36108264  0.36681517  0.74719450  1
  Al  Al186  1  0.36397132  0.87007647  0.24915417  1
  Al  Al187  1  0.36963830  0.86020579  0.74880725  1
  Al  Al188  1  0.86805483  0.36112566  0.24562235  1
  Al  Al189  1  0.86531079  0.36508790  0.75152129  1
  Al  Al190  1  0.87239413  0.86459571  0.24999030  1
  Al  Al191  1  0.87619172  0.86763626  0.75332200  1
  Al  Al192  1  0.68134959  0.31310129  0.49800358  1
  Al  Al193  1  0.82354244  -0.00023471  0.68920028  1
  Al  Al194  1  0.18052656  0.67096534  0.50306306  1
  Al  Al195  1  0.32807275  -0.00201360  0.82783275  1
  Al  Al196  1  0.68913860  -0.00180362  0.82264580  1
  Al  Al197  1  0.00082301  0.18977319  0.18448096  1
  Al  Al198  1  0.19053514  0.49859651  0.32452418  1
  Al  Al199  1  0.50316409  0.82340868  0.17735431  1
  Al  Al200  1  0.30758076  0.00022153  0.67405719  1
  Al  Al201  1  0.32454551  0.49957565  0.18849354  1
  Al  Al202  1  0.82507806  0.68257302  0.50172150  1
  Al  Al203  1  0.49786917  0.68177917  0.31956334  1
  Al  Al204  1  0.00154761  0.32904423  0.67228696  1
  Al  Al205  1  0.68170051  0.50017966  0.81707290  1
  Al  Al206  1  0.00122807  0.32038262  0.82570507  1
  Al  Al207  1  0.67087035  0.67044485  0.49994086  1
  Al  Al208  1  0.18512634  0.82633139  0.50075623  1
  Al  Al209  1  0.67697230  0.67576667  -0.00214962  1
  Al  Al210  1  0.32627921  0.31721383  -0.00061705  1
  Al  Al211  1  0.18724452  0.68988221  -0.00441693  1
  Al  Al212  1  0.49897350  0.16925703  0.17907886  1
  Al  Al213  1  0.83058453  0.83053246  -0.00170339  1
  Al  Al214  1  0.82611850  0.50014221  0.32094532  1
  Al  Al215  1  0.82796262  0.50551062  0.67804379  1
  Al  Al216  1  0.67521202  0.83048221  -0.00167580  1
  Al  Al217  1  0.31998307  0.49773151  0.82187736  1
  Al  Al218  1  0.17404832  -0.00127174  0.81540813  1
  Al  Al219  1  0.67276562  0.50021061  0.32401479  1
  Al  Al220  1  0.00240366  0.17203049  0.67604214  1
  Al  Al221  1  0.00227539  0.32181349  0.31738742  1
  Al  Al222  1  0.31231170  0.81629115  -0.00312220  1
  Al  Al223  1  0.67445606  -0.00087828  0.17909784  1
  Al  Al224  1  0.81997737  0.00061304  0.32322912  1
  Al  Al225  1  0.68105365  0.82516672  0.50134310  1
  Al  Al226  1  0.49751841  0.68180028  0.67448933  1
  Al  Al227  1  0.67000811  -0.00094743  0.67151349  1
  Al  Al228  1  0.49603276  0.31960248  0.67181768  1
  Al  Al229  1  0.17334818  0.31919839  -0.00108385  1
  Al  Al230  1  0.17587794  0.50051774  0.17052839  1
  Al  Al231  1  0.50071879  0.17640389  0.67394898  1
  Al  Al232  1  0.49909090  0.17047010  0.82958332  1
  Al  Al233  1  0.82796161  0.32076102  0.00182678  1
  Al  Al234  1  0.82941978  0.67696954  -0.00034398  1
  Al  Al235  1  0.49693109  0.32712975  0.17630950  1
  Al  Al236  1  0.49864533  0.32625275  0.82765514  1
  Al  Al237  1  0.49811494  0.68269107  0.82755908  1
  Al  Al238  1  0.83131403  0.00157243  0.16980911  1
  Au  Au239  1  0.67710166  -0.00139918  0.16651212  1
  Au  Au240  1  0.00098448  0.66158853  0.33478833  1
  Au  Au241  1  0.00152766  0.83570545  0.16229845  1
  Au  Au242  1  0.66511471  0.49929456  0.17565868  1
  Au  Au243  1  0.00376407  0.15906489  0.32843866  1
  Au  Au244  1  0.83896555  0.32425314  -0.00321800  1
  Au  Au245  1  0.82852560  0.50107218  0.84128639  1
  Au  Au246  1  0.49247724  0.66033956  0.17150452  1
  Au  Au247  1  0.49662949  0.33147543  0.66791506  1
  Au  Au248  1  0.33609184  0.67550167  0.49840153  1
  Au  Au249  1  0.49226699  0.33123128  0.16563244  1
  Au  Au250  1  0.82756642  0.33539011  0.49999941  1
  Au  Au251  1  0.32019133  0.49884208  0.66482650  1
  Au  Au252  1  0.16583351  -0.00121661  0.16595770  1
  Au  Au253  1  -0.00292638  0.33295472  0.32124210  1
  Au  Au254  1  0.66155134  0.50237809  0.67071919  1
  Au  Au255  1  0.67338693  0.00007793  0.34307346  1
  Au  Au256  1  -0.00016932  0.66908177  0.16485390  1
  Au  Au257  1  0.17932133  0.68180561  0.00139392  1
  Au  Au258  1  0.82228941  0.16574851  0.49931190  1
  Au  Au259  1  0.32869869  0.50011353  0.83063463  1
  Au  Au260  1  0.83943134  0.49919842  0.17266957  1
  Au  Au261  1  0.82981760  0.83067749  0.49973597  1
  Au  Au262  1  0.00205353  0.67018699  0.82644912  1
  Au  Au263  1  0.49857332  0.82956584  0.67203181  1
  Au  Au264  1  0.83617993  0.50285440  0.66899286  1
  Au  Au265  1  0.82783432  0.00013089  0.67697768  1
  Au  Au266  1  0.49495864  0.82914034  0.34258747  1
  Au  Au267  1  0.32413315  -0.00247538  0.67394831  1
  Au  Au268  1  0.32106289  0.82529836  -0.00014998  1
  Au  Au269  1  0.33338168  0.00185220  0.17441142  1
  Au  Au270  1  0.49625627  0.33728879  0.33973082  1
  Au  Au271  1  0.00328186  0.83597747  0.33474004  1
  Au  Au272  1  0.00356715  0.82878822  0.67078787  1
  Au  Au273  1  0.17777420  0.00130526  0.33827016  1
  Au  Au274  1  0.66693924  0.66542161  -0.00181016  1
  Au  Au275  1  -0.00320975  0.16947190  0.84058637  1
  Au  Au276  1  0.66496629  0.33275481  -0.00215383  1
  Au  Au277  1  0.16120137  0.49370657  0.17376328  1
  Au  Au278  1  0.16825221  0.67404671  0.50186061  1
  Au  Au279  1  0.50077926  0.83208905  0.16854537  1
  Au  Au280  1  0.49980056  0.16453558  0.67047338  1
  Au  Au281  1  0.67420961  0.16293182  -0.00254584  1
  Au  Au282  1  0.00358236  0.17453822  0.66352170  1
  Au  Au283  1  0.49711667  0.16160790  0.33308723  1
  Au  Au284  1  0.17200987  0.33016307  0.50176084  1
  Au  Au285  1  0.50019123  0.17172863  0.16697184  1
  Au  Au286  1  0.32508854  0.17107666  0.49773721  1
  Au  Au287  1  0.17621145  0.16958035  0.00043219  1
