# generated using pymatgen
data_Ca24Ti8Al207Au49
_symmetry_space_group_name_H-M   'P 1'
_cell_length_a   17.32001160
_cell_length_b   17.31925942
_cell_length_c   17.31896981
_cell_angle_alpha   89.99834676
_cell_angle_beta   89.99938213
_cell_angle_gamma   89.99916798
_symmetry_Int_Tables_number   1
_chemical_formula_structural   Ca24Ti8Al207Au49
_chemical_formula_sum   'Ca24 Ti8 Al207 Au49'
_cell_volume   5195.16745847
_cell_formula_units_Z   1
loop_
 _symmetry_equiv_pos_site_id
 _symmetry_equiv_pos_as_xyz
  1  'x, y, z'
loop_
 _atom_site_type_symbol
 _atom_site_label
 _atom_site_symmetry_multiplicity
 _atom_site_fract_x
 _atom_site_fract_y
 _atom_site_fract_z
 _atom_site_occupancy
  Ca  Ca0  1  0.25216081  0.00562428  -0.00028541  1
  Ca  Ca1  1  0.25077631  0.00741178  0.50292952  1
  Ca  Ca2  1  0.25158233  0.49813852  -0.00218579  1
  Ca  Ca3  1  0.24939030  0.49917807  0.50071071  1
  Ca  Ca4  1  0.74907263  0.00382887  -0.00236176  1
  Ca  Ca5  1  0.74986865  0.00427035  0.50289724  1
  Ca  Ca6  1  0.74979842  0.49351237  -0.00423080  1
  Ca  Ca7  1  0.74972010  0.49604150  0.50294009  1
  Ca  Ca8  1  -0.00243480  0.25133904  -0.00162609  1
  Ca  Ca9  1  -0.00261031  0.24784341  0.50211231  1
  Ca  Ca10  1  0.00422060  0.74677292  0.00081320  1
  Ca  Ca11  1  -0.00545676  0.75047777  0.50270822  1
  Ca  Ca12  1  0.50180855  0.25129126  -0.00642128  1
  Ca  Ca13  1  0.50426448  0.24222767  0.50510661  1
  Ca  Ca14  1  0.49597161  0.74343838  0.00037205  1
  Ca  Ca15  1  0.50230427  0.75583131  0.49802155  1
  Ca  Ca16  1  -0.00161164  0.00579214  0.24807004  1
  Ca  Ca17  1  -0.00298793  0.00402538  0.74938833  1
  Ca  Ca18  1  0.00547713  0.49648507  0.24330738  1
  Ca  Ca19  1  -0.00323821  0.49603272  0.75469651  1
  Ca  Ca20  1  0.50144779  -0.00168363  0.24678794  1
  Ca  Ca21  1  0.50254345  0.00501955  0.74840634  1
  Ca  Ca22  1  0.49741996  0.50357731  0.24155775  1
  Ca  Ca23  1  0.50323855  0.49553779  0.75744410  1
  Ti  Ti24  1  0.25009816  0.24848530  0.24676503  1
  Ti  Ti25  1  0.25190374  0.24856451  0.75149229  1
  Ti  Ti26  1  0.25335375  0.75047461  0.24704538  1
  Ti  Ti27  1  0.25190842  0.75122145  0.75309661  1
  Ti  Ti28  1  0.75078930  0.25129788  0.24946972  1
  Ti  Ti29  1  0.74983513  0.25042633  0.74936989  1
  Ti  Ti30  1  0.74632349  0.74914563  0.24892222  1
  Ti  Ti31  1  0.74935258  0.74816768  0.75107655  1
  Al  Al32  1  0.09008575  0.09383721  0.07810584  1
  Al  Al33  1  0.07815195  0.08516332  0.58688204  1
  Al  Al34  1  0.09469710  0.57581939  0.08870223  1
  Al  Al35  1  0.07454106  0.57621150  0.58429758  1
  Al  Al36  1  0.57870756  0.08767883  0.08724574  1
  Al  Al37  1  0.58489770  0.09277658  0.59540262  1
  Al  Al38  1  0.57713300  0.59051612  0.07905415  1
  Al  Al39  1  0.58772745  0.57801466  0.58265383  1
  Al  Al40  1  0.41742848  0.42264147  0.07632707  1
  Al  Al41  1  0.42528601  0.40541405  0.59691203  1
  Al  Al42  1  0.41167104  0.90798391  0.08205041  1
  Al  Al43  1  0.41612767  0.93568527  0.58716354  1
  Al  Al44  1  0.92037033  0.40624473  0.08169930  1
  Al  Al45  1  0.90876698  0.41672710  0.58869365  1
  Al  Al46  1  0.92442300  0.92418489  0.08465478  1
  Al  Al47  1  0.90931512  0.92770499  0.59006450  1
  Al  Al48  1  0.40816405  0.08342413  0.42844343  1
  Al  Al49  1  0.41853289  0.09281696  0.91939596  1
  Al  Al50  1  0.42301372  0.57989331  0.40457503  1
  Al  Al51  1  0.41388390  0.57734171  0.92237651  1
  Al  Al52  1  0.90831710  0.09119484  0.42298435  1
  Al  Al53  1  0.90830855  0.08688636  0.91599307  1
  Al  Al54  1  0.92658630  0.58108160  0.42157593  1
  Al  Al55  1  0.91395084  0.57700365  0.91618945  1
  Al  Al56  1  0.08651024  0.41965520  0.39988444  1
  Al  Al57  1  0.07745987  0.41493410  0.92093821  1
  Al  Al58  1  0.08339913  0.92398808  0.42314942  1
  Al  Al59  1  0.08169893  0.91867866  0.91679490  1
  Al  Al60  1  0.57952688  0.42050665  0.43023972  1
  Al  Al61  1  0.59026076  0.41076892  0.90562591  1
  Al  Al62  1  0.57656214  0.91369425  0.41230840  1
  Al  Al63  1  0.58617343  0.92757684  0.90914568  1
  Al  Al64  1  0.07870194  0.08367730  0.41845958  1
  Al  Al65  1  0.09097340  0.08717033  0.91907481  1
  Al  Al66  1  0.08649151  0.57648445  0.39897641  1
  Al  Al67  1  0.08156941  0.58028614  0.92110766  1
  Al  Al68  1  0.58049425  0.07875522  0.43209831  1
  Al  Al69  1  0.58302465  0.08782916  0.90803255  1
  Al  Al70  1  0.58182955  0.59054475  0.41960784  1
  Al  Al71  1  0.58914888  0.57483194  0.91940553  1
  Al  Al72  1  0.41632275  0.42182527  0.41891814  1
  Al  Al73  1  0.41473427  0.41453134  0.90605951  1
  Al  Al74  1  0.42135594  0.92246733  0.40720579  1
  Al  Al75  1  0.41189777  0.91533312  0.92415429  1
  Al  Al76  1  0.92501130  0.41231746  0.42144443  1
  Al  Al77  1  0.91081523  0.40812008  0.91904991  1
  Al  Al78  1  0.91882362  0.93034999  0.42351338  1
  Al  Al79  1  0.91956097  0.92518340  0.90777196  1
  Al  Al80  1  0.08477077  0.41055293  0.09361366  1
  Al  Al81  1  0.07418984  0.42105275  0.58459769  1
  Al  Al82  1  0.08326064  0.91676619  0.08091413  1
  Al  Al83  1  0.08266778  0.92089654  0.58339522  1
  Al  Al84  1  0.58169995  0.41552936  0.06865795  1
  Al  Al85  1  0.58354015  0.40777811  0.59668211  1
  Al  Al86  1  0.57563243  0.92289967  0.08363741  1
  Al  Al87  1  0.58552287  0.93214371  0.58307419  1
  Al  Al88  1  0.41587242  0.09801496  0.08187263  1
  Al  Al89  1  0.40979058  0.09558471  0.59100396  1
  Al  Al90  1  0.41315374  0.59286107  0.08445807  1
  Al  Al91  1  0.42627834  0.56837340  0.58330584  1
  Al  Al92  1  0.91341771  0.08999967  0.07940517  1
  Al  Al93  1  0.90755157  0.09065248  0.58768934  1
  Al  Al94  1  0.92289385  0.57531200  0.07711224  1
  Al  Al95  1  0.91035565  0.57716094  0.59328185  1
  Al  Al96  1  0.24835763  0.13436515  0.12867878  1
  Al  Al97  1  0.25222944  0.13394094  0.63276607  1
  Al  Al98  1  0.25592549  0.63644652  0.13396780  1
  Al  Al99  1  0.25243580  0.63479480  0.63902518  1
  Al  Al100  1  0.74937190  0.13927973  0.13344577  1
  Al  Al101  1  0.75353943  0.13527481  0.63557740  1
  Al  Al102  1  0.74473790  0.63580196  0.12930552  1
  Al  Al103  1  0.75021414  0.62692444  0.63921152  1
  Al  Al104  1  0.24778401  0.36444864  0.13104424  1
  Al  Al105  1  0.25382303  0.36104775  0.63718516  1
  Al  Al106  1  0.25518205  0.86630871  0.12864066  1
  Al  Al107  1  0.25158952  0.87168628  0.63791198  1
  Al  Al108  1  0.74995710  0.36325271  0.13333483  1
  Al  Al109  1  0.74752171  0.36819124  0.63250845  1
  Al  Al110  1  0.74626500  0.86245053  0.13410899  1
  Al  Al111  1  0.75265244  0.86706888  0.63723778  1
  Al  Al112  1  0.24825874  0.13836490  0.36908029  1
  Al  Al113  1  0.25471885  0.13599632  0.86804527  1
  Al  Al114  1  0.25063668  0.63687534  0.36053148  1
  Al  Al115  1  0.25483909  0.63010958  0.86882110  1
  Al  Al116  1  0.75227384  0.13719508  0.36460007  1
  Al  Al117  1  0.74514844  0.12930663  0.86123867  1
  Al  Al118  1  0.74389393  0.63390508  0.36139617  1
  Al  Al119  1  0.74793239  0.62773905  0.86845987  1
  Al  Al120  1  0.24451931  0.36323875  0.35972289  1
  Al  Al121  1  0.25320079  0.37180874  0.86197567  1
  Al  Al122  1  0.25137615  0.86341141  0.36151394  1
  Al  Al123  1  0.25472578  0.86472032  0.87115550  1
  Al  Al124  1  0.74885073  0.36390626  0.36994506  1
  Al  Al125  1  0.75012710  0.37011954  0.86170170  1
  Al  Al126  1  0.74943270  0.86411622  0.36167436  1
  Al  Al127  1  0.74760982  0.87183174  0.86435316  1
  Al  Al128  1  0.13671785  0.25042506  0.12915654  1
  Al  Al129  1  0.13643431  0.24731616  0.63427156  1
  Al  Al130  1  0.13827993  0.74825972  0.13243097  1
  Al  Al131  1  0.13542621  0.74907805  0.63884951  1
  Al  Al132  1  0.62911725  0.24938076  0.13519158  1
  Al  Al133  1  0.63178620  0.25191399  0.64007682  1
  Al  Al134  1  0.63099930  0.74638932  0.13164181  1
  Al  Al135  1  0.63774863  0.74919453  0.63938373  1
  Al  Al136  1  0.13380314  0.25017739  0.36495734  1
  Al  Al137  1  0.13961594  0.24749468  0.87073773  1
  Al  Al138  1  0.13777175  0.74808203  0.35911715  1
  Al  Al139  1  0.13852822  0.75156718  0.86667932  1
  Al  Al140  1  0.63351749  0.24936087  0.36622457  1
  Al  Al141  1  0.63364885  0.25307930  0.86132181  1
  Al  Al142  1  0.62890111  0.75105763  0.36368957  1
  Al  Al143  1  0.63723966  0.74529375  0.86575705  1
  Al  Al144  1  0.36872529  0.24744649  0.12905987  1
  Al  Al145  1  0.36983779  0.24668071  0.63762417  1
  Al  Al146  1  0.36780745  0.74790552  0.13075933  1
  Al  Al147  1  0.36796428  0.74794395  0.63982015  1
  Al  Al148  1  0.86694631  0.25802851  0.13076220  1
  Al  Al149  1  0.86139470  0.25172944  0.63055129  1
  Al  Al150  1  0.86268801  0.74423133  0.13277721  1
  Al  Al151  1  0.86447792  0.74754862  0.63724873  1
  Al  Al152  1  0.36439697  0.24524206  0.36504091  1
  Al  Al153  1  0.36603158  0.25014197  0.86553143  1
  Al  Al154  1  0.37105726  0.74784526  0.36250794  1
  Al  Al155  1  0.36509425  0.74970676  0.86893005  1
  Al  Al156  1  0.86372538  0.25224625  0.37177153  1
  Al  Al157  1  0.86068800  0.24964320  0.86125037  1
  Al  Al158  1  0.85921870  0.74545454  0.36828582  1
  Al  Al159  1  0.85876889  0.74596418  0.86372791  1
  Al  Al160  1  0.13611002  0.13720011  0.24867922  1
  Al  Al161  1  0.13803688  0.13628286  0.75047607  1
  Al  Al162  1  0.13850256  0.63155127  0.24466407  1
  Al  Al163  1  0.13607224  0.63385261  0.75606114  1
  Al  Al164  1  0.63345404  0.13776034  0.24837021  1
  Al  Al165  1  0.63238527  0.13682078  0.74811689  1
  Al  Al166  1  0.62766118  0.63527518  0.24751088  1
  Al  Al167  1  0.63657419  0.62488779  0.75143982  1
  Al  Al168  1  0.36554389  0.13713908  0.24200935  1
  Al  Al169  1  0.36679855  0.13120663  0.74520061  1
  Al  Al170  1  0.37293363  0.63577666  0.24736114  1
  Al  Al171  1  0.36693553  0.63273347  0.75610963  1
  Al  Al172  1  0.86398100  0.14044651  0.24579573  1
  Al  Al173  1  0.86163452  0.12879269  0.75093035  1
  Al  Al174  1  0.86138022  0.63485575  0.24663491  1
  Al  Al175  1  0.86147367  0.62455055  0.75262191  1
  Al  Al176  1  0.13015471  0.36028055  0.24424503  1
  Al  Al177  1  0.13598125  0.36100414  0.75306833  1
  Al  Al178  1  0.13839400  0.86456767  0.24544039  1
  Al  Al179  1  0.13560443  0.86548739  0.74664324  1
  Al  Al180  1  0.63845103  0.36772237  0.24808441  1
  Al  Al181  1  0.63577795  0.36972846  0.75113509  1
  Al  Al182  1  0.63131640  0.86448267  0.25014364  1
  Al  Al183  1  0.63321964  0.86511897  0.75201960  1
  Al  Al184  1  0.36484941  0.36128146  0.24540107  1
  Al  Al185  1  0.37327011  0.35873190  0.75209730  1
  Al  Al186  1  0.36631390  0.86513856  0.24870597  1
  Al  Al187  1  0.36622982  0.86869484  0.74912258  1
  Al  Al188  1  0.87191524  0.36095275  0.25170425  1
  Al  Al189  1  0.86211121  0.36849846  0.74734554  1
  Al  Al190  1  0.86298429  0.86200349  0.24648599  1
  Al  Al191  1  0.86122871  0.87107280  0.75168252  1
  Al  Al192  1  0.32045731  0.32052674  -0.00004686  1
  Al  Al193  1  0.32094375  0.00364584  0.31801654  1
  Al  Al194  1  0.67075164  0.00185480  0.33029446  1
  Al  Al195  1  0.32892217  0.00159840  0.82335408  1
  Al  Al196  1  -0.00282345  0.17809830  0.32554656  1
  Al  Al197  1  0.81497599  0.19165684  -0.00230293  1
  Al  Al198  1  -0.00279327  0.67552202  0.68326550  1
  Al  Al199  1  0.82694758  0.49605171  0.17039942  1
  Al  Al200  1  -0.00066191  0.67450563  0.31433075  1
  Al  Al201  1  0.50192517  0.66819321  0.83197380  1
  Al  Al202  1  0.50071635  0.32726622  0.31721897  1
  Al  Al203  1  0.68545226  0.17825037  0.50225579  1
  Al  Al204  1  0.68185554  0.67740321  0.50197876  1
  Al  Al205  1  0.32980202  0.66909594  0.50070211  1
  Al  Al206  1  0.17463701  -0.00087081  0.81861976  1
  Al  Al207  1  -0.00095237  0.82010302  0.81879899  1
  Al  Al208  1  0.33227061  0.49593419  0.68978288  1
  Al  Al209  1  -0.00299103  0.18287996  0.68426729  1
  Al  Al210  1  0.49856130  0.18727236  0.81296622  1
  Al  Al211  1  0.50246700  0.67604911  0.67309536  1
  Al  Al212  1  0.33150921  0.83439658  0.50000239  1
  Al  Al213  1  0.49790664  0.16656312  0.32143025  1
  Al  Al214  1  0.00080313  0.18545477  0.17100098  1
  Al  Al215  1  -0.00114948  0.31612180  0.82152652  1
  Al  Al216  1  0.17202538  0.32727584  0.49986955  1
  Al  Al217  1  0.17467565  0.49866158  0.68152219  1
  Al  Al218  1  0.82656690  0.82486504  0.50020533  1
  Al  Al219  1  0.17377993  0.82367014  0.50064417  1
  Al  Al220  1  0.82424453  0.00181863  0.31755037  1
  Al  Al221  1  0.68956544  0.00145059  0.69121700  1
  Al  Al222  1  0.00061647  0.81549521  0.17521519  1
  Al  Al223  1  0.66824272  0.50134157  0.17099843  1
  Al  Al224  1  -0.00165752  0.82465212  0.33487943  1
  Al  Al225  1  0.16814879  0.66635629  0.49826210  1
  Al  Al226  1  0.17672731  0.00423968  0.17784077  1
  Al  Al227  1  0.68022858  0.00078877  0.17591022  1
  Al  Al228  1  0.49938296  0.81248691  0.18432120  1
  Al  Al229  1  0.33119662  0.31432569  0.50161437  1
  Al  Al230  1  0.66722489  0.81946096  -0.00129527  1
  Al  Al231  1  0.82678433  0.49875237  0.32958115  1
  Al  Al232  1  0.50076307  0.82450515  0.82782260  1
  Al  Al233  1  0.68890582  0.31562874  -0.00281536  1
  Al  Al234  1  0.18380250  0.67503493  0.00140393  1
  Al  Al235  1  0.66986899  0.83008455  0.50063445  1
  Al  Al236  1  0.30624687  0.49853594  0.32502670  1
  Al  Al237  1  0.83260218  0.82317014  -0.00123392  1
  Al  Al238  1  0.31791094  0.49987905  0.17132466  1
  Au  Au239  1  -0.00338553  0.84037528  0.67180726  1
  Au  Au240  1  0.66332260  0.50050701  0.33605760  1
  Au  Au241  1  0.49969973  0.32582502  0.15564363  1
  Au  Au242  1  0.49952628  0.82448061  0.17236509  1
  Au  Au243  1  0.17778606  0.83776538  -0.00152478  1
  Au  Au244  1  0.82995384  0.00140735  0.16823507  1
  Au  Au245  1  0.81896697  0.00065994  0.82271619  1
  Au  Au246  1  0.00171149  0.16741848  0.83445909  1
  Au  Au247  1  0.17408548  0.00207129  0.33483196  1
  Au  Au248  1  0.33190049  0.00342319  0.83550534  1
  Au  Au249  1  0.67086683  0.50165842  0.15834640  1
  Au  Au250  1  0.66831947  0.16747934  -0.00079819  1
  Au  Au251  1  0.82315209  0.83734613  0.49985845  1
  Au  Au252  1  0.00085389  0.66351594  0.16555563  1
  Au  Au253  1  0.67376800  0.49741970  0.67341615  1
  Au  Au254  1  0.00192604  0.32584363  0.32116843  1
  Au  Au255  1  0.32705383  0.49471588  0.67335916  1
  Au  Au256  1  0.84769932  0.82939833  -0.00204617  1
  Au  Au257  1  0.32916245  0.32931224  -0.00280989  1
  Au  Au258  1  0.50191420  0.84037816  0.66464711  1
  Au  Au259  1  0.16865756  0.34400015  0.49926234  1
  Au  Au260  1  0.84260458  0.49928684  0.32369230  1
  Au  Au261  1  0.83265311  0.32511996  0.50110409  1
  Au  Au262  1  0.00240820  0.66528299  0.67824240  1
  Au  Au263  1  0.66521327  0.83632031  -0.00122287  1
  Au  Au264  1  0.16436858  0.32329285  -0.00037614  1
  Au  Au265  1  0.16728907  0.00023030  0.17070728  1
  Au  Au266  1  0.34089224  0.00417129  0.16747955  1
  Au  Au267  1  0.17983942  0.66418270  -0.00364227  1
  Au  Au268  1  0.50200433  0.67613904  0.32388193  1
  Au  Au269  1  0.66387402  0.32356089  0.50344448  1
  Au  Au270  1  0.49761847  0.15522608  0.33346890  1
  Au  Au271  1  0.34764548  0.31974062  0.50272376  1
  Au  Au272  1  0.32353702  0.49805756  0.32293710  1
  Au  Au273  1  0.82943552  0.66001816  0.50185125  1
  Au  Au274  1  0.15180009  0.67048333  0.49555986  1
  Au  Au275  1  0.17316124  0.00253913  0.66862357  1
  Au  Au276  1  0.82913825  0.49494466  0.82707459  1
  Au  Au277  1  0.50345330  0.34138770  0.32613880  1
  Au  Au278  1  0.34537679  0.66279292  0.50082385  1
  Au  Au279  1  -0.00023791  0.83962626  0.32685291  1
  Au  Au280  1  0.32536196  0.84976022  0.49907935  1
  Au  Au281  1  0.50066649  0.66327590  0.67433201  1
  Au  Au282  1  0.82060638  0.65619981  0.00125760  1
  Au  Au283  1  0.17080908  0.16504146  0.50131432  1
  Au  Au284  1  0.49647464  0.82837791  0.83924426  1
  Au  Au285  1  0.16634388  0.49623928  0.83166276  1
  Au  Au286  1  -0.00303702  0.67334811  0.83917761  1
  Au  Au287  1  -0.00197554  0.33238068  0.67336305  1
