# generated using pymatgen
data_Ca24Ti8Al207Au49
_symmetry_space_group_name_H-M   'P 1'
_cell_length_a   17.32260772
_cell_length_b   17.32457353
_cell_length_c   17.32522363
_cell_angle_alpha   90.00257406
_cell_angle_beta   89.99934340
_cell_angle_gamma   89.99968876
_symmetry_Int_Tables_number   1
_chemical_formula_structural   Ca24Ti8Al207Au49
_chemical_formula_sum   'Ca24 Ti8 Al207 Au49'
_cell_volume   5199.41726290
_cell_formula_units_Z   1
loop_
 _symmetry_equiv_pos_site_id
 _symmetry_equiv_pos_as_xyz
  1  'x, y, z'
loop_
 _atom_site_type_symbol
 _atom_site_label
 _atom_site_symmetry_multiplicity
 _atom_site_fract_x
 _atom_site_fract_y
 _atom_site_fract_z
 _atom_site_occupancy
  Ca  Ca0  1  0.25022071  0.00072834  -0.00072672  1
  Ca  Ca1  1  0.24795971  0.00478960  0.50009942  1
  Ca  Ca2  1  0.25009037  0.49961806  -0.00572343  1
  Ca  Ca3  1  0.24615915  0.50090863  0.50761780  1
  Ca  Ca4  1  0.74188442  -0.00329718  -0.00237896  1
  Ca  Ca5  1  0.75241558  0.00065461  0.50294692  1
  Ca  Ca6  1  0.74746651  0.50261899  -0.00571593  1
  Ca  Ca7  1  0.75222961  0.50029950  0.50581493  1
  Ca  Ca8  1  0.00408081  0.24659875  -0.00379016  1
  Ca  Ca9  1  0.00083299  0.24949704  0.50553924  1
  Ca  Ca10  1  0.00373491  0.75087761  -0.00394433  1
  Ca  Ca11  1  0.00100738  0.75358463  0.50354852  1
  Ca  Ca12  1  0.49594023  0.24446143  -0.00634882  1
  Ca  Ca13  1  0.49990007  0.24652574  0.50126557  1
  Ca  Ca14  1  0.49765591  0.75021304  -0.00708243  1
  Ca  Ca15  1  0.49572853  0.75250027  0.50560594  1
  Ca  Ca16  1  -0.00486334  0.00028452  0.25289747  1
  Ca  Ca17  1  0.00207949  -0.00108041  0.74824462  1
  Ca  Ca18  1  0.00292978  0.50042590  0.25332776  1
  Ca  Ca19  1  0.00327999  0.50173875  0.74715527  1
  Ca  Ca20  1  0.50099444  0.00257029  0.24595328  1
  Ca  Ca21  1  0.49707867  -0.00067530  0.75468177  1
  Ca  Ca22  1  0.49673160  0.49640578  0.24876494  1
  Ca  Ca23  1  0.49431115  0.49870384  0.75158405  1
  Ti  Ti24  1  0.25102081  0.24859317  0.24910101  1
  Ti  Ti25  1  0.24889825  0.25002650  0.75027195  1
  Ti  Ti26  1  0.24979357  0.75060425  0.24977943  1
  Ti  Ti27  1  0.25073981  0.75076093  0.75148906  1
  Ti  Ti28  1  0.74937002  0.24621570  0.25148763  1
  Ti  Ti29  1  0.75121574  0.24941583  0.74948846  1
  Ti  Ti30  1  0.74960595  0.75357481  0.25135590  1
  Ti  Ti31  1  0.74952080  0.75180808  0.74946547  1
  Al  Al32  1  0.08805488  0.08149981  0.07236069  1
  Al  Al33  1  0.08974760  0.08775968  0.58444257  1
  Al  Al34  1  0.08564582  0.58464810  0.07039799  1
  Al  Al35  1  0.09198788  0.58790107  0.59122837  1
  Al  Al36  1  0.57629557  0.08839364  0.08946296  1
  Al  Al37  1  0.58473313  0.07478961  0.58959185  1
  Al  Al38  1  0.57820516  0.58226034  0.07391523  1
  Al  Al39  1  0.57926626  0.58309440  0.58481324  1
  Al  Al40  1  0.40982775  0.40269638  0.06582310  1
  Al  Al41  1  0.40411026  0.42136467  0.59095628  1
  Al  Al42  1  0.40876287  0.91468558  0.07466996  1
  Al  Al43  1  0.41246315  0.90961149  0.58146945  1
  Al  Al44  1  0.92923647  0.42196128  0.07560424  1
  Al  Al45  1  0.91106514  0.41658850  0.58386283  1
  Al  Al46  1  0.91508066  0.91936306  0.09320554  1
  Al  Al47  1  0.90833733  0.91588307  0.58317960  1
  Al  Al48  1  0.40737310  0.08668506  0.41868002  1
  Al  Al49  1  0.41014500  0.09192118  0.91864122  1
  Al  Al50  1  0.41044379  0.59591517  0.43394005  1
  Al  Al51  1  0.41015021  0.57952501  0.90745698  1
  Al  Al52  1  0.90783838  0.07510269  0.42095421  1
  Al  Al53  1  0.92883285  0.08353664  0.90744414  1
  Al  Al54  1  0.92750528  0.58145201  0.42797103  1
  Al  Al55  1  0.92423764  0.59270750  0.90686029  1
  Al  Al56  1  0.08004550  0.41232076  0.42722520  1
  Al  Al57  1  0.08998880  0.41623631  0.91263584  1
  Al  Al58  1  0.08207022  0.91956596  0.42183718  1
  Al  Al59  1  0.08893876  0.91913990  0.90560050  1
  Al  Al60  1  0.58371579  0.41451897  0.42767227  1
  Al  Al61  1  0.57923863  0.41962118  0.91207596  1
  Al  Al62  1  0.59359744  0.92215995  0.42078892  1
  Al  Al63  1  0.57311743  0.91451871  0.91209468  1
  Al  Al64  1  0.09253722  0.08519677  0.42664190  1
  Al  Al65  1  0.09270952  0.08615935  0.90677703  1
  Al  Al66  1  0.09073452  0.59325665  0.42849497  1
  Al  Al67  1  0.08708217  0.58764959  0.90790354  1
  Al  Al68  1  0.58596210  0.07781980  0.41248619  1
  Al  Al69  1  0.57100177  0.08481332  0.91609349  1
  Al  Al70  1  0.57625667  0.58112534  0.42918078  1
  Al  Al71  1  0.57993454  0.58097003  0.91009997  1
  Al  Al72  1  0.41689086  0.41664343  0.43093760  1
  Al  Al73  1  0.40303933  0.41452094  0.90810857  1
  Al  Al74  1  0.40403992  0.92092998  0.42640216  1
  Al  Al75  1  0.41213799  0.90783013  0.91436766  1
  Al  Al76  1  0.91937676  0.40341823  0.42740602  1
  Al  Al77  1  0.92387742  0.42296400  0.91235500  1
  Al  Al78  1  0.90156452  0.91421728  0.41911663  1
  Al  Al79  1  0.92534859  0.92053714  0.91290286  1
  Al  Al80  1  0.08862343  0.41318804  0.07718461  1
  Al  Al81  1  0.09202066  0.42272085  0.58715826  1
  Al  Al82  1  0.08092682  0.91632971  0.07911173  1
  Al  Al83  1  0.08258983  0.91887039  0.58300031  1
  Al  Al84  1  0.57138714  0.41912770  0.07077195  1
  Al  Al85  1  0.58717145  0.41422107  0.58365526  1
  Al  Al86  1  0.58179773  0.92733196  0.07693219  1
  Al  Al87  1  0.58901436  0.91706658  0.58947051  1
  Al  Al88  1  0.41400949  0.09600907  0.08218614  1
  Al  Al89  1  0.41321273  0.08751521  0.57575613  1
  Al  Al90  1  0.41812957  0.58202782  0.07081429  1
  Al  Al91  1  0.40099658  0.58673840  0.59158762  1
  Al  Al92  1  0.91464872  0.07189695  0.08998761  1
  Al  Al93  1  0.91259371  0.07964112  0.58570802  1
  Al  Al94  1  0.92980799  0.58477423  0.06502181  1
  Al  Al95  1  0.92205329  0.58330383  0.58876546  1
  Al  Al96  1  0.25512562  0.12940317  0.13290563  1
  Al  Al97  1  0.24773984  0.13713571  0.63674931  1
  Al  Al98  1  0.24991319  0.63335991  0.13436883  1
  Al  Al99  1  0.24885968  0.63654686  0.63313981  1
  Al  Al100  1  0.75024988  0.12985669  0.13836944  1
  Al  Al101  1  0.75410751  0.13655918  0.63733919  1
  Al  Al102  1  0.74487294  0.63703921  0.13586654  1
  Al  Al103  1  0.75021485  0.63817574  0.63656128  1
  Al  Al104  1  0.25278001  0.36007870  0.12670076  1
  Al  Al105  1  0.24846744  0.36416841  0.63736698  1
  Al  Al106  1  0.24813660  0.86974871  0.12885568  1
  Al  Al107  1  0.25334291  0.86317004  0.63358343  1
  Al  Al108  1  0.74551757  0.36130343  0.13747439  1
  Al  Al109  1  0.75323676  0.36314448  0.63829158  1
  Al  Al110  1  0.75134140  0.87418916  0.13607842  1
  Al  Al111  1  0.75165026  0.86442848  0.62941790  1
  Al  Al112  1  0.25196761  0.13472961  0.36593932  1
  Al  Al113  1  0.25105474  0.13175226  0.86268823  1
  Al  Al114  1  0.24971237  0.63641726  0.37099323  1
  Al  Al115  1  0.25360739  0.63452535  0.86558406  1
  Al  Al116  1  0.75261817  0.13313603  0.36500664  1
  Al  Al117  1  0.75131061  0.13496733  0.85914727  1
  Al  Al118  1  0.75065054  0.63558576  0.36578789  1
  Al  Al119  1  0.74876780  0.63853910  0.86257451  1
  Al  Al120  1  0.25134592  0.36505400  0.36754692  1
  Al  Al121  1  0.25185357  0.36357766  0.86825721  1
  Al  Al122  1  0.25301242  0.86604463  0.36767422  1
  Al  Al123  1  0.25051148  0.86651786  0.86921864  1
  Al  Al124  1  0.75036456  0.36407907  0.36522645  1
  Al  Al125  1  0.75144361  0.35994674  0.85917073  1
  Al  Al126  1  0.75192700  0.86669899  0.37308593  1
  Al  Al127  1  0.74760509  0.86633465  0.86586785  1
  Al  Al128  1  0.13611885  0.25333067  0.13269914  1
  Al  Al129  1  0.12892346  0.24676605  0.63760020  1
  Al  Al130  1  0.13705849  0.75406795  0.13457852  1
  Al  Al131  1  0.13654053  0.74781023  0.63229523  1
  Al  Al132  1  0.63447798  0.24493104  0.13526960  1
  Al  Al133  1  0.63479048  0.24916267  0.63559655  1
  Al  Al134  1  0.63817244  0.75282957  0.12805146  1
  Al  Al135  1  0.63382730  0.75529534  0.63602740  1
  Al  Al136  1  0.13848484  0.24575921  0.36562256  1
  Al  Al137  1  0.13286616  0.25065617  0.86398895  1
  Al  Al138  1  0.13604169  0.74763543  0.36773433  1
  Al  Al139  1  0.13640513  0.75006928  0.86275299  1
  Al  Al140  1  0.63478881  0.24460973  0.36590084  1
  Al  Al141  1  0.62882324  0.25083405  0.86309024  1
  Al  Al142  1  0.63515746  0.75584220  0.36562474  1
  Al  Al143  1  0.62894727  0.75033029  0.86544836  1
  Al  Al144  1  0.36428492  0.24493607  0.12910559  1
  Al  Al145  1  0.36289994  0.24871548  0.63253881  1
  Al  Al146  1  0.36061361  0.75089776  0.12572087  1
  Al  Al147  1  0.36255271  0.74852981  0.63486502  1
  Al  Al148  1  0.86629678  0.25021400  0.13972381  1
  Al  Al149  1  0.87275278  0.25178146  0.63753076  1
  Al  Al150  1  0.86270172  0.75594994  0.13547673  1
  Al  Al151  1  0.86628527  0.75503755  0.63428288  1
  Al  Al152  1  0.36289265  0.24691693  0.37374996  1
  Al  Al153  1  0.36405265  0.25044021  0.86773673  1
  Al  Al154  1  0.36263042  0.75001721  0.37073479  1
  Al  Al155  1  0.36732406  0.75145770  0.86777809  1
  Al  Al156  1  0.86407982  0.25039989  0.36487251  1
  Al  Al157  1  0.87287757  0.24649136  0.86128651  1
  Al  Al158  1  0.86669702  0.75593212  0.36798373  1
  Al  Al159  1  0.86530428  0.75221738  0.86471739  1
  Al  Al160  1  0.13938888  0.13470699  0.24245263  1
  Al  Al161  1  0.13053796  0.13553755  0.75372550  1
  Al  Al162  1  0.14004209  0.63090695  0.25337716  1
  Al  Al163  1  0.13794977  0.63346648  0.74855563  1
  Al  Al164  1  0.62967705  0.13403877  0.24898938  1
  Al  Al165  1  0.63038520  0.13682493  0.75348243  1
  Al  Al166  1  0.63397915  0.63791338  0.25228811  1
  Al  Al167  1  0.63340865  0.63636099  0.75075945  1
  Al  Al168  1  0.36982630  0.13969011  0.24921859  1
  Al  Al169  1  0.36831272  0.13517162  0.75651451  1
  Al  Al170  1  0.36481780  0.64061329  0.25097701  1
  Al  Al171  1  0.36354085  0.63590475  0.75281844  1
  Al  Al172  1  0.86477198  0.12917619  0.25032163  1
  Al  Al173  1  0.87148463  0.13378677  0.74633925  1
  Al  Al174  1  0.86322029  0.63972476  0.25257585  1
  Al  Al175  1  0.86689332  0.63794997  0.75182583  1
  Al  Al176  1  0.14287000  0.36876993  0.24879158  1
  Al  Al177  1  0.13055903  0.36396924  0.74873536  1
  Al  Al178  1  0.13838258  0.86411433  0.25186239  1
  Al  Al179  1  0.13787295  0.86324256  0.74973900  1
  Al  Al180  1  0.63503869  0.36275724  0.25522506  1
  Al  Al181  1  0.62844237  0.36288963  0.74899115  1
  Al  Al182  1  0.63439513  0.86630008  0.24535102  1
  Al  Al183  1  0.63433237  0.86557904  0.75263288  1
  Al  Al184  1  0.36394691  0.35938277  0.24885038  1
  Al  Al185  1  0.36764266  0.36213242  0.75194939  1
  Al  Al186  1  0.36032014  0.86305969  0.24364819  1
  Al  Al187  1  0.36451417  0.86715349  0.75663365  1
  Al  Al188  1  0.86328102  0.36521269  0.25033148  1
  Al  Al189  1  0.87312063  0.36465484  0.75127516  1
  Al  Al190  1  0.86007226  0.87153499  0.25476967  1
  Al  Al191  1  0.86378890  0.86943152  0.74456050  1
  Al  Al192  1  0.82953157  0.16596657  -0.00095189  1
  Al  Al193  1  0.67150914  0.16798358  0.50205278  1
  Al  Al194  1  0.68281343  0.49786626  0.81695541  1
  Al  Al195  1  0.32663732  0.00166492  0.67579323  1
  Al  Al196  1  0.66715074  0.49773736  0.17980430  1
  Al  Al197  1  0.18901536  0.17946775  -0.00219150  1
  Al  Al198  1  0.49989771  0.17386641  0.67659809  1
  Al  Al199  1  0.82861991  0.32748403  -0.00064009  1
  Al  Al200  1  -0.00030195  0.82576958  0.18221986  1
  Al  Al201  1  0.00190772  0.67969580  0.32587118  1
  Al  Al202  1  0.00157607  0.68240156  0.68760898  1
  Al  Al203  1  0.83056605  0.50528453  0.16641701  1
  Al  Al204  1  0.18576011  0.81522600  0.49986613  1
  Al  Al205  1  0.17279163  -0.00015210  0.68393694  1
  Al  Al206  1  0.49946367  0.67221577  0.32374389  1
  Al  Al207  1  0.49841452  0.31785238  0.32934528  1
  Al  Al208  1  0.81926549  0.50078605  0.68134225  1
  Al  Al209  1  0.69522505  0.00021123  0.68511412  1
  Al  Al210  1  -0.00068826  0.16659908  0.33161041  1
  Al  Al211  1  0.00225338  0.67345075  0.17004350  1
  Al  Al212  1  0.49941279  0.31468378  0.16873137  1
  Al  Al213  1  0.32363199  0.49475200  0.16918622  1
  Al  Al214  1  0.82839656  0.49784683  0.33326903  1
  Al  Al215  1  0.49768033  0.82390781  0.16730575  1
  Al  Al216  1  0.82764377  0.83012706  0.00255050  1
  Al  Al217  1  0.69005115  0.32005270  0.50138593  1
  Al  Al218  1  0.67064998  0.17166305  -0.00197890  1
  Al  Al219  1  0.67433910  0.68086299  0.50134467  1
  Al  Al220  1  0.17862919  0.31399441  0.50295445  1
  Al  Al221  1  0.82880944  0.68051583  0.50204999  1
  Al  Al222  1  0.18163483  0.68460064  -0.00171608  1
  Al  Al223  1  0.32565098  0.00081051  0.31796169  1
  Al  Al224  1  0.82391931  0.18601978  0.50222273  1
  Al  Al225  1  0.82231905  0.67425193  -0.00040408  1
  Al  Al226  1  0.49790394  0.82846965  0.68303981  1
  Al  Al227  1  0.82246314  0.00140607  0.81844403  1
  Al  Al228  1  0.30554877  0.49993525  0.69433031  1
  Al  Al229  1  0.00071536  0.81338206  0.81649786  1
  Al  Al230  1  0.49765422  0.67557168  0.67819378  1
  Al  Al231  1  0.00332408  0.32375219  0.32064867  1
  Al  Al232  1  0.68978525  -0.00078494  0.31743703  1
  Al  Al233  1  0.32513518  0.50376916  0.33193207  1
  Al  Al234  1  0.67103828  0.32521444  -0.00226248  1
  Al  Al235  1  -0.00004311  0.17526986  0.17035154  1
  Al  Al236  1  0.19143646  0.49803520  0.81006323  1
  Al  Al237  1  0.49472128  0.83184156  0.32858481  1
  Al  Al238  1  0.17302888  0.00079922  0.32310067  1
  Au  Au239  1  0.49880907  0.15787880  0.32747925  1
  Au  Au240  1  0.50013263  0.66769576  0.33553397  1
  Au  Au241  1  0.00209085  0.33738474  0.66700804  1
  Au  Au242  1  -0.00134632  0.83179481  0.66960534  1
  Au  Au243  1  0.00274904  0.33718106  0.17270408  1
  Au  Au244  1  -0.00136375  0.17048490  0.34372023  1
  Au  Au245  1  0.49749857  0.67237243  0.82675666  1
  Au  Au246  1  0.16094458  0.50445863  0.16647790  1
  Au  Au247  1  0.00031833  0.16184340  0.67330497  1
  Au  Au248  1  0.49746412  0.66879374  0.16282828  1
  Au  Au249  1  0.82252689  0.34325559  -0.00106004  1
  Au  Au250  1  0.83606351  0.49574858  0.34745894  1
  Au  Au251  1  0.32550944  0.32316727  0.50458026  1
  Au  Au252  1  0.66358054  0.50259045  0.34205503  1
  Au  Au253  1  0.32301793  0.00132100  0.66352322  1
  Au  Au254  1  0.17932514  0.32626156  -0.00247076  1
  Au  Au255  1  0.65833590  0.00251460  0.82828879  1
  Au  Au256  1  0.67413478  0.00338412  0.17026178  1
  Au  Au257  1  0.49894934  0.33411632  0.33510117  1
  Au  Au258  1  0.00121262  0.66771986  0.33022746  1
  Au  Au259  1  0.17764880  0.83035659  0.50008761  1
  Au  Au260  1  0.82489460  0.14978219  -0.00145684  1
  Au  Au261  1  0.49470361  0.16294327  0.67249900  1
  Au  Au262  1  0.83849361  0.83383229  -0.00250987  1
  Au  Au263  1  0.16227279  -0.00213018  0.17330668  1
  Au  Au264  1  0.33503156  0.49343669  0.15686981  1
  Au  Au265  1  0.83362262  0.50564453  0.82897654  1
  Au  Au266  1  0.00172128  0.32299017  0.83561456  1
  Au  Au267  1  0.17819917  0.50091240  0.81998863  1
  Au  Au268  1  0.84482949  0.51414032  0.16313153  1
  Au  Au269  1  0.66292305  0.83171019  -0.00352602  1
  Au  Au270  1  0.33750786  0.00340211  0.16848160  1
  Au  Au271  1  0.16079057  0.49768718  0.34095758  1
  Au  Au272  1  0.32546908  0.00006492  0.83963470  1
  Au  Au273  1  0.50195502  0.83519894  0.16371826  1
  Au  Au274  1  0.49742688  0.33554107  0.66793826  1
  Au  Au275  1  0.66149865  0.49438997  0.16399012  1
  Au  Au276  1  0.17166370  0.83378758  -0.00360690  1
  Au  Au277  1  0.49618242  0.32479427  0.83731246  1
  Au  Au278  1  0.49775946  0.31740601  0.15220834  1
  Au  Au279  1  0.66934208  0.50203472  0.66866020  1
  Au  Au280  1  -0.00430967  0.84318388  0.32995725  1
  Au  Au281  1  -0.00237254  0.16351072  0.16717129  1
  Au  Au282  1  0.67288505  0.66265055  -0.00527996  1
  Au  Au283  1  0.49527153  0.84380158  0.34132708  1
  Au  Au284  1  0.83471434  0.00126792  0.81413276  1
  Au  Au285  1  0.33191852  0.50503573  0.34673828  1
  Au  Au286  1  0.32926447  0.67316187  -0.00445040  1
  Au  Au287  1  0.67565910  0.82955052  0.50206231  1
