# generated using pymatgen
data_Ca24Ti8Al207Au49
_symmetry_space_group_name_H-M   'P 1'
_cell_length_a   17.32180821
_cell_length_b   17.32102558
_cell_length_c   17.32060676
_cell_angle_alpha   90.00256479
_cell_angle_beta   90.00085525
_cell_angle_gamma   89.99545786
_symmetry_Int_Tables_number   1
_chemical_formula_structural   Ca24Ti8Al207Au49
_chemical_formula_sum   'Ca24 Ti8 Al207 Au49'
_cell_volume   5196.72731376
_cell_formula_units_Z   1
loop_
 _symmetry_equiv_pos_site_id
 _symmetry_equiv_pos_as_xyz
  1  'x, y, z'
loop_
 _atom_site_type_symbol
 _atom_site_label
 _atom_site_symmetry_multiplicity
 _atom_site_fract_x
 _atom_site_fract_y
 _atom_site_fract_z
 _atom_site_occupancy
  Ca  Ca0  1  0.25009712  0.00163246  0.00050016  1
  Ca  Ca1  1  0.24987563  -0.00415346  0.49642235  1
  Ca  Ca2  1  0.24905946  0.49825864  -0.00022852  1
  Ca  Ca3  1  0.24954328  0.50188578  0.49852174  1
  Ca  Ca4  1  0.74434752  0.00188167  -0.00047727  1
  Ca  Ca5  1  0.74942917  0.00286945  0.49544209  1
  Ca  Ca6  1  0.74247593  0.49703055  -0.00296069  1
  Ca  Ca7  1  0.74839269  0.49683723  0.50257721  1
  Ca  Ca8  1  0.00015242  0.25433985  -0.00229773  1
  Ca  Ca9  1  -0.00274598  0.24385586  0.50020294  1
  Ca  Ca10  1  -0.00330227  0.75075378  0.00093572  1
  Ca  Ca11  1  0.00543934  0.75065502  0.49936430  1
  Ca  Ca12  1  0.50005557  0.25407120  -0.00308468  1
  Ca  Ca13  1  0.50570970  0.24631744  0.50173294  1
  Ca  Ca14  1  0.50712322  0.74970686  0.00122260  1
  Ca  Ca15  1  0.49994637  0.74935239  0.49469083  1
  Ca  Ca16  1  -0.00009657  0.00120579  0.25229406  1
  Ca  Ca17  1  -0.00398266  -0.00086301  0.74966373  1
  Ca  Ca18  1  0.00267120  0.49963966  0.24849998  1
  Ca  Ca19  1  0.00244298  0.49776010  0.75355184  1
  Ca  Ca20  1  0.50093278  0.00246853  0.25222701  1
  Ca  Ca21  1  0.50251264  -0.00069298  0.75541427  1
  Ca  Ca22  1  0.50178532  0.49862739  0.25000582  1
  Ca  Ca23  1  0.50024212  0.50048738  0.75646127  1
  Ti  Ti24  1  0.24964831  0.25244786  0.25004821  1
  Ti  Ti25  1  0.25058044  0.25164564  0.75132316  1
  Ti  Ti26  1  0.24850270  0.74818226  0.24940432  1
  Ti  Ti27  1  0.24985707  0.74875428  0.75094661  1
  Ti  Ti28  1  0.74787270  0.25044281  0.25093628  1
  Ti  Ti29  1  0.74959176  0.24919149  0.75015370  1
  Ti  Ti30  1  0.74767253  0.75001018  0.24924144  1
  Ti  Ti31  1  0.74948224  0.75061624  0.75232848  1
  Al  Al32  1  0.08157746  0.08373427  0.08048546  1
  Al  Al33  1  0.07451103  0.07919702  0.57928753  1
  Al  Al34  1  0.08706728  0.57619458  0.09222137  1
  Al  Al35  1  0.08874271  0.58914239  0.58210746  1
  Al  Al36  1  0.58144881  0.08538611  0.08283798  1
  Al  Al37  1  0.58436398  0.08259410  0.58128781  1
  Al  Al38  1  0.58762762  0.58868608  0.07906149  1
  Al  Al39  1  0.57741005  0.57706239  0.58654910  1
  Al  Al40  1  0.41756543  0.41893564  0.07552087  1
  Al  Al41  1  0.42281342  0.42321866  0.59139868  1
  Al  Al42  1  0.42206450  0.92045118  0.08163322  1
  Al  Al43  1  0.42288778  0.91773203  0.57658943  1
  Al  Al44  1  0.92436545  0.42190082  0.07871972  1
  Al  Al45  1  0.91711798  0.41423997  0.58488108  1
  Al  Al46  1  0.92333929  0.91379414  0.09052134  1
  Al  Al47  1  0.91843098  0.91986587  0.57620430  1
  Al  Al48  1  0.42717746  0.08840384  0.41462614  1
  Al  Al49  1  0.43024549  0.09411096  0.91562869  1
  Al  Al50  1  0.40645453  0.58542372  0.41517302  1
  Al  Al51  1  0.41760846  0.57231508  0.91011870  1
  Al  Al52  1  0.90646728  0.08579895  0.41280672  1
  Al  Al53  1  0.91712013  0.08441610  0.91210911  1
  Al  Al54  1  0.92161702  0.57522520  0.41569506  1
  Al  Al55  1  0.91454457  0.57644323  0.91553832  1
  Al  Al56  1  0.07876712  0.42788153  0.41524695  1
  Al  Al57  1  0.08705275  0.40766859  0.91762035  1
  Al  Al58  1  0.09081015  0.92013765  0.41101390  1
  Al  Al59  1  0.08538782  0.90843713  0.92747001  1
  Al  Al60  1  0.58664004  0.41809710  0.41065360  1
  Al  Al61  1  0.58497858  0.40928445  0.90950734  1
  Al  Al62  1  0.58817807  0.92006469  0.40127578  1
  Al  Al63  1  0.59387795  0.91407188  0.91485567  1
  Al  Al64  1  0.08022615  0.07891167  0.41082876  1
  Al  Al65  1  0.07800302  0.08735208  0.91788107  1
  Al  Al66  1  0.09504427  0.58968703  0.41989925  1
  Al  Al67  1  0.07899128  0.57419764  0.92009975  1
  Al  Al68  1  0.58980500  0.08386157  0.40292270  1
  Al  Al69  1  0.58856417  0.08548753  0.90556568  1
  Al  Al70  1  0.58373902  0.57709644  0.40891577  1
  Al  Al71  1  0.59206073  0.58157339  0.91601681  1
  Al  Al72  1  0.41851793  0.42508818  0.40627505  1
  Al  Al73  1  0.41671141  0.41016506  0.90740496  1
  Al  Al74  1  0.42755595  0.91268054  0.41124159  1
  Al  Al75  1  0.42670206  0.91750952  0.92224124  1
  Al  Al76  1  0.91378624  0.41746699  0.41711427  1
  Al  Al77  1  0.92248576  0.41296940  0.90792382  1
  Al  Al78  1  0.91040144  0.92336303  0.41223511  1
  Al  Al79  1  0.91791821  0.92168105  0.91893534  1
  Al  Al80  1  0.09347143  0.41374520  0.08265138  1
  Al  Al81  1  0.07510151  0.42555928  0.58754454  1
  Al  Al82  1  0.08428896  0.90117350  0.08680796  1
  Al  Al83  1  0.08061546  0.91755993  0.57739354  1
  Al  Al84  1  0.58690647  0.41688265  0.07213674  1
  Al  Al85  1  0.58171006  0.41637235  0.58840733  1
  Al  Al86  1  0.59037765  0.91069094  0.07700771  1
  Al  Al87  1  0.58177119  0.91939689  0.57985029  1
  Al  Al88  1  0.42309185  0.08340225  0.08391478  1
  Al  Al89  1  0.42412685  0.08543934  0.57667165  1
  Al  Al90  1  0.42638082  0.57626131  0.08427901  1
  Al  Al91  1  0.40928299  0.58601052  0.57970024  1
  Al  Al92  1  0.92017776  0.07869140  0.08365111  1
  Al  Al93  1  0.91249370  0.09045404  0.57440405  1
  Al  Al94  1  0.92022251  0.58139972  0.08196513  1
  Al  Al95  1  0.92829015  0.57518179  0.58604885  1
  Al  Al96  1  0.24918357  0.13563654  0.13692595  1
  Al  Al97  1  0.24913791  0.13855801  0.63801424  1
  Al  Al98  1  0.24560775  0.63255811  0.13541254  1
  Al  Al99  1  0.25138214  0.63429742  0.63687502  1
  Al  Al100  1  0.74643915  0.13396354  0.13057341  1
  Al  Al101  1  0.75043315  0.13669443  0.62911085  1
  Al  Al102  1  0.74452001  0.63476530  0.13506258  1
  Al  Al103  1  0.74684954  0.63401786  0.64061279  1
  Al  Al104  1  0.24561145  0.36883962  0.13364887  1
  Al  Al105  1  0.25400573  0.36579055  0.63645210  1
  Al  Al106  1  0.24479717  0.86050167  0.12956434  1
  Al  Al107  1  0.24960092  0.86227008  0.63413157  1
  Al  Al108  1  0.74341756  0.36592761  0.13234830  1
  Al  Al109  1  0.74817528  0.36371911  0.63321800  1
  Al  Al110  1  0.74388559  0.86684822  0.13645589  1
  Al  Al111  1  0.74711791  0.86710939  0.63691543  1
  Al  Al112  1  0.24489998  0.13540437  0.36373018  1
  Al  Al113  1  0.25129090  0.13891575  0.86456239  1
  Al  Al114  1  0.24836133  0.62946284  0.36028520  1
  Al  Al115  1  0.25186839  0.63467885  0.86727444  1
  Al  Al116  1  0.74930903  0.13434457  0.36876588  1
  Al  Al117  1  0.74832294  0.13414664  0.86999102  1
  Al  Al118  1  0.74438592  0.63591834  0.36307263  1
  Al  Al119  1  0.74615472  0.62829885  0.86364949  1
  Al  Al120  1  0.24927152  0.37207164  0.36369342  1
  Al  Al121  1  0.24957806  0.36302186  0.86644095  1
  Al  Al122  1  0.24694167  0.86421244  0.36234852  1
  Al  Al123  1  0.24894665  0.86220417  0.86946629  1
  Al  Al124  1  0.74744981  0.36111571  0.37209494  1
  Al  Al125  1  0.74657877  0.36791252  0.86697945  1
  Al  Al126  1  0.74638501  0.86728076  0.36101316  1
  Al  Al127  1  0.74778654  0.86998451  0.86691482  1
  Al  Al128  1  0.13564243  0.25244154  0.13652549  1
  Al  Al129  1  0.13414290  0.25021090  0.63561525  1
  Al  Al130  1  0.12804242  0.75018048  0.13691160  1
  Al  Al131  1  0.13623516  0.74611238  0.63238657  1
  Al  Al132  1  0.63578899  0.24775397  0.13193647  1
  Al  Al133  1  0.63555082  0.24953799  0.63325946  1
  Al  Al134  1  0.63358161  0.75189149  0.13568976  1
  Al  Al135  1  0.63597988  0.74690131  0.63479175  1
  Al  Al136  1  0.13644948  0.25203114  0.36443460  1
  Al  Al137  1  0.12795239  0.25526992  0.86502310  1
  Al  Al138  1  0.13268926  0.74434050  0.36622521  1
  Al  Al139  1  0.13109732  0.75212791  0.86528974  1
  Al  Al140  1  0.63257797  0.24571173  0.36898513  1
  Al  Al141  1  0.63517232  0.25048048  0.86930528  1
  Al  Al142  1  0.62812737  0.75222048  0.36238582  1
  Al  Al143  1  0.64008390  0.74907634  0.87145380  1
  Al  Al144  1  0.36368332  0.25222913  0.13690193  1
  Al  Al145  1  0.36580316  0.25020542  0.63997141  1
  Al  Al146  1  0.36322029  0.75216555  0.13575480  1
  Al  Al147  1  0.36431866  0.74816815  0.63680589  1
  Al  Al148  1  0.86255176  0.24641364  0.13435797  1
  Al  Al149  1  0.86346576  0.25105321  0.63276853  1
  Al  Al150  1  0.86812381  0.75193284  0.13565756  1
  Al  Al151  1  0.86360149  0.75466824  0.64019494  1
  Al  Al152  1  0.36665670  0.24770389  0.36265166  1
  Al  Al153  1  0.37118355  0.25371387  0.86308526  1
  Al  Al154  1  0.36698835  0.74783857  0.36196223  1
  Al  Al155  1  0.36528288  0.74900871  0.86551256  1
  Al  Al156  1  0.86129032  0.24761492  0.37237839  1
  Al  Al157  1  0.86647642  0.24896139  0.86583808  1
  Al  Al158  1  0.86360475  0.75071676  0.36228482  1
  Al  Al159  1  0.86641168  0.75167178  0.86626560  1
  Al  Al160  1  0.13482616  0.13420962  0.24907052  1
  Al  Al161  1  0.13422172  0.13680616  0.75561816  1
  Al  Al162  1  0.13178876  0.63049342  0.24903021  1
  Al  Al163  1  0.13621995  0.63498472  0.75393370  1
  Al  Al164  1  0.63935626  0.13056328  0.25279719  1
  Al  Al165  1  0.63537584  0.13395436  0.75601590  1
  Al  Al166  1  0.63453975  0.63139468  0.25042277  1
  Al  Al167  1  0.62838852  0.63710313  0.75526877  1
  Al  Al168  1  0.36416335  0.13583153  0.25225415  1
  Al  Al169  1  0.36814222  0.13545806  0.75716171  1
  Al  Al170  1  0.36404592  0.63150781  0.25368270  1
  Al  Al171  1  0.36776446  0.63071089  0.75139833  1
  Al  Al172  1  0.85955722  0.13375040  0.25415316  1
  Al  Al173  1  0.86016952  0.12982504  0.75358688  1
  Al  Al174  1  0.86863190  0.63628470  0.24702923  1
  Al  Al175  1  0.86436046  0.63468779  0.75562203  1
  Al  Al176  1  0.13629427  0.37280592  0.24872845  1
  Al  Al177  1  0.13513804  0.36561607  0.75313370  1
  Al  Al178  1  0.13189020  0.86136154  0.25012949  1
  Al  Al179  1  0.12925185  0.86022833  0.74870350  1
  Al  Al180  1  0.63779108  0.36875559  0.25360929  1
  Al  Al181  1  0.63319499  0.36281697  0.75740429  1
  Al  Al182  1  0.63223079  0.87099741  0.25196834  1
  Al  Al183  1  0.63535695  0.86743498  0.75580704  1
  Al  Al184  1  0.36435251  0.36720172  0.25247001  1
  Al  Al185  1  0.36435782  0.37328584  0.75530409  1
  Al  Al186  1  0.36529683  0.86400214  0.25244519  1
  Al  Al187  1  0.36334611  0.86628235  0.75395238  1
  Al  Al188  1  0.86045348  0.36100124  0.25092705  1
  Al  Al189  1  0.86167980  0.36333738  0.75405577  1
  Al  Al190  1  0.86427591  0.86445977  0.25011542  1
  Al  Al191  1  0.86566811  0.87013624  0.75469262  1
  Al  Al192  1  0.31679998  0.49997526  0.18246453  1
  Al  Al193  1  -0.00177260  0.82620643  0.32629467  1
  Al  Al194  1  0.50100048  0.17711637  0.18880522  1
  Al  Al195  1  0.17204534  -0.00002305  0.67434294  1
  Al  Al196  1  0.00037957  0.68004037  0.68043620  1
  Al  Al197  1  0.16888538  0.68475297  0.00055434  1
  Al  Al198  1  0.17341676  0.19169489  -0.00094424  1
  Al  Al199  1  0.49974634  0.32496060  0.68893422  1
  Al  Al200  1  0.66747951  0.67550222  0.49929523  1
  Al  Al201  1  0.50033350  0.82334930  0.67502969  1
  Al  Al202  1  0.18251107  0.49867206  0.82952046  1
  Al  Al203  1  0.81301118  0.82702439  0.00247292  1
  Al  Al204  1  0.30489305  0.68140461  0.49743920  1
  Al  Al205  1  0.31813292  0.00167389  0.33277787  1
  Al  Al206  1  0.49989406  0.82821026  0.18118558  1
  Al  Al207  1  0.50260155  0.81922998  0.82857036  1
  Al  Al208  1  0.83079882  0.66898178  0.50374660  1
  Al  Al209  1  -0.00117994  0.32805875  0.32653572  1
  Al  Al210  1  0.32191277  0.17524366  0.49941562  1
  Al  Al211  1  0.50115725  0.31520742  0.32119143  1
  Al  Al212  1  0.82087470  0.49806044  0.17438693  1
  Al  Al213  1  0.50136993  0.17306014  0.68287695  1
  Al  Al214  1  0.33162069  0.67770025  0.00154253  1
  Al  Al215  1  0.16852738  -0.00277403  0.18353488  1
  Al  Al216  1  -0.00260040  0.17314679  0.67901503  1
  Al  Al217  1  0.81404772  0.49947577  0.32869609  1
  Al  Al218  1  0.49951830  0.67366490  0.18215720  1
  Al  Al219  1  0.17968579  0.50052266  0.67592655  1
  Al  Al220  1  0.32488091  -0.00061449  0.17507999  1
  Al  Al221  1  0.50178186  0.32799555  0.16574725  1
  Al  Al222  1  0.33237579  0.32976923  0.49809598  1
  Al  Al223  1  -0.00122018  0.32607411  0.68719272  1
  Al  Al224  1  0.18062943  0.81800631  0.50125877  1
  Al  Al225  1  0.17699123  -0.00226115  0.83054764  1
  Al  Al226  1  0.33065623  0.17476437  0.00084843  1
  Al  Al227  1  0.81171272  0.67334162  -0.00040306  1
  Al  Al228  1  -0.00009250  0.32305209  0.17366877  1
  Al  Al229  1  0.16736402  0.32642732  0.50160475  1
  Al  Al230  1  0.81993441  -0.00008395  0.18442834  1
  Al  Al231  1  0.82606494  0.49991907  0.67756237  1
  Al  Al232  1  0.67825116  0.00069862  0.67908817  1
  Al  Al233  1  0.67274838  0.49878398  0.68845196  1
  Al  Al234  1  0.31763211  0.32663507  0.00026436  1
  Al  Al235  1  0.81934282  0.32453522  0.00035467  1
  Al  Al236  1  0.33131767  0.00189746  0.67331105  1
  Al  Al237  1  -0.00224955  0.17501494  0.32007055  1
  Al  Al238  1  0.81863146  0.82704703  0.49814672  1
  Au  Au239  1  0.00063983  0.83867253  0.32514213  1
  Au  Au240  1  -0.00150254  0.17430066  0.16963408  1
  Au  Au241  1  0.33511588  0.00173829  0.33249495  1
  Au  Au242  1  0.82590555  0.83797608  0.00441186  1
  Au  Au243  1  0.34804880  0.32973561  0.50227294  1
  Au  Au244  1  0.66835295  0.33526617  0.50213957  1
  Au  Au245  1  0.66579639  -0.00120026  0.67980363  1
  Au  Au246  1  0.49721224  0.66781333  0.33161028  1
  Au  Au247  1  0.66996189  0.66324733  0.50059702  1
  Au  Au248  1  0.15209958  0.33169060  0.50178722  1
  Au  Au249  1  0.49671908  0.67431013  0.66237938  1
  Au  Au250  1  -0.00234102  0.82910995  0.66388519  1
  Au  Au251  1  0.66271635  0.00088151  0.17366651  1
  Au  Au252  1  0.66945906  0.84020756  0.49420599  1
  Au  Au253  1  0.16953144  -0.00593486  0.16669263  1
  Au  Au254  1  0.17271698  0.15416284  0.49881978  1
  Au  Au255  1  0.17403576  0.50075445  0.32789096  1
  Au  Au256  1  0.32624849  0.00238241  0.65712613  1
  Au  Au257  1  0.34385271  0.82302340  0.49588808  1
  Au  Au258  1  0.82873738  0.16146350  0.00130997  1
  Au  Au259  1  0.50281559  0.66873372  0.83656079  1
  Au  Au260  1  -0.00100602  0.82868361  0.83755803  1
  Au  Au261  1  0.50113248  0.32720651  0.32587537  1
  Au  Au262  1  -0.00230461  0.17932866  0.82724338  1
  Au  Au263  1  0.83651298  -0.00170271  0.18128055  1
  Au  Au264  1  0.83280880  0.00343373  0.66276165  1
  Au  Au265  1  0.84660811  0.67459108  0.50510642  1
  Au  Au266  1  0.16260297  0.66906020  0.00099643  1
  Au  Au267  1  0.00158537  0.66358123  0.33110125  1
  Au  Au268  1  0.34211758  0.66527776  0.00110152  1
  Au  Au269  1  0.17777174  0.17499983  -0.00119242  1
  Au  Au270  1  0.82084167  0.65886398  -0.00051073  1
  Au  Au271  1  0.83320049  0.49779624  0.17814503  1
  Au  Au272  1  0.34252517  0.00412884  0.83927866  1
  Au  Au273  1  0.16066339  -0.00681638  0.82972876  1
  Au  Au274  1  0.66263472  0.49932855  0.17078012  1
  Au  Au275  1  -0.00056609  0.67407014  0.16481670  1
  Au  Au276  1  0.17169190  0.82671644  0.49836540  1
  Au  Au277  1  0.82480230  0.49632075  0.82526442  1
  Au  Au278  1  0.32865957  0.50166146  0.67661158  1
  Au  Au279  1  0.82267085  0.00036948  0.83267654  1
  Au  Au280  1  0.50107692  0.83090705  0.16875859  1
  Au  Au281  1  0.33052015  0.49817978  0.17221245  1
  Au  Au282  1  0.83739152  0.32371948  0.50198149  1
  Au  Au283  1  0.00053128  0.66041574  0.82735040  1
  Au  Au284  1  0.83209129  0.33545682  -0.00047335  1
  Au  Au285  1  0.67212714  0.16381643  0.49732180  1
  Au  Au286  1  0.65960048  0.17556430  -0.00212589  1
  Au  Au287  1  0.32476953  0.84121867  0.00034444  1
