# generated using pymatgen
data_Ca24Ti8Al207Au49
_symmetry_space_group_name_H-M   'P 1'
_cell_length_a   17.31807124
_cell_length_b   17.31685393
_cell_length_c   17.31766677
_cell_angle_alpha   90.00271167
_cell_angle_beta   89.99770745
_cell_angle_gamma   89.99713180
_symmetry_Int_Tables_number   1
_chemical_formula_structural   Ca24Ti8Al207Au49
_chemical_formula_sum   'Ca24 Ti8 Al207 Au49'
_cell_volume   5193.47317222
_cell_formula_units_Z   1
loop_
 _symmetry_equiv_pos_site_id
 _symmetry_equiv_pos_as_xyz
  1  'x, y, z'
loop_
 _atom_site_type_symbol
 _atom_site_label
 _atom_site_symmetry_multiplicity
 _atom_site_fract_x
 _atom_site_fract_y
 _atom_site_fract_z
 _atom_site_occupancy
  Ca  Ca0  1  0.24518204  0.00195425  0.00648826  1
  Ca  Ca1  1  0.24470347  -0.00701709  0.49206218  1
  Ca  Ca2  1  0.24930067  0.49733832  0.00524750  1
  Ca  Ca3  1  0.24776606  0.50434676  0.49686340  1
  Ca  Ca4  1  0.75461964  -0.00071849  0.00157632  1
  Ca  Ca5  1  0.75147210  0.00019057  0.49940703  1
  Ca  Ca6  1  0.75323000  0.49976549  0.00255593  1
  Ca  Ca7  1  0.75523305  0.50222636  0.49878503  1
  Ca  Ca8  1  0.00175440  0.25160949  0.00190161  1
  Ca  Ca9  1  -0.00863543  0.24615805  0.49522136  1
  Ca  Ca10  1  -0.00232982  0.74951330  0.00710924  1
  Ca  Ca11  1  -0.00194781  0.75033958  0.49560440  1
  Ca  Ca12  1  0.49890651  0.25007026  -0.00289071  1
  Ca  Ca13  1  0.50608410  0.24678389  0.50175054  1
  Ca  Ca14  1  0.49865827  0.74628082  0.00223457  1
  Ca  Ca15  1  0.50355267  0.75497408  0.49917656  1
  Ca  Ca16  1  -0.00033591  0.00109597  0.25405948  1
  Ca  Ca17  1  -0.00690425  -0.00071945  0.74733300  1
  Ca  Ca18  1  -0.00178224  0.50100435  0.25215510  1
  Ca  Ca19  1  -0.00153146  0.49889783  0.74838396  1
  Ca  Ca20  1  0.50224760  -0.00554410  0.25478495  1
  Ca  Ca21  1  0.50724107  -0.00035960  0.74149936  1
  Ca  Ca22  1  0.49990377  0.50506610  0.24610332  1
  Ca  Ca23  1  0.50424979  0.50250633  0.74951345  1
  Ti  Ti24  1  0.24748290  0.24839545  0.24674084  1
  Ti  Ti25  1  0.24984402  0.24876227  0.75341046  1
  Ti  Ti26  1  0.24930395  0.75054710  0.25092782  1
  Ti  Ti27  1  0.24922847  0.75055630  0.74648976  1
  Ti  Ti28  1  0.75050031  0.25211042  0.24954955  1
  Ti  Ti29  1  0.75055316  0.24835917  0.75028848  1
  Ti  Ti30  1  0.75119264  0.74858798  0.25200233  1
  Ti  Ti31  1  0.75109969  0.75297993  0.74699929  1
  Al  Al32  1  0.09295373  0.08502797  0.09019383  1
  Al  Al33  1  0.06984649  0.08344900  0.57727470  1
  Al  Al34  1  0.08597021  0.58126102  0.09867445  1
  Al  Al35  1  0.07774689  0.59271752  0.56856704  1
  Al  Al36  1  0.59299533  0.07789420  0.08240930  1
  Al  Al37  1  0.59861646  0.08198199  0.58433500  1
  Al  Al38  1  0.57126569  0.58435150  0.08984508  1
  Al  Al39  1  0.58876732  0.59542019  0.58133450  1
  Al  Al40  1  0.40581113  0.42367275  0.08004062  1
  Al  Al41  1  0.43256856  0.41838169  0.59275082  1
  Al  Al42  1  0.41404965  0.92123424  0.08852483  1
  Al  Al43  1  0.42514588  0.90565286  0.58088052  1
  Al  Al44  1  0.92292035  0.41181858  0.09198140  1
  Al  Al45  1  0.90859886  0.40326926  0.57259270  1
  Al  Al46  1  0.92117303  0.91146818  0.08992796  1
  Al  Al47  1  0.90938040  0.91334908  0.58101298  1
  Al  Al48  1  0.41553901  0.06709346  0.41263169  1
  Al  Al49  1  0.41891598  0.08749515  0.92451411  1
  Al  Al50  1  0.41002901  0.59243470  0.42154217  1
  Al  Al51  1  0.41371422  0.59022329  0.93025053  1
  Al  Al52  1  0.91239583  0.09288577  0.40992062  1
  Al  Al53  1  0.91315580  0.07738502  0.91196639  1
  Al  Al54  1  0.90807279  0.58666059  0.40674126  1
  Al  Al55  1  0.91629412  0.58018103  0.92502298  1
  Al  Al56  1  0.06858106  0.41762214  0.40454300  1
  Al  Al57  1  0.07943925  0.40997935  0.92533275  1
  Al  Al58  1  0.09281687  0.91605262  0.40870273  1
  Al  Al59  1  0.06731377  0.91737509  0.91668667  1
  Al  Al60  1  0.59113964  0.42364499  0.42559448  1
  Al  Al61  1  0.58879968  0.41001827  0.92100431  1
  Al  Al62  1  0.59433023  0.91433726  0.42017978  1
  Al  Al63  1  0.58609859  0.91642087  0.91774080  1
  Al  Al64  1  0.08228777  0.08465766  0.40260721  1
  Al  Al65  1  0.08192766  0.09001701  0.92720244  1
  Al  Al66  1  0.07998468  0.59217728  0.40909735  1
  Al  Al67  1  0.07504408  0.57852103  0.92564734  1
  Al  Al68  1  0.59673034  0.07626206  0.42150882  1
  Al  Al69  1  0.58530893  0.08273743  0.91683466  1
  Al  Al70  1  0.59527341  0.59068953  0.42223018  1
  Al  Al71  1  0.57317874  0.57150137  0.92373280  1
  Al  Al72  1  0.42383090  0.43270881  0.42395235  1
  Al  Al73  1  0.41651033  0.41010265  0.92268541  1
  Al  Al74  1  0.40594537  0.91144728  0.41623567  1
  Al  Al75  1  0.42524215  0.91804496  0.92111349  1
  Al  Al76  1  0.90773392  0.41073734  0.40824495  1
  Al  Al77  1  0.91824225  0.41640561  0.92035377  1
  Al  Al78  1  0.91174136  0.91500804  0.41626667  1
  Al  Al79  1  0.91035758  0.91642919  0.90579992  1
  Al  Al80  1  0.08712526  0.41633686  0.09591530  1
  Al  Al81  1  0.06509768  0.40912902  0.58650652  1
  Al  Al82  1  0.08163248  0.92203150  0.10333746  1
  Al  Al83  1  0.08437593  0.90780698  0.57157849  1
  Al  Al84  1  0.59072410  0.41741917  0.07613042  1
  Al  Al85  1  0.58722884  0.40847460  0.58624769  1
  Al  Al86  1  0.58933562  0.91914539  0.08463309  1
  Al  Al87  1  0.59060749  0.90965920  0.58368024  1
  Al  Al88  1  0.40409028  0.08146107  0.08443160  1
  Al  Al89  1  0.43215691  0.07607069  0.57535250  1
  Al  Al90  1  0.40874614  0.58905325  0.09053958  1
  Al  Al91  1  0.41951341  0.59333467  0.57875942  1
  Al  Al92  1  0.92050415  0.08325641  0.08473096  1
  Al  Al93  1  0.90948983  0.09099630  0.58293698  1
  Al  Al94  1  0.92232755  0.59053198  0.09194703  1
  Al  Al95  1  0.91543520  0.59003758  0.56956680  1
  Al  Al96  1  0.24622601  0.13031753  0.13322256  1
  Al  Al97  1  0.25014081  0.13780300  0.63840648  1
  Al  Al98  1  0.24921705  0.63741719  0.13689070  1
  Al  Al99  1  0.25276048  0.63574788  0.63161111  1
  Al  Al100  1  0.75336269  0.13682072  0.13635736  1
  Al  Al101  1  0.74792957  0.12961082  0.63444121  1
  Al  Al102  1  0.75717633  0.62754507  0.14099468  1
  Al  Al103  1  0.74903746  0.64086660  0.62463592  1
  Al  Al104  1  0.24507647  0.36419269  0.13134798  1
  Al  Al105  1  0.25298381  0.36420675  0.64121560  1
  Al  Al106  1  0.24947489  0.86999541  0.13831411  1
  Al  Al107  1  0.24834825  0.86449858  0.62611780  1
  Al  Al108  1  0.75393142  0.37141479  0.13503809  1
  Al  Al109  1  0.75345785  0.36307429  0.63334029  1
  Al  Al110  1  0.75398686  0.86087388  0.13650596  1
  Al  Al111  1  0.74955955  0.87351638  0.63244295  1
  Al  Al112  1  0.24404015  0.13189614  0.36083724  1
  Al  Al113  1  0.24875115  0.13624470  0.87322681  1
  Al  Al114  1  0.24879174  0.63316790  0.36260459  1
  Al  Al115  1  0.25304805  0.63678616  0.86888948  1
  Al  Al116  1  0.75113437  0.13554062  0.36587905  1
  Al  Al117  1  0.75100006  0.13365811  0.86557385  1
  Al  Al118  1  0.75412319  0.63197980  0.36622665  1
  Al  Al119  1  0.75215053  0.63812302  0.86204123  1
  Al  Al120  1  0.24434425  0.36456585  0.36016987  1
  Al  Al121  1  0.24867443  0.36207988  0.87139843  1
  Al  Al122  1  0.24773815  0.86134284  0.36798471  1
  Al  Al123  1  0.25456327  0.86416862  0.85977997  1
  Al  Al124  1  0.75479981  0.37145529  0.36737156  1
  Al  Al125  1  0.75210988  0.36217183  0.86653550  1
  Al  Al126  1  0.74739016  0.86346929  0.36707927  1
  Al  Al127  1  0.75455288  0.86935424  0.86148702  1
  Al  Al128  1  0.13520465  0.24933040  0.13079079  1
  Al  Al129  1  0.13402268  0.25383549  0.63466906  1
  Al  Al130  1  0.13097775  0.75003613  0.13889270  1
  Al  Al131  1  0.13303620  0.75358384  0.63188391  1
  Al  Al132  1  0.63637743  0.25336227  0.13327568  1
  Al  Al133  1  0.63451361  0.24619563  0.63390100  1
  Al  Al134  1  0.63798615  0.74549244  0.13928562  1
  Al  Al135  1  0.63939203  0.75564986  0.62627606  1
  Al  Al136  1  0.12895695  0.24880284  0.35741183  1
  Al  Al137  1  0.13060466  0.25141342  0.87175892  1
  Al  Al138  1  0.13308710  0.74946982  0.36235009  1
  Al  Al139  1  0.13538587  0.75023577  0.86708735  1
  Al  Al140  1  0.63797162  0.24821782  0.36600085  1
  Al  Al141  1  0.63558867  0.25106538  0.86760910  1
  Al  Al142  1  0.63986438  0.74668357  0.37029708  1
  Al  Al143  1  0.63895372  0.75568331  0.86133616  1
  Al  Al144  1  0.36075937  0.25030346  0.12909977  1
  Al  Al145  1  0.37304288  0.25159212  0.63771348  1
  Al  Al146  1  0.36436051  0.74933526  0.13750354  1
  Al  Al147  1  0.36328508  0.75007528  0.62556541  1
  Al  Al148  1  0.86824863  0.25654145  0.13488960  1
  Al  Al149  1  0.86287838  0.24910279  0.63414309  1
  Al  Al150  1  0.86967634  0.74794868  0.14052798  1
  Al  Al151  1  0.86367208  0.75340966  0.63206898  1
  Al  Al152  1  0.36274624  0.24404435  0.35915100  1
  Al  Al153  1  0.36439803  0.25005780  0.87279965  1
  Al  Al154  1  0.36322112  0.75000904  0.36986037  1
  Al  Al155  1  0.36611795  0.74832198  0.86557617  1
  Al  Al156  1  0.86618234  0.25454394  0.36378725  1
  Al  Al157  1  0.87121676  0.24886859  0.86580265  1
  Al  Al158  1  0.86731990  0.74460152  0.36660796  1
  Al  Al159  1  0.86601531  0.75899037  0.86373860  1
  Al  Al160  1  0.13292118  0.13076830  0.24976300  1
  Al  Al161  1  0.13428232  0.13652284  0.75450989  1
  Al  Al162  1  0.13129962  0.63411591  0.24822913  1
  Al  Al163  1  0.13688420  0.63698526  0.75031078  1
  Al  Al164  1  0.63684413  0.13382242  0.25430385  1
  Al  Al165  1  0.63211160  0.13378793  0.74686022  1
  Al  Al166  1  0.63886811  0.62992284  0.25177968  1
  Al  Al167  1  0.63869108  0.63988149  0.74519930  1
  Al  Al168  1  0.36078936  0.12727735  0.24699348  1
  Al  Al169  1  0.36997530  0.13654515  0.74869401  1
  Al  Al170  1  0.36709434  0.63765756  0.24932876  1
  Al  Al171  1  0.36442735  0.63751419  0.74827296  1
  Al  Al172  1  0.86874080  0.13844579  0.25399152  1
  Al  Al173  1  0.86146120  0.12985399  0.74761716  1
  Al  Al174  1  0.86948939  0.63202030  0.25290048  1
  Al  Al175  1  0.86296659  0.64004278  0.74777384  1
  Al  Al176  1  0.13081343  0.36656588  0.24518237  1
  Al  Al177  1  0.13043120  0.36160510  0.75352390  1
  Al  Al178  1  0.13404577  0.86811992  0.25010466  1
  Al  Al179  1  0.12885163  0.86429361  0.74835204  1
  Al  Al180  1  0.64130178  0.37176291  0.25290110  1
  Al  Al181  1  0.63610300  0.36189976  0.74699234  1
  Al  Al182  1  0.63760417  0.86346071  0.25396183  1
  Al  Al183  1  0.63553224  0.86940518  0.74020770  1
  Al  Al184  1  0.36217214  0.36298517  0.24756922  1
  Al  Al185  1  0.36594321  0.36488112  0.75446837  1
  Al  Al186  1  0.36251517  0.86906689  0.25183411  1
  Al  Al187  1  0.36632172  0.85993916  0.74153637  1
  Al  Al188  1  0.86684194  0.36936287  0.25223481  1
  Al  Al189  1  0.86955866  0.36085964  0.74866300  1
  Al  Al190  1  0.86649542  0.86373370  0.25065600  1
  Al  Al191  1  0.86675386  0.86979716  0.74443969  1
  Al  Al192  1  0.68392776  0.00019027  0.81416313  1
  Al  Al193  1  0.50158863  0.69011012  0.67275383  1
  Al  Al194  1  0.32746330  0.81330452  0.00083802  1
  Al  Al195  1  0.82280634  0.17877250  -0.00327939  1
  Al  Al196  1  -0.00096374  0.68081978  0.67353886  1
  Al  Al197  1  0.18662176  0.69107967  0.49743851  1
  Al  Al198  1  0.32670188  0.00117666  0.82785130  1
  Al  Al199  1  0.49652637  0.33024019  0.16756367  1
  Al  Al200  1  0.50185863  0.82827895  0.81014558  1
  Al  Al201  1  0.33029089  -0.00005757  0.67090091  1
  Al  Al202  1  0.50406088  0.16713604  0.32992314  1
  Al  Al203  1  -0.00121104  0.18717934  0.67975972  1
  Al  Al204  1  -0.00214548  0.68457252  0.83317613  1
  Al  Al205  1  0.00157252  0.18621566  0.18536117  1
  Al  Al206  1  0.17949016  0.49843804  0.83017136  1
  Al  Al207  1  0.16403400  0.33085848  0.49468997  1
  Al  Al208  1  0.16906871  -0.00095236  0.82757021  1
  Al  Al209  1  0.81267624  0.81449233  0.49847723  1
  Al  Al210  1  0.69048649  0.30947397  0.49940920  1
  Al  Al211  1  0.67309460  0.50050782  0.82791072  1
  Al  Al212  1  0.33032018  0.50304553  0.67663076  1
  Al  Al213  1  0.81054685  0.18913509  0.49920991  1
  Al  Al214  1  0.00025505  0.81685195  0.31718514  1
  Al  Al215  1  0.17663420  0.50026148  0.32085655  1
  Al  Al216  1  0.16921483  0.17290630  0.49751988  1
  Al  Al217  1  0.18045575  0.67048522  0.00293726  1
  Al  Al218  1  0.50182210  0.32905246  0.32845850  1
  Al  Al219  1  0.30902846  0.50034557  0.18181088  1
  Al  Al220  1  0.50288877  0.16944277  0.17231944  1
  Al  Al221  1  0.50153835  0.81461030  0.16986644  1
  Al  Al222  1  0.50268892  0.67264121  0.31895753  1
  Al  Al223  1  0.68365718  0.82519011  0.00022693  1
  Al  Al224  1  0.33008363  0.33265320  0.50259983  1
  Al  Al225  1  0.50175142  0.67055194  0.82630462  1
  Al  Al226  1  0.82577516  0.49982758  0.82567047  1
  Al  Al227  1  0.82534732  0.68115760  0.00215556  1
  Al  Al228  1  0.50127461  0.82806627  0.32837823  1
  Al  Al229  1  0.82519211  0.50256769  0.67024034  1
  Al  Al230  1  0.16907912  -0.00081937  0.66894272  1
  Al  Al231  1  0.50145863  0.32095628  0.82527290  1
  Al  Al232  1  0.16802329  0.83254326  0.00322531  1
  Al  Al233  1  0.68584282  -0.00138722  0.18927241  1
  Al  Al234  1  0.16924756  0.50025079  0.66707046  1
  Al  Al235  1  0.67323114  0.50158310  0.67256467  1
  Al  Al236  1  0.32803924  0.16781477  0.49733461  1
  Al  Al237  1  0.81319717  -0.00066855  0.32088768  1
  Al  Al238  1  0.67384574  0.66648287  -0.00063325  1
  Au  Au239  1  0.83613504  0.83161224  0.00063981  1
  Au  Au240  1  0.84088090  0.49995391  0.66652208  1
  Au  Au241  1  0.82690416  0.33501403  0.00263282  1
  Au  Au242  1  0.00388197  0.17490447  0.17296075  1
  Au  Au243  1  0.49847498  0.15844359  0.16803101  1
  Au  Au244  1  0.16434341  0.50042768  0.31688205  1
  Au  Au245  1  0.50078566  0.33320874  0.15607664  1
  Au  Au246  1  0.32252958  0.17514471  0.00165469  1
  Au  Au247  1  -0.00079068  0.83089506  0.66634095  1
  Au  Au248  1  0.49998763  0.16772544  0.82832122  1
  Au  Au249  1  0.50254559  0.67091591  0.33533219  1
  Au  Au250  1  0.65880163  0.67430145  -0.00079302  1
  Au  Au251  1  0.67614698  -0.00030129  0.82949598  1
  Au  Au252  1  -0.00360991  0.66823987  0.82742599  1
  Au  Au253  1  -0.00180857  0.33318258  0.82311145  1
  Au  Au254  1  0.50227404  0.15937712  0.33964396  1
  Au  Au255  1  0.66692000  0.50139411  0.16891890  1
  Au  Au256  1  0.32188546  0.82051297  0.49846913  1
  Au  Au257  1  0.16202057  -0.00109259  0.83790548  1
  Au  Au258  1  0.34620129  0.33315948  0.50778183  1
  Au  Au259  1  0.32137197  0.15243641  0.49561064  1
  Au  Au260  1  0.16936175  0.66414039  0.00290612  1
  Au  Au261  1  0.83951005  0.50041532  0.17584774  1
  Au  Au262  1  0.31998828  -0.00094209  0.17769391  1
  Au  Au263  1  0.16975741  0.32613897  0.00462683  1
  Au  Au264  1  0.50494524  0.17282450  0.65997907  1
  Au  Au265  1  0.15107884  0.83267992  0.00794872  1
  Au  Au266  1  0.50458912  0.83141115  0.17188344  1
  Au  Au267  1  0.50296013  0.33351766  0.82289877  1
  Au  Au268  1  0.14822321  0.32503600  0.49347495  1
  Au  Au269  1  -0.00137831  0.16415192  0.82662565  1
  Au  Au270  1  0.82652247  0.00158392  0.66926928  1
  Au  Au271  1  0.67939421  0.32235062  0.50214281  1
  Au  Au272  1  0.16566290  0.00437251  0.65806587  1
  Au  Au273  1  0.34131123  -0.00500702  0.66727202  1
  Au  Au274  1  0.33374437  0.82930134  0.00057964  1
  Au  Au275  1  0.68027551  0.50286627  0.33763767  1
  Au  Au276  1  0.50328078  0.34457195  0.33176656  1
  Au  Au277  1  0.15549962  0.50364101  0.65695625  1
  Au  Au278  1  0.50319648  0.82287172  0.82655421  1
  Au  Au279  1  -0.00007213  0.83037183  0.32696650  1
  Au  Au280  1  0.16398372  0.49735920  0.83687377  1
  Au  Au281  1  0.83352022  -0.00147206  0.17462091  1
  Au  Au282  1  0.66669765  0.17782304  0.00105739  1
  Au  Au283  1  0.33628904  0.00180670  0.83600402  1
  Au  Au284  1  0.33882102  0.50131224  0.66749351  1
  Au  Au285  1  0.33153956  0.50202453  0.32847637  1
  Au  Au286  1  0.33803022  0.50251191  0.84117609  1
  Au  Au287  1  0.83113467  0.17010422  -0.00034847  1
