# generated using pymatgen
data_Ca24Ti8Al207Au49
_symmetry_space_group_name_H-M   'P 1'
_cell_length_a   17.32069767
_cell_length_b   17.32011936
_cell_length_c   17.32303193
_cell_angle_alpha   90.00012903
_cell_angle_beta   90.00086502
_cell_angle_gamma   89.99868169
_symmetry_Int_Tables_number   1
_chemical_formula_structural   Ca24Ti8Al207Au49
_chemical_formula_sum   'Ca24 Ti8 Al207 Au49'
_cell_volume   5196.84983101
_cell_formula_units_Z   1
loop_
 _symmetry_equiv_pos_site_id
 _symmetry_equiv_pos_as_xyz
  1  'x, y, z'
loop_
 _atom_site_type_symbol
 _atom_site_label
 _atom_site_symmetry_multiplicity
 _atom_site_fract_x
 _atom_site_fract_y
 _atom_site_fract_z
 _atom_site_occupancy
  Ca  Ca0  1  0.25577397  -0.00178908  0.00342798  1
  Ca  Ca1  1  0.25447965  -0.00444627  0.49874936  1
  Ca  Ca2  1  0.25249961  0.50434935  0.00154442  1
  Ca  Ca3  1  0.24598158  0.50252563  0.49992652  1
  Ca  Ca4  1  0.74945901  -0.00439654  0.00340167  1
  Ca  Ca5  1  0.75365180  -0.00344767  0.49428533  1
  Ca  Ca6  1  0.75290529  0.50730495  0.00003222  1
  Ca  Ca7  1  0.75467279  0.50366950  0.49742247  1
  Ca  Ca8  1  -0.00198079  0.25289938  0.00244716  1
  Ca  Ca9  1  -0.00152521  0.25700061  0.49958003  1
  Ca  Ca10  1  -0.00105318  0.74639059  0.00150624  1
  Ca  Ca11  1  -0.00173030  0.74514275  0.49905570  1
  Ca  Ca12  1  0.50151352  0.24776682  0.00865419  1
  Ca  Ca13  1  0.50110424  0.25128376  0.49471801  1
  Ca  Ca14  1  0.50222247  0.74773808  -0.00015400  1
  Ca  Ca15  1  0.50163447  0.75048780  0.50062242  1
  Ca  Ca16  1  0.00096875  -0.00245546  0.25304850  1
  Ca  Ca17  1  0.00289472  -0.00718121  0.74162364  1
  Ca  Ca18  1  -0.00222958  0.50331929  0.25417510  1
  Ca  Ca19  1  -0.00233253  0.50687964  0.74400508  1
  Ca  Ca20  1  0.50198752  -0.00144279  0.25300463  1
  Ca  Ca21  1  0.50083773  -0.00781408  0.75076008  1
  Ca  Ca22  1  0.50122520  0.49858017  0.25186385  1
  Ca  Ca23  1  0.50119084  0.50443272  0.75161159  1
  Ti  Ti24  1  0.25036581  0.25261855  0.25084868  1
  Ti  Ti25  1  0.25252728  0.25033276  0.74952995  1
  Ti  Ti26  1  0.24878112  0.74871563  0.25275957  1
  Ti  Ti27  1  0.25118472  0.74936551  0.74729433  1
  Ti  Ti28  1  0.75034175  0.24994049  0.25130358  1
  Ti  Ti29  1  0.75107857  0.25512263  0.74758512  1
  Ti  Ti30  1  0.75145388  0.75087359  0.24920239  1
  Ti  Ti31  1  0.74984965  0.74768643  0.75063287  1
  Al  Al32  1  0.07905526  0.08280120  0.08607939  1
  Al  Al33  1  0.07394052  0.07983184  0.57389425  1
  Al  Al34  1  0.07198957  0.58547796  0.08951604  1
  Al  Al35  1  0.07855407  0.59171067  0.57771249  1
  Al  Al36  1  0.58069102  0.09144166  0.09024383  1
  Al  Al37  1  0.58018369  0.07684184  0.56957222  1
  Al  Al38  1  0.59338545  0.58661198  0.07645791  1
  Al  Al39  1  0.59337977  0.59262404  0.58193029  1
  Al  Al40  1  0.42222295  0.41004962  0.09014830  1
  Al  Al41  1  0.39937961  0.42080805  0.57572637  1
  Al  Al42  1  0.42053410  0.91942061  0.07856453  1
  Al  Al43  1  0.41618674  0.90238204  0.58237699  1
  Al  Al44  1  0.91709601  0.41600546  0.08769587  1
  Al  Al45  1  0.90584694  0.42081484  0.58253543  1
  Al  Al46  1  0.91378484  0.90896095  0.08430336  1
  Al  Al47  1  0.90839599  0.90720662  0.57375979  1
  Al  Al48  1  0.41350996  0.08187277  0.40718123  1
  Al  Al49  1  0.41324187  0.07448130  0.91052113  1
  Al  Al50  1  0.41638889  0.58334314  0.41879167  1
  Al  Al51  1  0.41890651  0.59085892  0.90970319  1
  Al  Al52  1  0.91605889  0.08550734  0.41985272  1
  Al  Al53  1  0.91989347  0.07882288  0.92520338  1
  Al  Al54  1  0.91173601  0.59173467  0.42107194  1
  Al  Al55  1  0.91256875  0.59687227  0.91561106  1
  Al  Al56  1  0.08727665  0.42247225  0.41063361  1
  Al  Al57  1  0.08197692  0.42843207  0.92133226  1
  Al  Al58  1  0.07768788  0.90525166  0.41128976  1
  Al  Al59  1  0.07961753  0.91012652  0.92013237  1
  Al  Al60  1  0.58278262  0.41266443  0.41735577  1
  Al  Al61  1  0.57698040  0.43370798  0.92680443  1
  Al  Al62  1  0.58735326  0.90951217  0.42437591  1
  Al  Al63  1  0.58371062  0.90093062  0.92400765  1
  Al  Al64  1  0.07748984  0.07867721  0.41757163  1
  Al  Al65  1  0.08134094  0.07320288  0.92363420  1
  Al  Al66  1  0.08805450  0.58614332  0.41554026  1
  Al  Al67  1  0.07525683  0.58896109  0.90562459  1
  Al  Al68  1  0.57783529  0.08606333  0.41238822  1
  Al  Al69  1  0.57101322  0.08213062  0.93244028  1
  Al  Al70  1  0.59197782  0.59254405  0.42432220  1
  Al  Al71  1  0.58361211  0.59945085  0.91445516  1
  Al  Al72  1  0.41089102  0.40932312  0.41613919  1
  Al  Al73  1  0.40962133  0.43131126  0.91635556  1
  Al  Al74  1  0.41049244  0.91942196  0.42131004  1
  Al  Al75  1  0.41327499  0.91558708  0.90965889  1
  Al  Al76  1  0.91363118  0.41469805  0.41966410  1
  Al  Al77  1  0.91525176  0.42896812  0.92577705  1
  Al  Al78  1  0.91397123  0.89697057  0.41445460  1
  Al  Al79  1  0.91562973  0.90381618  0.92252709  1
  Al  Al80  1  0.07501681  0.41654163  0.09253201  1
  Al  Al81  1  0.07615042  0.42264541  0.57148351  1
  Al  Al82  1  0.08011341  0.91152364  0.08221313  1
  Al  Al83  1  0.07994424  0.91155922  0.57495067  1
  Al  Al84  1  0.57859128  0.42089906  0.09360323  1
  Al  Al85  1  0.59483026  0.42443308  0.57280311  1
  Al  Al86  1  0.58967724  0.91087690  0.07977329  1
  Al  Al87  1  0.57864251  0.89740510  0.58358801  1
  Al  Al88  1  0.42304706  0.08610214  0.08902002  1
  Al  Al89  1  0.41554595  0.07320284  0.57320264  1
  Al  Al90  1  0.42256552  0.58007866  0.07459161  1
  Al  Al91  1  0.41590665  0.58275018  0.58404096  1
  Al  Al92  1  0.91981181  0.08408665  0.08461552  1
  Al  Al93  1  0.91331741  0.08319393  0.57688357  1
  Al  Al94  1  0.91162086  0.59187004  0.08085258  1
  Al  Al95  1  0.90765779  0.58837436  0.58735596  1
  Al  Al96  1  0.25200218  0.13915003  0.13570166  1
  Al  Al97  1  0.25657267  0.13288489  0.63492477  1
  Al  Al98  1  0.24821466  0.63569230  0.13975997  1
  Al  Al99  1  0.25105155  0.63710717  0.63494147  1
  Al  Al100  1  0.75143164  0.13313233  0.13737729  1
  Al  Al101  1  0.74767353  0.13542547  0.63352960  1
  Al  Al102  1  0.75450765  0.63980352  0.13192603  1
  Al  Al103  1  0.75189804  0.63284804  0.63380339  1
  Al  Al104  1  0.25103576  0.36927980  0.13744408  1
  Al  Al105  1  0.25231449  0.36721022  0.63475565  1
  Al  Al106  1  0.25260066  0.86058557  0.14046903  1
  Al  Al107  1  0.25179502  0.86314774  0.62736654  1
  Al  Al108  1  0.75310213  0.36486801  0.14047634  1
  Al  Al109  1  0.75517249  0.37459616  0.63175566  1
  Al  Al110  1  0.75072047  0.86216063  0.13026773  1
  Al  Al111  1  0.75001650  0.85716341  0.62735605  1
  Al  Al112  1  0.25545793  0.13087590  0.36186267  1
  Al  Al113  1  0.25305369  0.13103738  0.86729262  1
  Al  Al114  1  0.24778649  0.63110484  0.36675786  1
  Al  Al115  1  0.25656547  0.63494324  0.86429471  1
  Al  Al116  1  0.74708509  0.12952671  0.36297969  1
  Al  Al117  1  0.75201367  0.13717814  0.86450764  1
  Al  Al118  1  0.75305896  0.64079200  0.36806157  1
  Al  Al119  1  0.74965612  0.63293743  0.86684446  1
  Al  Al120  1  0.25083023  0.37158491  0.36156234  1
  Al  Al121  1  0.25297478  0.36933812  0.86763146  1
  Al  Al122  1  0.24691906  0.86314273  0.37013641  1
  Al  Al123  1  0.25616148  0.86087891  0.86261987  1
  Al  Al124  1  0.75231992  0.36716449  0.36142391  1
  Al  Al125  1  0.74987324  0.37481338  0.86467961  1
  Al  Al126  1  0.75211514  0.86377093  0.36495680  1
  Al  Al127  1  0.74501382  0.85788592  0.87155669  1
  Al  Al128  1  0.13530560  0.25493623  0.13721946  1
  Al  Al129  1  0.13706662  0.25274936  0.63504207  1
  Al  Al130  1  0.12893150  0.74923374  0.13964528  1
  Al  Al131  1  0.13649656  0.74932378  0.62640852  1
  Al  Al132  1  0.63177985  0.24973983  0.13957253  1
  Al  Al133  1  0.63796791  0.25598439  0.63505199  1
  Al  Al134  1  0.63408889  0.75013132  0.13315544  1
  Al  Al135  1  0.63784786  0.74585653  0.63012486  1
  Al  Al136  1  0.13700490  0.25562195  0.36445421  1
  Al  Al137  1  0.14275989  0.25107781  0.86777033  1
  Al  Al138  1  0.13308810  0.74564984  0.37044627  1
  Al  Al139  1  0.13736155  0.74643572  0.86540022  1
  Al  Al140  1  0.63508020  0.25075912  0.36342042  1
  Al  Al141  1  0.63830901  0.25373713  0.86096315  1
  Al  Al142  1  0.63493563  0.75058301  0.36855697  1
  Al  Al143  1  0.63231637  0.74550582  0.86520806  1
  Al  Al144  1  0.36929949  0.25250092  0.13764313  1
  Al  Al145  1  0.36374700  0.25411827  0.63148633  1
  Al  Al146  1  0.37160611  0.75143772  0.14083823  1
  Al  Al147  1  0.36970361  0.75393734  0.63189293  1
  Al  Al148  1  0.86501001  0.24951960  0.13674700  1
  Al  Al149  1  0.86299593  0.25685314  0.63374185  1
  Al  Al150  1  0.86911012  0.75172211  0.13062116  1
  Al  Al151  1  0.86087232  0.74641981  0.62791612  1
  Al  Al152  1  0.36511206  0.25628202  0.36590721  1
  Al  Al153  1  0.36217407  0.24894966  0.86729837  1
  Al  Al154  1  0.36568863  0.75169851  0.36795785  1
  Al  Al155  1  0.37009417  0.74749598  0.86308537  1
  Al  Al156  1  0.86448417  0.25636307  0.36615324  1
  Al  Al157  1  0.86230426  0.25404590  0.86155318  1
  Al  Al158  1  0.86886810  0.74884293  0.36721813  1
  Al  Al159  1  0.86593415  0.74603473  0.87138628  1
  Al  Al160  1  0.13636147  0.13606264  0.25311902  1
  Al  Al161  1  0.13969682  0.13634031  0.74828353  1
  Al  Al162  1  0.12901379  0.63461876  0.25591672  1
  Al  Al163  1  0.13503176  0.63776310  0.74999425  1
  Al  Al164  1  0.63445073  0.13017594  0.24804667  1
  Al  Al165  1  0.63817857  0.13770397  0.75018304  1
  Al  Al166  1  0.63739572  0.63915428  0.24944171  1
  Al  Al167  1  0.63652582  0.63172140  0.75014467  1
  Al  Al168  1  0.36665148  0.13774685  0.24890049  1
  Al  Al169  1  0.36394455  0.12873322  0.75024847  1
  Al  Al170  1  0.36413020  0.63123203  0.25465018  1
  Al  Al171  1  0.36926620  0.63724917  0.74999105  1
  Al  Al172  1  0.86511868  0.13269070  0.25236580  1
  Al  Al173  1  0.86120950  0.13849908  0.74667357  1
  Al  Al174  1  0.87188927  0.64119804  0.24821634  1
  Al  Al175  1  0.86208887  0.63300665  0.75039373  1
  Al  Al176  1  0.13043951  0.36961102  0.25348017  1
  Al  Al177  1  0.13840584  0.36513318  0.75124352  1
  Al  Al178  1  0.12943881  0.86079080  0.25538415  1
  Al  Al179  1  0.13411698  0.86049488  0.74827974  1
  Al  Al180  1  0.63049213  0.36456134  0.25058887  1
  Al  Al181  1  0.64024688  0.37574680  0.74694599  1
  Al  Al182  1  0.63425383  0.86532176  0.25073877  1
  Al  Al183  1  0.63567239  0.85768093  0.74450406  1
  Al  Al184  1  0.36961295  0.36906347  0.25061366  1
  Al  Al185  1  0.36591216  0.36620363  0.75263234  1
  Al  Al186  1  0.36806305  0.86446282  0.25673324  1
  Al  Al187  1  0.36625223  0.86507948  0.74669351  1
  Al  Al188  1  0.87359899  0.36448254  0.24847907  1
  Al  Al189  1  0.86142457  0.37625907  0.74851042  1
  Al  Al190  1  0.87175076  0.86102109  0.25057087  1
  Al  Al191  1  0.86230646  0.85586457  0.75052190  1
  Al  Al192  1  0.67014258  -0.00750353  0.66686629  1
  Al  Al193  1  0.49980144  0.18094678  0.31227178  1
  Al  Al194  1  0.18346859  -0.00463201  0.82770474  1
  Al  Al195  1  0.00083199  0.18352198  0.17695032  1
  Al  Al196  1  0.82788743  -0.00434170  0.82847205  1
  Al  Al197  1  0.32964776  -0.00072300  0.19034259  1
  Al  Al198  1  0.50222069  0.68435177  0.68223013  1
  Al  Al199  1  0.16821904  0.66878594  0.00216750  1
  Al  Al200  1  0.82567476  0.50354539  0.31976479  1
  Al  Al201  1  0.00286147  0.17067273  0.82687880  1
  Al  Al202  1  0.16890677  0.50194720  0.66699131  1
  Al  Al203  1  0.18147266  0.82126416  0.00220286  1
  Al  Al204  1  0.17228298  0.17387959  0.49903692  1
  Al  Al205  1  0.32397140  0.32411400  -0.00087662  1
  Al  Al206  1  -0.00140739  0.68084376  0.68563839  1
  Al  Al207  1  0.00015531  0.18253712  0.32880845  1
  Al  Al208  1  -0.00125219  0.17600588  0.66917133  1
  Al  Al209  1  0.32405843  0.68206983  0.00240139  1
  Al  Al210  1  0.18029794  -0.00192804  0.32877245  1
  Al  Al211  1  0.17954746  0.00008156  0.67106649  1
  Al  Al212  1  -0.00023451  0.33132642  0.67112191  1
  Al  Al213  1  0.18573207  0.50252711  0.82205481  1
  Al  Al214  1  0.32181703  0.50253761  0.68810222  1
  Al  Al215  1  0.50477583  0.67691851  0.32315802  1
  Al  Al216  1  0.50020370  0.17510640  0.82795259  1
  Al  Al217  1  0.50163052  0.81512949  0.81254892  1
  Al  Al218  1  0.31383585  0.68622251  0.49995120  1
  Al  Al219  1  0.17372604  -0.00240822  0.17286647  1
  Al  Al220  1  0.82614895  0.32132368  0.00004131  1
  Al  Al221  1  0.81749848  0.18839461  0.49898593  1
  Al  Al222  1  0.17487599  0.17624530  0.00094700  1
  Al  Al223  1  0.49982568  0.16885240  0.67032561  1
  Al  Al224  1  0.50129500  0.33303936  0.82999464  1
  Al  Al225  1  0.50017085  0.33533460  0.66419166  1
  Al  Al226  1  0.69309892  0.32057873  0.49804409  1
  Al  Al227  1  0.82626019  -0.00283853  0.67120902  1
  Al  Al228  1  0.82314544  0.00060773  0.17965621  1
  Al  Al229  1  0.67281213  0.50244397  0.33036660  1
  Al  Al230  1  0.00364792  0.81220033  0.81931300  1
  Al  Al231  1  0.18499324  0.32888232  0.49886456  1
  Al  Al232  1  -0.00103291  0.32956781  0.82826894  1
  Al  Al233  1  0.32478599  0.18344783  0.49789752  1
  Al  Al234  1  0.68076168  0.17521953  0.00099748  1
  Al  Al235  1  0.66658984  0.00280381  0.83332120  1
  Al  Al236  1  0.68292730  0.50283396  0.17736778  1
  Al  Al237  1  0.17397933  0.50268819  0.17696582  1
  Al  Al238  1  0.66822104  0.32647357  0.00096509  1
  Au  Au239  1  0.50196608  0.67171726  0.67112286  1
  Au  Au240  1  0.32440687  0.67273068  0.50169216  1
  Au  Au241  1  0.00396290  0.15508789  0.82012893  1
  Au  Au242  1  0.66357002  0.00235841  0.85002382  1
  Au  Au243  1  0.49644371  0.83356135  0.33780569  1
  Au  Au244  1  0.32930318  0.17134938  0.49776329  1
  Au  Au245  1  0.50292804  0.83119933  0.16478098  1
  Au  Au246  1  0.68015167  0.50289399  0.66192395  1
  Au  Au247  1  0.82157353  0.82063722  0.00032190  1
  Au  Au248  1  0.33028298  0.00123894  0.17347914  1
  Au  Au249  1  0.17076740  0.82238094  0.49725332  1
  Au  Au250  1  0.66447457  0.50646348  0.83192274  1
  Au  Au251  1  0.00023769  0.33319878  0.32849639  1
  Au  Au252  1  0.83175071  0.17081740  0.00040351  1
  Au  Au253  1  0.32934520  0.83058785  -0.00046888  1
  Au  Au254  1  0.00160940  0.82551545  0.17338739  1
  Au  Au255  1  0.67337682  0.34042040  0.00802965  1
  Au  Au256  1  0.17378374  0.50275536  0.82706483  1
  Au  Au257  1  0.66962212  0.17455383  0.49636302  1
  Au  Au258  1  0.00066907  0.82101241  0.82821913  1
  Au  Au259  1  0.50033228  0.32847941  0.32618205  1
  Au  Au260  1  0.50079465  0.82539716  0.82582346  1
  Au  Au261  1  0.34030141  -0.00755687  0.67264662  1
  Au  Au262  1  0.32421713  0.49965898  0.33763133  1
  Au  Au263  1  0.16499400  0.00206579  0.66151616  1
  Au  Au264  1  0.66695210  -0.00011614  0.16570185  1
  Au  Au265  1  0.50041764  0.15323686  0.67656581  1
  Au  Au266  1  0.16161247  0.50289757  0.18099297  1
  Au  Au267  1  0.49982763  0.34134687  0.64917850  1
  Au  Au268  1  0.83277940  0.50422002  0.16930125  1
  Au  Au269  1  -0.00566019  0.34559952  0.82572289  1
  Au  Au270  1  0.33954072  0.16756476  -0.00117025  1
  Au  Au271  1  0.83360509  0.50591257  0.82917789  1
  Au  Au272  1  0.16595713  0.16730895  0.00252507  1
  Au  Au273  1  0.16827208  -0.00144027  0.33316316  1
  Au  Au274  1  0.50332457  0.66397278  0.16627766  1
  Au  Au275  1  0.83787089  -0.00485590  0.33583489  1
  Au  Au276  1  0.66669199  -0.00396599  0.33733293  1
  Au  Au277  1  0.15931708  0.33282537  0.00402981  1
  Au  Au278  1  0.67406345  -0.01075754  0.65068884  1
  Au  Au279  1  0.84399497  -0.00498826  0.82320169  1
  Au  Au280  1  0.33793530  0.50268959  0.16950221  1
  Au  Au281  1  -0.00000895  0.67100179  0.33169481  1
  Au  Au282  1  0.83191515  -0.00191617  0.17099515  1
  Au  Au283  1  0.33296740  0.33259624  0.00154796  1
  Au  Au284  1  0.18005421  -0.00873547  0.84397049  1
  Au  Au285  1  -0.00549865  0.82643380  0.66316052  1
  Au  Au286  1  0.50239749  0.66791430  0.33158171  1
  Au  Au287  1  0.49756042  0.32890892  0.84587628  1
