# generated using pymatgen
data_Ca24Ti8Al207Au49
_symmetry_space_group_name_H-M   'P 1'
_cell_length_a   17.31784572
_cell_length_b   17.31831481
_cell_length_c   17.31761005
_cell_angle_alpha   90.00189361
_cell_angle_beta   89.99863676
_cell_angle_gamma   90.00356813
_symmetry_Int_Tables_number   1
_chemical_formula_structural   Ca24Ti8Al207Au49
_chemical_formula_sum   'Ca24 Ti8 Al207 Au49'
_cell_volume   5193.82665976
_cell_formula_units_Z   1
loop_
 _symmetry_equiv_pos_site_id
 _symmetry_equiv_pos_as_xyz
  1  'x, y, z'
loop_
 _atom_site_type_symbol
 _atom_site_label
 _atom_site_symmetry_multiplicity
 _atom_site_fract_x
 _atom_site_fract_y
 _atom_site_fract_z
 _atom_site_occupancy
  Ca  Ca0  1  0.24361545  -0.00421883  0.00161119  1
  Ca  Ca1  1  0.25011238  -0.00557115  0.49766604  1
  Ca  Ca2  1  0.24609075  0.50303580  -0.00012716  1
  Ca  Ca3  1  0.24973787  0.50158777  0.49499765  1
  Ca  Ca4  1  0.75272628  -0.00089484  0.00454161  1
  Ca  Ca5  1  0.75239367  0.00022514  0.49099597  1
  Ca  Ca6  1  0.74992101  0.50253475  0.00075802  1
  Ca  Ca7  1  0.74735897  0.49499436  0.49690696  1
  Ca  Ca8  1  -0.00361747  0.25071208  0.00330096  1
  Ca  Ca9  1  0.00028422  0.24698264  0.49762831  1
  Ca  Ca10  1  0.00551979  0.74810931  0.00337012  1
  Ca  Ca11  1  0.00174428  0.74396266  0.49427097  1
  Ca  Ca12  1  0.49973521  0.25399251  0.00546401  1
  Ca  Ca13  1  0.50816259  0.25053968  0.49681714  1
  Ca  Ca14  1  0.49885263  0.74716940  0.00323863  1
  Ca  Ca15  1  0.49492306  0.74440429  0.49786961  1
  Ca  Ca16  1  -0.00279774  -0.00201348  0.24179600  1
  Ca  Ca17  1  0.00223957  -0.00343286  0.75749318  1
  Ca  Ca18  1  0.00217536  0.50154061  0.24686189  1
  Ca  Ca19  1  0.00431713  0.50412308  0.75672741  1
  Ca  Ca20  1  0.50148085  -0.00113606  0.24627353  1
  Ca  Ca21  1  0.49791801  0.00091621  0.74825116  1
  Ca  Ca22  1  0.49270566  0.50595372  0.24568004  1
  Ca  Ca23  1  0.49923607  0.50368727  0.75121878  1
  Ti  Ti24  1  0.24727036  0.24797410  0.24837111  1
  Ti  Ti25  1  0.24825089  0.25168824  0.75147031  1
  Ti  Ti26  1  0.24798018  0.75236690  0.24929532  1
  Ti  Ti27  1  0.25061990  0.74943081  0.75115125  1
  Ti  Ti28  1  0.75284557  0.24880117  0.24903784  1
  Ti  Ti29  1  0.75214913  0.25087503  0.75191135  1
  Ti  Ti30  1  0.75158860  0.75003632  0.24602736  1
  Ti  Ti31  1  0.74906890  0.75067939  0.75625176  1
  Al  Al32  1  0.08117931  0.07841864  0.08416009  1
  Al  Al33  1  0.07978351  0.07468361  0.58425282  1
  Al  Al34  1  0.08870854  0.59164340  0.08504312  1
  Al  Al35  1  0.09949507  0.58939373  0.57561196  1
  Al  Al36  1  0.60424147  0.07852550  0.09125619  1
  Al  Al37  1  0.58067900  0.07469337  0.57006324  1
  Al  Al38  1  0.58898948  0.59019466  0.08973194  1
  Al  Al39  1  0.57732852  0.57943374  0.58056940  1
  Al  Al40  1  0.40902631  0.43001710  0.08701674  1
  Al  Al41  1  0.42006747  0.42408078  0.58785269  1
  Al  Al42  1  0.40906325  0.91444912  0.08790117  1
  Al  Al43  1  0.41343892  0.91567235  0.60260767  1
  Al  Al44  1  0.90786292  0.40837759  0.08020138  1
  Al  Al45  1  0.91345311  0.40725650  0.57670504  1
  Al  Al46  1  0.90555939  0.91373895  0.08646002  1
  Al  Al47  1  0.93114123  0.92034339  0.57994343  1
  Al  Al48  1  0.41488603  0.07920724  0.41658217  1
  Al  Al49  1  0.42193971  0.07231513  0.92619001  1
  Al  Al50  1  0.40328654  0.58162162  0.40239225  1
  Al  Al51  1  0.40256978  0.58275155  0.92191508  1
  Al  Al52  1  0.91390999  0.08774191  0.40077676  1
  Al  Al53  1  0.91700087  0.09864226  0.93059997  1
  Al  Al54  1  0.93542671  0.58579798  0.40993529  1
  Al  Al55  1  0.92278220  0.58868787  0.92134180  1
  Al  Al56  1  0.08009199  0.43268406  0.40635339  1
  Al  Al57  1  0.08871980  0.42614715  0.91008169  1
  Al  Al58  1  0.08378589  0.91520846  0.39655390  1
  Al  Al59  1  0.08510244  0.90375855  0.91581137  1
  Al  Al60  1  0.57493776  0.41634413  0.42137298  1
  Al  Al61  1  0.58034118  0.42050598  0.92702356  1
  Al  Al62  1  0.57889035  0.92081994  0.40634749  1
  Al  Al63  1  0.58668805  0.90531034  0.92844470  1
  Al  Al64  1  0.07582254  0.07688014  0.39982634  1
  Al  Al65  1  0.07802456  0.07762673  0.92103562  1
  Al  Al66  1  0.09616367  0.59370212  0.41047758  1
  Al  Al67  1  0.09489904  0.59106558  0.91178333  1
  Al  Al68  1  0.58877086  0.08159272  0.41194075  1
  Al  Al69  1  0.58932684  0.08863574  0.93499625  1
  Al  Al70  1  0.57372418  0.58193261  0.41938181  1
  Al  Al71  1  0.58992576  0.58661508  0.93020887  1
  Al  Al72  1  0.41201722  0.42355469  0.40036097  1
  Al  Al73  1  0.40803948  0.42597114  0.91151079  1
  Al  Al74  1  0.41971563  0.91903737  0.40919723  1
  Al  Al75  1  0.41561635  0.91197263  0.92253496  1
  Al  Al76  1  0.91736748  0.40741803  0.42039538  1
  Al  Al77  1  0.91278869  0.41191111  0.92365020  1
  Al  Al78  1  0.92326356  0.92560006  0.39667359  1
  Al  Al79  1  0.92186224  0.89815370  0.92414838  1
  Al  Al80  1  0.08205651  0.42340515  0.08343218  1
  Al  Al81  1  0.08169844  0.43182240  0.59348407  1
  Al  Al82  1  0.08856017  0.90850860  0.08122329  1
  Al  Al83  1  0.08496141  0.91428836  0.58958538  1
  Al  Al84  1  0.59477374  0.42681596  0.08742144  1
  Al  Al85  1  0.58201809  0.41525985  0.58203975  1
  Al  Al86  1  0.59987980  0.91495626  0.08772114  1
  Al  Al87  1  0.57005169  0.91604336  0.59139413  1
  Al  Al88  1  0.41500970  0.07187512  0.08984704  1
  Al  Al89  1  0.40878949  0.07145331  0.58063999  1
  Al  Al90  1  0.41211798  0.58940818  0.08751053  1
  Al  Al91  1  0.41029494  0.58335937  0.58324583  1
  Al  Al92  1  0.90247688  0.08528203  0.08952038  1
  Al  Al93  1  0.91919278  0.08542261  0.57048561  1
  Al  Al94  1  0.91963802  0.58877746  0.08511924  1
  Al  Al95  1  0.93075165  0.56911522  0.57229815  1
  Al  Al96  1  0.24886233  0.12602865  0.14095738  1
  Al  Al97  1  0.24899438  0.12955966  0.63529192  1
  Al  Al98  1  0.24817653  0.63500609  0.13643352  1
  Al  Al99  1  0.24866317  0.63305049  0.63079667  1
  Al  Al100  1  0.75223858  0.13422374  0.13411307  1
  Al  Al101  1  0.75444247  0.13826344  0.63478974  1
  Al  Al102  1  0.75090201  0.63522025  0.12820858  1
  Al  Al103  1  0.75141212  0.63964539  0.63808780  1
  Al  Al104  1  0.24968974  0.36364739  0.13178442  1
  Al  Al105  1  0.24281568  0.36970380  0.63694430  1
  Al  Al106  1  0.24625604  0.86834359  0.13370495  1
  Al  Al107  1  0.25053488  0.87083250  0.63630740  1
  Al  Al108  1  0.75432859  0.36609068  0.13523784  1
  Al  Al109  1  0.75298667  0.36225496  0.63555074  1
  Al  Al110  1  0.75064032  0.86453286  0.13025288  1
  Al  Al111  1  0.74966726  0.86215803  0.63902037  1
  Al  Al112  1  0.24805661  0.12642927  0.35592025  1
  Al  Al113  1  0.25061755  0.13602947  0.86550602  1
  Al  Al114  1  0.24631907  0.63516244  0.36541349  1
  Al  Al115  1  0.24720187  0.63360557  0.86712239  1
  Al  Al116  1  0.75750648  0.13353528  0.36138900  1
  Al  Al117  1  0.75342049  0.13366660  0.87249171  1
  Al  Al118  1  0.75100450  0.63601197  0.35965337  1
  Al  Al119  1  0.74849538  0.63959006  0.87707309  1
  Al  Al120  1  0.24709492  0.36533826  0.36246896  1
  Al  Al121  1  0.24799169  0.36952250  0.86868681  1
  Al  Al122  1  0.24433684  0.87282479  0.36070943  1
  Al  Al123  1  0.25113051  0.86323766  0.87133446  1
  Al  Al124  1  0.75654295  0.36472291  0.36243502  1
  Al  Al125  1  0.75257316  0.36557818  0.86987842  1
  Al  Al126  1  0.75843590  0.86598907  0.35733632  1
  Al  Al127  1  0.74866061  0.86573684  0.87255403  1
  Al  Al128  1  0.12951281  0.25172761  0.13930166  1
  Al  Al129  1  0.13576350  0.24881312  0.63599942  1
  Al  Al130  1  0.13575270  0.75065407  0.13582853  1
  Al  Al131  1  0.14067305  0.74930856  0.63330099  1
  Al  Al132  1  0.63702959  0.24219015  0.13137368  1
  Al  Al133  1  0.63770699  0.25115836  0.63544186  1
  Al  Al134  1  0.63798978  0.75102984  0.12727144  1
  Al  Al135  1  0.63277178  0.75191191  0.63840068  1
  Al  Al136  1  0.13051983  0.24426983  0.35982894  1
  Al  Al137  1  0.13638386  0.25499999  0.86512552  1
  Al  Al138  1  0.13138851  0.74950804  0.35991285  1
  Al  Al139  1  0.13798941  0.75084527  0.86988014  1
  Al  Al140  1  0.63887575  0.24782664  0.36118932  1
  Al  Al141  1  0.63758955  0.24806565  0.87040017  1
  Al  Al142  1  0.63776308  0.75176298  0.35970973  1
  Al  Al143  1  0.63344753  0.75076320  0.87262298  1
  Al  Al144  1  0.36527877  0.24713909  0.13936638  1
  Al  Al145  1  0.35833844  0.25385466  0.63812460  1
  Al  Al146  1  0.36256669  0.75513969  0.13664651  1
  Al  Al147  1  0.36421412  0.74748755  0.63709484  1
  Al  Al148  1  0.86650171  0.24725948  0.13272434  1
  Al  Al149  1  0.86824123  0.24990632  0.62798598  1
  Al  Al150  1  0.86363583  0.75238108  0.12594762  1
  Al  Al151  1  0.86433709  0.75398255  0.63583810  1
  Al  Al152  1  0.36035351  0.24770752  0.35811490  1
  Al  Al153  1  0.36488992  0.25555913  0.86713243  1
  Al  Al154  1  0.35869374  0.74924496  0.36353747  1
  Al  Al155  1  0.36513648  0.75123894  0.86749231  1
  Al  Al156  1  0.87154869  0.24925517  0.36359350  1
  Al  Al157  1  0.86238844  0.25063355  0.87426615  1
  Al  Al158  1  0.87239467  0.74962926  0.35861225  1
  Al  Al159  1  0.86414122  0.75327272  0.87756284  1
  Al  Al160  1  0.12924626  0.12831584  0.24587924  1
  Al  Al161  1  0.13558913  0.13445684  0.74845829  1
  Al  Al162  1  0.13344199  0.63220286  0.25361485  1
  Al  Al163  1  0.13963266  0.63190596  0.75161755  1
  Al  Al164  1  0.63312120  0.13399463  0.24789499  1
  Al  Al165  1  0.63963637  0.13808675  0.75349785  1
  Al  Al166  1  0.63755180  0.63348550  0.24221202  1
  Al  Al167  1  0.63405647  0.63850636  0.75502771  1
  Al  Al168  1  0.36938600  0.12860375  0.24941201  1
  Al  Al169  1  0.36367751  0.13660596  0.74843901  1
  Al  Al170  1  0.35934751  0.63268404  0.24986178  1
  Al  Al171  1  0.36378318  0.63273648  0.75533229  1
  Al  Al172  1  0.87103890  0.13514506  0.24941772  1
  Al  Al173  1  0.86423332  0.13692515  0.75473732  1
  Al  Al174  1  0.86331443  0.63420890  0.24424637  1
  Al  Al175  1  0.86096664  0.64261172  0.75982577  1
  Al  Al176  1  0.13061638  0.36694160  0.25225086  1
  Al  Al177  1  0.13459801  0.37088883  0.75247441  1
  Al  Al178  1  0.12942334  0.86814614  0.24726062  1
  Al  Al179  1  0.13690258  0.86146175  0.75389303  1
  Al  Al180  1  0.63952006  0.36320178  0.24438551  1
  Al  Al181  1  0.63792875  0.36294251  0.75433851  1
  Al  Al182  1  0.63658049  0.86507431  0.24397506  1
  Al  Al183  1  0.63540300  0.86373122  0.75152066  1
  Al  Al184  1  0.36091729  0.36906530  0.24892282  1
  Al  Al185  1  0.36196859  0.36861186  0.75476632  1
  Al  Al186  1  0.36099085  0.87251494  0.24837630  1
  Al  Al187  1  0.36572415  0.86412422  0.74779605  1
  Al  Al188  1  0.87322488  0.36231376  0.24677766  1
  Al  Al189  1  0.86689493  0.36020054  0.75345782  1
  Al  Al190  1  0.87129935  0.86134213  0.24450330  1
  Al  Al191  1  0.86522180  0.86327832  0.76101286  1
  Al  Al192  1  0.83140562  0.66984506  0.49753741  1
  Al  Al193  1  0.83536551  0.83418547  0.49212045  1
  Al  Al194  1  0.49906726  0.16699928  0.66768968  1
  Al  Al195  1  0.67272081  0.50097334  0.67612683  1
  Al  Al196  1  0.49980433  0.67626043  0.67756786  1
  Al  Al197  1  -0.00052544  0.66584469  0.67484606  1
  Al  Al198  1  0.32986130  0.82457834  0.50226773  1
  Al  Al199  1  0.83615857  -0.00039999  0.83766912  1
  Al  Al200  1  0.67364665  0.50167616  0.83098620  1
  Al  Al201  1  -0.00075578  0.32434389  0.67837432  1
  Al  Al202  1  0.49949543  0.32407801  0.68020995  1
  Al  Al203  1  0.80834070  -0.00175383  0.19180037  1
  Al  Al204  1  0.82915765  -0.00136192  0.67030086  1
  Al  Al205  1  0.16959917  0.16691559  0.49394742  1
  Al  Al206  1  0.67073268  -0.00093670  0.83063345  1
  Al  Al207  1  0.33253097  -0.00070153  0.81399212  1
  Al  Al208  1  0.49958473  0.32868266  0.16792207  1
  Al  Al209  1  0.83230114  0.50289661  0.67916751  1
  Al  Al210  1  0.68301940  0.17362775  0.49854767  1
  Al  Al211  1  0.31134060  0.68147908  0.00221396  1
  Al  Al212  1  0.68688526  0.31569052  0.00350283  1
  Al  Al213  1  0.17377040  -0.00116017  0.82395699  1
  Al  Al214  1  0.82841236  0.50272872  0.83092325  1
  Al  Al215  1  0.66544259  0.83179812  0.50164979  1
  Al  Al216  1  0.50026447  0.32006337  0.32367483  1
  Al  Al217  1  0.83153337  0.49933999  0.32023879  1
  Al  Al218  1  0.18769820  0.49864298  0.18533051  1
  Al  Al219  1  0.17009069  0.17966513  0.00202620  1
  Al  Al220  1  0.16742122  0.33586571  0.49845976  1
  Al  Al221  1  0.30965686  0.50097732  0.68723822  1
  Al  Al222  1  0.66917608  0.49851759  0.31891233  1
  Al  Al223  1  0.33255398  0.33009532  0.49802639  1
  Al  Al224  1  0.16807857  0.81998728  0.49376016  1
  Al  Al225  1  0.00019042  0.68195176  0.18555291  1
  Al  Al226  1  0.68182927  0.32688097  0.49750434  1
  Al  Al227  1  0.32346521  0.17418684  0.49920354  1
  Al  Al228  1  0.00136320  0.18106835  0.82352687  1
  Al  Al229  1  0.32595636  0.17533354  0.00374305  1
  Al  Al230  1  0.00142852  0.68982848  0.82667378  1
  Al  Al231  1  0.00011168  0.82397632  0.68906961  1
  Al  Al232  1  0.69062963  -0.00036436  0.30755194  1
  Al  Al233  1  0.67131324  0.00132866  0.67414760  1
  Al  Al234  1  0.50045955  0.17733573  0.83224566  1
  Al  Al235  1  0.49802076  0.81843057  0.31448974  1
  Al  Al236  1  0.49857445  0.68395462  0.18201820  1
  Al  Al237  1  0.67406430  0.67400744  0.49925108  1
  Al  Al238  1  0.50069410  0.82038475  0.81476154  1
  Au  Au239  1  0.32367154  0.49886544  0.67721956  1
  Au  Au240  1  0.00382878  0.33494390  0.67374040  1
  Au  Au241  1  0.49747295  0.67218032  0.33140396  1
  Au  Au242  1  0.49640185  0.17111234  0.65157334  1
  Au  Au243  1  0.82298988  -0.00198040  0.65465455  1
  Au  Au244  1  0.32039674  0.82849134  0.00407518  1
  Au  Au245  1  -0.00192968  0.33241859  0.83448162  1
  Au  Au246  1  0.34445106  0.83184271  0.50333418  1
  Au  Au247  1  0.32856281  0.34205217  0.00075588  1
  Au  Au248  1  0.49936592  0.65644333  0.83980703  1
  Au  Au249  1  -0.00146996  0.16350843  0.17182444  1
  Au  Au250  1  0.34936170  0.32648371  0.49608811  1
  Au  Au251  1  0.64915986  0.82656871  0.50206492  1
  Au  Au252  1  0.17392561  -0.00169927  0.67294509  1
  Au  Au253  1  0.17209132  -0.00265634  0.16879672  1
  Au  Au254  1  0.82898978  0.67557365  0.00074491  1
  Au  Au255  1  0.82660560  0.65379188  0.49417111  1
  Au  Au256  1  0.31948004  0.66029472  0.49607566  1
  Au  Au257  1  0.49888773  0.17209630  0.33895180  1
  Au  Au258  1  0.50161495  0.17416492  0.84879114  1
  Au  Au259  1  0.49931122  0.34689538  0.82718332  1
  Au  Au260  1  0.65515180  0.00225542  0.83325045  1
  Au  Au261  1  0.32354296  0.15914225  0.00823497  1
  Au  Au262  1  0.32682966  -0.00014893  0.32564492  1
  Au  Au263  1  0.65352241  0.49802404  0.32420215  1
  Au  Au264  1  0.50062155  0.82874059  0.82949905  1
  Au  Au265  1  0.82479018  0.49585782  0.66569101  1
  Au  Au266  1  0.15295651  0.82655586  0.49355766  1
  Au  Au267  1  0.49928108  0.34472876  0.17392462  1
  Au  Au268  1  0.85168571  0.83453642  0.48752095  1
  Au  Au269  1  0.16978636  0.15145482  0.48912570  1
  Au  Au270  1  0.82455787  0.50104760  0.15827495  1
  Au  Au271  1  -0.00029219  0.82834474  0.16962987  1
  Au  Au272  1  -0.00155522  0.16012866  0.67525275  1
  Au  Au273  1  0.84715178  -0.00031444  0.84878720  1
  Au  Au274  1  -0.00120983  0.33152690  0.16641016  1
  Au  Au275  1  0.67601242  0.32902747  0.00224606  1
  Au  Au276  1  0.83226034  0.17703427  0.49312083  1
  Au  Au277  1  0.50434003  0.15823123  0.16548247  1
  Au  Au278  1  0.68013723  -0.00195085  0.32100332  1
  Au  Au279  1  0.16041913  0.33056347  -0.00133140  1
  Au  Au280  1  0.32655516  -0.00102499  0.83032698  1
  Au  Au281  1  0.16356189  0.35151854  0.49900768  1
  Au  Au282  1  0.84384014  0.49921013  0.33033113  1
  Au  Au283  1  0.50340923  0.83523755  0.16616475  1
  Au  Au284  1  0.17557003  0.50218359  0.17395571  1
  Au  Au285  1  0.00375710  0.32383614  0.33561519  1
  Au  Au286  1  0.49758129  0.67685649  0.66474276  1
  Au  Au287  1  0.00765895  0.67522206  0.66326235  1
