# generated using pymatgen
data_Ca24Ti8Al207Au49
_symmetry_space_group_name_H-M   'P 1'
_cell_length_a   17.32023929
_cell_length_b   17.32018462
_cell_length_c   17.31987587
_cell_angle_alpha   90.00141020
_cell_angle_beta   90.00101343
_cell_angle_gamma   90.00001821
_symmetry_Int_Tables_number   1
_chemical_formula_structural   Ca24Ti8Al207Au49
_chemical_formula_sum   'Ca24 Ti8 Al207 Au49'
_cell_volume   5195.78509130
_cell_formula_units_Z   1
loop_
 _symmetry_equiv_pos_site_id
 _symmetry_equiv_pos_as_xyz
  1  'x, y, z'
loop_
 _atom_site_type_symbol
 _atom_site_label
 _atom_site_symmetry_multiplicity
 _atom_site_fract_x
 _atom_site_fract_y
 _atom_site_fract_z
 _atom_site_occupancy
  Ca  Ca0  1  0.24405363  -0.00708103  0.00013625  1
  Ca  Ca1  1  0.24819391  -0.00245720  0.50178569  1
  Ca  Ca2  1  0.24960676  0.50511620  -0.00361073  1
  Ca  Ca3  1  0.25691530  0.50197256  0.50247765  1
  Ca  Ca4  1  0.75525147  -0.00173129  0.00229862  1
  Ca  Ca5  1  0.75034844  -0.00104442  0.50486169  1
  Ca  Ca6  1  0.74481117  0.50724249  -0.00298558  1
  Ca  Ca7  1  0.74400762  0.50271148  0.50228253  1
  Ca  Ca8  1  0.00301707  0.25202861  -0.00438926  1
  Ca  Ca9  1  0.00255696  0.24623123  0.50348762  1
  Ca  Ca10  1  0.00104289  0.74971116  -0.00311001  1
  Ca  Ca11  1  -0.00026466  0.75384927  0.50356014  1
  Ca  Ca12  1  0.49911156  0.25514472  -0.00402482  1
  Ca  Ca13  1  0.49584586  0.25095655  0.50330552  1
  Ca  Ca14  1  0.50071703  0.74177128  -0.00202054  1
  Ca  Ca15  1  0.50247273  0.74628273  0.49991671  1
  Ca  Ca16  1  0.00487764  -0.00530157  0.25571566  1
  Ca  Ca17  1  0.00440958  -0.00607014  0.75202225  1
  Ca  Ca18  1  -0.00008780  0.50541404  0.24507620  1
  Ca  Ca19  1  0.00187468  0.50475863  0.75499676  1
  Ca  Ca20  1  0.49799587  -0.00718107  0.25008947  1
  Ca  Ca21  1  0.49979311  -0.00208445  0.74708793  1
  Ca  Ca22  1  0.49772781  0.50458006  0.24818496  1
  Ca  Ca23  1  0.49928216  0.50770202  0.74767102  1
  Ti  Ti24  1  0.24923246  0.25156427  0.24994723  1
  Ti  Ti25  1  0.24962556  0.25039555  0.75080868  1
  Ti  Ti26  1  0.24857089  0.74885821  0.24935907  1
  Ti  Ti27  1  0.24987561  0.75056106  0.75026170  1
  Ti  Ti28  1  0.75011951  0.25022911  0.25090694  1
  Ti  Ti29  1  0.74924626  0.25115593  0.75003964  1
  Ti  Ti30  1  0.75180065  0.74980621  0.24910855  1
  Ti  Ti31  1  0.75028932  0.74850477  0.75082273  1
  Al  Al32  1  0.08850550  0.07078856  0.07795812  1
  Al  Al33  1  0.08578775  0.07425571  0.58921883  1
  Al  Al34  1  0.08537821  0.58672685  0.08011959  1
  Al  Al35  1  0.08004505  0.58441233  0.59312126  1
  Al  Al36  1  0.57211001  0.07937764  0.07853153  1
  Al  Al37  1  0.58030330  0.10445361  0.58629847  1
  Al  Al38  1  0.58237547  0.59272639  0.07712739  1
  Al  Al39  1  0.58310608  0.59573003  0.58799788  1
  Al  Al40  1  0.40719879  0.42589682  0.08816679  1
  Al  Al41  1  0.41643051  0.40453835  0.58732988  1
  Al  Al42  1  0.41175226  0.90895109  0.07523308  1
  Al  Al43  1  0.42154547  0.91772953  0.58454885  1
  Al  Al44  1  0.91004956  0.41448671  0.07012164  1
  Al  Al45  1  0.92093511  0.42376068  0.58643396  1
  Al  Al46  1  0.92829705  0.90467898  0.08122849  1
  Al  Al47  1  0.92317402  0.90866794  0.58572191  1
  Al  Al48  1  0.40856588  0.07993315  0.42579007  1
  Al  Al49  1  0.41589925  0.08002632  0.91877656  1
  Al  Al50  1  0.41692956  0.59280080  0.41846354  1
  Al  Al51  1  0.41891593  0.58824106  0.90931240  1
  Al  Al52  1  0.91438264  0.07662452  0.42154111  1
  Al  Al53  1  0.91156594  0.07524546  0.90814572  1
  Al  Al54  1  0.92097000  0.59625514  0.41779589  1
  Al  Al55  1  0.92375886  0.58965321  0.91360739  1
  Al  Al56  1  0.08268263  0.42173930  0.42341889  1
  Al  Al57  1  0.09371692  0.42186208  0.91250778  1
  Al  Al58  1  0.08645414  0.91686533  0.41134924  1
  Al  Al59  1  0.08254620  0.90524615  0.91541424  1
  Al  Al60  1  0.57554300  0.42397710  0.43110688  1
  Al  Al61  1  0.58903379  0.42897962  0.90763920  1
  Al  Al62  1  0.58655017  0.90613907  0.42133767  1
  Al  Al63  1  0.58665350  0.90667660  0.91959846  1
  Al  Al64  1  0.08973453  0.07495516  0.41390864  1
  Al  Al65  1  0.08239426  0.08026288  0.91592255  1
  Al  Al66  1  0.07591937  0.58877151  0.41151194  1
  Al  Al67  1  0.08814560  0.58794425  0.91103265  1
  Al  Al68  1  0.59123522  0.08807367  0.42830016  1
  Al  Al69  1  0.57737575  0.07777395  0.91663182  1
  Al  Al70  1  0.57970532  0.59465981  0.42172329  1
  Al  Al71  1  0.58759144  0.59223065  0.90743440  1
  Al  Al72  1  0.41003732  0.41898483  0.42757726  1
  Al  Al73  1  0.41801211  0.42434081  0.91567484  1
  Al  Al74  1  0.41980543  0.91977404  0.41468730  1
  Al  Al75  1  0.41152093  0.90970446  0.91867854  1
  Al  Al76  1  0.92149802  0.42227930  0.42484980  1
  Al  Al77  1  0.91574999  0.41310066  0.91695820  1
  Al  Al78  1  0.91876214  0.91444604  0.41811827  1
  Al  Al79  1  0.91760007  0.91211755  0.90780017  1
  Al  Al80  1  0.09245582  0.42091395  0.07152302  1
  Al  Al81  1  0.08568459  0.42172937  0.58681042  1
  Al  Al82  1  0.08934879  0.90522435  0.08715294  1
  Al  Al83  1  0.08498142  0.91412084  0.59380238  1
  Al  Al84  1  0.57589620  0.42740172  0.07444502  1
  Al  Al85  1  0.57745945  0.41057502  0.59444070  1
  Al  Al86  1  0.58751067  0.90484311  0.07522210  1
  Al  Al87  1  0.58345790  0.89912578  0.57828412  1
  Al  Al88  1  0.41795606  0.08491975  0.07746592  1
  Al  Al89  1  0.41780445  0.09591530  0.58712464  1
  Al  Al90  1  0.41373768  0.58675327  0.08745851  1
  Al  Al91  1  0.42060902  0.59106166  0.58169570  1
  Al  Al92  1  0.92520681  0.07632543  0.07017834  1
  Al  Al93  1  0.92172205  0.08147802  0.57848668  1
  Al  Al94  1  0.92124508  0.58775292  0.07810587  1
  Al  Al95  1  0.92046831  0.58688938  0.58901081  1
  Al  Al96  1  0.24407058  0.13524155  0.13480462  1
  Al  Al97  1  0.24961629  0.13205763  0.63715146  1
  Al  Al98  1  0.25203126  0.63718046  0.13490419  1
  Al  Al99  1  0.25064639  0.63690923  0.63710503  1
  Al  Al100  1  0.74894651  0.13688866  0.13179902  1
  Al  Al101  1  0.74626290  0.13468645  0.63570816  1
  Al  Al102  1  0.75144401  0.64055458  0.12982934  1
  Al  Al103  1  0.74359379  0.63576150  0.63304371  1
  Al  Al104  1  0.25019594  0.36696412  0.13304133  1
  Al  Al105  1  0.25385234  0.36537165  0.63618615  1
  Al  Al106  1  0.24640504  0.86114801  0.13221899  1
  Al  Al107  1  0.25049992  0.86885835  0.63637508  1
  Al  Al108  1  0.75358599  0.36361584  0.13412765  1
  Al  Al109  1  0.74161050  0.36631017  0.63598142  1
  Al  Al110  1  0.74969664  0.85890356  0.12754013  1
  Al  Al111  1  0.74548343  0.86233838  0.63066979  1
  Al  Al112  1  0.24705962  0.13733118  0.36691592  1
  Al  Al113  1  0.24685241  0.13469127  0.86494682  1
  Al  Al114  1  0.25468712  0.63596301  0.36726202  1
  Al  Al115  1  0.24946815  0.63450483  0.86476882  1
  Al  Al116  1  0.74671647  0.13577162  0.36524317  1
  Al  Al117  1  0.75010376  0.13640412  0.86563285  1
  Al  Al118  1  0.75218845  0.63853809  0.36678336  1
  Al  Al119  1  0.74457030  0.63694699  0.87077015  1
  Al  Al120  1  0.25585280  0.36854976  0.36703601  1
  Al  Al121  1  0.24512179  0.36698615  0.86577886  1
  Al  Al122  1  0.24759348  0.85989481  0.36353254  1
  Al  Al123  1  0.24701555  0.86214295  0.86895079  1
  Al  Al124  1  0.74734043  0.36761103  0.36625399  1
  Al  Al125  1  0.74803857  0.36512594  0.86211621  1
  Al  Al126  1  0.74973668  0.85818278  0.36890992  1
  Al  Al127  1  0.74989294  0.85962237  0.86984939  1
  Al  Al128  1  0.13685077  0.25205058  0.12719943  1
  Al  Al129  1  0.13686787  0.24977840  0.63552119  1
  Al  Al130  1  0.12818412  0.75179053  0.13346718  1
  Al  Al131  1  0.13382186  0.75224994  0.63806713  1
  Al  Al132  1  0.63557294  0.25272510  0.13330589  1
  Al  Al133  1  0.63164976  0.25079099  0.63517216  1
  Al  Al134  1  0.63507645  0.74829003  0.13102501  1
  Al  Al135  1  0.63265145  0.74543110  0.63622597  1
  Al  Al136  1  0.13176122  0.25236181  0.36636138  1
  Al  Al137  1  0.13216322  0.24877361  0.86791531  1
  Al  Al138  1  0.12909079  0.74789245  0.36466295  1
  Al  Al139  1  0.13291231  0.74994619  0.86503654  1
  Al  Al140  1  0.63564377  0.25190353  0.37164377  1
  Al  Al141  1  0.63295219  0.25104360  0.86532206  1
  Al  Al142  1  0.63378612  0.74649492  0.36860475  1
  Al  Al143  1  0.63388535  0.74602998  0.86617832  1
  Al  Al144  1  0.36339381  0.25403738  0.13615914  1
  Al  Al145  1  0.36699918  0.25291588  0.63626056  1
  Al  Al146  1  0.36201444  0.75019645  0.12899582  1
  Al  Al147  1  0.36451928  0.74491884  0.63320126  1
  Al  Al148  1  0.86685824  0.25349701  0.13378243  1
  Al  Al149  1  0.86373216  0.24876166  0.63952165  1
  Al  Al150  1  0.87170830  0.74864687  0.12932069  1
  Al  Al151  1  0.86537844  0.75211160  0.63552036  1
  Al  Al152  1  0.36299549  0.25421569  0.36617151  1
  Al  Al153  1  0.36550807  0.25309176  0.86409660  1
  Al  Al154  1  0.36965387  0.74206641  0.36646583  1
  Al  Al155  1  0.36063891  0.74840838  0.87051366  1
  Al  Al156  1  0.86824370  0.24776277  0.36520785  1
  Al  Al157  1  0.86900636  0.25395259  0.86440155  1
  Al  Al158  1  0.87335583  0.75122555  0.36597251  1
  Al  Al159  1  0.86413944  0.74805768  0.87176438  1
  Al  Al160  1  0.13519732  0.13582615  0.25479896  1
  Al  Al161  1  0.13623036  0.12995644  0.75156664  1
  Al  Al162  1  0.13014894  0.63935321  0.24779759  1
  Al  Al163  1  0.13389332  0.63642093  0.75513466  1
  Al  Al164  1  0.63669643  0.13617546  0.25117415  1
  Al  Al165  1  0.63279946  0.13547998  0.74668861  1
  Al  Al166  1  0.63659541  0.63926346  0.25117218  1
  Al  Al167  1  0.63464610  0.63161398  0.75173546  1
  Al  Al168  1  0.36056900  0.13836559  0.25195173  1
  Al  Al169  1  0.36571908  0.13312199  0.74485283  1
  Al  Al170  1  0.36230691  0.63154579  0.24955725  1
  Al  Al171  1  0.36899975  0.63814000  0.75126108  1
  Al  Al172  1  0.86438448  0.13680492  0.25017562  1
  Al  Al173  1  0.86264211  0.13373735  0.75477404  1
  Al  Al174  1  0.87012914  0.63984340  0.24870894  1
  Al  Al175  1  0.86332121  0.63779821  0.75405779  1
  Al  Al176  1  0.13670385  0.36353503  0.25125385  1
  Al  Al177  1  0.13618089  0.36556404  0.75459502  1
  Al  Al178  1  0.12889699  0.85950719  0.25093077  1
  Al  Al179  1  0.13500909  0.86729615  0.74854013  1
  Al  Al180  1  0.63512219  0.36351883  0.24858515  1
  Al  Al181  1  0.63132297  0.36717438  0.74885957  1
  Al  Al182  1  0.63644809  0.86215440  0.25329955  1
  Al  Al183  1  0.63734084  0.86276754  0.75066681  1
  Al  Al184  1  0.36305788  0.37216663  0.24778975  1
  Al  Al185  1  0.37136808  0.36450429  0.74862275  1
  Al  Al186  1  0.36441635  0.85989872  0.25234389  1
  Al  Al187  1  0.36288438  0.86563068  0.75014883  1
  Al  Al188  1  0.86520282  0.36589667  0.25776089  1
  Al  Al189  1  0.86504392  0.36610600  0.75116875  1
  Al  Al190  1  0.87000089  0.85834004  0.24870694  1
  Al  Al191  1  0.86099052  0.86408516  0.75238343  1
  Al  Al192  1  0.81611156  0.17192961  0.50080840  1
  Al  Al193  1  0.00089855  0.17280520  0.67696837  1
  Al  Al194  1  0.83106591  -0.00068455  0.68120913  1
  Al  Al195  1  0.18763587  0.32215925  0.50051906  1
  Al  Al196  1  0.49880518  0.33050636  0.32205721  1
  Al  Al197  1  0.49880334  0.67847067  0.18820952  1
  Al  Al198  1  0.17233267  -0.00378742  0.18879440  1
  Al  Al199  1  0.18367699  0.50212647  0.16917066  1
  Al  Al200  1  0.49911969  0.18087323  0.81368461  1
  Al  Al201  1  0.49865045  0.18183108  0.17479324  1
  Al  Al202  1  0.00113967  0.32750977  0.67941319  1
  Al  Al203  1  0.81393053  0.50330037  0.83087838  1
  Al  Al204  1  0.32964743  0.81462647  0.49956702  1
  Al  Al205  1  0.82465209  0.18465009  -0.00131260  1
  Al  Al206  1  0.67468725  0.50403017  0.33080017  1
  Al  Al207  1  0.82078105  -0.00286371  0.32617637  1
  Al  Al208  1  0.33201806  0.50213865  0.66963355  1
  Al  Al209  1  0.17712371  0.50290026  0.32491794  1
  Al  Al210  1  0.00280431  0.17123893  0.17785276  1
  Al  Al211  1  0.49708350  0.80770794  0.82875145  1
  Al  Al212  1  -0.00180751  0.80929003  0.81033638  1
  Al  Al213  1  0.32135580  -0.00158949  0.82119554  1
  Al  Al214  1  0.18171575  0.66916072  0.50117731  1
  Al  Al215  1  -0.00083340  0.68851495  0.69097349  1
  Al  Al216  1  0.31712386  0.32989732  -0.00094372  1
  Al  Al217  1  0.50076680  0.81922681  0.31796654  1
  Al  Al218  1  0.82334557  0.68145075  0.50278558  1
  Al  Al219  1  0.81703698  0.50159914  0.67529541  1
  Al  Al220  1  0.32223249  -0.00019378  0.17765101  1
  Al  Al221  1  0.18159391  0.68610752  0.00006211  1
  Al  Al222  1  0.66674727  -0.00069805  0.66819088  1
  Al  Al223  1  0.31440060  0.50040227  0.82049474  1
  Al  Al224  1  0.17304793  0.82627095  0.50119401  1
  Al  Al225  1  0.82905984  0.50072877  0.17422596  1
  Al  Al226  1  0.83272329  -0.00440552  0.16952517  1
  Al  Al227  1  0.17876036  0.50111530  0.68941914  1
  Al  Al228  1  0.68576127  -0.00222047  0.82851071  1
  Al  Al229  1  0.49825503  0.81162694  0.67548595  1
  Al  Al230  1  0.49927149  0.16684379  0.33142862  1
  Al  Al231  1  0.67049195  0.50337348  0.17264024  1
  Al  Al232  1  0.67004783  -0.00043456  0.17841237  1
  Al  Al233  1  0.31906902  0.18889164  0.50168070  1
  Al  Al234  1  0.81938748  0.32696137  0.50211974  1
  Al  Al235  1  0.00198939  0.33568159  0.17453722  1
  Al  Al236  1  0.68266013  0.32862876  -0.00101405  1
  Al  Al237  1  0.31071790  -0.00079982  0.32809027  1
  Al  Al238  1  0.31862597  0.17554125  -0.00038136  1
  Au  Au239  1  -0.00114305  0.16138396  0.82454130  1
  Au  Au240  1  0.17368113  0.15621177  0.50362864  1
  Au  Au241  1  0.65851629  0.32219152  0.50423485  1
  Au  Au242  1  0.17786713  0.33568182  0.50246120  1
  Au  Au243  1  0.00504713  0.33522261  0.83084569  1
  Au  Au244  1  0.49690685  0.15053327  0.32602242  1
  Au  Au245  1  0.33147190  0.83128445  0.49973820  1
  Au  Au246  1  0.33404896  -0.00058667  0.16623950  1
  Au  Au247  1  0.33084685  0.67393326  -0.00074866  1
  Au  Au248  1  0.32937127  0.00282634  0.66314003  1
  Au  Au249  1  0.00327371  0.33871006  0.15800971  1
  Au  Au250  1  0.66497607  0.50258205  0.66967668  1
  Au  Au251  1  0.82648592  0.66987099  -0.00213376  1
  Au  Au252  1  0.16563911  -0.00617261  0.82810602  1
  Au  Au253  1  0.67642234  0.34441956  -0.00135222  1
  Au  Au254  1  0.82263018  0.83469046  0.50073217  1
  Au  Au255  1  0.65800283  0.50213141  0.33079190  1
  Au  Au256  1  0.00097538  0.82784805  0.32883685  1
  Au  Au257  1  0.00163110  0.67261258  0.17086955  1
  Au  Au258  1  0.00509967  0.15769365  0.16831483  1
  Au  Au259  1  0.00001777  0.33246836  0.33799082  1
  Au  Au260  1  0.50199170  0.34382515  0.82153277  1
  Au  Au261  1  0.16502589  0.66767937  0.50124467  1
  Au  Au262  1  0.82753508  0.83578424  -0.00191515  1
  Au  Au263  1  0.82273351  0.66894453  0.50463086  1
  Au  Au264  1  0.83565990  0.32527545  0.50640251  1
  Au  Au265  1  0.65839034  -0.00128282  0.16676350  1
  Au  Au266  1  0.82296882  0.50043068  0.15828546  1
  Au  Au267  1  0.84668522  -0.00080486  0.67672033  1
  Au  Au268  1  0.67950922  -0.00348671  0.84454403  1
  Au  Au269  1  0.32935021  0.33375033  -0.00123944  1
  Au  Au270  1  0.49982243  0.33275793  0.15933205  1
  Au  Au271  1  0.32666886  -0.00114194  0.83253706  1
  Au  Au272  1  0.66042574  0.16896158  0.00200380  1
  Au  Au273  1  0.65406810  -0.00047396  0.65905868  1
  Au  Au274  1  0.83070845  0.50087522  0.82979071  1
  Au  Au275  1  0.67436270  -0.00302210  0.34785438  1
  Au  Au276  1  -0.00124945  0.16488584  0.34191508  1
  Au  Au277  1  0.50003781  0.82452085  0.82783682  1
  Au  Au278  1  0.49732998  0.16754371  0.82461226  1
  Au  Au279  1  0.49630868  0.33471953  0.33755532  1
  Au  Au280  1  0.50150499  0.81664252  0.33049697  1
  Au  Au281  1  0.84809200  -0.00658378  0.17603641  1
  Au  Au282  1  0.84271588  0.50540403  0.33419210  1
  Au  Au283  1  0.49778333  0.82167942  0.15581853  1
  Au  Au284  1  0.83613107  0.17186670  -0.00335586  1
  Au  Au285  1  0.33923886  0.50400393  0.32934142  1
  Au  Au286  1  0.16902334  0.16952467  -0.00063134  1
  Au  Au287  1  0.16094911  0.50281166  0.31908721  1
