# generated using pymatgen
data_Ca24Ti8Al207Au49
_symmetry_space_group_name_H-M   'P 1'
_cell_length_a   17.32547481
_cell_length_b   17.32207859
_cell_length_c   17.32321158
_cell_angle_alpha   90.00148218
_cell_angle_beta   90.00352248
_cell_angle_gamma   90.00009411
_symmetry_Int_Tables_number   1
_chemical_formula_structural   Ca24Ti8Al207Au49
_chemical_formula_sum   'Ca24 Ti8 Al207 Au49'
_cell_volume   5198.92507687
_cell_formula_units_Z   1
loop_
 _symmetry_equiv_pos_site_id
 _symmetry_equiv_pos_as_xyz
  1  'x, y, z'
loop_
 _atom_site_type_symbol
 _atom_site_label
 _atom_site_symmetry_multiplicity
 _atom_site_fract_x
 _atom_site_fract_y
 _atom_site_fract_z
 _atom_site_occupancy
  Ca  Ca0  1  0.24889968  -0.00473638  -0.00042535  1
  Ca  Ca1  1  0.24513400  -0.00190171  0.50376080  1
  Ca  Ca2  1  0.25050498  0.50359730  0.00042455  1
  Ca  Ca3  1  0.25228713  0.50162595  0.49656214  1
  Ca  Ca4  1  0.74797400  -0.00368978  0.00075703  1
  Ca  Ca5  1  0.74486866  -0.00096458  0.50107994  1
  Ca  Ca6  1  0.74905457  0.50817889  -0.00276953  1
  Ca  Ca7  1  0.74894548  0.50134591  0.50438695  1
  Ca  Ca8  1  0.00123113  0.25408909  -0.00176263  1
  Ca  Ca9  1  0.00175039  0.25378437  0.50379465  1
  Ca  Ca10  1  0.00033771  0.74673168  -0.00144746  1
  Ca  Ca11  1  -0.00044034  0.74969825  0.50208370  1
  Ca  Ca12  1  0.49696985  0.25310971  -0.00030454  1
  Ca  Ca13  1  0.49720858  0.25333456  0.50189191  1
  Ca  Ca14  1  0.50109366  0.74888009  0.00122866  1
  Ca  Ca15  1  0.50135354  0.74954607  0.50107567  1
  Ca  Ca16  1  -0.00432657  -0.00867847  0.24847312  1
  Ca  Ca17  1  -0.00088923  -0.00452348  0.75133515  1
  Ca  Ca18  1  0.00457895  0.50623266  0.24891307  1
  Ca  Ca19  1  0.00127816  0.50604152  0.75553838  1
  Ca  Ca20  1  0.50317727  -0.00170892  0.24752721  1
  Ca  Ca21  1  0.49989054  -0.00229549  0.74791321  1
  Ca  Ca22  1  0.49624136  0.50192870  0.24897978  1
  Ca  Ca23  1  0.49904047  0.50093438  0.75285388  1
  Ti  Ti24  1  0.25016032  0.25342794  0.24915752  1
  Ti  Ti25  1  0.25080125  0.25266313  0.75121783  1
  Ti  Ti26  1  0.24923787  0.74805014  0.24738088  1
  Ti  Ti27  1  0.25067983  0.74724550  0.75294131  1
  Ti  Ti28  1  0.74889359  0.24885887  0.24921758  1
  Ti  Ti29  1  0.74925647  0.25135910  0.75045723  1
  Ti  Ti30  1  0.74995125  0.75055983  0.24680633  1
  Ti  Ti31  1  0.74906692  0.75106096  0.75126486  1
  Al  Al32  1  0.08271695  0.07314304  0.07275485  1
  Al  Al33  1  0.07572146  0.08403852  0.58116333  1
  Al  Al34  1  0.08905978  0.59257500  0.08017312  1
  Al  Al35  1  0.07716728  0.59064228  0.58933511  1
  Al  Al36  1  0.58592124  0.07759545  0.09091972  1
  Al  Al37  1  0.58623773  0.07772133  0.59163866  1
  Al  Al38  1  0.58437632  0.59310751  0.07918952  1
  Al  Al39  1  0.58213045  0.58174755  0.58282014  1
  Al  Al40  1  0.40680466  0.41750931  0.08297386  1
  Al  Al41  1  0.41119572  0.41072360  0.57471859  1
  Al  Al42  1  0.41485954  0.90743751  0.07361121  1
  Al  Al43  1  0.43190983  0.91163620  0.58932590  1
  Al  Al44  1  0.92360972  0.42759989  0.07910967  1
  Al  Al45  1  0.91952687  0.42455179  0.58399030  1
  Al  Al46  1  0.91646961  0.90140020  0.08739552  1
  Al  Al47  1  0.91653866  0.90988944  0.58744002  1
  Al  Al48  1  0.41937998  0.08191325  0.43026174  1
  Al  Al49  1  0.41858937  0.09160555  0.91129603  1
  Al  Al50  1  0.41040062  0.58077789  0.40396287  1
  Al  Al51  1  0.41801979  0.58539913  0.92188665  1
  Al  Al52  1  0.91340360  0.06950161  0.42148081  1
  Al  Al53  1  0.92829896  0.08767577  0.91134585  1
  Al  Al54  1  0.92568872  0.58041260  0.41459814  1
  Al  Al55  1  0.91610296  0.59079817  0.90708009  1
  Al  Al56  1  0.09230910  0.42068410  0.40778774  1
  Al  Al57  1  0.08122839  0.41958436  0.92049702  1
  Al  Al58  1  0.07709804  0.90965748  0.40935108  1
  Al  Al59  1  0.08492443  0.90085159  0.92246775  1
  Al  Al60  1  0.57292475  0.42237214  0.42155826  1
  Al  Al61  1  0.58207600  0.41986531  0.91506612  1
  Al  Al62  1  0.59073341  0.90820089  0.42342835  1
  Al  Al63  1  0.57895612  0.91240888  0.92050219  1
  Al  Al64  1  0.08372908  0.07169433  0.42232300  1
  Al  Al65  1  0.08124319  0.09237270  0.91189852  1
  Al  Al66  1  0.08902561  0.58058014  0.40729632  1
  Al  Al67  1  0.08050785  0.59687373  0.91732936  1
  Al  Al68  1  0.58455574  0.07451152  0.42424042  1
  Al  Al69  1  0.57525584  0.08843136  0.91307442  1
  Al  Al70  1  0.57193643  0.59138785  0.41289763  1
  Al  Al71  1  0.58951242  0.58956799  0.91798656  1
  Al  Al72  1  0.40401337  0.41703831  0.41158824  1
  Al  Al73  1  0.41245823  0.40936538  0.92172984  1
  Al  Al74  1  0.42883870  0.91813522  0.42279986  1
  Al  Al75  1  0.41298543  0.90505207  0.91756982  1
  Al  Al76  1  0.92415703  0.42204824  0.41669865  1
  Al  Al77  1  0.91674169  0.42908430  0.90740580  1
  Al  Al78  1  0.91690970  0.91053405  0.41033653  1
  Al  Al79  1  0.92012354  0.90329661  0.92512748  1
  Al  Al80  1  0.08844487  0.42253800  0.08069985  1
  Al  Al81  1  0.08383089  0.41778092  0.57924049  1
  Al  Al82  1  0.08094159  0.89655154  0.08498901  1
  Al  Al83  1  0.07266833  0.90779923  0.58319615  1
  Al  Al84  1  0.57770769  0.42041563  0.07753979  1
  Al  Al85  1  0.58039970  0.42074171  0.58491838  1
  Al  Al86  1  0.59088832  0.91820746  0.08546805  1
  Al  Al87  1  0.59309338  0.91205094  0.58841565  1
  Al  Al88  1  0.42487269  0.08413240  0.07323202  1
  Al  Al89  1  0.42439536  0.08937584  0.58444469  1
  Al  Al90  1  0.41345042  0.58428769  0.08595959  1
  Al  Al91  1  0.42303321  0.58065209  0.57983473  1
  Al  Al92  1  0.91884547  0.06666548  0.07820233  1
  Al  Al93  1  0.91874827  0.08185675  0.58409886  1
  Al  Al94  1  0.92065098  0.58919495  0.07813344  1
  Al  Al95  1  0.92090028  0.58843467  0.59656858  1
  Al  Al96  1  0.25083547  0.13589357  0.13267964  1
  Al  Al97  1  0.25425056  0.13719959  0.63807269  1
  Al  Al98  1  0.24805174  0.63808015  0.12629259  1
  Al  Al99  1  0.24876699  0.63065358  0.63855496  1
  Al  Al100  1  0.74728440  0.12690139  0.13376796  1
  Al  Al101  1  0.74835781  0.12967960  0.63828058  1
  Al  Al102  1  0.74978004  0.63580185  0.12856040  1
  Al  Al103  1  0.74977922  0.63867524  0.63648222  1
  Al  Al104  1  0.25112993  0.36949756  0.13361544  1
  Al  Al105  1  0.25111276  0.36946484  0.63153314  1
  Al  Al106  1  0.24727543  0.86298655  0.12992614  1
  Al  Al107  1  0.25046839  0.86264485  0.64170921  1
  Al  Al108  1  0.74915634  0.37162109  0.13531697  1
  Al  Al109  1  0.74970101  0.36660004  0.63673640  1
  Al  Al110  1  0.75022254  0.86612465  0.12940553  1
  Al  Al111  1  0.74622824  0.87057976  0.63480393  1
  Al  Al112  1  0.25026121  0.13903985  0.36317882  1
  Al  Al113  1  0.25392464  0.13091123  0.86333061  1
  Al  Al114  1  0.24927946  0.63046432  0.36246850  1
  Al  Al115  1  0.24916771  0.63401652  0.87242537  1
  Al  Al116  1  0.74708519  0.13317733  0.36488057  1
  Al  Al117  1  0.74464152  0.13528157  0.86519751  1
  Al  Al118  1  0.75065828  0.63815330  0.36675794  1
  Al  Al119  1  0.75004797  0.63493651  0.86918046  1
  Al  Al120  1  0.25232560  0.37074625  0.36726186  1
  Al  Al121  1  0.25410004  0.37064552  0.86384397  1
  Al  Al122  1  0.24788107  0.86200063  0.35836981  1
  Al  Al123  1  0.24757271  0.86441879  0.86537919  1
  Al  Al124  1  0.75029194  0.36625901  0.36439441  1
  Al  Al125  1  0.74782314  0.36946605  0.86044073  1
  Al  Al126  1  0.74640002  0.86433593  0.36550127  1
  Al  Al127  1  0.75155847  0.86348360  0.87048791  1
  Al  Al128  1  0.13637686  0.25595836  0.13639043  1
  Al  Al129  1  0.13713606  0.25348356  0.63615283  1
  Al  Al130  1  0.13565208  0.75007163  0.12963913  1
  Al  Al131  1  0.13603252  0.74870907  0.63757516  1
  Al  Al132  1  0.63866279  0.24806450  0.13610253  1
  Al  Al133  1  0.63547612  0.25350602  0.63732179  1
  Al  Al134  1  0.63744066  0.75150946  0.12859640  1
  Al  Al135  1  0.63488409  0.75805197  0.63044216  1
  Al  Al136  1  0.13833762  0.25635671  0.36507984  1
  Al  Al137  1  0.13313136  0.25114721  0.86268872  1
  Al  Al138  1  0.13594498  0.74979469  0.36256454  1
  Al  Al139  1  0.13405950  0.74697196  0.86901793  1
  Al  Al140  1  0.63652759  0.25112625  0.36276940  1
  Al  Al141  1  0.62915800  0.24761440  0.86222284  1
  Al  Al142  1  0.63690979  0.75096716  0.36548285  1
  Al  Al143  1  0.63708042  0.75310181  0.87214527  1
  Al  Al144  1  0.36254139  0.25584807  0.12983142  1
  Al  Al145  1  0.36486412  0.25580098  0.63856448  1
  Al  Al146  1  0.36325745  0.74811323  0.12932739  1
  Al  Al147  1  0.36461739  0.74912550  0.64065885  1
  Al  Al148  1  0.86119979  0.24801716  0.13498439  1
  Al  Al149  1  0.86170748  0.25008066  0.63796994  1
  Al  Al150  1  0.86327078  0.75161646  0.12451836  1
  Al  Al151  1  0.86383497  0.75127462  0.63471609  1
  Al  Al152  1  0.36311005  0.25576699  0.36577262  1
  Al  Al153  1  0.36615795  0.25257801  0.86685270  1
  Al  Al154  1  0.36509921  0.74573638  0.36362376  1
  Al  Al155  1  0.36056369  0.75155907  0.87467398  1
  Al  Al156  1  0.86153250  0.25045629  0.35963629  1
  Al  Al157  1  0.86963820  0.24682032  0.86210835  1
  Al  Al158  1  0.86634105  0.75436285  0.36301132  1
  Al  Al159  1  0.86405606  0.74926941  0.87109819  1
  Al  Al160  1  0.13655454  0.13548519  0.24578604  1
  Al  Al161  1  0.13652695  0.13325517  0.75381980  1
  Al  Al162  1  0.13731627  0.63258612  0.24728183  1
  Al  Al163  1  0.13578644  0.63256719  0.75552829  1
  Al  Al164  1  0.63701112  0.12750075  0.24883373  1
  Al  Al165  1  0.63457544  0.13408533  0.74786802  1
  Al  Al166  1  0.63726806  0.63552237  0.24871886  1
  Al  Al167  1  0.63606970  0.63908195  0.75477038  1
  Al  Al168  1  0.36340537  0.13894609  0.24493669  1
  Al  Al169  1  0.36844222  0.13557856  0.75472353  1
  Al  Al170  1  0.36338010  0.63540755  0.25147718  1
  Al  Al171  1  0.36280504  0.63003261  0.75284804  1
  Al  Al172  1  0.86313026  0.13023393  0.24470602  1
  Al  Al173  1  0.86283701  0.13148255  0.75118057  1
  Al  Al174  1  0.86481017  0.64040544  0.24426672  1
  Al  Al175  1  0.86571929  0.63719116  0.75749646  1
  Al  Al176  1  0.14148955  0.37581228  0.25107850  1
  Al  Al177  1  0.13909821  0.37441661  0.75139767  1
  Al  Al178  1  0.12935567  0.85946016  0.24568033  1
  Al  Al179  1  0.13364841  0.86254971  0.75250293  1
  Al  Al180  1  0.63411123  0.36668779  0.24478530  1
  Al  Al181  1  0.62605997  0.36477402  0.75532530  1
  Al  Al182  1  0.63819302  0.86961495  0.24764673  1
  Al  Al183  1  0.63022835  0.86234083  0.75006552  1
  Al  Al184  1  0.36235410  0.36805820  0.25024219  1
  Al  Al185  1  0.36827391  0.37028800  0.75146246  1
  Al  Al186  1  0.36356180  0.86123445  0.24537395  1
  Al  Al187  1  0.36844152  0.86407096  0.75563891  1
  Al  Al188  1  0.86499233  0.36541429  0.24453160  1
  Al  Al189  1  0.86725279  0.36614514  0.75429659  1
  Al  Al190  1  0.86674989  0.86073628  0.24410024  1
  Al  Al191  1  0.86420931  0.86331928  0.74640276  1
  Al  Al192  1  0.17581511  0.17656921  0.50036537  1
  Al  Al193  1  0.00075605  0.32797883  0.68277949  1
  Al  Al194  1  0.18551707  0.32932283  -0.00181247  1
  Al  Al195  1  0.67068615  -0.00143804  0.81715001  1
  Al  Al196  1  0.82651270  0.50243002  0.68746508  1
  Al  Al197  1  0.18149766  0.17472205  -0.00170684  1
  Al  Al198  1  0.00171458  0.32634491  0.31876023  1
  Al  Al199  1  0.32595031  0.67062698  0.50013577  1
  Al  Al200  1  0.82047007  0.16938948  -0.00110940  1
  Al  Al201  1  0.31801509  0.50346549  0.18568168  1
  Al  Al202  1  0.50139194  0.81045916  0.32759547  1
  Al  Al203  1  0.00038975  0.17891512  0.16894127  1
  Al  Al204  1  0.33181033  -0.00131146  0.67556912  1
  Al  Al205  1  0.81887075  -0.00315862  0.31695521  1
  Al  Al206  1  0.67364433  0.50130337  0.68334359  1
  Al  Al207  1  0.00021908  0.69382766  0.69490778  1
  Al  Al208  1  0.00078321  0.68752559  0.17258850  1
  Al  Al209  1  0.32328918  0.82935454  0.50015058  1
  Al  Al210  1  0.82596586  0.50181035  0.32035732  1
  Al  Al211  1  0.67284592  0.32099636  -0.00168229  1
  Al  Al212  1  0.49875501  0.67940125  0.82759393  1
  Al  Al213  1  0.82558555  0.17290839  0.50025180  1
  Al  Al214  1  0.67632106  0.67694276  0.49994344  1
  Al  Al215  1  0.17234534  -0.00112219  0.67648421  1
  Al  Al216  1  -0.00204853  0.81194893  0.81067877  1
  Al  Al217  1  0.32941767  0.00083674  0.33116773  1
  Al  Al218  1  0.49866908  0.17171109  0.32330613  1
  Al  Al219  1  0.82891477  0.33303935  -0.00388816  1
  Al  Al220  1  0.49870945  0.32870670  0.31796445  1
  Al  Al221  1  0.17195446  0.82519229  0.49981585  1
  Al  Al222  1  0.32785814  0.18786804  0.50263967  1
  Al  Al223  1  0.17198716  -0.00195986  0.31798556  1
  Al  Al224  1  0.50016075  0.18226491  0.17311991  1
  Al  Al225  1  0.66769872  0.50184550  0.32365675  1
  Al  Al226  1  -0.00022718  0.17255303  0.68584399  1
  Al  Al227  1  0.67242403  0.17729600  0.50307299  1
  Al  Al228  1  -0.00090162  0.16745154  0.33164976  1
  Al  Al229  1  0.82280865  0.33019587  0.49814918  1
  Al  Al230  1  0.17183433  0.67134629  0.49982918  1
  Al  Al231  1  0.00078770  0.68364581  0.32451836  1
  Al  Al232  1  0.81820935  0.82190682  0.49921558  1
  Al  Al233  1  0.50147790  0.82607199  0.17088264  1
  Al  Al234  1  0.49941518  0.67462703  0.18380515  1
  Al  Al235  1  0.83095390  -0.00426069  0.82539942  1
  Al  Al236  1  0.32407937  -0.00124530  0.16700889  1
  Al  Al237  1  0.50125533  0.68208306  0.67504080  1
  Al  Al238  1  0.50101503  0.18148200  0.68571610  1
  Au  Au239  1  0.83490418  0.32622235  0.49661244  1
  Au  Au240  1  0.82275259  0.34943099  -0.00463275  1
  Au  Au241  1  0.66835739  0.50300135  0.15914548  1
  Au  Au242  1  0.33715983  0.82298877  0.50755670  1
  Au  Au243  1  0.50202639  0.82713891  0.32315974  1
  Au  Au244  1  0.00159349  0.32638011  0.83628568  1
  Au  Au245  1  0.82888888  0.67172647  -0.00280594  1
  Au  Au246  1  0.34016275  -0.00048491  0.16189812  1
  Au  Au247  1  0.00317350  0.34154905  0.17084675  1
  Au  Au248  1  0.17890895  0.33877341  0.49666295  1
  Au  Au249  1  0.16557231  0.50340901  0.66740445  1
  Au  Au250  1  -0.00017817  0.81465961  0.82733707  1
  Au  Au251  1  0.65551740  0.17165752  0.00206026  1
  Au  Au252  1  0.32691384  0.67412197  0.00074297  1
  Au  Au253  1  0.82598796  -0.00005248  0.66215491  1
  Au  Au254  1  0.65866024  0.32677110  0.49919921  1
  Au  Au255  1  0.49763871  0.32875474  0.66650482  1
  Au  Au256  1  0.17310458  0.16426362  0.50222221  1
  Au  Au257  1  0.67046672  0.50362959  0.33600966  1
  Au  Au258  1  0.83977454  0.50620807  0.17299841  1
  Au  Au259  1  0.33326554  0.49947248  0.66284830  1
  Au  Au260  1  0.32237929  0.00235743  0.34675031  1
  Au  Au261  1  0.83715001  0.16574274  -0.00219587  1
  Au  Au262  1  0.15561334  -0.00919578  0.17003361  1
  Au  Au263  1  0.33280183  -0.00226353  0.83923011  1
  Au  Au264  1  0.49705985  0.33334333  0.16509981  1
  Au  Au265  1  0.49895787  0.82525566  0.82569538  1
  Au  Au266  1  0.67525434  0.50264213  0.83193739  1
  Au  Au267  1  0.33521653  0.50027264  0.83528980  1
  Au  Au268  1  0.65630310  -0.00014991  0.82526882  1
  Au  Au269  1  0.17177558  0.50510397  0.17226193  1
  Au  Au270  1  -0.00012896  0.16361097  0.16195342  1
  Au  Au271  1  0.15726309  -0.00487268  0.66871388  1
  Au  Au272  1  0.82733865  -0.00759406  0.16766288  1
  Au  Au273  1  0.49827028  0.32265339  0.83706499  1
  Au  Au274  1  0.67408275  0.82884449  0.00106937  1
  Au  Au275  1  0.16368854  -0.00435796  0.84191349  1
  Au  Au276  1  0.67081428  -0.00252379  0.33087636  1
  Au  Au277  1  -0.00278604  0.17250878  0.34758239  1
  Au  Au278  1  0.33565657  0.17934287  -0.00138048  1
  Au  Au279  1  0.66375233  0.68044073  0.50029701  1
  Au  Au280  1  -0.00111210  0.32454149  0.67084791  1
  Au  Au281  1  0.84086604  -0.00510233  0.83818198  1
  Au  Au282  1  0.16534024  0.50600869  0.83787915  1
  Au  Au283  1  0.50187848  0.17109581  0.33977649  1
  Au  Au284  1  0.82590065  0.83328612  0.49933862  1
  Au  Au285  1  0.16941914  0.17786391  -0.00003501  1
  Au  Au286  1  0.83636746  0.65918951  0.49911265  1
  Au  Au287  1  0.33542731  0.00288384  0.66418164  1
