# generated using pymatgen
data_Ca24Ti8Al207Au49
_symmetry_space_group_name_H-M   'P 1'
_cell_length_a   17.32212508
_cell_length_b   17.32340996
_cell_length_c   17.32208832
_cell_angle_alpha   89.99742547
_cell_angle_beta   90.00717765
_cell_angle_gamma   89.99887894
_symmetry_Int_Tables_number   1
_chemical_formula_structural   Ca24Ti8Al207Au49
_chemical_formula_sum   'Ca24 Ti8 Al207 Au49'
_cell_volume   5197.98232017
_cell_formula_units_Z   1
loop_
 _symmetry_equiv_pos_site_id
 _symmetry_equiv_pos_as_xyz
  1  'x, y, z'
loop_
 _atom_site_type_symbol
 _atom_site_label
 _atom_site_symmetry_multiplicity
 _atom_site_fract_x
 _atom_site_fract_y
 _atom_site_fract_z
 _atom_site_occupancy
  Ca  Ca0  1  0.24729756  -0.00375228  -0.00472004  1
  Ca  Ca1  1  0.25240044  -0.00177294  0.50370925  1
  Ca  Ca2  1  0.25032830  0.50091919  0.00143320  1
  Ca  Ca3  1  0.24768858  0.49887803  0.49926721  1
  Ca  Ca4  1  0.74519816  -0.00411104  -0.00098117  1
  Ca  Ca5  1  0.74542231  -0.00040572  0.49950277  1
  Ca  Ca6  1  0.74503004  0.50066352  -0.00267720  1
  Ca  Ca7  1  0.74837952  0.49783449  0.50158657  1
  Ca  Ca8  1  -0.00353602  0.24741472  -0.00358058  1
  Ca  Ca9  1  -0.00370938  0.25059907  0.50294189  1
  Ca  Ca10  1  -0.00567462  0.75482900  -0.00269251  1
  Ca  Ca11  1  0.00105938  0.74785851  0.49895282  1
  Ca  Ca12  1  0.50841995  0.25102331  -0.00024000  1
  Ca  Ca13  1  0.50457146  0.25257005  0.50025277  1
  Ca  Ca14  1  0.50473741  0.74986633  -0.00169666  1
  Ca  Ca15  1  0.50144461  0.75076810  0.50286045  1
  Ca  Ca16  1  -0.00355810  0.00484590  0.24798143  1
  Ca  Ca17  1  0.00004418  0.00005828  0.75533494  1
  Ca  Ca18  1  -0.00376214  0.49752471  0.25103572  1
  Ca  Ca19  1  -0.00515610  0.50028021  0.75251861  1
  Ca  Ca20  1  0.50638388  0.00132328  0.24310324  1
  Ca  Ca21  1  0.50225101  -0.00406631  0.75421429  1
  Ca  Ca22  1  0.50871269  0.49960585  0.24881306  1
  Ca  Ca23  1  0.50479813  0.50256696  0.75553144  1
  Ti  Ti24  1  0.25034618  0.25004055  0.24930700  1
  Ti  Ti25  1  0.24989265  0.25007460  0.75123716  1
  Ti  Ti26  1  0.25088599  0.74848966  0.24612191  1
  Ti  Ti27  1  0.25023704  0.75006347  0.75415401  1
  Ti  Ti28  1  0.74983592  0.24908425  0.24826949  1
  Ti  Ti29  1  0.74907982  0.25080718  0.75178482  1
  Ti  Ti30  1  0.74882323  0.74982458  0.24875199  1
  Ti  Ti31  1  0.74942474  0.75007356  0.75048899  1
  Al  Al32  1  0.07731393  0.08286717  0.08261284  1
  Al  Al33  1  0.08143335  0.08058338  0.59611212  1
  Al  Al34  1  0.08521999  0.59022839  0.07068635  1
  Al  Al35  1  0.09195044  0.57398131  0.58609962  1
  Al  Al36  1  0.59431080  0.08666733  0.08522275  1
  Al  Al37  1  0.58928649  0.07543040  0.59156588  1
  Al  Al38  1  0.59424139  0.58330974  0.07592550  1
  Al  Al39  1  0.58566016  0.57934407  0.60038999  1
  Al  Al40  1  0.43498983  0.41429648  0.08905784  1
  Al  Al41  1  0.42805710  0.42138569  0.58294556  1
  Al  Al42  1  0.42792452  0.91461703  0.07981247  1
  Al  Al43  1  0.42439116  0.91328063  0.59223118  1
  Al  Al44  1  0.91379287  0.41915958  0.08094329  1
  Al  Al45  1  0.91379073  0.41327659  0.60101679  1
  Al  Al46  1  0.90857702  0.91213027  0.07197239  1
  Al  Al47  1  0.91883822  0.91940575  0.58176396  1
  Al  Al48  1  0.42832010  0.08141186  0.42184601  1
  Al  Al49  1  0.41877020  0.07741429  0.91116352  1
  Al  Al50  1  0.41497547  0.57962775  0.40666437  1
  Al  Al51  1  0.43122449  0.59317815  0.91373912  1
  Al  Al52  1  0.91447476  0.08684974  0.41009525  1
  Al  Al53  1  0.91605642  0.07623011  0.91901457  1
  Al  Al54  1  0.90947106  0.57737341  0.42092780  1
  Al  Al55  1  0.89807109  0.58624791  0.91305574  1
  Al  Al56  1  0.07638179  0.42015870  0.41427840  1
  Al  Al57  1  0.07524362  0.42399729  0.90824701  1
  Al  Al58  1  0.07513263  0.92277934  0.42764840  1
  Al  Al59  1  0.07939227  0.91098884  0.90640078  1
  Al  Al60  1  0.58621657  0.41878183  0.41033637  1
  Al  Al61  1  0.59601855  0.41093181  0.90995897  1
  Al  Al62  1  0.58314751  0.91315956  0.40876229  1
  Al  Al63  1  0.58684681  0.90204377  0.91551125  1
  Al  Al64  1  0.06939071  0.09183250  0.41435441  1
  Al  Al65  1  0.08603994  0.07262580  0.90898925  1
  Al  Al66  1  0.08324078  0.58092251  0.42376440  1
  Al  Al67  1  0.08993142  0.58433459  0.91504741  1
  Al  Al68  1  0.58325291  0.08087347  0.41639723  1
  Al  Al69  1  0.59014703  0.09166224  0.92206379  1
  Al  Al70  1  0.58308636  0.57709993  0.40829163  1
  Al  Al71  1  0.59454430  0.58991122  0.90988949  1
  Al  Al72  1  0.41684212  0.42159218  0.40653158  1
  Al  Al73  1  0.43718586  0.41579550  0.91345524  1
  Al  Al74  1  0.42852682  0.90979899  0.41610210  1
  Al  Al75  1  0.42109115  0.91364224  0.90692283  1
  Al  Al76  1  0.91549348  0.42038606  0.41214166  1
  Al  Al77  1  0.90722192  0.42250444  0.90778639  1
  Al  Al78  1  0.91414107  0.92470515  0.41885629  1
  Al  Al79  1  0.91351955  0.90767108  0.91169200  1
  Al  Al80  1  0.07024212  0.42333450  0.08052042  1
  Al  Al81  1  0.07757507  0.41662165  0.60306866  1
  Al  Al82  1  0.07552709  0.91904790  0.07249221  1
  Al  Al83  1  0.08873256  0.92407159  0.58735775  1
  Al  Al84  1  0.59358108  0.41005078  0.08260454  1
  Al  Al85  1  0.59185674  0.42107561  0.59433706  1
  Al  Al86  1  0.59376057  0.91123106  0.08658970  1
  Al  Al87  1  0.58440360  0.91680302  0.59985574  1
  Al  Al88  1  0.42938034  0.08075247  0.07876462  1
  Al  Al89  1  0.42227875  0.07721586  0.58592080  1
  Al  Al90  1  0.42306199  0.57783209  0.07420494  1
  Al  Al91  1  0.42335485  0.58593530  0.58567570  1
  Al  Al92  1  0.91695193  0.08543760  0.08096176  1
  Al  Al93  1  0.92301838  0.08415463  0.58463456  1
  Al  Al94  1  0.90507685  0.58798515  0.07381977  1
  Al  Al95  1  0.90599643  0.57301381  0.58561612  1
  Al  Al96  1  0.25039843  0.13235090  0.13340868  1
  Al  Al97  1  0.25264791  0.13652490  0.63730693  1
  Al  Al98  1  0.25118206  0.63507137  0.12872718  1
  Al  Al99  1  0.25164851  0.63677638  0.63913574  1
  Al  Al100  1  0.74504096  0.13334178  0.12775427  1
  Al  Al101  1  0.74658569  0.13751449  0.63876189  1
  Al  Al102  1  0.74817730  0.63696138  0.12785549  1
  Al  Al103  1  0.74691103  0.63257235  0.64019395  1
  Al  Al104  1  0.25007347  0.36489461  0.13536824  1
  Al  Al105  1  0.24617511  0.36507453  0.64081394  1
  Al  Al106  1  0.25112208  0.86598217  0.12871823  1
  Al  Al107  1  0.25026919  0.86424059  0.64072991  1
  Al  Al108  1  0.74523909  0.36431939  0.12899981  1
  Al  Al109  1  0.75036143  0.37347375  0.64072745  1
  Al  Al110  1  0.74774459  0.86499577  0.12845504  1
  Al  Al111  1  0.74659725  0.86604200  0.63361822  1
  Al  Al112  1  0.25287485  0.13662758  0.36469316  1
  Al  Al113  1  0.24958931  0.13889238  0.86924798  1
  Al  Al114  1  0.25126490  0.63161726  0.36227524  1
  Al  Al115  1  0.24817416  0.63893165  0.87263594  1
  Al  Al116  1  0.74709261  0.13651644  0.36339978  1
  Al  Al117  1  0.74428335  0.13869943  0.87080985  1
  Al  Al118  1  0.74599147  0.63627143  0.36503608  1
  Al  Al119  1  0.74882281  0.63557719  0.86814419  1
  Al  Al120  1  0.25531343  0.37028851  0.36035579  1
  Al  Al121  1  0.24610196  0.36179249  0.86164443  1
  Al  Al122  1  0.24888161  0.86501587  0.36097814  1
  Al  Al123  1  0.24949091  0.86154369  0.87257131  1
  Al  Al124  1  0.74737852  0.36595128  0.36309058  1
  Al  Al125  1  0.74744018  0.36839182  0.86568682  1
  Al  Al126  1  0.74716153  0.86355199  0.37140144  1
  Al  Al127  1  0.74693431  0.86050455  0.87207048  1
  Al  Al128  1  0.13583729  0.24581613  0.13225047  1
  Al  Al129  1  0.13360016  0.24949943  0.63801284  1
  Al  Al130  1  0.13657299  0.74819355  0.12742105  1
  Al  Al131  1  0.13617693  0.75090957  0.63815968  1
  Al  Al132  1  0.63610638  0.25106264  0.13069060  1
  Al  Al133  1  0.63503856  0.25470148  0.64104428  1
  Al  Al134  1  0.63814222  0.75133885  0.12940427  1
  Al  Al135  1  0.63292707  0.75554209  0.63912125  1
  Al  Al136  1  0.13541320  0.24629208  0.36474899  1
  Al  Al137  1  0.12611275  0.24988880  0.86194577  1
  Al  Al138  1  0.13652667  0.74792709  0.36432025  1
  Al  Al139  1  0.13243706  0.75020214  0.86963832  1
  Al  Al140  1  0.63603474  0.25289942  0.36302626  1
  Al  Al141  1  0.63143292  0.25382569  0.86412120  1
  Al  Al142  1  0.63136720  0.75805126  0.36432499  1
  Al  Al143  1  0.63687858  0.74688619  0.86858915  1
  Al  Al144  1  0.36544339  0.24963725  0.13337159  1
  Al  Al145  1  0.36684681  0.25340178  0.63342886  1
  Al  Al146  1  0.36555506  0.75049512  0.12858819  1
  Al  Al147  1  0.36676079  0.74942926  0.63719637  1
  Al  Al148  1  0.86179185  0.24714353  0.12975268  1
  Al  Al149  1  0.86256758  0.25459995  0.63943031  1
  Al  Al150  1  0.86004059  0.74900771  0.12813899  1
  Al  Al151  1  0.86253512  0.75236802  0.63897763  1
  Al  Al152  1  0.36522951  0.25184024  0.36354338  1
  Al  Al153  1  0.36908660  0.24979477  0.86572961  1
  Al  Al154  1  0.36565961  0.75080991  0.36358722  1
  Al  Al155  1  0.36588977  0.74975803  0.87210645  1
  Al  Al156  1  0.86319913  0.24755537  0.36456962  1
  Al  Al157  1  0.86877933  0.25323042  0.86315351  1
  Al  Al158  1  0.86321894  0.75016617  0.36442507  1
  Al  Al159  1  0.86094236  0.74901718  0.86951278  1
  Al  Al160  1  0.13176216  0.13544918  0.24692301  1
  Al  Al161  1  0.13558650  0.13371340  0.75499681  1
  Al  Al162  1  0.13318785  0.63705686  0.25096072  1
  Al  Al163  1  0.13295797  0.63689308  0.75109619  1
  Al  Al164  1  0.63673806  0.13070156  0.24588925  1
  Al  Al165  1  0.63417797  0.12976033  0.75448669  1
  Al  Al166  1  0.63707369  0.63695074  0.24990620  1
  Al  Al167  1  0.63611260  0.63275231  0.75479327  1
  Al  Al168  1  0.36620305  0.13408033  0.24517420  1
  Al  Al169  1  0.36753563  0.13519276  0.75370765  1
  Al  Al170  1  0.36428788  0.63428158  0.25125044  1
  Al  Al171  1  0.36679059  0.63653705  0.75699043  1
  Al  Al172  1  0.86739303  0.13434132  0.24467227  1
  Al  Al173  1  0.86215256  0.13541237  0.75381336  1
  Al  Al174  1  0.86509003  0.63815661  0.24748296  1
  Al  Al175  1  0.86103319  0.63047640  0.75336496  1
  Al  Al176  1  0.13480480  0.36541695  0.25247429  1
  Al  Al177  1  0.12694155  0.36473239  0.74933422  1
  Al  Al178  1  0.13700793  0.86289144  0.24397120  1
  Al  Al179  1  0.13477781  0.86589907  0.75950212  1
  Al  Al180  1  0.62944882  0.36187969  0.24608544  1
  Al  Al181  1  0.63431042  0.37024925  0.75361606  1
  Al  Al182  1  0.64077928  0.87114163  0.24756882  1
  Al  Al183  1  0.63860325  0.86939436  0.75412089  1
  Al  Al184  1  0.37203037  0.36249497  0.24868977  1
  Al  Al185  1  0.37199103  0.36374262  0.75070554  1
  Al  Al186  1  0.36412208  0.86386533  0.24632447  1
  Al  Al187  1  0.36586377  0.86234785  0.75205474  1
  Al  Al188  1  0.86236322  0.36376488  0.24758819  1
  Al  Al189  1  0.86271313  0.36959463  0.75203364  1
  Al  Al190  1  0.85912825  0.86241963  0.24753440  1
  Al  Al191  1  0.86348687  0.86384597  0.75604613  1
  Al  Al192  1  0.68075286  0.50003619  0.18517352  1
  Al  Al193  1  0.67059788  0.32757208  0.50218242  1
  Al  Al194  1  0.16949596  0.32422667  -0.00211106  1
  Al  Al195  1  0.33343745  -0.00094854  0.32350772  1
  Al  Al196  1  0.50135506  0.68866360  0.69424301  1
  Al  Al197  1  0.50283070  0.18264114  0.17094957  1
  Al  Al198  1  0.00035661  0.82414987  0.32985510  1
  Al  Al199  1  -0.00293377  0.82820447  0.17166043  1
  Al  Al200  1  0.33395440  0.32780566  -0.00034972  1
  Al  Al201  1  0.50257842  0.67237083  0.16621957  1
  Al  Al202  1  0.18347668  0.00008295  0.69245410  1
  Al  Al203  1  0.81470340  -0.00121148  0.82658406  1
  Al  Al204  1  0.82339026  0.32595653  0.50100667  1
  Al  Al205  1  0.67157202  0.17295001  0.50217641  1
  Al  Al206  1  0.66812820  0.67199306  0.50223310  1
  Al  Al207  1  0.33349726  0.32517607  0.49867917  1
  Al  Al208  1  0.50333936  0.82386000  0.18610929  1
  Al  Al209  1  0.17705356  0.50072495  0.81310977  1
  Al  Al210  1  0.80944326  0.50130603  0.31676723  1
  Al  Al211  1  0.82271884  0.32063049  -0.00294091  1
  Al  Al212  1  0.17081330  0.50202637  0.17923045  1
  Al  Al213  1  0.50057492  0.68444934  0.32171806  1
  Al  Al214  1  0.17355319  0.16941848  0.50295155  1
  Al  Al215  1  0.31017945  -0.00130790  0.82017192  1
  Al  Al216  1  0.50152174  0.18152362  0.32342945  1
  Al  Al217  1  -0.00199264  0.18672455  0.68292518  1
  Al  Al218  1  -0.00169495  0.67248022  0.16960041  1
  Al  Al219  1  0.50214051  0.80733565  0.81087836  1
  Al  Al220  1  0.82486801  0.67927720  0.50276115  1
  Al  Al221  1  -0.00127506  0.32027356  0.17338003  1
  Al  Al222  1  0.31359430  0.50067832  0.67473514  1
  Al  Al223  1  0.32750188  0.81901325  0.50152905  1
  Al  Al224  1  -0.00312485  0.68035296  0.82944413  1
  Al  Al225  1  0.82499409  0.17029067  0.50205273  1
  Al  Al226  1  0.17310766  0.82739681  0.50069593  1
  Al  Al227  1  0.16804246  0.00137747  0.32182468  1
  Al  Al228  1  0.81309470  0.00083951  0.66982280  1
  Al  Al229  1  0.81783755  -0.00125557  0.16778685  1
  Al  Al230  1  -0.00128019  0.31575875  0.32572216  1
  Al  Al231  1  -0.00043341  0.67020782  0.66844595  1
  Al  Al232  1  0.33150845  0.49828070  0.18136660  1
  Al  Al233  1  0.81526028  -0.00002504  0.32332498  1
  Al  Al234  1  0.17968823  0.67422992  0.50190179  1
  Al  Al235  1  0.00151030  0.82957753  0.68916937  1
  Al  Al236  1  0.17156447  0.32947858  0.50039723  1
  Al  Al237  1  0.50516690  0.17750314  0.68037573  1
  Al  Al238  1  0.33149053  0.49772681  0.82824160  1
  Au  Au239  1  0.32922873  0.66514613  0.00024443  1
  Au  Au240  1  0.33104182  0.33741315  0.50010892  1
  Au  Au241  1  0.32413831  0.49849969  0.66133577  1
  Au  Au242  1  -0.00262963  0.65750803  0.33351067  1
  Au  Au243  1  0.67312759  0.65625457  0.50257337  1
  Au  Au244  1  0.16042290  0.82449704  -0.00205644  1
  Au  Au245  1  0.82803193  0.50220032  0.16991940  1
  Au  Au246  1  0.33046662  0.83571287  0.50135831  1
  Au  Au247  1  0.50216959  0.17615644  0.83677639  1
  Au  Au248  1  0.66227630  0.83766921  0.50513538  1
  Au  Au249  1  0.83341913  0.33568163  0.50174361  1
  Au  Au250  1  0.83029174  -0.00320200  0.17076237  1
  Au  Au251  1  0.50095334  0.67243876  0.32644886  1
  Au  Au252  1  0.33077717  -0.00205130  0.67454008  1
  Au  Au253  1  -0.00481940  0.65910929  0.66460466  1
  Au  Au254  1  -0.00363814  0.67126463  0.83987479  1
  Au  Au255  1  0.16231628  0.00361628  0.33748109  1
  Au  Au256  1  0.33462700  -0.00068141  0.15780261  1
  Au  Au257  1  0.82082269  0.16500053  -0.00363787  1
  Au  Au258  1  -0.00129756  0.84024692  0.32460204  1
  Au  Au259  1  0.33073035  0.50202605  0.84448672  1
  Au  Au260  1  0.33591842  0.83276836  -0.00137818  1
  Au  Au261  1  0.32732875  0.65643479  0.49603004  1
  Au  Au262  1  0.33335472  0.15914137  0.00000053  1
  Au  Au263  1  0.34798397  0.49834421  0.17759678  1
  Au  Au264  1  0.34981550  0.33130208  0.00039386  1
  Au  Au265  1  0.33519414  0.16204251  0.50014089  1
  Au  Au266  1  0.82958848  0.00404716  0.67213263  1
  Au  Au267  1  -0.00150365  0.16198363  0.82841212  1
  Au  Au268  1  0.16450129  0.50320287  0.16325162  1
  Au  Au269  1  0.15773397  0.33763099  0.50846891  1
  Au  Au270  1  0.16227570  0.16579242  0.49901066  1
  Au  Au271  1  0.50077593  0.67680667  0.68162770  1
  Au  Au272  1  0.50276375  0.16951346  0.67117721  1
  Au  Au273  1  0.16606813  -0.00462010  0.16130952  1
  Au  Au274  1  0.50194689  0.33188234  0.32313102  1
  Au  Au275  1  0.66565562  -0.00154683  0.83544895  1
  Au  Au276  1  0.83638651  0.82798214  0.49976238  1
  Au  Au277  1  0.66610759  0.00100758  0.32431944  1
  Au  Au278  1  0.81914966  0.33301991  -0.00259979  1
  Au  Au279  1  0.17607981  0.50025590  0.33831064  1
  Au  Au280  1  0.50388802  0.33839242  0.67984544  1
  Au  Au281  1  -0.00480945  0.33577727  0.81957722  1
  Au  Au282  1  -0.00014475  0.17290489  0.17515751  1
  Au  Au283  1  0.15769501  0.33626005  -0.00254841  1
  Au  Au284  1  0.34907916  -0.00135182  0.32780908  1
  Au  Au285  1  -0.00234313  0.67551187  0.15705973  1
  Au  Au286  1  0.16680624  0.15967749  -0.00382889  1
  Au  Au287  1  0.00399826  0.83504055  0.67319203  1
