# generated using pymatgen
data_Ca24Ti8Al207Au49
_symmetry_space_group_name_H-M   'P 1'
_cell_length_a   17.31816896
_cell_length_b   17.31865325
_cell_length_c   17.31958718
_cell_angle_alpha   90.00212189
_cell_angle_beta   89.99805492
_cell_angle_gamma   89.99672370
_symmetry_Int_Tables_number   1
_chemical_formula_structural   Ca24Ti8Al207Au49
_chemical_formula_sum   'Ca24 Ti8 Al207 Au49'
_cell_volume   5194.61810125
_cell_formula_units_Z   1
loop_
 _symmetry_equiv_pos_site_id
 _symmetry_equiv_pos_as_xyz
  1  'x, y, z'
loop_
 _atom_site_type_symbol
 _atom_site_label
 _atom_site_symmetry_multiplicity
 _atom_site_fract_x
 _atom_site_fract_y
 _atom_site_fract_z
 _atom_site_occupancy
  Ca  Ca0  1  0.25100042  -0.00368854  0.00561952  1
  Ca  Ca1  1  0.24775069  -0.00149543  0.49614983  1
  Ca  Ca2  1  0.25024696  0.50738386  0.00082319  1
  Ca  Ca3  1  0.24274818  0.50050990  0.49639131  1
  Ca  Ca4  1  0.74624763  -0.00784801  0.00026982  1
  Ca  Ca5  1  0.74875598  -0.00380460  0.49490817  1
  Ca  Ca6  1  0.74607735  0.50692083  0.00842132  1
  Ca  Ca7  1  0.75155723  0.50317731  0.49650287  1
  Ca  Ca8  1  0.00059650  0.25038506  -0.00042018  1
  Ca  Ca9  1  0.00011221  0.24515457  0.49755054  1
  Ca  Ca10  1  -0.00307992  0.74960065  0.00434703  1
  Ca  Ca11  1  -0.00524416  0.75677904  0.49771549  1
  Ca  Ca12  1  0.50085392  0.24557353  0.00731198  1
  Ca  Ca13  1  0.50134229  0.23922392  0.49671361  1
  Ca  Ca14  1  0.50420364  0.75061143  -0.00059915  1
  Ca  Ca15  1  0.50648211  0.75893770  0.49842502  1
  Ca  Ca16  1  0.00027635  -0.00184361  0.25237120  1
  Ca  Ca17  1  -0.00248462  -0.00349642  0.74839146  1
  Ca  Ca18  1  -0.00012508  0.50246446  0.24282699  1
  Ca  Ca19  1  0.00304037  0.50293524  0.75479856  1
  Ca  Ca20  1  0.50068380  -0.00119785  0.25281262  1
  Ca  Ca21  1  0.50426558  -0.00263915  0.75529554  1
  Ca  Ca22  1  0.50190195  0.50329175  0.24256758  1
  Ca  Ca23  1  0.49656883  0.50008906  0.75416062  1
  Ti  Ti24  1  0.25205026  0.24800758  0.24874649  1
  Ti  Ti25  1  0.24817310  0.24666958  0.75205700  1
  Ti  Ti26  1  0.25061483  0.75136891  0.24808706  1
  Ti  Ti27  1  0.24731994  0.75259318  0.75241774  1
  Ti  Ti28  1  0.74657846  0.24807845  0.24970144  1
  Ti  Ti29  1  0.75002984  0.24764125  0.74959318  1
  Ti  Ti30  1  0.74813128  0.75157456  0.24964089  1
  Ti  Ti31  1  0.75158718  0.75141258  0.74972001  1
  Al  Al32  1  0.08731210  0.07164482  0.08860610  1
  Al  Al33  1  0.09069220  0.08200523  0.57726518  1
  Al  Al34  1  0.08355300  0.59598206  0.08085982  1
  Al  Al35  1  0.08139017  0.58084611  0.58476191  1
  Al  Al36  1  0.57792234  0.07726996  0.08563717  1
  Al  Al37  1  0.59187908  0.07538819  0.58326971  1
  Al  Al38  1  0.58196406  0.58451712  0.08641454  1
  Al  Al39  1  0.59121344  0.59521820  0.57657503  1
  Al  Al40  1  0.42582282  0.41741227  0.08938899  1
  Al  Al41  1  0.42024198  0.42189783  0.57288445  1
  Al  Al42  1  0.41523388  0.91984111  0.09106455  1
  Al  Al43  1  0.41858413  0.91876402  0.57565632  1
  Al  Al44  1  0.91056457  0.43160093  0.08883063  1
  Al  Al45  1  0.92023303  0.41944177  0.57263890  1
  Al  Al46  1  0.91406901  0.90220253  0.08828934  1
  Al  Al47  1  0.90774714  0.91211971  0.57443926  1
  Al  Al48  1  0.41935840  0.08322680  0.41043196  1
  Al  Al49  1  0.42393322  0.07675151  0.92273747  1
  Al  Al50  1  0.42922782  0.58304335  0.41502708  1
  Al  Al51  1  0.41164726  0.60128785  0.92060994  1
  Al  Al52  1  0.90891754  0.07357716  0.41087522  1
  Al  Al53  1  0.91574693  0.07164377  0.91956674  1
  Al  Al54  1  0.90860186  0.59085393  0.41717194  1
  Al  Al55  1  0.92162074  0.58714343  0.93153774  1
  Al  Al56  1  0.07781359  0.41412625  0.42362738  1
  Al  Al57  1  0.09809152  0.42114538  0.91255925  1
  Al  Al58  1  0.08545972  0.91389354  0.41553669  1
  Al  Al59  1  0.08552330  0.91904842  0.91306884  1
  Al  Al60  1  0.58199439  0.41964623  0.41394100  1
  Al  Al61  1  0.57898382  0.42707110  0.93436189  1
  Al  Al62  1  0.59060802  0.91467425  0.41048043  1
  Al  Al63  1  0.59230063  0.90668135  0.91015377  1
  Al  Al64  1  0.09110934  0.08251762  0.41721574  1
  Al  Al65  1  0.09066733  0.07377721  0.91421472  1
  Al  Al66  1  0.07591391  0.58431662  0.41818353  1
  Al  Al67  1  0.09723118  0.58477702  0.91838091  1
  Al  Al68  1  0.58581106  0.07949509  0.40901996  1
  Al  Al69  1  0.58683184  0.07158473  0.91090444  1
  Al  Al70  1  0.59188475  0.59285243  0.41698172  1
  Al  Al71  1  0.57591386  0.59722182  0.91568408  1
  Al  Al72  1  0.42275633  0.41552201  0.41318742  1
  Al  Al73  1  0.41827798  0.42828392  0.92746448  1
  Al  Al74  1  0.41823637  0.91510085  0.41057776  1
  Al  Al75  1  0.42813550  0.91066279  0.90978765  1
  Al  Al76  1  0.91470817  0.42150573  0.41470318  1
  Al  Al77  1  0.92492829  0.42257997  0.92749521  1
  Al  Al78  1  0.90622393  0.91237213  0.41150351  1
  Al  Al79  1  0.90531921  0.90853556  0.92457653  1
  Al  Al80  1  0.08704245  0.41916035  0.07227553  1
  Al  Al81  1  0.09062776  0.41963742  0.58089834  1
  Al  Al82  1  0.07847193  0.91125004  0.09857196  1
  Al  Al83  1  0.08861224  0.91384488  0.57754701  1
  Al  Al84  1  0.58846045  0.41840075  0.09509313  1
  Al  Al85  1  0.58217715  0.42588680  0.57478106  1
  Al  Al86  1  0.58870059  0.91031433  0.07736105  1
  Al  Al87  1  0.59640674  0.91605301  0.58350533  1
  Al  Al88  1  0.41178032  0.07918729  0.09221538  1
  Al  Al89  1  0.41818846  0.07966275  0.57571644  1
  Al  Al90  1  0.41742044  0.59251840  0.08276991  1
  Al  Al91  1  0.42788761  0.58105921  0.57761604  1
  Al  Al92  1  0.92339798  0.07278886  0.07977007  1
  Al  Al93  1  0.91358494  0.07513630  0.57681638  1
  Al  Al94  1  0.91085962  0.59540538  0.09323424  1
  Al  Al95  1  0.91179047  0.59437709  0.57565688  1
  Al  Al96  1  0.25303159  0.12982587  0.13815019  1
  Al  Al97  1  0.24423022  0.13312151  0.63452381  1
  Al  Al98  1  0.24841743  0.63970534  0.12988802  1
  Al  Al99  1  0.24504272  0.63990467  0.63995532  1
  Al  Al100  1  0.74563169  0.12877446  0.13976337  1
  Al  Al101  1  0.75047967  0.12540790  0.63630679  1
  Al  Al102  1  0.74757640  0.63610123  0.13452884  1
  Al  Al103  1  0.75024961  0.63412135  0.63787606  1
  Al  Al104  1  0.24676004  0.36643170  0.13581907  1
  Al  Al105  1  0.24789113  0.36166339  0.63716040  1
  Al  Al106  1  0.25236386  0.86391644  0.13325854  1
  Al  Al107  1  0.24481742  0.86420917  0.63629700  1
  Al  Al108  1  0.74712984  0.36774228  0.13771614  1
  Al  Al109  1  0.75213939  0.36746618  0.63399966  1
  Al  Al110  1  0.74860796  0.86390486  0.13199792  1
  Al  Al111  1  0.74820017  0.86650422  0.63200424  1
  Al  Al112  1  0.24859110  0.13246195  0.36123620  1
  Al  Al113  1  0.24839221  0.12751193  0.86571156  1
  Al  Al114  1  0.24418596  0.63711951  0.36110683  1
  Al  Al115  1  0.24536080  0.63941337  0.87030652  1
  Al  Al116  1  0.74666037  0.12665246  0.36046280  1
  Al  Al117  1  0.74843879  0.12513534  0.86326436  1
  Al  Al118  1  0.74810807  0.63842000  0.36162561  1
  Al  Al119  1  0.74782376  0.63816835  0.86846987  1
  Al  Al120  1  0.25016512  0.36187531  0.36167648  1
  Al  Al121  1  0.24589714  0.36669961  0.86927054  1
  Al  Al122  1  0.24775184  0.86611082  0.36107296  1
  Al  Al123  1  0.24687972  0.86830476  0.86849108  1
  Al  Al124  1  0.74638068  0.36350119  0.36179701  1
  Al  Al125  1  0.75093019  0.36486480  0.86565196  1
  Al  Al126  1  0.74952376  0.86535715  0.36885748  1
  Al  Al127  1  0.74890819  0.86666720  0.86608101  1
  Al  Al128  1  0.13937517  0.25004158  0.13797078  1
  Al  Al129  1  0.13294553  0.24834169  0.63879242  1
  Al  Al130  1  0.13073818  0.74974334  0.13769459  1
  Al  Al131  1  0.12632073  0.75243808  0.64000798  1
  Al  Al132  1  0.62909024  0.24800862  0.13815719  1
  Al  Al133  1  0.63653207  0.24493310  0.63590483  1
  Al  Al134  1  0.63496983  0.75127741  0.13133495  1
  Al  Al135  1  0.63701766  0.75176642  0.62853772  1
  Al  Al136  1  0.13595130  0.24568627  0.35989293  1
  Al  Al137  1  0.13517122  0.24928244  0.86632559  1
  Al  Al138  1  0.13385092  0.75352663  0.36093522  1
  Al  Al139  1  0.12903633  0.75030759  0.86686127  1
  Al  Al140  1  0.63311992  0.24547895  0.36225468  1
  Al  Al141  1  0.63883551  0.24702422  0.86260824  1
  Al  Al142  1  0.63597594  0.75398957  0.36766834  1
  Al  Al143  1  0.63697685  0.75415110  0.87002148  1
  Al  Al144  1  0.36979112  0.24971791  0.13781924  1
  Al  Al145  1  0.36591257  0.24300218  0.63913958  1
  Al  Al146  1  0.36918511  0.74411033  0.13201907  1
  Al  Al147  1  0.36475266  0.75451082  0.63808816  1
  Al  Al148  1  0.85921320  0.24910154  0.13636081  1
  Al  Al149  1  0.86255160  0.24396028  0.63568420  1
  Al  Al150  1  0.86530039  0.75384039  0.13626843  1
  Al  Al151  1  0.86655340  0.75501948  0.63402231  1
  Al  Al152  1  0.36892337  0.24357727  0.36120386  1
  Al  Al153  1  0.36019125  0.25065837  0.86639625  1
  Al  Al154  1  0.36746779  0.75459477  0.36168195  1
  Al  Al155  1  0.36420593  0.74883510  0.86780654  1
  Al  Al156  1  0.86093007  0.24585659  0.36137731  1
  Al  Al157  1  0.86632736  0.24643030  0.86085963  1
  Al  Al158  1  0.86318886  0.75289967  0.36569220  1
  Al  Al159  1  0.86759043  0.75473356  0.86495745  1
  Al  Al160  1  0.13734729  0.12748375  0.24778453  1
  Al  Al161  1  0.13413319  0.12864751  0.75286276  1
  Al  Al162  1  0.13529983  0.63084743  0.24319787  1
  Al  Al163  1  0.13104356  0.63704773  0.75565240  1
  Al  Al164  1  0.62780479  0.13054661  0.25063095  1
  Al  Al165  1  0.63681218  0.13001607  0.74867240  1
  Al  Al166  1  0.63238832  0.63733106  0.24417801  1
  Al  Al167  1  0.63682111  0.63868233  0.75495988  1
  Al  Al168  1  0.37133403  0.13353765  0.24760700  1
  Al  Al169  1  0.36267411  0.12996618  0.75190254  1
  Al  Al170  1  0.36848783  0.63774114  0.24711781  1
  Al  Al171  1  0.36585962  0.63979727  0.75825980  1
  Al  Al172  1  0.86349521  0.13089357  0.25244596  1
  Al  Al173  1  0.86388859  0.12498773  0.75137109  1
  Al  Al174  1  0.86295941  0.63780839  0.24356481  1
  Al  Al175  1  0.86918042  0.63996074  0.74935221  1
  Al  Al176  1  0.13789940  0.37067815  0.25120435  1
  Al  Al177  1  0.13397117  0.36432414  0.75305101  1
  Al  Al178  1  0.13650240  0.86992416  0.24552021  1
  Al  Al179  1  0.13014294  0.86742861  0.75261881  1
  Al  Al180  1  0.63048652  0.36707362  0.24372832  1
  Al  Al181  1  0.63955931  0.36971591  0.74492509  1
  Al  Al182  1  0.63637180  0.86886998  0.25204222  1
  Al  Al183  1  0.63669545  0.86392853  0.75188636  1
  Al  Al184  1  0.36740120  0.36556426  0.24747250  1
  Al  Al185  1  0.36234457  0.36366552  0.75206429  1
  Al  Al186  1  0.36700106  0.86477929  0.24670508  1
  Al  Al187  1  0.36427893  0.86674171  0.75805879  1
  Al  Al188  1  0.86161379  0.36606514  0.24784425  1
  Al  Al189  1  0.86798595  0.36361560  0.74712448  1
  Al  Al190  1  0.86101721  0.86632363  0.25248926  1
  Al  Al191  1  0.86468669  0.87055243  0.74944865  1
  Al  Al192  1  0.50220766  0.68903210  0.31451261  1
  Al  Al193  1  0.32244401  -0.00037541  0.31331593  1
  Al  Al194  1  0.00358036  0.32476161  0.82926014  1
  Al  Al195  1  0.67088085  0.16882227  -0.00007335  1
  Al  Al196  1  0.50022311  0.17188333  0.82173494  1
  Al  Al197  1  0.67523513  0.32384328  0.00305427  1
  Al  Al198  1  0.82714825  0.50286101  0.82305894  1
  Al  Al199  1  0.32761401  0.50196490  0.67151095  1
  Al  Al200  1  0.50059034  0.67512206  0.68628817  1
  Al  Al201  1  0.67072090  0.32549317  0.49880283  1
  Al  Al202  1  0.66647684  0.50109207  0.82528503  1
  Al  Al203  1  0.82766536  0.50257237  0.31425415  1
  Al  Al204  1  0.50041981  0.82867510  0.68457564  1
  Al  Al205  1  0.31480166  0.82947292  0.49787490  1
  Al  Al206  1  0.32243066  0.50324864  0.17047277  1
  Al  Al207  1  0.32793668  0.31551957  0.50126712  1
  Al  Al208  1  0.00035379  0.17127723  0.17381506  1
  Al  Al209  1  0.67208992  0.50184520  0.31140580  1
  Al  Al210  1  0.32198855  -0.00072369  0.67689108  1
  Al  Al211  1  0.82368434  -0.00077130  0.17927885  1
  Al  Al212  1  0.80490201  0.69363050  0.50011117  1
  Al  Al213  1  0.00010326  0.16845796  0.32781318  1
  Al  Al214  1  0.17075619  0.69079420  0.50149099  1
  Al  Al215  1  0.32149085  0.50285603  0.32971441  1
  Al  Al216  1  0.31216779  0.50329537  0.83110842  1
  Al  Al217  1  -0.00086910  0.17359810  0.67550674  1
  Al  Al218  1  0.32852011  0.67367059  0.49839909  1
  Al  Al219  1  0.50212005  0.81652468  0.18345755  1
  Al  Al220  1  0.32749104  0.17363786  0.00109103  1
  Al  Al221  1  0.17041047  0.18057709  0.00339243  1
  Al  Al222  1  0.82434564  0.31812924  0.49785235  1
  Al  Al223  1  0.31577850  0.33220880  0.00414134  1
  Al  Al224  1  0.33137325  0.81572750  -0.00000610  1
  Al  Al225  1  -0.00177557  0.32350945  0.32671174  1
  Al  Al226  1  0.00225143  0.32801868  0.17515792  1
  Al  Al227  1  0.82766242  0.17981111  -0.00101898  1
  Al  Al228  1  0.17208984  0.30985666  0.49904160  1
  Al  Al229  1  0.17258534  0.50115552  0.68727282  1
  Al  Al230  1  0.50044141  0.31342448  0.31247636  1
  Al  Al231  1  -0.00057506  0.82889826  0.31471481  1
  Al  Al232  1  0.50087860  0.32067580  0.66815333  1
  Al  Al233  1  0.16895558  0.81572357  0.00310858  1
  Al  Al234  1  0.81760426  0.68999058  0.00102480  1
  Al  Al235  1  -0.00112828  0.67396267  0.30874843  1
  Al  Al236  1  0.50175971  0.32995624  0.83288089  1
  Al  Al237  1  0.68025640  0.17140172  0.49833589  1
  Al  Al238  1  0.31428080  0.16821413  0.49780802  1
  Au  Au239  1  0.31888969  0.50187325  0.65622594  1
  Au  Au240  1  0.67847072  0.82299734  0.49743725  1
  Au  Au241  1  0.15977999  0.82890696  0.00422808  1
  Au  Au242  1  0.83245622  -0.00286794  0.17041117  1
  Au  Au243  1  0.16543754  0.67445157  0.50148108  1
  Au  Au244  1  0.33246970  0.33010619  0.00752301  1
  Au  Au245  1  0.00030935  0.15977012  0.83610017  1
  Au  Au246  1  -0.00253047  0.83346010  0.66013605  1
  Au  Au247  1  0.17299267  -0.00247743  0.32436679  1
  Au  Au248  1  -0.00192543  0.66595821  0.67096764  1
  Au  Au249  1  0.16591928  -0.00286392  0.67413967  1
  Au  Au250  1  0.50163114  0.84111206  0.67342830  1
  Au  Au251  1  0.50163305  0.32333188  0.84833923  1
  Au  Au252  1  0.34392065  0.68223799  0.49940248  1
  Au  Au253  1  0.17032831  0.16361456  0.00336476  1
  Au  Au254  1  0.17085097  0.50462447  0.15749307  1
  Au  Au255  1  0.50315227  0.32411780  0.32586427  1
  Au  Au256  1  -0.00205039  0.32843322  0.15923173  1
  Au  Au257  1  0.50138250  0.33750643  0.66543304  1
  Au  Au258  1  0.66864477  0.67684385  0.00236202  1
  Au  Au259  1  0.16023110  0.49627102  0.33449454  1
  Au  Au260  1  0.32746400  -0.00103097  0.84094100  1
  Au  Au261  1  0.83471714  0.50037991  0.65889615  1
  Au  Au262  1  0.49939909  0.17083233  0.17189807  1
  Au  Au263  1  0.66756827  -0.00229038  0.17438049  1
  Au  Au264  1  0.82127297  -0.00499509  0.83326724  1
  Au  Au265  1  0.83580420  0.50530255  0.83691705  1
  Au  Au266  1  0.32309483  0.33068737  0.49479136  1
  Au  Au267  1  0.50338223  0.15361493  0.67054509  1
  Au  Au268  1  0.82907043  0.16803528  0.49423856  1
  Au  Au269  1  0.34233209  0.82750938  -0.00036576  1
  Au  Au270  1  0.67779159  0.50190491  0.32759291  1
  Au  Au271  1  0.00295003  0.66831078  0.84066591  1
  Au  Au272  1  0.00023231  0.34035906  0.66555987  1
  Au  Au273  1  0.66370128  0.49840789  0.83715114  1
  Au  Au274  1  0.32816389  0.50690829  0.83629232  1
  Au  Au275  1  -0.00413706  0.83669682  0.83239040  1
  Au  Au276  1  0.00151504  0.33338552  0.83814432  1
  Au  Au277  1  0.67037823  0.50404604  0.66089917  1
  Au  Au278  1  0.33767850  0.50318365  0.32328219  1
  Au  Au279  1  -0.00091352  0.16420864  0.66204976  1
  Au  Au280  1  0.50285961  0.82913167  0.17249068  1
  Au  Au281  1  0.82198077  0.34614752  0.00504942  1
  Au  Au282  1  0.50532776  0.67741141  0.32675389  1
  Au  Au283  1  -0.00431086  0.67571587  0.32516847  1
  Au  Au284  1  0.82077731  -0.00510457  0.66293885  1
  Au  Au285  1  0.50272553  0.65927099  0.68048365  1
  Au  Au286  1  0.82557130  0.16329055  0.00277995  1
  Au  Au287  1  0.32945000  -0.00178721  0.66689391  1
