# generated using pymatgen
data_Ca24Ti8Al207Au49
_symmetry_space_group_name_H-M   'P 1'
_cell_length_a   17.32550043
_cell_length_b   17.32529037
_cell_length_c   17.32417933
_cell_angle_alpha   89.99843421
_cell_angle_beta   90.00361509
_cell_angle_gamma   90.00171423
_symmetry_Int_Tables_number   1
_chemical_formula_structural   Ca24Ti8Al207Au49
_chemical_formula_sum   'Ca24 Ti8 Al207 Au49'
_cell_volume   5200.18721355
_cell_formula_units_Z   1
loop_
 _symmetry_equiv_pos_site_id
 _symmetry_equiv_pos_as_xyz
  1  'x, y, z'
loop_
 _atom_site_type_symbol
 _atom_site_label
 _atom_site_symmetry_multiplicity
 _atom_site_fract_x
 _atom_site_fract_y
 _atom_site_fract_z
 _atom_site_occupancy
  Ca  Ca0  1  0.25071672  0.00075850  -0.00064881  1
  Ca  Ca1  1  0.24929946  -0.00444979  0.49786332  1
  Ca  Ca2  1  0.24832854  0.50071554  0.00023312  1
  Ca  Ca3  1  0.24614432  0.50477526  0.50023044  1
  Ca  Ca4  1  0.74924734  -0.00159013  -0.00237253  1
  Ca  Ca5  1  0.74893605  -0.00444095  0.50408299  1
  Ca  Ca6  1  0.75035387  0.50049551  0.00231698  1
  Ca  Ca7  1  0.74504220  0.49907644  0.49640156  1
  Ca  Ca8  1  -0.00151881  0.24786103  0.00050079  1
  Ca  Ca9  1  -0.00230608  0.24972907  0.49787102  1
  Ca  Ca10  1  -0.00238575  0.74604848  0.00476866  1
  Ca  Ca11  1  -0.00012229  0.75389907  0.49489014  1
  Ca  Ca12  1  0.50173171  0.25025954  0.00206448  1
  Ca  Ca13  1  0.50330162  0.25100590  0.50026362  1
  Ca  Ca14  1  0.50283175  0.75009655  0.00005731  1
  Ca  Ca15  1  0.49974754  0.75419408  0.50103997  1
  Ca  Ca16  1  -0.00077474  -0.00288957  0.25195706  1
  Ca  Ca17  1  0.00080252  -0.00247577  0.75103470  1
  Ca  Ca18  1  -0.00304120  0.50463043  0.24728551  1
  Ca  Ca19  1  0.00194928  0.50324367  0.75654291  1
  Ca  Ca20  1  0.50142147  -0.00389424  0.25117255  1
  Ca  Ca21  1  0.50140240  -0.00703770  0.74790428  1
  Ca  Ca22  1  0.50326371  0.50073459  0.24585229  1
  Ca  Ca23  1  0.50285996  0.50536220  0.75127682  1
  Ti  Ti24  1  0.25032912  0.24903263  0.24742010  1
  Ti  Ti25  1  0.25061958  0.24895759  0.75210601  1
  Ti  Ti26  1  0.24958246  0.75118896  0.25150737  1
  Ti  Ti27  1  0.25150652  0.75002963  0.74799273  1
  Ti  Ti28  1  0.75085047  0.25174443  0.24973391  1
  Ti  Ti29  1  0.74960421  0.25118639  0.75117684  1
  Ti  Ti30  1  0.74982632  0.74960966  0.25148924  1
  Ti  Ti31  1  0.74869097  0.74872654  0.75024112  1
  Al  Al32  1  0.08524625  0.09200328  0.08549568  1
  Al  Al33  1  0.08947179  0.07588574  0.57968257  1
  Al  Al34  1  0.07370277  0.58859446  0.08598751  1
  Al  Al35  1  0.08409439  0.58092637  0.58351421  1
  Al  Al36  1  0.57800701  0.08595811  0.08102345  1
  Al  Al37  1  0.58755929  0.07829691  0.58649563  1
  Al  Al38  1  0.59179439  0.58661555  0.08190890  1
  Al  Al39  1  0.58023988  0.59296704  0.58710493  1
  Al  Al40  1  0.42524381  0.41008189  0.08742052  1
  Al  Al41  1  0.42551030  0.42764555  0.58137857  1
  Al  Al42  1  0.42290468  0.91638846  0.08734769  1
  Al  Al43  1  0.42329269  0.91099437  0.59054986  1
  Al  Al44  1  0.90502312  0.41823263  0.08566970  1
  Al  Al45  1  0.91158942  0.41742613  0.57401122  1
  Al  Al46  1  0.91955056  0.91096142  0.08510913  1
  Al  Al47  1  0.90380965  0.91278913  0.57909062  1
  Al  Al48  1  0.41501934  0.07002185  0.40746351  1
  Al  Al49  1  0.41715113  0.07660539  0.91920321  1
  Al  Al50  1  0.42383488  0.58795961  0.41468623  1
  Al  Al51  1  0.42129145  0.58490787  0.91461538  1
  Al  Al52  1  0.92069007  0.07695308  0.41989700  1
  Al  Al53  1  0.91573081  0.08019305  0.92244415  1
  Al  Al54  1  0.91740283  0.58992268  0.41007832  1
  Al  Al55  1  0.91984775  0.58036837  0.92290362  1
  Al  Al56  1  0.07792378  0.42490343  0.41717981  1
  Al  Al57  1  0.08946323  0.42064937  0.91392529  1
  Al  Al58  1  0.07991828  0.91583145  0.40753389  1
  Al  Al59  1  0.07797829  0.92270640  0.91456482  1
  Al  Al60  1  0.58777489  0.40956818  0.41613624  1
  Al  Al61  1  0.58182670  0.41867019  0.92198034  1
  Al  Al62  1  0.58281113  0.90323238  0.42033444  1
  Al  Al63  1  0.58418083  0.90056365  0.91425647  1
  Al  Al64  1  0.08957346  0.07709376  0.41254905  1
  Al  Al65  1  0.09087582  0.08599223  0.92288929  1
  Al  Al66  1  0.07639915  0.58843639  0.40852315  1
  Al  Al67  1  0.08919326  0.57767475  0.91324232  1
  Al  Al68  1  0.58058869  0.07967290  0.42092638  1
  Al  Al69  1  0.58310497  0.07960199  0.92034422  1
  Al  Al70  1  0.58186774  0.58874130  0.41437955  1
  Al  Al71  1  0.58660095  0.59653302  0.92026251  1
  Al  Al72  1  0.42662761  0.41954660  0.41603335  1
  Al  Al73  1  0.41780963  0.42035346  0.91859855  1
  Al  Al74  1  0.41965430  0.91130552  0.40477792  1
  Al  Al75  1  0.42397380  0.91303614  0.90900203  1
  Al  Al76  1  0.91117441  0.41564699  0.41804847  1
  Al  Al77  1  0.91160022  0.41079874  0.92598479  1
  Al  Al78  1  0.91538229  0.90909961  0.41616491  1
  Al  Al79  1  0.91633042  0.91604382  0.91814469  1
  Al  Al80  1  0.07896090  0.42148287  0.07986085  1
  Al  Al81  1  0.08587197  0.42385442  0.58074645  1
  Al  Al82  1  0.08044180  0.91788877  0.08926532  1
  Al  Al83  1  0.08697988  0.92190741  0.58332733  1
  Al  Al84  1  0.58548820  0.41439966  0.08962404  1
  Al  Al85  1  0.58762321  0.41425550  0.57566812  1
  Al  Al86  1  0.58382411  0.90466433  0.07819418  1
  Al  Al87  1  0.58992783  0.90634972  0.58776588  1
  Al  Al88  1  0.41751996  0.08391030  0.08720856  1
  Al  Al89  1  0.42274376  0.07433607  0.58583247  1
  Al  Al90  1  0.42361599  0.58259792  0.07942157  1
  Al  Al91  1  0.42230508  0.59068564  0.59059175  1
  Al  Al92  1  0.92256674  0.08976574  0.08856648  1
  Al  Al93  1  0.91096403  0.07150596  0.58419579  1
  Al  Al94  1  0.91194056  0.58344584  0.09104317  1
  Al  Al95  1  0.91717347  0.58278613  0.58008741  1
  Al  Al96  1  0.24951588  0.13396712  0.12765005  1
  Al  Al97  1  0.25143874  0.12649467  0.63676157  1
  Al  Al98  1  0.25027308  0.63194156  0.13711316  1
  Al  Al99  1  0.25279495  0.63817814  0.63067116  1
  Al  Al100  1  0.75263726  0.13685379  0.13495442  1
  Al  Al101  1  0.75005454  0.13241610  0.63510746  1
  Al  Al102  1  0.74962904  0.63521987  0.13384201  1
  Al  Al103  1  0.74732943  0.63626178  0.63191957  1
  Al  Al104  1  0.24892482  0.36878081  0.13421547  1
  Al  Al105  1  0.24882255  0.36442576  0.63403736  1
  Al  Al106  1  0.25082428  0.86610577  0.13982090  1
  Al  Al107  1  0.25226591  0.86723777  0.63157177  1
  Al  Al108  1  0.75447856  0.36712361  0.13361617  1
  Al  Al109  1  0.74637062  0.36815171  0.63339657  1
  Al  Al110  1  0.74795788  0.86010459  0.13201740  1
  Al  Al111  1  0.74687536  0.86179684  0.63152117  1
  Al  Al112  1  0.24984089  0.13099197  0.36222019  1
  Al  Al113  1  0.25011855  0.13384318  0.87068751  1
  Al  Al114  1  0.24974473  0.63971735  0.36935261  1
  Al  Al115  1  0.25183064  0.63406908  0.86066462  1
  Al  Al116  1  0.74743822  0.13555327  0.36642995  1
  Al  Al117  1  0.75414543  0.13199081  0.86571236  1
  Al  Al118  1  0.75085231  0.63049780  0.36424175  1
  Al  Al119  1  0.74255621  0.63458777  0.86740041  1
  Al  Al120  1  0.24819563  0.36565987  0.36200642  1
  Al  Al121  1  0.24935497  0.37044619  0.86628957  1
  Al  Al122  1  0.24988572  0.86732200  0.36808531  1
  Al  Al123  1  0.25229277  0.86330791  0.86027793  1
  Al  Al124  1  0.75002301  0.37200969  0.36248163  1
  Al  Al125  1  0.75166854  0.36941038  0.86758638  1
  Al  Al126  1  0.74960901  0.86230851  0.37100510  1
  Al  Al127  1  0.74599957  0.86341374  0.86901079  1
  Al  Al128  1  0.13456127  0.24424959  0.12976825  1
  Al  Al129  1  0.13703836  0.24846011  0.63687948  1
  Al  Al130  1  0.13270896  0.75093608  0.13763909  1
  Al  Al131  1  0.13605836  0.75003925  0.62882617  1
  Al  Al132  1  0.63658760  0.25330851  0.13555168  1
  Al  Al133  1  0.63697418  0.25150334  0.63606521  1
  Al  Al134  1  0.63603372  0.74808376  0.13274706  1
  Al  Al135  1  0.63220027  0.75196852  0.63296953  1
  Al  Al136  1  0.13639036  0.24878482  0.36174326  1
  Al  Al137  1  0.13775462  0.24618250  0.86719607  1
  Al  Al138  1  0.13478504  0.75348288  0.36873843  1
  Al  Al139  1  0.13654533  0.74861954  0.86108770  1
  Al  Al140  1  0.63693339  0.25609446  0.36771928  1
  Al  Al141  1  0.63622127  0.25052032  0.86566804  1
  Al  Al142  1  0.63629826  0.75212301  0.37197457  1
  Al  Al143  1  0.62853490  0.75128425  0.86327537  1
  Al  Al144  1  0.36259396  0.24917347  0.13099468  1
  Al  Al145  1  0.36335671  0.25039152  0.63730595  1
  Al  Al146  1  0.36388151  0.75030196  0.13731060  1
  Al  Al147  1  0.36714135  0.75193624  0.63090950  1
  Al  Al148  1  0.86297175  0.24996465  0.12995580  1
  Al  Al149  1  0.86498891  0.24818035  0.63595642  1
  Al  Al150  1  0.86731452  0.74538759  0.13640829  1
  Al  Al151  1  0.86281966  0.75310459  0.63031899  1
  Al  Al152  1  0.36169232  0.25275782  0.36146538  1
  Al  Al153  1  0.36357102  0.24933552  0.87143757  1
  Al  Al154  1  0.36473820  0.75447331  0.36958892  1
  Al  Al155  1  0.37161933  0.75127513  0.86199220  1
  Al  Al156  1  0.86398431  0.24977160  0.36123308  1
  Al  Al157  1  0.86163920  0.25115102  0.87159507  1
  Al  Al158  1  0.86473168  0.75301502  0.36784231  1
  Al  Al159  1  0.86123462  0.74753027  0.86607653  1
  Al  Al160  1  0.13568300  0.13547857  0.24900446  1
  Al  Al161  1  0.13814379  0.13447373  0.74907271  1
  Al  Al162  1  0.13390887  0.63769629  0.24794741  1
  Al  Al163  1  0.13198605  0.63743473  0.75031710  1
  Al  Al164  1  0.63707898  0.13644600  0.25038185  1
  Al  Al165  1  0.63692919  0.13533130  0.75253812  1
  Al  Al166  1  0.63565300  0.63719915  0.25156064  1
  Al  Al167  1  0.62902864  0.63751252  0.74915468  1
  Al  Al168  1  0.36099333  0.12922466  0.24865786  1
  Al  Al169  1  0.36378255  0.13473280  0.75136043  1
  Al  Al170  1  0.36440309  0.63597207  0.25095105  1
  Al  Al171  1  0.37373169  0.64012002  0.74891834  1
  Al  Al172  1  0.86670971  0.13609531  0.24712601  1
  Al  Al173  1  0.86273552  0.13516796  0.74884641  1
  Al  Al174  1  0.86247342  0.63151563  0.24970162  1
  Al  Al175  1  0.86695166  0.63673372  0.74962902  1
  Al  Al176  1  0.13433669  0.36321244  0.24363919  1
  Al  Al177  1  0.13690699  0.36419250  0.75422532  1
  Al  Al178  1  0.13185288  0.87051568  0.25672283  1
  Al  Al179  1  0.13697429  0.86427370  0.74521025  1
  Al  Al180  1  0.63616576  0.36561223  0.24802966  1
  Al  Al181  1  0.63853287  0.37288450  0.75321934  1
  Al  Al182  1  0.63516206  0.86259000  0.25539118  1
  Al  Al183  1  0.63088278  0.86075839  0.74925647  1
  Al  Al184  1  0.36651128  0.36498529  0.24356628  1
  Al  Al185  1  0.36274189  0.36639742  0.75195881  1
  Al  Al186  1  0.36482723  0.86895181  0.25536187  1
  Al  Al187  1  0.37026835  0.86216721  0.74565286  1
  Al  Al188  1  0.86226319  0.37185362  0.24728628  1
  Al  Al189  1  0.85969791  0.36672007  0.75216428  1
  Al  Al190  1  0.86419302  0.86419906  0.25337536  1
  Al  Al191  1  0.85947308  0.86614899  0.74535379  1
  Al  Al192  1  0.81786514  0.67681455  0.49870074  1
  Al  Al193  1  0.17334047  0.50136734  0.31924634  1
  Al  Al194  1  0.68203254  0.32774902  0.00132291  1
  Al  Al195  1  0.68565152  0.50077160  0.17940549  1
  Al  Al196  1  0.82808954  -0.00082754  0.17344350  1
  Al  Al197  1  0.49743047  0.17570531  0.32202865  1
  Al  Al198  1  0.17366981  0.17858442  0.49922573  1
  Al  Al199  1  0.49988482  0.18719882  0.17429044  1
  Al  Al200  1  0.17419049  0.67080304  0.00036435  1
  Al  Al201  1  0.82100957  -0.00160806  0.82022374  1
  Al  Al202  1  0.17996589  0.82437202  -0.00137207  1
  Al  Al203  1  0.50055987  0.32309314  0.82305224  1
  Al  Al204  1  0.00054232  0.17089176  0.31813967  1
  Al  Al205  1  0.32546020  -0.00261984  0.81978799  1
  Al  Al206  1  0.80855183  0.31619412  0.49813443  1
  Al  Al207  1  0.50023591  0.81775609  0.18789646  1
  Al  Al208  1  0.68743502  -0.00267203  0.68300010  1
  Al  Al209  1  0.17484632  0.50134974  0.68586092  1
  Al  Al210  1  0.82108872  -0.00075545  0.32795079  1
  Al  Al211  1  0.32383024  0.33242958  0.50084489  1
  Al  Al212  1  -0.00066164  0.32712724  0.32565237  1
  Al  Al213  1  -0.00122000  0.69354906  0.30612962  1
  Al  Al214  1  0.17741345  0.00315709  0.17820609  1
  Al  Al215  1  0.67928785  0.18265690  0.49862840  1
  Al  Al216  1  0.00101854  0.16794207  0.67051361  1
  Al  Al217  1  0.33113788  0.16927937  0.49861201  1
  Al  Al218  1  -0.00057976  0.82627491  0.67117550  1
  Al  Al219  1  0.68092383  0.17514745  0.00018047  1
  Al  Al220  1  0.50141281  0.32769922  0.66916578  1
  Al  Al221  1  -0.00165088  0.81918742  0.82788736  1
  Al  Al222  1  0.50031243  0.69289071  0.31718898  1
  Al  Al223  1  0.17584822  0.32185421  -0.00205980  1
  Al  Al224  1  0.32863403  0.50236836  0.68284634  1
  Al  Al225  1  0.82137704  0.67991665  0.00099355  1
  Al  Al226  1  0.32750587  0.67476470  -0.00102252  1
  Al  Al227  1  0.82072989  0.49837383  0.67719403  1
  Al  Al228  1  -0.00296453  0.81417212  0.18882894  1
  Al  Al229  1  -0.00044223  0.32821717  0.67607246  1
  Al  Al230  1  0.50108166  0.17346419  0.67946398  1
  Al  Al231  1  -0.00093613  0.32665083  0.83052229  1
  Al  Al232  1  0.33052407  0.50083988  0.32266755  1
  Al  Al233  1  -0.00010823  0.17277495  0.82943799  1
  Al  Al234  1  0.33139381  0.82837108  -0.00070235  1
  Al  Al235  1  -0.00224755  0.31439876  0.16937491  1
  Al  Al236  1  0.17278323  -0.00037578  0.81770559  1
  Al  Al237  1  0.50053840  0.32455031  0.31327956  1
  Al  Al238  1  0.67008333  -0.00164782  0.17513645  1
  Au  Au239  1  0.49947937  0.16565430  0.33163066  1
  Au  Au240  1  0.16566911  0.66607844  0.49716014  1
  Au  Au241  1  0.16052588  0.50540862  0.17098904  1
  Au  Au242  1  0.66367716  0.50165719  0.66647836  1
  Au  Au243  1  0.50065223  0.67610321  0.82656598  1
  Au  Au244  1  0.16713692  0.83647503  0.49622839  1
  Au  Au245  1  0.32306520  0.50319417  0.83680337  1
  Au  Au246  1  0.33772054  0.66957314  0.50099950  1
  Au  Au247  1  0.83033555  0.67786318  0.50069021  1
  Au  Au248  1  0.66994971  0.17437946  0.50142732  1
  Au  Au249  1  0.83359156  -0.00024517  0.81796790  1
  Au  Au250  1  0.33685920  -0.00221505  0.17832041  1
  Au  Au251  1  0.50332497  0.67055330  0.16938046  1
  Au  Au252  1  0.66382988  0.67930527  0.50100967  1
  Au  Au253  1  0.33609281  0.32883422  0.00193818  1
  Au  Au254  1  -0.00096456  0.34405260  0.67290441  1
  Au  Au255  1  0.16509483  0.83221363  -0.00247694  1
  Au  Au256  1  0.33584789  0.83618789  0.49902030  1
  Au  Au257  1  0.50025376  0.33340721  0.83210974  1
  Au  Au258  1  0.49911651  0.15924150  0.82778151  1
  Au  Au259  1  0.00241328  0.67092217  0.83916117  1
  Au  Au260  1  0.66725682  0.50457874  0.83884472  1
  Au  Au261  1  0.00085927  0.82266838  0.18015211  1
  Au  Au262  1  0.32747283  0.50113631  0.33522442  1
  Au  Au263  1  0.83635481  0.50048091  0.32277198  1
  Au  Au264  1  0.82966544  0.50052148  0.66868196  1
  Au  Au265  1  0.00144006  0.15534804  0.67316621  1
  Au  Au266  1  0.83590267  0.49848258  0.83254140  1
  Au  Au267  1  0.16477932  0.32577240  0.00292188  1
  Au  Au268  1  0.32816249  -0.00372593  0.67205228  1
  Au  Au269  1  0.00049625  0.66430346  0.66985020  1
  Au  Au270  1  0.67342208  -0.00206127  0.15912271  1
  Au  Au271  1  0.16647766  -0.00151643  0.17411802  1
  Au  Au272  1  0.00072765  0.16526830  0.33072615  1
  Au  Au273  1  0.32538548  0.50091083  0.67076404  1
  Au  Au274  1  -0.00178148  0.83826184  0.66742026  1
  Au  Au275  1  0.33470531  0.49897610  0.16139341  1
  Au  Au276  1  0.82175084  0.83477259  0.00072379  1
  Au  Au277  1  -0.00558803  0.33099597  0.17082606  1
  Au  Au278  1  0.81884014  0.66751304  -0.00037001  1
  Au  Au279  1  0.33611726  0.33114925  0.50272858  1
  Au  Au280  1  0.66368068  0.50012346  0.32705337  1
  Au  Au281  1  0.15975059  0.32903174  0.49534018  1
  Au  Au282  1  0.67248258  -0.00788236  0.34431073  1
  Au  Au283  1  0.83507942  0.17003383  0.50079112  1
  Au  Au284  1  0.32562214  0.15413730  0.49776191  1
  Au  Au285  1  0.66099679  -0.00616579  0.82979643  1
  Au  Au286  1  0.83155514  0.17318206  0.00213859  1
  Au  Au287  1  0.32614027  0.16093263  -0.00042443  1
