# generated using pymatgen
data_Ca24Ti8Al207Au49
_symmetry_space_group_name_H-M   'P 1'
_cell_length_a   17.32279139
_cell_length_b   17.32145326
_cell_length_c   17.32373801
_cell_angle_alpha   89.99992735
_cell_angle_beta   89.99792091
_cell_angle_gamma   90.00112248
_symmetry_Int_Tables_number   1
_chemical_formula_structural   Ca24Ti8Al207Au49
_chemical_formula_sum   'Ca24 Ti8 Al207 Au49'
_cell_volume   5198.09016516
_cell_formula_units_Z   1
loop_
 _symmetry_equiv_pos_site_id
 _symmetry_equiv_pos_as_xyz
  1  'x, y, z'
loop_
 _atom_site_type_symbol
 _atom_site_label
 _atom_site_symmetry_multiplicity
 _atom_site_fract_x
 _atom_site_fract_y
 _atom_site_fract_z
 _atom_site_occupancy
  Ca  Ca0  1  0.24347274  0.00203726  -0.00259160  1
  Ca  Ca1  1  0.24890675  0.00342013  0.49992693  1
  Ca  Ca2  1  0.24738844  0.49652477  0.00016701  1
  Ca  Ca3  1  0.25424369  0.49799822  0.50130013  1
  Ca  Ca4  1  0.74696686  -0.00833705  -0.00057794  1
  Ca  Ca5  1  0.74696920  -0.00203934  0.50155664  1
  Ca  Ca6  1  0.74874972  0.50210297  -0.00054497  1
  Ca  Ca7  1  0.74715028  0.50026254  0.49753754  1
  Ca  Ca8  1  0.00202804  0.24912726  -0.00339729  1
  Ca  Ca9  1  0.00258039  0.24923566  0.50508780  1
  Ca  Ca10  1  -0.00374616  0.75691528  0.00342728  1
  Ca  Ca11  1  0.00090122  0.75258806  0.49910320  1
  Ca  Ca12  1  0.49774155  0.25009932  -0.00211798  1
  Ca  Ca13  1  0.49859267  0.25055652  0.50100357  1
  Ca  Ca14  1  0.50135532  0.75317900  -0.00102843  1
  Ca  Ca15  1  0.49690265  0.74984111  0.50169666  1
  Ca  Ca16  1  -0.00371052  -0.00432760  0.24902944  1
  Ca  Ca17  1  -0.00136695  0.00372539  0.74974069  1
  Ca  Ca18  1  0.00064155  0.50164148  0.25242644  1
  Ca  Ca19  1  0.00052851  0.49741907  0.74647968  1
  Ca  Ca20  1  0.50494577  0.00034088  0.25477179  1
  Ca  Ca21  1  0.50264809  0.00144546  0.74813745  1
  Ca  Ca22  1  0.49682027  0.49784534  0.25540384  1
  Ca  Ca23  1  0.50013693  0.49762750  0.74551834  1
  Ti  Ti24  1  0.25131732  0.25038691  0.25077690  1
  Ti  Ti25  1  0.25000019  0.25209262  0.74980413  1
  Ti  Ti26  1  0.25031988  0.74903765  0.25309029  1
  Ti  Ti27  1  0.25145226  0.74959193  0.74831001  1
  Ti  Ti28  1  0.74792272  0.24946866  0.25198534  1
  Ti  Ti29  1  0.74808081  0.24884979  0.74848676  1
  Ti  Ti30  1  0.74964351  0.75070703  0.25074601  1
  Ti  Ti31  1  0.74769176  0.75215666  0.74968837  1
  Al  Al32  1  0.07819660  0.08298299  0.07358309  1
  Al  Al33  1  0.08432934  0.08684307  0.58515213  1
  Al  Al34  1  0.07771245  0.58068432  0.08969093  1
  Al  Al35  1  0.10566337  0.57959502  0.58262256  1
  Al  Al36  1  0.58929988  0.09030432  0.08125007  1
  Al  Al37  1  0.57908397  0.08517763  0.58673167  1
  Al  Al38  1  0.58324033  0.58436414  0.08222982  1
  Al  Al39  1  0.58063854  0.57867985  0.57536932  1
  Al  Al40  1  0.41784125  0.40892670  0.08796660  1
  Al  Al41  1  0.41072599  0.40957738  0.58868273  1
  Al  Al42  1  0.43249653  0.92232022  0.07786347  1
  Al  Al43  1  0.41707349  0.90934007  0.57924329  1
  Al  Al44  1  0.92554184  0.42721982  0.08078411  1
  Al  Al45  1  0.92472516  0.41237475  0.59165445  1
  Al  Al46  1  0.90761876  0.90685954  0.08340313  1
  Al  Al47  1  0.89937474  0.91888813  0.58526454  1
  Al  Al48  1  0.42028105  0.10072913  0.41872539  1
  Al  Al49  1  0.42350942  0.08476063  0.91571687  1
  Al  Al50  1  0.41217391  0.59458765  0.41742901  1
  Al  Al51  1  0.42285828  0.57755068  0.90925710  1
  Al  Al52  1  0.91888604  0.08276252  0.42165689  1
  Al  Al53  1  0.91871403  0.07637501  0.91323504  1
  Al  Al54  1  0.91943690  0.58439424  0.41849855  1
  Al  Al55  1  0.91229514  0.57837768  0.92544245  1
  Al  Al56  1  0.08486573  0.42181078  0.42344143  1
  Al  Al57  1  0.08898071  0.40629487  0.91496109  1
  Al  Al58  1  0.07961427  0.91264917  0.42104305  1
  Al  Al59  1  0.08379609  0.92086158  0.91344877  1
  Al  Al60  1  0.57528950  0.41097451  0.41302677  1
  Al  Al61  1  0.57859116  0.41700042  0.91345462  1
  Al  Al62  1  0.59285447  0.91792165  0.41596024  1
  Al  Al63  1  0.58853317  0.90741875  0.91594268  1
  Al  Al64  1  0.08041260  0.08885142  0.42300265  1
  Al  Al65  1  0.08877659  0.08114300  0.90858335  1
  Al  Al66  1  0.09225738  0.58943251  0.42254815  1
  Al  Al67  1  0.08257341  0.57520236  0.92284714  1
  Al  Al68  1  0.58137190  0.08163531  0.41086410  1
  Al  Al69  1  0.58532399  0.08930198  0.91756938  1
  Al  Al70  1  0.57482894  0.59218693  0.41468348  1
  Al  Al71  1  0.58234515  0.58530050  0.91536942  1
  Al  Al72  1  0.41526598  0.40863569  0.41676250  1
  Al  Al73  1  0.41598236  0.41455227  0.91497015  1
  Al  Al74  1  0.41652605  0.91159104  0.42353987  1
  Al  Al75  1  0.42891694  0.91423042  0.90728786  1
  Al  Al76  1  0.92070579  0.41924234  0.42311873  1
  Al  Al77  1  0.93018315  0.42085226  0.90560677  1
  Al  Al78  1  0.90947698  0.90937013  0.42336369  1
  Al  Al79  1  0.90992063  0.91427446  0.91948045  1
  Al  Al80  1  0.09119082  0.41268482  0.07841649  1
  Al  Al81  1  0.08826189  0.41732220  0.59349376  1
  Al  Al82  1  0.06783385  0.90870758  0.07693128  1
  Al  Al83  1  0.08610654  0.92062319  0.58188004  1
  Al  Al84  1  0.57494186  0.41278543  0.09255151  1
  Al  Al85  1  0.57399752  0.41026564  0.58748509  1
  Al  Al86  1  0.59110133  0.90999709  0.07865394  1
  Al  Al87  1  0.59003584  0.91207013  0.57963110  1
  Al  Al88  1  0.42756044  0.08687477  0.07975327  1
  Al  Al89  1  0.41738416  0.09785706  0.58180732  1
  Al  Al90  1  0.42608294  0.57542971  0.08406321  1
  Al  Al91  1  0.40124306  0.58443515  0.58091890  1
  Al  Al92  1  0.91835945  0.07192844  0.08044942  1
  Al  Al93  1  0.91261680  0.08192794  0.58965864  1
  Al  Al94  1  0.91936421  0.59300612  0.08378010  1
  Al  Al95  1  0.91539953  0.57477572  0.57578498  1
  Al  Al96  1  0.25468909  0.13687042  0.13500814  1
  Al  Al97  1  0.25307658  0.14052147  0.63535446  1
  Al  Al98  1  0.24807022  0.63611349  0.13808108  1
  Al  Al99  1  0.25347461  0.63650585  0.62660782  1
  Al  Al100  1  0.74353033  0.13486211  0.13462194  1
  Al  Al101  1  0.74848879  0.13022758  0.63581823  1
  Al  Al102  1  0.74971627  0.63636076  0.13694681  1
  Al  Al103  1  0.74639514  0.63794764  0.63439160  1
  Al  Al104  1  0.25017774  0.36391390  0.13821622  1
  Al  Al105  1  0.25225441  0.36984287  0.63616258  1
  Al  Al106  1  0.24885622  0.86084584  0.13835787  1
  Al  Al107  1  0.25350362  0.86371152  0.63480305  1
  Al  Al108  1  0.74857696  0.36545924  0.13896315  1
  Al  Al109  1  0.74361195  0.36241010  0.63333321  1
  Al  Al110  1  0.74734353  0.86306206  0.13152930  1
  Al  Al111  1  0.74949785  0.87205060  0.63551268  1
  Al  Al112  1  0.25665218  0.13668470  0.36713123  1
  Al  Al113  1  0.24627663  0.13501872  0.86360958  1
  Al  Al114  1  0.25104195  0.63824752  0.37252909  1
  Al  Al115  1  0.24861412  0.63282383  0.86294122  1
  Al  Al116  1  0.74306216  0.13326382  0.36574032  1
  Al  Al117  1  0.74505983  0.13462075  0.86567397  1
  Al  Al118  1  0.74878383  0.63182175  0.36343822  1
  Al  Al119  1  0.74793841  0.63788857  0.86391674  1
  Al  Al120  1  0.25105923  0.36377535  0.36566547  1
  Al  Al121  1  0.25027163  0.36555953  0.86216925  1
  Al  Al122  1  0.25271719  0.86495249  0.36579425  1
  Al  Al123  1  0.24537354  0.86566037  0.86080252  1
  Al  Al124  1  0.74648108  0.36819235  0.36415351  1
  Al  Al125  1  0.74567230  0.36429717  0.86129588  1
  Al  Al126  1  0.74957654  0.86435297  0.36807243  1
  Al  Al127  1  0.74752889  0.86571979  0.86715276  1
  Al  Al128  1  0.13648145  0.25048496  0.12862315  1
  Al  Al129  1  0.13503360  0.25357893  0.63624117  1
  Al  Al130  1  0.13392312  0.75045668  0.13778337  1
  Al  Al131  1  0.13733072  0.74746695  0.63199437  1
  Al  Al132  1  0.63491445  0.25014602  0.13814082  1
  Al  Al133  1  0.62899908  0.24582114  0.63674830  1
  Al  Al134  1  0.63536554  0.75011586  0.13622365  1
  Al  Al135  1  0.63522432  0.75871603  0.63459049  1
  Al  Al136  1  0.13613638  0.25128576  0.36640851  1
  Al  Al137  1  0.13644120  0.25239072  0.86781819  1
  Al  Al138  1  0.13125083  0.74902558  0.36909261  1
  Al  Al139  1  0.13567883  0.74673596  0.86049135  1
  Al  Al140  1  0.62752526  0.24843002  0.36237656  1
  Al  Al141  1  0.63448898  0.24888540  0.86455137  1
  Al  Al142  1  0.63572000  0.75169448  0.36439637  1
  Al  Al143  1  0.63308071  0.75707564  0.86675609  1
  Al  Al144  1  0.36931770  0.25325251  0.13547741  1
  Al  Al145  1  0.36913796  0.25150268  0.63662849  1
  Al  Al146  1  0.36638023  0.74351341  0.13658218  1
  Al  Al147  1  0.36514807  0.74985464  0.63122339  1
  Al  Al148  1  0.86648325  0.24896977  0.13789412  1
  Al  Al149  1  0.86359574  0.25157643  0.63659051  1
  Al  Al150  1  0.86523380  0.75703499  0.13572972  1
  Al  Al151  1  0.86413216  0.75874587  0.63341679  1
  Al  Al152  1  0.37149525  0.25039529  0.36501439  1
  Al  Al153  1  0.36588883  0.25126818  0.86275551  1
  Al  Al154  1  0.36698882  0.74726803  0.37042577  1
  Al  Al155  1  0.36296056  0.75072669  0.86475789  1
  Al  Al156  1  0.86136108  0.25212929  0.36513943  1
  Al  Al157  1  0.86366511  0.24648109  0.86306356  1
  Al  Al158  1  0.86790788  0.75373709  0.36422498  1
  Al  Al159  1  0.86147779  0.75618242  0.86350787  1
  Al  Al160  1  0.13714950  0.13856713  0.25056439  1
  Al  Al161  1  0.13550192  0.13757955  0.75098313  1
  Al  Al162  1  0.13628639  0.63630992  0.25604116  1
  Al  Al163  1  0.14132188  0.62810615  0.73824896  1
  Al  Al164  1  0.63363913  0.12827371  0.25193957  1
  Al  Al165  1  0.63456142  0.12846415  0.74699487  1
  Al  Al166  1  0.62719133  0.63638141  0.25140140  1
  Al  Al167  1  0.63595307  0.63200195  0.74995980  1
  Al  Al168  1  0.36991204  0.13563695  0.25462059  1
  Al  Al169  1  0.36754463  0.13650151  0.74838519  1
  Al  Al170  1  0.37072807  0.63695765  0.25612694  1
  Al  Al171  1  0.36006340  0.62856908  0.74549171  1
  Al  Al172  1  0.86013216  0.13437807  0.25059719  1
  Al  Al173  1  0.86239285  0.13281744  0.74732970  1
  Al  Al174  1  0.86362667  0.63402003  0.25273877  1
  Al  Al175  1  0.86386392  0.63781581  0.74524646  1
  Al  Al176  1  0.13449626  0.36326892  0.25199353  1
  Al  Al177  1  0.13438770  0.36927356  0.74326977  1
  Al  Al178  1  0.12968024  0.86215711  0.25570038  1
  Al  Al179  1  0.13536725  0.86285924  0.74647144  1
  Al  Al180  1  0.62854238  0.36317520  0.25309534  1
  Al  Al181  1  0.62823199  0.36488435  0.74804553  1
  Al  Al182  1  0.63826202  0.87277836  0.25253373  1
  Al  Al183  1  0.63300733  0.87098211  0.75000924  1
  Al  Al184  1  0.36947189  0.36302767  0.25287700  1
  Al  Al185  1  0.36889930  0.36768215  0.74606422  1
  Al  Al186  1  0.36546660  0.86443475  0.25300882  1
  Al  Al187  1  0.37220664  0.86221554  0.75147019  1
  Al  Al188  1  0.86506106  0.36948931  0.25190808  1
  Al  Al189  1  0.86460251  0.36463797  0.74799864  1
  Al  Al190  1  0.86786256  0.86598830  0.25122954  1
  Al  Al191  1  0.86222889  0.86809212  0.74642052  1
  Al  Al192  1  0.32247857  0.66695651  -0.00078355  1
  Al  Al193  1  0.67521057  0.68662966  -0.00053990  1
  Al  Al194  1  0.31573219  0.32921380  -0.00011436  1
  Al  Al195  1  0.00158351  0.67464675  0.66513946  1
  Al  Al196  1  0.67083796  0.68632852  0.49945742  1
  Al  Al197  1  0.81660249  -0.00184972  0.17498412  1
  Al  Al198  1  0.17259680  0.82063082  -0.00196496  1
  Al  Al199  1  0.33008855  -0.00005331  0.17752774  1
  Al  Al200  1  0.67102788  0.31795759  0.00242455  1
  Al  Al201  1  0.67677761  0.49825683  0.17886962  1
  Al  Al202  1  0.50208393  0.18007335  0.81384883  1
  Al  Al203  1  0.31951211  0.31117912  0.50062972  1
  Al  Al204  1  0.82735604  0.68952112  0.50003679  1
  Al  Al205  1  0.81956587  0.17803639  0.50117245  1
  Al  Al206  1  0.00162531  0.31617281  0.80925014  1
  Al  Al207  1  0.50182156  0.18663214  0.18890781  1
  Al  Al208  1  0.16823116  -0.00275416  0.17140019  1
  Al  Al209  1  0.82937436  0.32839536  -0.00321732  1
  Al  Al210  1  0.81666827  0.00009936  0.33097825  1
  Al  Al211  1  0.81895688  -0.00059385  0.81568128  1
  Al  Al212  1  0.32753020  0.82947488  0.00027656  1
  Al  Al213  1  -0.00053982  0.32164913  0.17504350  1
  Al  Al214  1  0.50150998  0.81916306  0.17364504  1
  Al  Al215  1  0.50228600  0.81956474  0.32710899  1
  Al  Al216  1  0.81702104  0.16865045  0.00178919  1
  Al  Al217  1  0.17464400  0.00177283  0.68502264  1
  Al  Al218  1  0.82630337  0.68879672  0.00073118  1
  Al  Al219  1  0.32245063  0.50093798  0.32850173  1
  Al  Al220  1  0.49940099  0.68544991  0.82444027  1
  Al  Al221  1  0.49947719  0.67692998  0.67108826  1
  Al  Al222  1  0.18725341  0.18236581  0.50087141  1
  Al  Al223  1  -0.00346840  0.66987637  0.83024923  1
  Al  Al224  1  0.17518044  0.49961587  0.18180460  1
  Al  Al225  1  0.32866670  0.00169011  0.66946700  1
  Al  Al226  1  0.32159393  0.17499812  -0.00092497  1
  Al  Al227  1  0.17782911  0.50052450  0.82001248  1
  Al  Al228  1  -0.00058922  0.18597026  0.67986236  1
  Al  Al229  1  0.18866857  0.81443995  0.49954045  1
  Al  Al230  1  -0.00129221  0.68844455  0.18339971  1
  Al  Al231  1  -0.00062013  0.82850634  0.82043034  1
  Al  Al232  1  0.32807712  0.49929101  0.17486920  1
  Al  Al233  1  -0.00166741  0.17988940  0.32075705  1
  Al  Al234  1  0.82190019  0.50099780  0.82503804  1
  Al  Al235  1  0.17679093  0.00211859  0.32953641  1
  Al  Al236  1  0.82017642  0.49911831  0.67240887  1
  Al  Al237  1  0.67473269  0.32055403  0.49951958  1
  Al  Al238  1  0.31506999  -0.00010517  0.82712589  1
  Au  Au239  1  0.49537194  0.66129948  0.67221982  1
  Au  Au240  1  -0.00290484  0.15792330  0.17399710  1
  Au  Au241  1  0.17153339  0.33082630  0.50537493  1
  Au  Au242  1  -0.00594224  0.67593689  0.84510592  1
  Au  Au243  1  0.49808090  0.32731227  0.82144752  1
  Au  Au244  1  0.82156817  0.67344393  0.50029219  1
  Au  Au245  1  0.66749833  0.16436679  0.49833812  1
  Au  Au246  1  0.67238536  0.50004377  0.83332502  1
  Au  Au247  1  0.17248026  0.50234995  0.33270590  1
  Au  Au248  1  0.65961000  0.50297689  0.33396969  1
  Au  Au249  1  0.83211947  0.50539740  0.16484050  1
  Au  Au250  1  0.16645764  0.17554276  -0.00257442  1
  Au  Au251  1  0.49835983  0.66847117  0.17515429  1
  Au  Au252  1  0.50192571  0.83803257  0.67523708  1
  Au  Au253  1  0.67108214  0.00025638  0.83697021  1
  Au  Au254  1  0.33148107  0.00046697  0.83181708  1
  Au  Au255  1  0.66714180  -0.00128571  0.16785941  1
  Au  Au256  1  0.67119066  0.49857117  0.66094011  1
  Au  Au257  1  0.66630366  0.49874197  0.17210158  1
  Au  Au258  1  0.67155610  0.67433507  -0.00084839  1
  Au  Au259  1  0.83929478  0.32672684  0.50485414  1
  Au  Au260  1  0.00265067  0.66714779  0.32999913  1
  Au  Au261  1  0.16074839  -0.01262013  0.15895449  1
  Au  Au262  1  -0.00049969  0.16921644  0.82750583  1
  Au  Au263  1  0.17651012  0.82629401  0.50271131  1
  Au  Au264  1  0.50430816  0.17861571  0.17375657  1
  Au  Au265  1  0.82882503  0.00042254  0.33486870  1
  Au  Au266  1  0.50222542  0.83022407  0.33626172  1
  Au  Au267  1  0.00107286  0.33097792  0.16666058  1
  Au  Au268  1  0.16490435  0.00229318  0.33381533  1
  Au  Au269  1  -0.00287324  0.83325766  0.32595920  1
  Au  Au270  1  0.67441627  0.00019379  0.66539265  1
  Au  Au271  1  0.82190947  0.15258585  0.00005171  1
  Au  Au272  1  0.65509322  0.32366884  0.00368892  1
  Au  Au273  1  0.33438655  0.17565775  0.00128368  1
  Au  Au274  1  0.83340259  0.49833952  0.33384449  1
  Au  Au275  1  0.33621872  0.00436720  0.34600927  1
  Au  Au276  1  0.84042192  0.34065801  -0.00814875  1
  Au  Au277  1  0.33485022  0.49771077  0.81878977  1
  Au  Au278  1  0.66348305  0.32606223  0.49922598  1
  Au  Au279  1  0.34532617  0.00074727  0.17021561  1
  Au  Au280  1  0.33399200  0.65543823  -0.00089789  1
  Au  Au281  1  0.33042807  0.84545783  -0.00084947  1
  Au  Au282  1  0.00404504  0.66021102  0.65786944  1
  Au  Au283  1  -0.00463089  0.84540946  0.66981237  1
  Au  Au284  1  0.16826726  0.49841043  0.82811862  1
  Au  Au285  1  0.32405759  0.00245843  0.65215841  1
  Au  Au286  1  0.15736069  0.67233212  0.00690775  1
  Au  Au287  1  0.00100839  0.32673915  0.33933215  1
