# generated using pymatgen
data_Ca24Ti8Al207Au49
_symmetry_space_group_name_H-M   'P 1'
_cell_length_a   17.32318934
_cell_length_b   17.32116165
_cell_length_c   17.32285334
_cell_angle_alpha   89.99563086
_cell_angle_beta   89.99676143
_cell_angle_gamma   89.99987481
_symmetry_Int_Tables_number   1
_chemical_formula_structural   Ca24Ti8Al207Au49
_chemical_formula_sum   'Ca24 Ti8 Al207 Au49'
_cell_volume   5197.85659771
_cell_formula_units_Z   1
loop_
 _symmetry_equiv_pos_site_id
 _symmetry_equiv_pos_as_xyz
  1  'x, y, z'
loop_
 _atom_site_type_symbol
 _atom_site_label
 _atom_site_symmetry_multiplicity
 _atom_site_fract_x
 _atom_site_fract_y
 _atom_site_fract_z
 _atom_site_occupancy
  Ca  Ca0  1  0.25218848  0.00338796  -0.00178245  1
  Ca  Ca1  1  0.24548606  0.00368225  0.50104815  1
  Ca  Ca2  1  0.24879027  0.49952510  -0.00099945  1
  Ca  Ca3  1  0.24592186  0.49700077  0.50299142  1
  Ca  Ca4  1  0.74889027  -0.00170207  0.00364476  1
  Ca  Ca5  1  0.74964025  0.00216370  0.49739589  1
  Ca  Ca6  1  0.74346373  0.50101870  0.00608570  1
  Ca  Ca7  1  0.74549179  0.49704515  0.49821297  1
  Ca  Ca8  1  -0.00233663  0.24998827  0.00292743  1
  Ca  Ca9  1  -0.00182074  0.24815792  0.49887559  1
  Ca  Ca10  1  -0.00050412  0.75100853  -0.00094623  1
  Ca  Ca11  1  0.00110200  0.75474534  0.50289779  1
  Ca  Ca12  1  0.50532862  0.25178956  0.00051567  1
  Ca  Ca13  1  0.50355522  0.25025601  0.49595162  1
  Ca  Ca14  1  0.50258039  0.75182136  0.00696486  1
  Ca  Ca15  1  0.49739476  0.74683860  0.49460754  1
  Ca  Ca16  1  -0.00042316  0.00071954  0.25168148  1
  Ca  Ca17  1  0.00153268  0.00017510  0.74524400  1
  Ca  Ca18  1  -0.00196933  0.49994293  0.24798490  1
  Ca  Ca19  1  0.00404653  0.49836496  0.74542520  1
  Ca  Ca20  1  0.50062329  -0.00159814  0.24850154  1
  Ca  Ca21  1  0.49679685  0.00337962  0.74661648  1
  Ca  Ca22  1  0.50207834  0.50026953  0.25283095  1
  Ca  Ca23  1  0.49762258  0.49185913  0.74790107  1
  Ti  Ti24  1  0.24846852  0.24732324  0.25113365  1
  Ti  Ti25  1  0.24970820  0.24931475  0.74923700  1
  Ti  Ti26  1  0.25059976  0.75097647  0.24898063  1
  Ti  Ti27  1  0.24948671  0.75042711  0.74840776  1
  Ti  Ti28  1  0.75112975  0.25103705  0.25124227  1
  Ti  Ti29  1  0.74858014  0.25009209  0.74803488  1
  Ti  Ti30  1  0.74944174  0.74938512  0.24936369  1
  Ti  Ti31  1  0.74986581  0.75055162  0.75166271  1
  Al  Al32  1  0.07933692  0.08919154  0.08791228  1
  Al  Al33  1  0.09383319  0.08025511  0.58315915  1
  Al  Al34  1  0.07649827  0.58801937  0.09059806  1
  Al  Al35  1  0.08891611  0.57967389  0.58824969  1
  Al  Al36  1  0.58905840  0.07448352  0.08616185  1
  Al  Al37  1  0.58654471  0.09444495  0.57452099  1
  Al  Al38  1  0.58256891  0.58955930  0.09109244  1
  Al  Al39  1  0.58010235  0.57496003  0.57270861  1
  Al  Al40  1  0.42808343  0.42344173  0.07929314  1
  Al  Al41  1  0.42074933  0.40854507  0.59190039  1
  Al  Al42  1  0.42774952  0.91011117  0.09022142  1
  Al  Al43  1  0.40758577  0.92747453  0.57639101  1
  Al  Al44  1  0.91765255  0.41039113  0.08954851  1
  Al  Al45  1  0.92532145  0.41126820  0.57591325  1
  Al  Al46  1  0.90809004  0.90914745  0.08019919  1
  Al  Al47  1  0.92980391  0.91118078  0.58788905  1
  Al  Al48  1  0.41792599  0.09496471  0.41677307  1
  Al  Al49  1  0.41414103  0.09176162  0.92144981  1
  Al  Al50  1  0.42537208  0.58083151  0.41739071  1
  Al  Al51  1  0.42207393  0.57472022  0.92562214  1
  Al  Al52  1  0.92300115  0.09347776  0.41274580  1
  Al  Al53  1  0.92259587  0.08169284  0.91471297  1
  Al  Al54  1  0.92115721  0.58583516  0.40531852  1
  Al  Al55  1  0.91923256  0.58295104  0.93057646  1
  Al  Al56  1  0.07579035  0.40618285  0.41575871  1
  Al  Al57  1  0.08218064  0.41972209  0.91262805  1
  Al  Al58  1  0.08619492  0.91099148  0.42694543  1
  Al  Al59  1  0.07937311  0.91713808  0.91616125  1
  Al  Al60  1  0.59324928  0.41237431  0.41800976  1
  Al  Al61  1  0.58836120  0.40689151  0.91402784  1
  Al  Al62  1  0.57734839  0.91670439  0.41242908  1
  Al  Al63  1  0.58990354  0.92205299  0.93111303  1
  Al  Al64  1  0.08428613  0.09775343  0.42163594  1
  Al  Al65  1  0.08128000  0.08507833  0.91365369  1
  Al  Al66  1  0.07725748  0.59279684  0.41454738  1
  Al  Al67  1  0.08465526  0.57510519  0.92003371  1
  Al  Al68  1  0.58201371  0.09603938  0.41163613  1
  Al  Al69  1  0.58149454  0.08067054  0.92159110  1
  Al  Al70  1  0.58905957  0.57706901  0.40895217  1
  Al  Al71  1  0.58408435  0.57488244  0.92318049  1
  Al  Al72  1  0.42341948  0.41598575  0.42131564  1
  Al  Al73  1  0.42837729  0.41072006  0.90860282  1
  Al  Al74  1  0.42041330  0.91196351  0.41777089  1
  Al  Al75  1  0.42230687  0.92791470  0.92891790  1
  Al  Al76  1  0.91788391  0.41062373  0.41026475  1
  Al  Al77  1  0.92124954  0.41584182  0.92576881  1
  Al  Al78  1  0.92473785  0.92210083  0.42028957  1
  Al  Al79  1  0.91396946  0.90702958  0.91908411  1
  Al  Al80  1  0.07405183  0.41682183  0.08936858  1
  Al  Al81  1  0.08725722  0.41559171  0.58791922  1
  Al  Al82  1  0.07637864  0.91764755  0.07953869  1
  Al  Al83  1  0.09203187  0.91469238  0.58956426  1
  Al  Al84  1  0.58877155  0.41211829  0.07815254  1
  Al  Al85  1  0.58446805  0.39939476  0.58214702  1
  Al  Al86  1  0.59120576  0.91042377  0.09401393  1
  Al  Al87  1  0.57909036  0.92477963  0.57248014  1
  Al  Al88  1  0.41686057  0.08718915  0.07744055  1
  Al  Al89  1  0.40631815  0.09027922  0.57909882  1
  Al  Al90  1  0.42534935  0.58999001  0.09107096  1
  Al  Al91  1  0.41482285  0.57095681  0.57999089  1
  Al  Al92  1  0.92019153  0.08434381  0.09135438  1
  Al  Al93  1  0.92125566  0.08224525  0.57597409  1
  Al  Al94  1  0.91882870  0.59427298  0.09117213  1
  Al  Al95  1  0.93056816  0.58138963  0.57589800  1
  Al  Al96  1  0.24699703  0.13684699  0.13334168  1
  Al  Al97  1  0.25097276  0.13982378  0.62634995  1
  Al  Al98  1  0.25042517  0.63815139  0.14072034  1
  Al  Al99  1  0.24643033  0.63481825  0.63567462  1
  Al  Al100  1  0.75165597  0.13147266  0.13982063  1
  Al  Al101  1  0.74538173  0.13947366  0.62649605  1
  Al  Al102  1  0.74966924  0.63285099  0.13344367  1
  Al  Al103  1  0.74616688  0.63450779  0.63610664  1
  Al  Al104  1  0.25049613  0.36183229  0.13816372  1
  Al  Al105  1  0.24788878  0.36261352  0.63521550  1
  Al  Al106  1  0.25065440  0.86482551  0.13662130  1
  Al  Al107  1  0.24466330  0.86731894  0.63202577  1
  Al  Al108  1  0.74850089  0.36750036  0.13470607  1
  Al  Al109  1  0.74426207  0.36150354  0.62686882  1
  Al  Al110  1  0.75057728  0.86774911  0.13709506  1
  Al  Al111  1  0.75000119  0.86396792  0.62921439  1
  Al  Al112  1  0.25044905  0.13632347  0.37050069  1
  Al  Al113  1  0.24834589  0.13665698  0.86770657  1
  Al  Al114  1  0.25021086  0.63716949  0.36025976  1
  Al  Al115  1  0.25002549  0.63586210  0.86239365  1
  Al  Al116  1  0.74701734  0.13685470  0.36992790  1
  Al  Al117  1  0.75012507  0.13872619  0.86205023  1
  Al  Al118  1  0.74472684  0.63129667  0.36090258  1
  Al  Al119  1  0.75175721  0.63731635  0.87163565  1
  Al  Al120  1  0.24999541  0.35722395  0.36437609  1
  Al  Al121  1  0.24935593  0.36332977  0.86600860  1
  Al  Al122  1  0.24712996  0.86868876  0.36313779  1
  Al  Al123  1  0.25100799  0.86455593  0.86310871  1
  Al  Al124  1  0.74901842  0.36576656  0.37096252  1
  Al  Al125  1  0.74669201  0.36297039  0.86866714  1
  Al  Al126  1  0.75140797  0.86495516  0.36626168  1
  Al  Al127  1  0.75351464  0.86574499  0.86646087  1
  Al  Al128  1  0.12812690  0.24842444  0.13511952  1
  Al  Al129  1  0.13502361  0.24536746  0.63189350  1
  Al  Al130  1  0.12920379  0.74916675  0.13758812  1
  Al  Al131  1  0.13271161  0.75769218  0.63296200  1
  Al  Al132  1  0.63735148  0.25102268  0.13753174  1
  Al  Al133  1  0.62884035  0.25070616  0.63328821  1
  Al  Al134  1  0.63364440  0.74914554  0.13717958  1
  Al  Al135  1  0.63309326  0.75246615  0.63575231  1
  Al  Al136  1  0.13214379  0.24398084  0.36648628  1
  Al  Al137  1  0.13498024  0.24891586  0.86549074  1
  Al  Al138  1  0.13531197  0.75003777  0.36338657  1
  Al  Al139  1  0.13683097  0.75306103  0.86219191  1
  Al  Al140  1  0.63274932  0.25352603  0.36388244  1
  Al  Al141  1  0.63055062  0.25640029  0.86478611  1
  Al  Al142  1  0.63491068  0.75099235  0.36011900  1
  Al  Al143  1  0.63481857  0.74582962  0.86672491  1
  Al  Al144  1  0.36507490  0.24541962  0.13657376  1
  Al  Al145  1  0.36850312  0.24962078  0.63340351  1
  Al  Al146  1  0.36924117  0.74957850  0.13371321  1
  Al  Al147  1  0.36162756  0.74905688  0.63385723  1
  Al  Al148  1  0.87106520  0.25256559  0.13954138  1
  Al  Al149  1  0.86220922  0.24817047  0.62781984  1
  Al  Al150  1  0.86416243  0.75055261  0.13549609  1
  Al  Al151  1  0.86581066  0.75575040  0.63513670  1
  Al  Al152  1  0.37216923  0.24573521  0.36730985  1
  Al  Al153  1  0.36681311  0.25015432  0.86194782  1
  Al  Al154  1  0.36451944  0.75125665  0.36325436  1
  Al  Al155  1  0.36765632  0.74791998  0.86432522  1
  Al  Al156  1  0.86187077  0.24850063  0.37154466  1
  Al  Al157  1  0.86398104  0.25466197  0.86503827  1
  Al  Al158  1  0.86492971  0.74807123  0.36282256  1
  Al  Al159  1  0.86157344  0.75353993  0.87277335  1
  Al  Al160  1  0.12971979  0.13360235  0.25094786  1
  Al  Al161  1  0.13826664  0.13236050  0.74221370  1
  Al  Al162  1  0.12970979  0.63719369  0.25026340  1
  Al  Al163  1  0.13650159  0.63611690  0.74449370  1
  Al  Al164  1  0.63467053  0.13733048  0.25319195  1
  Al  Al165  1  0.63296297  0.13953224  0.74916633  1
  Al  Al166  1  0.63176592  0.63248386  0.24735273  1
  Al  Al167  1  0.63047028  0.63716607  0.74832843  1
  Al  Al168  1  0.36660888  0.13440261  0.25387842  1
  Al  Al169  1  0.36561164  0.13637250  0.74518865  1
  Al  Al170  1  0.37257907  0.63794127  0.24956622  1
  Al  Al171  1  0.36945431  0.63566244  0.74764241  1
  Al  Al172  1  0.86784115  0.13469729  0.25184572  1
  Al  Al173  1  0.86032839  0.13172893  0.74490192  1
  Al  Al174  1  0.86584439  0.63424736  0.25068239  1
  Al  Al175  1  0.86242280  0.63913904  0.74698548  1
  Al  Al176  1  0.13218074  0.36119205  0.24950517  1
  Al  Al177  1  0.13466750  0.36262721  0.74793090  1
  Al  Al178  1  0.13234574  0.86683679  0.24999545  1
  Al  Al179  1  0.13280129  0.86783258  0.74392857  1
  Al  Al180  1  0.63859043  0.37098569  0.25411697  1
  Al  Al181  1  0.63317446  0.36246726  0.74620768  1
  Al  Al182  1  0.63496315  0.86740629  0.24521301  1
  Al  Al183  1  0.63733220  0.86439630  0.75266910  1
  Al  Al184  1  0.36526847  0.36090229  0.25376861  1
  Al  Al185  1  0.36630029  0.36262483  0.74797492  1
  Al  Al186  1  0.36593605  0.86666772  0.24745929  1
  Al  Al187  1  0.36281239  0.86572779  0.74576721  1
  Al  Al188  1  0.86364040  0.36500825  0.25063617  1
  Al  Al189  1  0.85977147  0.36223994  0.74562827  1
  Al  Al190  1  0.86473191  0.87021586  0.24746247  1
  Al  Al191  1  0.86154564  0.86927209  0.74849731  1
  Al  Al192  1  0.32462163  0.00012006  0.32970404  1
  Al  Al193  1  0.17114964  0.67202149  0.00126732  1
  Al  Al194  1  0.17136655  0.69036961  0.50011106  1
  Al  Al195  1  0.82719794  0.18036092  0.00220752  1
  Al  Al196  1  0.67791251  0.00084674  0.31961969  1
  Al  Al197  1  0.67205055  0.49909340  0.81788415  1
  Al  Al198  1  0.68844158  0.81930234  0.00195583  1
  Al  Al199  1  0.50218163  0.17050429  0.17792284  1
  Al  Al200  1  0.32825521  0.67790129  0.00107254  1
  Al  Al201  1  0.82863930  0.50084483  0.83054751  1
  Al  Al202  1  0.31310658  0.82506306  0.49837766  1
  Al  Al203  1  0.31275289  0.49865057  0.67672089  1
  Al  Al204  1  0.83098983  0.67961017  0.50134563  1
  Al  Al205  1  0.17726990  0.82503711  0.00030206  1
  Al  Al206  1  0.50171605  0.32637251  0.18204022  1
  Al  Al207  1  0.33033700  0.49900548  0.17310133  1
  Al  Al208  1  0.49989998  0.17593758  0.82225970  1
  Al  Al209  1  -0.00134130  0.81741410  0.32043660  1
  Al  Al210  1  0.17564730  0.49870230  0.32761363  1
  Al  Al211  1  -0.00123596  0.31596166  0.68018312  1
  Al  Al212  1  0.32703942  0.67032087  0.49806440  1
  Al  Al213  1  0.82236158  0.49904998  0.31885416  1
  Al  Al214  1  0.32980366  0.49821123  0.82813843  1
  Al  Al215  1  -0.00197754  0.82642325  0.81230831  1
  Al  Al216  1  0.67752060  0.00159297  0.66933955  1
  Al  Al217  1  0.17499633  0.50051656  0.17256121  1
  Al  Al218  1  0.50214108  0.82449301  0.83358223  1
  Al  Al219  1  0.33333237  0.31467396  0.00097488  1
  Al  Al220  1  0.32773028  0.49952297  0.32756146  1
  Al  Al221  1  0.67920176  0.00153390  0.82664097  1
  Al  Al222  1  0.32434994  0.31781865  0.50007904  1
  Al  Al223  1  0.82660297  0.49941310  0.66805352  1
  Al  Al224  1  0.67307055  0.18045783  0.00117612  1
  Al  Al225  1  0.17619667  -0.00027349  0.81513807  1
  Al  Al226  1  0.17672858  -0.00308330  0.17589560  1
  Al  Al227  1  0.17189239  0.31433691  0.49922038  1
  Al  Al228  1  -0.00264932  0.30471664  0.30919998  1
  Al  Al229  1  0.00056548  0.68564908  0.67240757  1
  Al  Al230  1  -0.00157405  0.18183696  0.81431700  1
  Al  Al231  1  -0.00194891  0.67702881  0.82915051  1
  Al  Al232  1  0.30910284  0.00273004  0.67493138  1
  Al  Al233  1  0.17037513  0.32141035  0.00361901  1
  Al  Al234  1  0.49985246  0.81754622  0.31170015  1
  Al  Al235  1  0.17848781  0.49970556  0.81026925  1
  Al  Al236  1  0.33164014  0.00212626  0.82662774  1
  Al  Al237  1  0.49605502  0.82663812  0.66912095  1
  Al  Al238  1  0.67400186  0.67782197  0.49793237  1
  Au  Au239  1  0.82140398  0.33719202  0.00417316  1
  Au  Au240  1  -0.00331817  0.82127376  0.16107472  1
  Au  Au241  1  0.50391940  0.83930197  0.84133198  1
  Au  Au242  1  0.66496366  0.67299371  0.00101309  1
  Au  Au243  1  0.17330306  0.67342836  0.50152126  1
  Au  Au244  1  0.16815482  -0.00069368  0.16699572  1
  Au  Au245  1  0.82541221  0.33212015  0.49984108  1
  Au  Au246  1  0.66045256  0.49827021  0.17476405  1
  Au  Au247  1  0.83362715  0.50216849  0.16717116  1
  Au  Au248  1  -0.00225797  0.33075579  0.82882475  1
  Au  Au249  1  0.49340702  0.83330210  0.65449284  1
  Au  Au250  1  0.66103999  0.00411069  0.67327143  1
  Au  Au251  1  0.50386798  0.16743515  0.16576717  1
  Au  Au252  1  0.83386701  0.68176592  0.00440441  1
  Au  Au253  1  0.82448586  0.49895779  0.33115098  1
  Au  Au254  1  0.82992557  0.66328574  0.49707777  1
  Au  Au255  1  0.50157872  0.17858698  0.83463892  1
  Au  Au256  1  0.50424793  0.33060354  0.33106116  1
  Au  Au257  1  0.65823218  0.49568788  0.66766114  1
  Au  Au258  1  0.84337711  0.49924103  0.66620793  1
  Au  Au259  1  0.15952341  0.49898187  0.33029145  1
  Au  Au260  1  0.83059700  0.84269267  0.50134955  1
  Au  Au261  1  0.49856175  0.65902010  0.66340193  1
  Au  Au262  1  0.82302082  0.16472872  0.49825211  1
  Au  Au263  1  0.84141224  -0.00149951  0.66835520  1
  Au  Au264  1  0.17438822  0.16263291  -0.00044169  1
  Au  Au265  1  0.32557616  0.66555762  0.00281483  1
  Au  Au266  1  0.16084430  0.00418539  0.34000214  1
  Au  Au267  1  0.84080325  0.00403057  0.32919277  1
  Au  Au268  1  0.50110531  0.65719329  0.83190482  1
  Au  Au269  1  0.00397377  0.16647568  0.66520258  1
  Au  Au270  1  0.33316908  0.00107353  0.16234201  1
  Au  Au271  1  0.82524732  -0.00169708  0.16372471  1
  Au  Au272  1  0.50268452  0.66953336  0.32394659  1
  Au  Au273  1  0.49751118  0.17824228  0.65909000  1
  Au  Au274  1  0.66288839  0.00151602  0.32696323  1
  Au  Au275  1  0.66061899  0.82629086  0.49568965  1
  Au  Au276  1  0.00260741  0.81825513  0.33730448  1
  Au  Au277  1  0.32645319  0.84143947  0.00167857  1
  Au  Au278  1  0.82903236  -0.00190405  0.83935204  1
  Au  Au279  1  0.33279989  0.32942991  0.50079711  1
  Au  Au280  1  0.33515167  -0.00015052  0.33643678  1
  Au  Au281  1  -0.00109553  0.18094192  0.18285689  1
  Au  Au282  1  0.34287427  0.32819600  0.00046133  1
  Au  Au283  1  0.17149787  -0.00025506  0.82711916  1
  Au  Au284  1  0.82624633  0.16453021  -0.00203031  1
  Au  Au285  1  0.82183149  0.50092424  0.84671354  1
  Au  Au286  1  0.16482583  0.33264699  0.00351534  1
  Au  Au287  1  0.00432343  0.66260890  0.82335968  1
