# generated using pymatgen
data_Ca24Ti8Al207Au49
_symmetry_space_group_name_H-M   'P 1'
_cell_length_a   17.32240924
_cell_length_b   17.32184330
_cell_length_c   17.32055080
_cell_angle_alpha   90.00353582
_cell_angle_beta   90.00451631
_cell_angle_gamma   89.99658931
_symmetry_Int_Tables_number   1
_chemical_formula_structural   Ca24Ti8Al207Au49
_chemical_formula_sum   'Ca24 Ti8 Al207 Au49'
_cell_volume   5197.13616879
_cell_formula_units_Z   1
loop_
 _symmetry_equiv_pos_site_id
 _symmetry_equiv_pos_as_xyz
  1  'x, y, z'
loop_
 _atom_site_type_symbol
 _atom_site_label
 _atom_site_symmetry_multiplicity
 _atom_site_fract_x
 _atom_site_fract_y
 _atom_site_fract_z
 _atom_site_occupancy
  Ca  Ca0  1  0.25320137  0.00388502  -0.00354250  1
  Ca  Ca1  1  0.25211243  -0.00110707  0.50078504  1
  Ca  Ca2  1  0.24798584  0.49510283  -0.00136501  1
  Ca  Ca3  1  0.25340579  0.50251601  0.50036700  1
  Ca  Ca4  1  0.74425227  0.00213812  -0.00342517  1
  Ca  Ca5  1  0.75526403  0.00248179  0.49682324  1
  Ca  Ca6  1  0.74889610  0.49877085  -0.00220375  1
  Ca  Ca7  1  0.75440049  0.49623550  0.50083780  1
  Ca  Ca8  1  0.00027484  0.25420456  -0.00064975  1
  Ca  Ca9  1  -0.00145789  0.25178409  0.49859037  1
  Ca  Ca10  1  -0.00312943  0.74998975  -0.00088172  1
  Ca  Ca11  1  0.00096116  0.74513159  0.49931469  1
  Ca  Ca12  1  0.49710462  0.24926206  -0.00529937  1
  Ca  Ca13  1  0.50144972  0.24921786  0.50509904  1
  Ca  Ca14  1  0.50568393  0.74719466  -0.00539221  1
  Ca  Ca15  1  0.49838644  0.74572521  0.50544621  1
  Ca  Ca16  1  -0.00544290  0.00253897  0.25007656  1
  Ca  Ca17  1  -0.00204843  0.00559839  0.75465564  1
  Ca  Ca18  1  -0.00098254  0.49683688  0.25010492  1
  Ca  Ca19  1  -0.00051180  0.49566634  0.75331779  1
  Ca  Ca20  1  0.50001665  -0.00028656  0.24802201  1
  Ca  Ca21  1  0.50339071  -0.00022864  0.75170971  1
  Ca  Ca22  1  0.49948855  0.50179903  0.24498315  1
  Ca  Ca23  1  0.49959316  0.50141841  0.75175358  1
  Ti  Ti24  1  0.24905776  0.25233151  0.24856550  1
  Ti  Ti25  1  0.25051462  0.25002790  0.75210532  1
  Ti  Ti26  1  0.25026567  0.74828380  0.25121103  1
  Ti  Ti27  1  0.25144324  0.75027274  0.74895264  1
  Ti  Ti28  1  0.75167066  0.24992664  0.25034227  1
  Ti  Ti29  1  0.74961457  0.25159493  0.74990151  1
  Ti  Ti30  1  0.74993775  0.74939049  0.24936471  1
  Ti  Ti31  1  0.74873180  0.74799495  0.75026561  1
  Al  Al32  1  0.08302510  0.08889969  0.08589998  1
  Al  Al33  1  0.07521426  0.08801708  0.58159592  1
  Al  Al34  1  0.07580830  0.57176885  0.09037345  1
  Al  Al35  1  0.08932817  0.57922895  0.57645676  1
  Al  Al36  1  0.58019026  0.07906214  0.07609827  1
  Al  Al37  1  0.58796086  0.08232232  0.59347035  1
  Al  Al38  1  0.59635951  0.58595685  0.07834355  1
  Al  Al39  1  0.57570710  0.58144769  0.59029657  1
  Al  Al40  1  0.41293636  0.41464525  0.07812193  1
  Al  Al41  1  0.41315838  0.42283446  0.59024084  1
  Al  Al42  1  0.42264247  0.92448682  0.07529260  1
  Al  Al43  1  0.41872520  0.91631317  0.58559849  1
  Al  Al44  1  0.92448386  0.41686070  0.09016511  1
  Al  Al45  1  0.91338807  0.40961889  0.58135915  1
  Al  Al46  1  0.91990065  0.92104883  0.07999083  1
  Al  Al47  1  0.91709395  0.92067765  0.58126640  1
  Al  Al48  1  0.41096356  0.08750621  0.43093255  1
  Al  Al49  1  0.41377226  0.08941702  0.90557151  1
  Al  Al50  1  0.41142097  0.58846657  0.42311858  1
  Al  Al51  1  0.42799110  0.57990782  0.90499316  1
  Al  Al52  1  0.90876002  0.08797387  0.40840926  1
  Al  Al53  1  0.91970388  0.08597300  0.90956073  1
  Al  Al54  1  0.91719602  0.58389781  0.42126523  1
  Al  Al55  1  0.91197653  0.58100123  0.91421150  1
  Al  Al56  1  0.08081255  0.41855664  0.40233866  1
  Al  Al57  1  0.08433944  0.40300482  0.92055493  1
  Al  Al58  1  0.07082613  0.91382856  0.41956355  1
  Al  Al59  1  0.07567660  0.91044491  0.91214104  1
  Al  Al60  1  0.59099953  0.42072207  0.42217724  1
  Al  Al61  1  0.58751014  0.42271649  0.91293251  1
  Al  Al62  1  0.58127850  0.92092282  0.41743548  1
  Al  Al63  1  0.58433161  0.91906289  0.90645704  1
  Al  Al64  1  0.06937845  0.09383686  0.41620961  1
  Al  Al65  1  0.07915009  0.09461802  0.91466494  1
  Al  Al66  1  0.09127388  0.58082903  0.41325340  1
  Al  Al67  1  0.06978409  0.57318549  0.91676258  1
  Al  Al68  1  0.58640868  0.07811876  0.42455962  1
  Al  Al69  1  0.57861056  0.08362050  0.90400973  1
  Al  Al70  1  0.57856861  0.57806751  0.41452212  1
  Al  Al71  1  0.59098268  0.58758414  0.91264579  1
  Al  Al72  1  0.41147854  0.42489620  0.42188306  1
  Al  Al73  1  0.41450585  0.41618837  0.91361890  1
  Al  Al74  1  0.41988278  0.91557370  0.42607971  1
  Al  Al75  1  0.41969369  0.92501701  0.90478296  1
  Al  Al76  1  0.91914406  0.40680693  0.41778685  1
  Al  Al77  1  0.92232440  0.41719357  0.91020853  1
  Al  Al78  1  0.91174715  0.92260978  0.40650302  1
  Al  Al79  1  0.91803785  0.91648417  0.91080105  1
  Al  Al80  1  0.08775694  0.40748324  0.08595486  1
  Al  Al81  1  0.08000821  0.41852951  0.58641158  1
  Al  Al82  1  0.08070359  0.92442367  0.08332470  1
  Al  Al83  1  0.07857154  0.91662538  0.57853151  1
  Al  Al84  1  0.59113567  0.42516560  0.08067325  1
  Al  Al85  1  0.58201183  0.41716776  0.58459216  1
  Al  Al86  1  0.58374960  0.91943031  0.07666581  1
  Al  Al87  1  0.58561283  0.92389593  0.59472367  1
  Al  Al88  1  0.41124269  0.08934322  0.06704935  1
  Al  Al89  1  0.41660542  0.09034377  0.58644721  1
  Al  Al90  1  0.42592427  0.57149050  0.07943109  1
  Al  Al91  1  0.41102277  0.58657246  0.59014775  1
  Al  Al92  1  0.92282351  0.08733091  0.08585886  1
  Al  Al93  1  0.91607466  0.08939836  0.58204936  1
  Al  Al94  1  0.91631010  0.58229714  0.08450280  1
  Al  Al95  1  0.90716561  0.58228944  0.57785013  1
  Al  Al96  1  0.24945619  0.14077903  0.13341462  1
  Al  Al97  1  0.25478971  0.13528679  0.63631936  1
  Al  Al98  1  0.24933440  0.63299050  0.13455687  1
  Al  Al99  1  0.25681804  0.63182936  0.63445450  1
  Al  Al100  1  0.75415109  0.13880090  0.13377162  1
  Al  Al101  1  0.74530171  0.13717703  0.63630213  1
  Al  Al102  1  0.74497587  0.63303156  0.13356878  1
  Al  Al103  1  0.75011729  0.62826199  0.63772742  1
  Al  Al104  1  0.24802363  0.36129848  0.12630719  1
  Al  Al105  1  0.25298043  0.36479024  0.63714047  1
  Al  Al106  1  0.25191628  0.86439606  0.13127787  1
  Al  Al107  1  0.25256309  0.86597142  0.63096238  1
  Al  Al108  1  0.74973283  0.36165178  0.13420088  1
  Al  Al109  1  0.74982969  0.36835759  0.63411715  1
  Al  Al110  1  0.74978378  0.86485018  0.13264106  1
  Al  Al111  1  0.74898887  0.86557056  0.63774978  1
  Al  Al112  1  0.25421673  0.13732600  0.36441667  1
  Al  Al113  1  0.25577226  0.13629837  0.86872716  1
  Al  Al114  1  0.25066875  0.63056633  0.36414618  1
  Al  Al115  1  0.25072406  0.63576334  0.86646543  1
  Al  Al116  1  0.75227339  0.12886714  0.36210219  1
  Al  Al117  1  0.74514928  0.13659455  0.86541582  1
  Al  Al118  1  0.75191094  0.63416945  0.36690708  1
  Al  Al119  1  0.74465587  0.63200911  0.86652519  1
  Al  Al120  1  0.24980375  0.37043961  0.36441406  1
  Al  Al121  1  0.24982793  0.36022925  0.87045347  1
  Al  Al122  1  0.25252074  0.86251662  0.37304412  1
  Al  Al123  1  0.25438049  0.86415401  0.86656717  1
  Al  Al124  1  0.74910475  0.36404038  0.37016944  1
  Al  Al125  1  0.74996531  0.36261630  0.86400065  1
  Al  Al126  1  0.75386621  0.87039564  0.36555680  1
  Al  Al127  1  0.74263336  0.86633578  0.86321535  1
  Al  Al128  1  0.12677288  0.25423135  0.13349801  1
  Al  Al129  1  0.13570005  0.24995742  0.63336423  1
  Al  Al130  1  0.13743352  0.75084374  0.13505451  1
  Al  Al131  1  0.13759357  0.75239964  0.63412660  1
  Al  Al132  1  0.63087676  0.24736536  0.13663960  1
  Al  Al133  1  0.63535286  0.25270482  0.63364935  1
  Al  Al134  1  0.63769110  0.74949028  0.12759886  1
  Al  Al135  1  0.63626755  0.74647134  0.63763635  1
  Al  Al136  1  0.13532055  0.25038129  0.36637190  1
  Al  Al137  1  0.13339936  0.25272526  0.86760497  1
  Al  Al138  1  0.13597513  0.74849503  0.36447778  1
  Al  Al139  1  0.13707301  0.75261290  0.86725646  1
  Al  Al140  1  0.63893925  0.24939916  0.37244449  1
  Al  Al141  1  0.62726056  0.24886683  0.85908687  1
  Al  Al142  1  0.63756711  0.74864243  0.36624256  1
  Al  Al143  1  0.63439832  0.74581878  0.86640038  1
  Al  Al144  1  0.36690576  0.25450118  0.12954648  1
  Al  Al145  1  0.36522284  0.24607666  0.63565767  1
  Al  Al146  1  0.36257730  0.75125350  0.13276712  1
  Al  Al147  1  0.36525071  0.75045819  0.63220194  1
  Al  Al148  1  0.87387842  0.24919479  0.13678858  1
  Al  Al149  1  0.86492447  0.25256399  0.63443270  1
  Al  Al150  1  0.86333429  0.74986060  0.13608760  1
  Al  Al151  1  0.86207171  0.74975577  0.62989199  1
  Al  Al152  1  0.36311739  0.25130421  0.36643489  1
  Al  Al153  1  0.36973090  0.24873962  0.86807511  1
  Al  Al154  1  0.36197081  0.74716587  0.37151385  1
  Al  Al155  1  0.36651230  0.74913744  0.86220632  1
  Al  Al156  1  0.86492088  0.25076165  0.36588027  1
  Al  Al157  1  0.86859387  0.25032427  0.86369381  1
  Al  Al158  1  0.86261449  0.74838323  0.36876077  1
  Al  Al159  1  0.86131196  0.75021993  0.86341527  1
  Al  Al160  1  0.13134273  0.14091427  0.24911667  1
  Al  Al161  1  0.13625243  0.13758869  0.75475046  1
  Al  Al162  1  0.13527506  0.63162020  0.25430297  1
  Al  Al163  1  0.13815861  0.63698004  0.74909354  1
  Al  Al164  1  0.63449337  0.13689155  0.25294491  1
  Al  Al165  1  0.63555275  0.13141390  0.75142888  1
  Al  Al166  1  0.63577785  0.63350498  0.24809489  1
  Al  Al167  1  0.63513405  0.62860085  0.75423762  1
  Al  Al168  1  0.36552519  0.13856798  0.24060011  1
  Al  Al169  1  0.36610636  0.13116824  0.75520239  1
  Al  Al170  1  0.36387480  0.63084814  0.25171713  1
  Al  Al171  1  0.36512402  0.63484140  0.74879575  1
  Al  Al172  1  0.87299907  0.13763077  0.25448985  1
  Al  Al173  1  0.86423505  0.13767551  0.75168153  1
  Al  Al174  1  0.86349509  0.63474005  0.25032524  1
  Al  Al175  1  0.86213382  0.63544468  0.75053682  1
  Al  Al176  1  0.13478784  0.36426244  0.24893257  1
  Al  Al177  1  0.12925825  0.36227355  0.74974134  1
  Al  Al178  1  0.13813001  0.86346390  0.24922137  1
  Al  Al179  1  0.13636881  0.86476713  0.75406824  1
  Al  Al180  1  0.63623285  0.36494389  0.24668566  1
  Al  Al181  1  0.63701100  0.37125746  0.75306709  1
  Al  Al182  1  0.63651755  0.86426517  0.25444707  1
  Al  Al183  1  0.63507992  0.86643744  0.74950955  1
  Al  Al184  1  0.36179410  0.36882469  0.24724227  1
  Al  Al185  1  0.36460762  0.36175252  0.75401528  1
  Al  Al186  1  0.36294788  0.86299990  0.25285537  1
  Al  Al187  1  0.36353101  0.86993192  0.74824568  1
  Al  Al188  1  0.86501063  0.36402877  0.24785747  1
  Al  Al189  1  0.87032179  0.36332834  0.74893842  1
  Al  Al190  1  0.86391054  0.86507466  0.25104546  1
  Al  Al191  1  0.86283801  0.86441450  0.75218843  1
  Al  Al192  1  0.81019771  0.00179210  0.67224354  1
  Al  Al193  1  0.68126304  0.82842932  0.50181370  1
  Al  Al194  1  0.49840030  0.67624248  0.32593367  1
  Al  Al195  1  0.18280874  0.00039960  0.83193350  1
  Al  Al196  1  0.81461622  0.49804461  0.81841716  1
  Al  Al197  1  -0.00160026  0.82575167  0.68871655  1
  Al  Al198  1  0.67283962  0.00093567  0.17878242  1
  Al  Al199  1  0.32345715  0.32045971  0.50515272  1
  Al  Al200  1  0.50110846  0.82868702  0.18068185  1
  Al  Al201  1  0.50123447  0.17441601  0.68573683  1
  Al  Al202  1  0.17887140  0.49713312  0.18393232  1
  Al  Al203  1  -0.00050751  0.68362858  0.82498815  1
  Al  Al204  1  0.50030302  0.68089954  0.69038631  1
  Al  Al205  1  0.17080975  0.49604489  0.83180690  1
  Al  Al206  1  0.50026100  0.81469547  0.81841163  1
  Al  Al207  1  0.82976752  0.33239424  0.00044619  1
  Al  Al208  1  0.49934973  0.33057673  0.32229300  1
  Al  Al209  1  0.81958805  0.82770577  -0.00225751  1
  Al  Al210  1  -0.00005669  0.18025537  0.68486559  1
  Al  Al211  1  0.49959463  0.32663317  0.68115234  1
  Al  Al212  1  0.18452388  0.18593843  0.00035150  1
  Al  Al213  1  0.18917479  0.67870268  0.49956768  1
  Al  Al214  1  0.81440862  0.49900732  0.17423341  1
  Al  Al215  1  0.67848325  0.50019068  0.31200595  1
  Al  Al216  1  0.18667296  0.49970917  0.67898429  1
  Al  Al217  1  0.67443857  0.31996857  -0.00178304  1
  Al  Al218  1  0.81591035  0.00085058  0.82645168  1
  Al  Al219  1  0.50163922  0.67045380  0.17090888  1
  Al  Al220  1  0.82982396  0.00217556  0.18558657  1
  Al  Al221  1  0.33105443  0.00167116  0.32106266  1
  Al  Al222  1  0.16483203  0.00221825  0.33053283  1
  Al  Al223  1  0.16703665  0.67167016  0.00066207  1
  Al  Al224  1  0.82401781  0.17646716  -0.00130521  1
  Al  Al225  1  0.17983876  0.00149579  0.67227715  1
  Al  Al226  1  0.49783486  0.16940103  0.32419228  1
  Al  Al227  1  0.18548889  0.17802095  0.50050996  1
  Al  Al228  1  0.81651784  0.67091353  0.00002652  1
  Al  Al229  1  -0.00019392  0.31016553  0.30991266  1
  Al  Al230  1  0.18008710  0.00273302  0.17396590  1
  Al  Al231  1  0.00024685  0.68106141  0.18251076  1
  Al  Al232  1  0.32258442  0.49967135  0.81249051  1
  Al  Al233  1  -0.00149839  0.81670759  0.31738784  1
  Al  Al234  1  0.83077405  0.49710829  0.32888192  1
  Al  Al235  1  0.00090722  0.67209873  0.67077077  1
  Al  Al236  1  0.82139619  0.18540809  0.49962458  1
  Al  Al237  1  0.33431926  0.67375068  -0.00150413  1
  Al  Al238  1  0.68258804  0.66828493  0.50209810  1
  Au  Au239  1  0.33474429  0.84124955  -0.00769263  1
  Au  Au240  1  0.16878869  0.34316759  0.49392064  1
  Au  Au241  1  0.17468412  0.49979814  0.67412591  1
  Au  Au242  1  0.32594569  0.32585832  -0.00274236  1
  Au  Au243  1  0.34875775  0.66665078  -0.00371891  1
  Au  Au244  1  0.16211352  0.82416008  0.49723918  1
  Au  Au245  1  0.14941901  0.00246533  0.32381467  1
  Au  Au246  1  0.16734437  0.00178306  0.66180051  1
  Au  Au247  1  0.33352852  -0.00062046  0.33769720  1
  Au  Au248  1  -0.00067126  0.32637763  0.67299330  1
  Au  Au249  1  0.49983524  0.82246173  0.34226733  1
  Au  Au250  1  0.15511296  0.66073130  0.00103267  1
  Au  Au251  1  0.66004608  0.17072832  -0.00608253  1
  Au  Au252  1  0.33123122  0.82142732  0.50296148  1
  Au  Au253  1  0.32579268  0.49946829  0.16631867  1
  Au  Au254  1  0.67530980  0.16462182  0.50360540  1
  Au  Au255  1  0.16963414  0.17779191  0.00042503  1
  Au  Au256  1  0.32271500  0.50357252  0.33448902  1
  Au  Au257  1  0.83157231  0.82426485  -0.00066200  1
  Au  Au258  1  0.67383767  0.84349449  0.50447872  1
  Au  Au259  1  0.66636086  0.82909571  -0.00557808  1
  Au  Au260  1  0.67436397  0.50009310  0.32430747  1
  Au  Au261  1  0.82698849  0.00457911  0.67347680  1
  Au  Au262  1  0.49906736  0.34317037  0.33340594  1
  Au  Au263  1  0.50501497  0.33573112  0.15894548  1
  Au  Au264  1  0.66812833  0.65950274  0.50223331  1
  Au  Au265  1  0.67793544  0.33353253  0.50414402  1
  Au  Au266  1  0.34054311  0.00275914  0.67614447  1
  Au  Au267  1  0.67264491  0.00002132  0.32855199  1
  Au  Au268  1  0.66241330  0.49958368  0.68007025  1
  Au  Au269  1  0.84419151  0.82493255  0.49615948  1
  Au  Au270  1  0.82976683  0.49602020  0.66959570  1
  Au  Au271  1  0.00176132  0.17910970  0.18062878  1
  Au  Au272  1  0.50240761  0.82769336  0.67171995  1
  Au  Au273  1  0.50231760  0.33051463  0.82988314  1
  Au  Au274  1  0.50050782  0.82426917  0.16419512  1
  Au  Au275  1  0.32746400  0.00538668  0.15629132  1
  Au  Au276  1  0.83592640  0.17265913  -0.00323852  1
  Au  Au277  1  0.82452629  0.00202619  0.16923897  1
  Au  Au278  1  0.33304727  0.32852846  0.50275575  1
  Au  Au279  1  0.17295281  0.16675167  0.49854335  1
  Au  Au280  1  -0.00333375  0.65657073  0.67078636  1
  Au  Au281  1  0.49642643  0.16635721  0.15943477  1
  Au  Au282  1  0.16620904  0.00065755  0.83640885  1
  Au  Au283  1  -0.00044109  0.66623431  0.33272395  1
  Au  Au284  1  0.00289197  0.83091797  0.16945627  1
  Au  Au285  1  0.49961914  0.16618845  0.34074851  1
  Au  Au286  1  0.16610045  0.83725779  0.00175753  1
  Au  Au287  1  0.00047924  0.84185599  0.68308061  1
