# generated using pymatgen
data_Ca24Ti8Al207Au49
_symmetry_space_group_name_H-M   'P 1'
_cell_length_a   17.31911791
_cell_length_b   17.31891936
_cell_length_c   17.32016901
_cell_angle_alpha   89.99980046
_cell_angle_beta   90.00038247
_cell_angle_gamma   90.00386973
_symmetry_Int_Tables_number   1
_chemical_formula_structural   Ca24Ti8Al207Au49
_chemical_formula_sum   'Ca24 Ti8 Al207 Au49'
_cell_volume   5195.15708424
_cell_formula_units_Z   1
loop_
 _symmetry_equiv_pos_site_id
 _symmetry_equiv_pos_as_xyz
  1  'x, y, z'
loop_
 _atom_site_type_symbol
 _atom_site_label
 _atom_site_symmetry_multiplicity
 _atom_site_fract_x
 _atom_site_fract_y
 _atom_site_fract_z
 _atom_site_occupancy
  Ca  Ca0  1  0.24686401  0.00268852  0.00333334  1
  Ca  Ca1  1  0.24469484  0.00491725  0.50009661  1
  Ca  Ca2  1  0.24692816  0.49733671  -0.00182503  1
  Ca  Ca3  1  0.24634763  0.49628415  0.50308731  1
  Ca  Ca4  1  0.74983055  0.00362848  -0.00049595  1
  Ca  Ca5  1  0.74919836  0.00200520  0.50273305  1
  Ca  Ca6  1  0.75251834  0.49626303  0.00049554  1
  Ca  Ca7  1  0.74700519  0.49833361  0.50098366  1
  Ca  Ca8  1  0.00137251  0.25428840  0.00021778  1
  Ca  Ca9  1  0.00110787  0.25190847  0.50159053  1
  Ca  Ca10  1  0.00501019  0.74591138  -0.00203479  1
  Ca  Ca11  1  0.00041016  0.74220036  0.50188739  1
  Ca  Ca12  1  0.50168631  0.25125710  -0.00122517  1
  Ca  Ca13  1  0.50255242  0.24914112  0.50352483  1
  Ca  Ca14  1  0.49472738  0.74502312  0.00100194  1
  Ca  Ca15  1  0.49809984  0.74292979  0.49959534  1
  Ca  Ca16  1  -0.00136912  0.00795188  0.24585147  1
  Ca  Ca17  1  -0.00236674  0.00654136  0.75694812  1
  Ca  Ca18  1  0.00310557  0.49418763  0.23977528  1
  Ca  Ca19  1  0.00409902  0.49710961  0.75353616  1
  Ca  Ca20  1  0.50017322  0.00525441  0.24225342  1
  Ca  Ca21  1  0.50164639  0.00038251  0.75277683  1
  Ca  Ca22  1  0.49868024  0.50015467  0.23954006  1
  Ca  Ca23  1  0.49718658  0.50201793  0.75016752  1
  Ti  Ti24  1  0.24942353  0.24935178  0.24916414  1
  Ti  Ti25  1  0.24798372  0.25099420  0.75098138  1
  Ti  Ti26  1  0.24983175  0.74974835  0.24511717  1
  Ti  Ti27  1  0.24718008  0.74703935  0.75162143  1
  Ti  Ti28  1  0.74955487  0.25094610  0.24710486  1
  Ti  Ti29  1  0.75204067  0.25053080  0.75382874  1
  Ti  Ti30  1  0.74803894  0.74866349  0.24708050  1
  Ti  Ti31  1  0.75334780  0.74913366  0.75025234  1
  Al  Al32  1  0.08081855  0.10003204  0.08623672  1
  Al  Al33  1  0.07528521  0.09133713  0.58394585  1
  Al  Al34  1  0.08813428  0.57782299  0.07571092  1
  Al  Al35  1  0.08679323  0.57379364  0.59186867  1
  Al  Al36  1  0.59491663  0.08161698  0.08285353  1
  Al  Al37  1  0.59160841  0.09214853  0.58052556  1
  Al  Al38  1  0.58823750  0.57615128  0.08294512  1
  Al  Al39  1  0.58257962  0.58712595  0.58947943  1
  Al  Al40  1  0.40607169  0.42006597  0.08150416  1
  Al  Al41  1  0.41486291  0.41837702  0.58187909  1
  Al  Al42  1  0.41862942  0.90407045  0.08930575  1
  Al  Al43  1  0.42119448  0.91942698  0.58017180  1
  Al  Al44  1  0.91505659  0.40617345  0.08823229  1
  Al  Al45  1  0.91976238  0.41153788  0.60305020  1
  Al  Al46  1  0.92762110  0.92511885  0.07439126  1
  Al  Al47  1  0.91957585  0.91948659  0.59720731  1
  Al  Al48  1  0.41911194  0.08390171  0.41709504  1
  Al  Al49  1  0.41297697  0.09406266  0.92295666  1
  Al  Al50  1  0.41802722  0.56971898  0.41962553  1
  Al  Al51  1  0.40707421  0.58593200  0.91726461  1
  Al  Al52  1  0.92781608  0.09341343  0.41314803  1
  Al  Al53  1  0.90843103  0.09247413  0.91687530  1
  Al  Al54  1  0.92014336  0.57564720  0.42034812  1
  Al  Al55  1  0.92218038  0.57214870  0.91898454  1
  Al  Al56  1  0.07937280  0.40618523  0.41286530  1
  Al  Al57  1  0.08795182  0.40924273  0.90955135  1
  Al  Al58  1  0.08992258  0.93021862  0.41042650  1
  Al  Al59  1  0.08565304  0.91194807  0.92223303  1
  Al  Al60  1  0.58379000  0.41554370  0.42159811  1
  Al  Al61  1  0.59104606  0.41070271  0.92198232  1
  Al  Al62  1  0.58059369  0.93041319  0.41378488  1
  Al  Al63  1  0.58258478  0.92363141  0.92402919  1
  Al  Al64  1  0.08523748  0.09017477  0.39907127  1
  Al  Al65  1  0.08130585  0.09473777  0.92337477  1
  Al  Al66  1  0.07622821  0.57567821  0.42785029  1
  Al  Al67  1  0.09463667  0.57413789  0.91145237  1
  Al  Al68  1  0.59541268  0.08988887  0.41921283  1
  Al  Al69  1  0.58983239  0.08988939  0.92220058  1
  Al  Al70  1  0.58373636  0.57619800  0.42535086  1
  Al  Al71  1  0.57916288  0.57895683  0.91992645  1
  Al  Al72  1  0.41113625  0.41507409  0.41951294  1
  Al  Al73  1  0.41074226  0.41950784  0.91798963  1
  Al  Al74  1  0.41972493  0.92414759  0.41555638  1
  Al  Al75  1  0.41495119  0.91632359  0.93320652  1
  Al  Al76  1  0.92308589  0.40925490  0.40860761  1
  Al  Al77  1  0.92222941  0.40520558  0.91120943  1
  Al  Al78  1  0.92974847  0.92853756  0.42952715  1
  Al  Al79  1  0.91476042  0.92924749  0.91061402  1
  Al  Al80  1  0.08895523  0.40520865  0.08354995  1
  Al  Al81  1  0.08296357  0.41151528  0.60227139  1
  Al  Al82  1  0.08834586  0.91330785  0.07785953  1
  Al  Al83  1  0.07185080  0.91628389  0.58696838  1
  Al  Al84  1  0.60005057  0.41527425  0.08261560  1
  Al  Al85  1  0.58500654  0.41720315  0.58224563  1
  Al  Al86  1  0.58203529  0.91831795  0.09595774  1
  Al  Al87  1  0.57764558  0.92310429  0.58201853  1
  Al  Al88  1  0.41461804  0.08160701  0.07701417  1
  Al  Al89  1  0.42713752  0.08390406  0.57924471  1
  Al  Al90  1  0.40279414  0.58423942  0.08060199  1
  Al  Al91  1  0.42119690  0.58258659  0.59584096  1
  Al  Al92  1  0.91548259  0.10160994  0.08098545  1
  Al  Al93  1  0.91855480  0.09018983  0.59330417  1
  Al  Al94  1  0.91676042  0.56978855  0.08141898  1
  Al  Al95  1  0.91523565  0.57374620  0.59270877  1
  Al  Al96  1  0.24807983  0.13855766  0.13499087  1
  Al  Al97  1  0.24626007  0.13931473  0.63039177  1
  Al  Al98  1  0.25448566  0.63702735  0.12382095  1
  Al  Al99  1  0.24560875  0.62613176  0.64121700  1
  Al  Al100  1  0.75031027  0.13760688  0.13464934  1
  Al  Al101  1  0.75279487  0.13750144  0.63933393  1
  Al  Al102  1  0.74786001  0.63457774  0.13340844  1
  Al  Al103  1  0.75435717  0.63109460  0.63828603  1
  Al  Al104  1  0.24669810  0.35975007  0.13259337  1
  Al  Al105  1  0.24434665  0.37173861  0.64082181  1
  Al  Al106  1  0.24560800  0.86608856  0.13253952  1
  Al  Al107  1  0.25256806  0.86285741  0.63382489  1
  Al  Al108  1  0.74932582  0.35932196  0.12585477  1
  Al  Al109  1  0.75387912  0.36844033  0.64110097  1
  Al  Al110  1  0.74211551  0.86777890  0.13280871  1
  Al  Al111  1  0.75597664  0.86807496  0.63827568  1
  Al  Al112  1  0.24389556  0.13760794  0.36745120  1
  Al  Al113  1  0.24723759  0.14042964  0.86401134  1
  Al  Al114  1  0.25490466  0.63583227  0.36151862  1
  Al  Al115  1  0.24645440  0.63374720  0.86930100  1
  Al  Al116  1  0.74888098  0.13973807  0.36031810  1
  Al  Al117  1  0.75677846  0.13340502  0.86735483  1
  Al  Al118  1  0.75021211  0.63125911  0.36330865  1
  Al  Al119  1  0.75312124  0.63526626  0.86352416  1
  Al  Al120  1  0.24688542  0.36147654  0.36295041  1
  Al  Al121  1  0.24121202  0.36470893  0.86770924  1
  Al  Al122  1  0.24942353  0.86529971  0.36375715  1
  Al  Al123  1  0.24698987  0.86303207  0.86547237  1
  Al  Al124  1  0.75192772  0.36359680  0.36056632  1
  Al  Al125  1  0.75490889  0.36280152  0.87275821  1
  Al  Al126  1  0.74659259  0.86484015  0.35868168  1
  Al  Al127  1  0.75221215  0.86893658  0.86414715  1
  Al  Al128  1  0.12835271  0.25130958  0.13658281  1
  Al  Al129  1  0.13163938  0.25256343  0.63355246  1
  Al  Al130  1  0.13855630  0.74945132  0.12593107  1
  Al  Al131  1  0.13099310  0.74687436  0.63837145  1
  Al  Al132  1  0.62957150  0.25215262  0.13175644  1
  Al  Al133  1  0.63857491  0.25014063  0.63879362  1
  Al  Al134  1  0.62732184  0.74994406  0.13647932  1
  Al  Al135  1  0.63897175  0.74841640  0.63688168  1
  Al  Al136  1  0.12968071  0.25105081  0.36662450  1
  Al  Al137  1  0.12469534  0.25348074  0.86425875  1
  Al  Al138  1  0.13906576  0.74726743  0.36307471  1
  Al  Al139  1  0.13441124  0.74796199  0.87105088  1
  Al  Al140  1  0.63573795  0.24933038  0.36302425  1
  Al  Al141  1  0.63284681  0.25156025  0.86615394  1
  Al  Al142  1  0.63510892  0.74571208  0.35880357  1
  Al  Al143  1  0.63861732  0.75201547  0.86318463  1
  Al  Al144  1  0.37042144  0.24603316  0.13228462  1
  Al  Al145  1  0.36362250  0.25105629  0.63762319  1
  Al  Al146  1  0.37009842  0.74961612  0.13374985  1
  Al  Al147  1  0.36226075  0.74421447  0.63665122  1
  Al  Al148  1  0.86550277  0.24927111  0.12809315  1
  Al  Al149  1  0.87304662  0.25069423  0.63943834  1
  Al  Al150  1  0.86189064  0.75062351  0.13546632  1
  Al  Al151  1  0.87209339  0.74653138  0.63933468  1
  Al  Al152  1  0.36317050  0.24716217  0.36562318  1
  Al  Al153  1  0.36801068  0.24965818  0.86496625  1
  Al  Al154  1  0.36513543  0.75364095  0.36142522  1
  Al  Al155  1  0.36074612  0.74598581  0.86599641  1
  Al  Al156  1  0.87090911  0.24782302  0.36280688  1
  Al  Al157  1  0.87152961  0.25083907  0.86783178  1
  Al  Al158  1  0.86043885  0.74702105  0.36656672  1
  Al  Al159  1  0.87014240  0.74967916  0.85879676  1
  Al  Al160  1  0.13073857  0.13814518  0.24959108  1
  Al  Al161  1  0.12720159  0.14234292  0.74933855  1
  Al  Al162  1  0.13846501  0.63757437  0.24212120  1
  Al  Al163  1  0.13069691  0.63255287  0.75280819  1
  Al  Al164  1  0.63165648  0.13802609  0.24365896  1
  Al  Al165  1  0.63835750  0.13278052  0.75788476  1
  Al  Al166  1  0.63277561  0.63054660  0.24168785  1
  Al  Al167  1  0.63496967  0.63367558  0.74789734  1
  Al  Al168  1  0.36817588  0.13692183  0.24985305  1
  Al  Al169  1  0.36157415  0.13476130  0.74998128  1
  Al  Al170  1  0.36482703  0.63355248  0.24177010  1
  Al  Al171  1  0.36204025  0.63310409  0.75089858  1
  Al  Al172  1  0.86948887  0.13881064  0.24515991  1
  Al  Al173  1  0.87025740  0.13717382  0.75386137  1
  Al  Al174  1  0.86362642  0.63386552  0.24823426  1
  Al  Al175  1  0.87048959  0.62761950  0.74995122  1
  Al  Al176  1  0.12900300  0.36134465  0.24846743  1
  Al  Al177  1  0.12956135  0.36427675  0.75215531  1
  Al  Al178  1  0.13790692  0.86819478  0.25082535  1
  Al  Al179  1  0.13480240  0.86250534  0.74741730  1
  Al  Al180  1  0.63169409  0.36490216  0.24362539  1
  Al  Al181  1  0.63727098  0.36489043  0.75355081  1
  Al  Al182  1  0.63259797  0.86757712  0.24376638  1
  Al  Al183  1  0.63805399  0.86811685  0.74927669  1
  Al  Al184  1  0.36550319  0.36149983  0.24335818  1
  Al  Al185  1  0.36101685  0.36498128  0.75384112  1
  Al  Al186  1  0.36449295  0.86514939  0.24445651  1
  Al  Al187  1  0.36161842  0.86443157  0.74802516  1
  Al  Al188  1  0.86803719  0.35802067  0.24552283  1
  Al  Al189  1  0.86874927  0.36502511  0.75261104  1
  Al  Al190  1  0.86267262  0.86581138  0.24503994  1
  Al  Al191  1  0.86860252  0.86862669  0.74993162  1
  Al  Al192  1  0.81832795  0.00181348  0.16737473  1
  Al  Al193  1  0.16990488  0.00347274  0.83073864  1
  Al  Al194  1  0.49921980  0.67265819  0.81962303  1
  Al  Al195  1  0.00127985  0.82288561  0.16971647  1
  Al  Al196  1  0.50006646  0.81046449  0.67611405  1
  Al  Al197  1  0.83124192  0.00210930  0.32890419  1
  Al  Al198  1  0.32500425  0.00052328  0.17107236  1
  Al  Al199  1  0.18778464  0.19449451  -0.00042335  1
  Al  Al200  1  0.17375684  0.67126869  0.50205222  1
  Al  Al201  1  0.82977180  0.32915630  0.50348909  1
  Al  Al202  1  0.30863363  0.00277454  0.32720608  1
  Al  Al203  1  -0.00011328  0.66812288  0.16823128  1
  Al  Al204  1  0.82456470  0.82898294  -0.00206752  1
  Al  Al205  1  0.67506451  0.00326569  0.31175114  1
  Al  Al206  1  0.17403390  0.82961293  0.50005360  1
  Al  Al207  1  0.17219102  0.00245023  0.67194828  1
  Al  Al208  1  0.33153733  0.67256158  0.50099611  1
  Al  Al209  1  0.69209863  0.19204298  0.00003066  1
  Al  Al210  1  0.31606906  0.32138872  0.50252216  1
  Al  Al211  1  0.83112671  0.82288666  0.50336044  1
  Al  Al212  1  0.49840134  0.32450286  0.32460734  1
  Al  Al213  1  0.67223517  0.83102300  0.49585139  1
  Al  Al214  1  0.67994071  -0.00063020  0.67599873  1
  Al  Al215  1  0.50108273  0.82798579  0.31320787  1
  Al  Al216  1  0.67360188  0.67761134  -0.00115514  1
  Al  Al217  1  0.81444537  0.17341544  0.50003798  1
  Al  Al218  1  0.49746863  0.83024187  0.82780157  1
  Al  Al219  1  0.67939491  0.67410900  0.50112581  1
  Al  Al220  1  0.67707122  0.31377141  0.50129083  1
  Al  Al221  1  0.67808226  0.49826519  0.31280985  1
  Al  Al222  1  0.16907521  0.00375451  0.17995799  1
  Al  Al223  1  0.30921176  0.80982532  0.00170893  1
  Al  Al224  1  0.31018578  0.30942696  -0.00107004  1
  Al  Al225  1  0.18727093  0.49857732  0.16983954  1
  Al  Al226  1  0.81192642  0.49573874  0.17669580  1
  Al  Al227  1  0.82917596  0.67080131  -0.00067912  1
  Al  Al228  1  0.32631399  0.49708990  0.31139071  1
  Al  Al229  1  0.00151588  0.67284173  0.32449441  1
  Al  Al230  1  0.00026466  0.82519234  0.32861509  1
  Al  Al231  1  0.49988660  0.32816477  0.67915290  1
  Al  Al232  1  0.68040563  0.49770396  0.82341080  1
  Al  Al233  1  0.50243523  0.17476388  0.68093970  1
  Al  Al234  1  0.49854091  0.66853304  0.32106148  1
  Al  Al235  1  0.32633534  -0.00169308  0.82809215  1
  Al  Al236  1  0.31053721  0.49967830  0.82214329  1
  Al  Al237  1  0.17617583  0.50215217  0.32104652  1
  Al  Al238  1  0.00170510  0.82632621  0.82369827  1
  Au  Au239  1  0.65808456  0.82748765  0.00709046  1
  Au  Au240  1  0.32535209  0.49726853  0.67517567  1
  Au  Au241  1  0.49887301  0.81884456  0.66114896  1
  Au  Au242  1  0.33665589  0.00332063  0.66435501  1
  Au  Au243  1  0.16751447  0.33614485  0.50589236  1
  Au  Au244  1  0.67135159  0.00154878  0.66698997  1
  Au  Au245  1  0.49936597  0.66560625  0.33781003  1
  Au  Au246  1  0.67037013  0.50260727  0.82861314  1
  Au  Au247  1  0.82362634  0.00162714  0.34327638  1
  Au  Au248  1  0.49838899  0.66716195  0.15674668  1
  Au  Au249  1  0.65633974  0.82585437  0.49222067  1
  Au  Au250  1  0.50016920  0.16518561  0.15937888  1
  Au  Au251  1  0.15729270  0.82831750  0.50263788  1
  Au  Au252  1  0.82740008  0.32048926  -0.00090027  1
  Au  Au253  1  0.82598055  0.34654866  0.50460334  1
  Au  Au254  1  0.49655664  0.82240450  0.84347075  1
  Au  Au255  1  0.49915329  0.33962550  0.82923134  1
  Au  Au256  1  0.50089418  0.16595578  0.83002407  1
  Au  Au257  1  0.83011147  0.16702251  0.50028537  1
  Au  Au258  1  0.83087036  0.00308043  0.15696199  1
  Au  Au259  1  0.67889084  0.00123543  0.83990725  1
  Au  Au260  1  -0.00000108  0.83882115  0.82297585  1
  Au  Au261  1  0.00169430  0.84012559  0.32025808  1
  Au  Au262  1  0.67050755  0.49819864  0.32802458  1
  Au  Au263  1  0.17788432  0.67457273  -0.00133055  1
  Au  Au264  1  -0.00115021  0.17349166  0.82871543  1
  Au  Au265  1  0.82726024  0.65242865  0.50231711  1
  Au  Au266  1  0.67467523  0.49986808  0.66738712  1
  Au  Au267  1  0.49821289  0.33229319  0.33448286  1
  Au  Au268  1  0.33766476  0.17495236  0.50296357  1
  Au  Au269  1  0.32588085  0.00338583  0.32713078  1
  Au  Au270  1  0.00219378  0.66276011  0.83447947  1
  Au  Au271  1  0.50069927  0.84422098  0.31883364  1
  Au  Au272  1  0.83711216  0.00446657  0.68383217  1
  Au  Au273  1  0.33581726  0.83449359  0.49687696  1
  Au  Au274  1  0.15602626  0.00292710  0.67736793  1
  Au  Au275  1  0.16455574  0.00353056  0.16793765  1
  Au  Au276  1  0.50513650  0.16839771  0.33293009  1
  Au  Au277  1  0.84629552  0.49668039  0.31914184  1
  Au  Au278  1  0.16330778  0.16829062  0.49633902  1
  Au  Au279  1  0.32061903  0.32258764  -0.00145592  1
  Au  Au280  1  0.50089535  0.34062017  0.16121043  1
  Au  Au281  1  0.00165801  0.66962995  0.66503085  1
  Au  Au282  1  0.16351271  0.50109358  0.33132260  1
  Au  Au283  1  0.83671035  0.49518289  0.82550381  1
  Au  Au284  1  0.84084699  0.82509081  -0.00475564  1
  Au  Au285  1  0.84691606  0.82798832  0.50642114  1
  Au  Au286  1  0.32556480  0.00135148  0.84416476  1
  Au  Au287  1  0.32618513  0.65631242  0.50276412  1
