# generated using pymatgen
data_Ca24Ti8Al207Au49
_symmetry_space_group_name_H-M   'P 1'
_cell_length_a   17.32105993
_cell_length_b   17.32255301
_cell_length_c   17.32134727
_cell_angle_alpha   89.99992219
_cell_angle_beta   89.99556516
_cell_angle_gamma   90.00096006
_symmetry_Int_Tables_number   1
_chemical_formula_structural   Ca24Ti8Al207Au49
_chemical_formula_sum   'Ca24 Ti8 Al207 Au49'
_cell_volume   5197.18325869
_cell_formula_units_Z   1
loop_
 _symmetry_equiv_pos_site_id
 _symmetry_equiv_pos_as_xyz
  1  'x, y, z'
loop_
 _atom_site_type_symbol
 _atom_site_label
 _atom_site_symmetry_multiplicity
 _atom_site_fract_x
 _atom_site_fract_y
 _atom_site_fract_z
 _atom_site_occupancy
  Ca  Ca0  1  0.25453597  -0.00640556  0.00185468  1
  Ca  Ca1  1  0.24977211  -0.00190614  0.50263809  1
  Ca  Ca2  1  0.24612592  0.50683833  0.00275667  1
  Ca  Ca3  1  0.24366078  0.50376581  0.49336800  1
  Ca  Ca4  1  0.75124621  0.00176778  -0.00172889  1
  Ca  Ca5  1  0.74858467  0.00227686  0.50209080  1
  Ca  Ca6  1  0.75339105  0.49912383  0.00055528  1
  Ca  Ca7  1  0.75517200  0.50257578  0.49892934  1
  Ca  Ca8  1  -0.00480612  0.25211915  -0.00318478  1
  Ca  Ca9  1  0.00020890  0.25509364  0.50485647  1
  Ca  Ca10  1  0.00256983  0.74798121  0.00058818  1
  Ca  Ca11  1  -0.00012855  0.73936594  0.49940875  1
  Ca  Ca12  1  0.50690119  0.24446488  -0.00094520  1
  Ca  Ca13  1  0.50101014  0.25202700  0.49693338  1
  Ca  Ca14  1  0.49596443  0.75655952  -0.00076395  1
  Ca  Ca15  1  0.49985722  0.74580409  0.50120548  1
  Ca  Ca16  1  -0.00113234  -0.00168555  0.25127862  1
  Ca  Ca17  1  -0.00009958  -0.00000085  0.74833552  1
  Ca  Ca18  1  -0.00098993  0.50296118  0.25817850  1
  Ca  Ca19  1  -0.00294613  0.50209635  0.74428072  1
  Ca  Ca20  1  0.49734158  -0.00150396  0.24799394  1
  Ca  Ca21  1  0.50041726  0.00218771  0.75100324  1
  Ca  Ca22  1  0.50205079  0.49993011  0.25989142  1
  Ca  Ca23  1  0.50193482  0.49849625  0.74406740  1
  Ti  Ti24  1  0.25223945  0.25049466  0.25170263  1
  Ti  Ti25  1  0.24849250  0.24887594  0.74784701  1
  Ti  Ti26  1  0.24968358  0.74990622  0.24813480  1
  Ti  Ti27  1  0.24900219  0.74934680  0.75015258  1
  Ti  Ti28  1  0.74886140  0.25067993  0.25268830  1
  Ti  Ti29  1  0.74975351  0.25127931  0.74904690  1
  Ti  Ti30  1  0.75111473  0.74927974  0.25230724  1
  Ti  Ti31  1  0.75007070  0.74918744  0.74775363  1
  Al  Al32  1  0.07639862  0.07654064  0.08767751  1
  Al  Al33  1  0.07959674  0.08360691  0.59585695  1
  Al  Al34  1  0.08970020  0.59222570  0.08124761  1
  Al  Al35  1  0.08416882  0.58508428  0.58605874  1
  Al  Al36  1  0.57666881  0.08010046  0.07468594  1
  Al  Al37  1  0.58101723  0.09323591  0.58869596  1
  Al  Al38  1  0.57461237  0.57589352  0.08507310  1
  Al  Al39  1  0.59517713  0.58776466  0.57944094  1
  Al  Al40  1  0.42075818  0.42207715  0.08722578  1
  Al  Al41  1  0.42199765  0.41973113  0.57322491  1
  Al  Al42  1  0.40792840  0.90887731  0.09032184  1
  Al  Al43  1  0.42104030  0.92281065  0.58552727  1
  Al  Al44  1  0.90581298  0.41689955  0.07521898  1
  Al  Al45  1  0.91667042  0.41686035  0.59314171  1
  Al  Al46  1  0.92222506  0.91446817  0.08040094  1
  Al  Al47  1  0.91965071  0.91797647  0.57725313  1
  Al  Al48  1  0.42000308  0.08119571  0.41665497  1
  Al  Al49  1  0.42370131  0.07835196  0.92050049  1
  Al  Al50  1  0.40861873  0.57916926  0.41298957  1
  Al  Al51  1  0.41801134  0.59116726  0.92126509  1
  Al  Al52  1  0.91072766  0.09038857  0.42492490  1
  Al  Al53  1  0.91424023  0.08436805  0.91492406  1
  Al  Al54  1  0.91230986  0.58717254  0.41559400  1
  Al  Al55  1  0.91614823  0.57379958  0.90298304  1
  Al  Al56  1  0.08349624  0.42657898  0.41468053  1
  Al  Al57  1  0.07150831  0.42755929  0.90763467  1
  Al  Al58  1  0.08219671  0.91193858  0.42170156  1
  Al  Al59  1  0.08351994  0.91461752  0.91690665  1
  Al  Al60  1  0.58565617  0.41243601  0.41452096  1
  Al  Al61  1  0.58915973  0.41529492  0.91830824  1
  Al  Al62  1  0.58214109  0.91451194  0.41845275  1
  Al  Al63  1  0.58460221  0.92281596  0.91064709  1
  Al  Al64  1  0.07661113  0.07850624  0.41925508  1
  Al  Al65  1  0.07849265  0.07682600  0.91189866  1
  Al  Al66  1  0.08791855  0.59002389  0.41411394  1
  Al  Al67  1  0.08862893  0.58696663  0.91646032  1
  Al  Al68  1  0.58277805  0.08567969  0.42096428  1
  Al  Al69  1  0.59241475  0.08062274  0.91042444  1
  Al  Al70  1  0.58999569  0.58355983  0.41929463  1
  Al  Al71  1  0.57637096  0.57827201  0.91186879  1
  Al  Al72  1  0.41410267  0.41587859  0.40917173  1
  Al  Al73  1  0.42750694  0.42416037  0.92276750  1
  Al  Al74  1  0.41990228  0.91873091  0.41276653  1
  Al  Al75  1  0.41203152  0.91310050  0.92525710  1
  Al  Al76  1  0.91398487  0.42393765  0.41761240  1
  Al  Al77  1  0.90540005  0.41355473  0.90971202  1
  Al  Al78  1  0.91932633  0.91368436  0.41817944  1
  Al  Al79  1  0.91860230  0.91855023  0.91621307  1
  Al  Al80  1  0.07602905  0.43256428  0.08300793  1
  Al  Al81  1  0.08130197  0.41997259  0.59362648  1
  Al  Al82  1  0.08313021  0.91344856  0.08465337  1
  Al  Al83  1  0.09208305  0.92094042  0.58413926  1
  Al  Al84  1  0.58544376  0.41435300  0.07899982  1
  Al  Al85  1  0.59268396  0.41351407  0.57607101  1
  Al  Al86  1  0.57096973  0.91195065  0.08541416  1
  Al  Al87  1  0.58450950  0.91742009  0.58329036  1
  Al  Al88  1  0.41171298  0.07146195  0.08625103  1
  Al  Al89  1  0.42154903  0.08830412  0.58962177  1
  Al  Al90  1  0.41102369  0.58542202  0.08325394  1
  Al  Al91  1  0.41840398  0.58373216  0.57476995  1
  Al  Al92  1  0.91753424  0.08458873  0.07997602  1
  Al  Al93  1  0.91789181  0.09812549  0.58467263  1
  Al  Al94  1  0.92395636  0.57562377  0.08962002  1
  Al  Al95  1  0.91221253  0.58587824  0.58794089  1
  Al  Al96  1  0.25163392  0.12892188  0.13961289  1
  Al  Al97  1  0.24891068  0.13061644  0.64006211  1
  Al  Al98  1  0.25050857  0.63724971  0.12932058  1
  Al  Al99  1  0.24180807  0.63188675  0.63436357  1
  Al  Al100  1  0.75168659  0.13681699  0.13709767  1
  Al  Al101  1  0.74931026  0.13898173  0.62801383  1
  Al  Al102  1  0.74934275  0.63562882  0.13754930  1
  Al  Al103  1  0.75406671  0.63018615  0.63448503  1
  Al  Al104  1  0.24847075  0.36661317  0.13811979  1
  Al  Al105  1  0.24348023  0.36379125  0.63483371  1
  Al  Al106  1  0.25288547  0.86809674  0.13364306  1
  Al  Al107  1  0.24716530  0.86703895  0.63674405  1
  Al  Al108  1  0.75138426  0.36489902  0.13809951  1
  Al  Al109  1  0.75182322  0.36881178  0.63535506  1
  Al  Al110  1  0.75027937  0.86111631  0.13724692  1
  Al  Al111  1  0.74918440  0.86189067  0.63286068  1
  Al  Al112  1  0.25357576  0.13455229  0.36342236  1
  Al  Al113  1  0.24737414  0.13461822  0.85958420  1
  Al  Al114  1  0.24413366  0.63355018  0.36308777  1
  Al  Al115  1  0.24847906  0.63791871  0.87061070  1
  Al  Al116  1  0.74730749  0.13848540  0.37283698  1
  Al  Al117  1  0.75040697  0.13607890  0.86107243  1
  Al  Al118  1  0.75557446  0.63551329  0.36907523  1
  Al  Al119  1  0.75890449  0.63056924  0.85912326  1
  Al  Al120  1  0.25048070  0.36862059  0.36431335  1
  Al  Al121  1  0.24678604  0.36304895  0.85790758  1
  Al  Al122  1  0.25192808  0.86373706  0.36112180  1
  Al  Al123  1  0.25061107  0.86342252  0.86725440  1
  Al  Al124  1  0.74806303  0.36377178  0.37142873  1
  Al  Al125  1  0.75691090  0.36969788  0.86213878  1
  Al  Al126  1  0.75102759  0.86332742  0.36512951  1
  Al  Al127  1  0.74612803  0.86378615  0.86228187  1
  Al  Al128  1  0.13747920  0.24998385  0.14006842  1
  Al  Al129  1  0.12939752  0.25004235  0.63556782  1
  Al  Al130  1  0.13520393  0.74619443  0.13424270  1
  Al  Al131  1  0.13355556  0.74437082  0.63409813  1
  Al  Al132  1  0.63481929  0.25109736  0.13553574  1
  Al  Al133  1  0.63776642  0.25030972  0.62888690  1
  Al  Al134  1  0.63365266  0.75392802  0.13443079  1
  Al  Al135  1  0.63398501  0.74605815  0.63247231  1
  Al  Al136  1  0.13732420  0.25251771  0.36588302  1
  Al  Al137  1  0.13165374  0.25223671  0.85846705  1
  Al  Al138  1  0.12931889  0.74532792  0.36279543  1
  Al  Al139  1  0.13380179  0.74524452  0.86591698  1
  Al  Al140  1  0.63265059  0.25085270  0.37293075  1
  Al  Al141  1  0.63305111  0.24897796  0.86222805  1
  Al  Al142  1  0.63829341  0.74704294  0.37132858  1
  Al  Al143  1  0.63615007  0.74906147  0.86272343  1
  Al  Al144  1  0.36492238  0.25019573  0.13960838  1
  Al  Al145  1  0.36367563  0.24853622  0.63418575  1
  Al  Al146  1  0.36399190  0.75340710  0.12952340  1
  Al  Al147  1  0.36770676  0.74752425  0.63656342  1
  Al  Al148  1  0.86149336  0.25121207  0.13010792  1
  Al  Al149  1  0.86634551  0.25253210  0.63380589  1
  Al  Al150  1  0.86597437  0.74630431  0.13826646  1
  Al  Al151  1  0.86687628  0.74139514  0.62933321  1
  Al  Al152  1  0.37112800  0.25252394  0.36317056  1
  Al  Al153  1  0.36838740  0.24808506  0.86141490  1
  Al  Al154  1  0.36428507  0.75024641  0.36180343  1
  Al  Al155  1  0.36326134  0.74977938  0.86965520  1
  Al  Al156  1  0.86418880  0.24706415  0.37025483  1
  Al  Al157  1  0.86340012  0.25232843  0.87035128  1
  Al  Al158  1  0.87286853  0.74477240  0.36994093  1
  Al  Al159  1  0.86447458  0.74812255  0.86074193  1
  Al  Al160  1  0.13571890  0.13462288  0.25239402  1
  Al  Al161  1  0.13008555  0.13069928  0.74515331  1
  Al  Al162  1  0.13200369  0.63199841  0.25048938  1
  Al  Al163  1  0.12881108  0.63607994  0.74736874  1
  Al  Al164  1  0.62936136  0.14027002  0.25455601  1
  Al  Al165  1  0.63429323  0.13638484  0.74768806  1
  Al  Al166  1  0.63645761  0.63640365  0.25267843  1
  Al  Al167  1  0.63689019  0.63145835  0.74480006  1
  Al  Al168  1  0.36954647  0.13240269  0.25087325  1
  Al  Al169  1  0.37234575  0.13463459  0.74873165  1
  Al  Al170  1  0.36200509  0.63321377  0.25244715  1
  Al  Al171  1  0.36120628  0.63632219  0.74785942  1
  Al  Al172  1  0.86118818  0.13744598  0.25408057  1
  Al  Al173  1  0.86603298  0.14064551  0.74553814  1
  Al  Al174  1  0.87074634  0.63494684  0.25598478  1
  Al  Al175  1  0.87112874  0.63433421  0.74473439  1
  Al  Al176  1  0.13715723  0.37306339  0.25490809  1
  Al  Al177  1  0.12744292  0.36664608  0.74363463  1
  Al  Al178  1  0.13654947  0.86505738  0.24968656  1
  Al  Al179  1  0.13671852  0.86590743  0.74935593  1
  Al  Al180  1  0.63337378  0.36313342  0.25890679  1
  Al  Al181  1  0.63499265  0.36480450  0.74719707  1
  Al  Al182  1  0.62953410  0.86069907  0.25225927  1
  Al  Al183  1  0.63619184  0.86888912  0.74619345  1
  Al  Al184  1  0.36972284  0.37057192  0.25707399  1
  Al  Al185  1  0.36768911  0.36224553  0.74666645  1
  Al  Al186  1  0.36969240  0.86567492  0.24576438  1
  Al  Al187  1  0.36374135  0.86572669  0.74665881  1
  Al  Al188  1  0.86240668  0.36425426  0.25677333  1
  Al  Al189  1  0.86759714  0.36452031  0.74761270  1
  Al  Al190  1  0.86568104  0.86197245  0.25489431  1
  Al  Al191  1  0.86439003  0.86215967  0.74628331  1
  Al  Al192  1  0.67253017  0.49865602  0.17519432  1
  Al  Al193  1  0.31852204  0.49968247  0.17968524  1
  Al  Al194  1  0.32041865  0.32690777  0.49852737  1
  Al  Al195  1  -0.00040342  0.33207923  0.17646610  1
  Al  Al196  1  0.50125814  0.31597054  0.67273868  1
  Al  Al197  1  0.32863556  0.17348615  0.50007742  1
  Al  Al198  1  0.18412129  0.81553217  0.00076079  1
  Al  Al199  1  0.82980923  -0.00184173  0.17472503  1
  Al  Al200  1  0.68803071  0.50057245  0.32726503  1
  Al  Al201  1  0.17800186  -0.00396935  0.32427436  1
  Al  Al202  1  0.68078002  0.50163324  0.81960780  1
  Al  Al203  1  0.68090717  0.17316539  -0.00089991  1
  Al  Al204  1  0.49871098  0.82798302  0.82430363  1
  Al  Al205  1  0.32560110  0.17041339  0.00028335  1
  Al  Al206  1  0.17310138  0.81077212  0.49940959  1
  Al  Al207  1  0.16766883  0.33197910  -0.00239291  1
  Al  Al208  1  0.17209967  0.17614132  0.50256446  1
  Al  Al209  1  0.81701173  -0.00118010  0.82534504  1
  Al  Al210  1  0.67689006  -0.00029974  0.17073299  1
  Al  Al211  1  0.31507731  0.49840545  0.66973312  1
  Al  Al212  1  0.82972531  0.66902135  0.00089902  1
  Al  Al213  1  0.82004556  0.00195199  0.67055271  1
  Al  Al214  1  0.82098057  0.82450434  -0.00115655  1
  Al  Al215  1  0.81918822  0.32032110  0.50151257  1
  Al  Al216  1  -0.00114404  0.18015014  0.82023772  1
  Al  Al217  1  0.32243615  0.82137910  0.50194141  1
  Al  Al218  1  0.67411700  0.00071277  0.32815356  1
  Al  Al219  1  0.31138242  0.67234747  0.49822803  1
  Al  Al220  1  0.82722063  0.00168341  0.33002816  1
  Al  Al221  1  0.17358407  0.50175407  0.81176573  1
  Al  Al222  1  0.49881977  0.67574641  0.81762154  1
  Al  Al223  1  0.32924165  0.50097156  0.82642910  1
  Al  Al224  1  -0.00023463  0.81771806  0.82462691  1
  Al  Al225  1  0.49799272  0.68764565  0.17286659  1
  Al  Al226  1  0.68814135  0.32488330  -0.00131338  1
  Al  Al227  1  0.81768056  0.81955950  0.49929066  1
  Al  Al228  1  0.32099929  0.00175449  0.82410153  1
  Al  Al229  1  0.66858339  0.67747623  -0.00002378  1
  Al  Al230  1  0.00150108  0.81667764  0.66853696  1
  Al  Al231  1  0.82459543  0.50004014  0.18895174  1
  Al  Al232  1  0.16769827  0.17041611  0.00207469  1
  Al  Al233  1  0.32918336  0.32795427  -0.00060430  1
  Al  Al234  1  0.50054669  0.67857007  0.32930033  1
  Al  Al235  1  -0.00002722  0.32327709  0.32930145  1
  Al  Al236  1  0.00042962  0.81785132  0.18279169  1
  Al  Al237  1  0.50424119  0.32342136  0.18113789  1
  Al  Al238  1  -0.00140225  0.17390686  0.18392453  1
  Au  Au239  1  0.50102641  0.82996938  0.32571634  1
  Au  Au240  1  0.67008883  0.84275139  -0.00188984  1
  Au  Au241  1  0.50132351  0.66161466  0.66862578  1
  Au  Au242  1  0.49952035  0.67062722  0.17502367  1
  Au  Au243  1  0.32299435  0.50129822  0.84214560  1
  Au  Au244  1  0.50097162  0.83382581  0.67526968  1
  Au  Au245  1  0.32600729  0.67736270  -0.00018568  1
  Au  Au246  1  0.34566053  0.32164133  0.00021771  1
  Au  Au247  1  -0.00302460  0.17156874  0.33613258  1
  Au  Au248  1  0.00531415  0.83318369  0.67077954  1
  Au  Au249  1  0.00171699  0.66934573  0.17434683  1
  Au  Au250  1  0.66507444  0.82121081  0.50102679  1
  Au  Au251  1  0.32562375  0.00294594  0.66751109  1
  Au  Au252  1  0.33124841  0.49762925  0.17932230  1
  Au  Au253  1  0.16499669  0.34836833  -0.00621014  1
  Au  Au254  1  0.17279188  0.15414138  0.00271703  1
  Au  Au255  1  0.00104632  0.16757872  0.81998802  1
  Au  Au256  1  0.16895690  0.82313803  0.00072677  1
  Au  Au257  1  0.67240830  0.49949668  0.82882097  1
  Au  Au258  1  0.00120125  0.66644571  0.82642702  1
  Au  Au259  1  0.17365143  -0.00199220  0.16825435  1
  Au  Au260  1  0.66013518  0.00500374  0.67703237  1
  Au  Au261  1  0.50184847  0.32994099  0.83419896  1
  Au  Au262  1  0.50066608  0.17616290  0.33485103  1
  Au  Au263  1  -0.00629038  0.32707306  0.16160995  1
  Au  Au264  1  0.65748257  0.66547941  -0.00009725  1
  Au  Au265  1  0.33372441  0.83323866  0.50150581  1
  Au  Au266  1  0.67139306  0.17253285  0.50137397  1
  Au  Au267  1  0.66113462  -0.00087335  0.17516896  1
  Au  Au268  1  0.50205333  0.33280594  0.17306484  1
  Au  Au269  1  0.82970825  0.17502014  0.00020080  1
  Au  Au270  1  0.16653562  0.50383542  0.17856300  1
  Au  Au271  1  0.17257033  0.16044764  0.50699499  1
  Au  Au272  1  0.84524668  0.66756334  -0.00313408  1
  Au  Au273  1  -0.00368928  0.33449562  0.81973300  1
  Au  Au274  1  0.83086178  0.33214905  0.50295697  1
  Au  Au275  1  0.68117198  0.49883167  0.66215763  1
  Au  Au276  1  0.16950807  -0.00193072  0.33319973  1
  Au  Au277  1  0.16915321  0.34454411  0.50080788  1
  Au  Au278  1  0.49559579  0.16855073  0.16368775  1
  Au  Au279  1  0.00123109  0.82511922  0.33105078  1
  Au  Au280  1  0.50297706  0.16235032  0.82661150  1
  Au  Au281  1  0.16472352  -0.00376446  0.82113671  1
  Au  Au282  1  0.83022253  0.82256320  0.49955823  1
  Au  Au283  1  0.50146071  0.32534021  0.65860363  1
  Au  Au284  1  0.33424422  0.00098553  0.32323282  1
  Au  Au285  1  0.32940079  -0.00035448  0.83309639  1
  Au  Au286  1  0.83628737  0.00632798  0.67233301  1
  Au  Au287  1  0.32181428  0.49839798  0.65424127  1
