# generated using pymatgen
data_Ca24Ti8Al207Au49
_symmetry_space_group_name_H-M   'P 1'
_cell_length_a   17.32165165
_cell_length_b   17.32220321
_cell_length_c   17.32279102
_cell_angle_alpha   89.99733957
_cell_angle_beta   89.99889198
_cell_angle_gamma   90.00628268
_symmetry_Int_Tables_number   1
_chemical_formula_structural   Ca24Ti8Al207Au49
_chemical_formula_sum   'Ca24 Ti8 Al207 Au49'
_cell_volume   5197.68902471
_cell_formula_units_Z   1
loop_
 _symmetry_equiv_pos_site_id
 _symmetry_equiv_pos_as_xyz
  1  'x, y, z'
loop_
 _atom_site_type_symbol
 _atom_site_label
 _atom_site_symmetry_multiplicity
 _atom_site_fract_x
 _atom_site_fract_y
 _atom_site_fract_z
 _atom_site_occupancy
  Ca  Ca0  1  0.24209315  0.00608277  0.00010765  1
  Ca  Ca1  1  0.25030639  0.00237943  0.49794352  1
  Ca  Ca2  1  0.24740038  0.49457430  -0.00021206  1
  Ca  Ca3  1  0.24908674  0.49526436  0.50051230  1
  Ca  Ca4  1  0.75699905  0.00471277  0.00057112  1
  Ca  Ca5  1  0.75133557  0.00415979  0.50003634  1
  Ca  Ca6  1  0.75397641  0.49861061  0.00183413  1
  Ca  Ca7  1  0.75060431  0.49673265  0.50004408  1
  Ca  Ca8  1  -0.00026088  0.24768792  -0.00043483  1
  Ca  Ca9  1  -0.00268062  0.24438112  0.50161214  1
  Ca  Ca10  1  -0.00189969  0.74642135  0.00292869  1
  Ca  Ca11  1  -0.00506176  0.74732204  0.49802173  1
  Ca  Ca12  1  0.49807315  0.24769716  0.00448829  1
  Ca  Ca13  1  0.50022740  0.24916619  0.49698594  1
  Ca  Ca14  1  0.50390450  0.74731064  -0.00365964  1
  Ca  Ca15  1  0.50064026  0.74589883  0.50015726  1
  Ca  Ca16  1  -0.00244079  0.00087852  0.24146174  1
  Ca  Ca17  1  -0.00080267  0.00444595  0.75279418  1
  Ca  Ca18  1  -0.00576663  0.50230484  0.24388612  1
  Ca  Ca19  1  -0.00318766  0.49626801  0.75230816  1
  Ca  Ca20  1  0.50011789  0.00507886  0.24940666  1
  Ca  Ca21  1  0.50316615  -0.00064405  0.75163522  1
  Ca  Ca22  1  0.50542568  0.49748864  0.24620953  1
  Ca  Ca23  1  0.50427935  0.50031052  0.74547890  1
  Ti  Ti24  1  0.25169242  0.24804576  0.24777869  1
  Ti  Ti25  1  0.24852489  0.24905211  0.75085948  1
  Ti  Ti26  1  0.24923082  0.75071058  0.24853652  1
  Ti  Ti27  1  0.24800488  0.75097745  0.75169611  1
  Ti  Ti28  1  0.74935696  0.25012861  0.24979517  1
  Ti  Ti29  1  0.75227730  0.24785158  0.74949711  1
  Ti  Ti30  1  0.74965306  0.74785771  0.24978981  1
  Ti  Ti31  1  0.75141171  0.75098684  0.74964059  1
  Al  Al32  1  0.08524649  0.09433703  0.08676258  1
  Al  Al33  1  0.07957350  0.08660612  0.57986841  1
  Al  Al34  1  0.07710780  0.59269572  0.08590798  1
  Al  Al35  1  0.09141331  0.58666049  0.57650833  1
  Al  Al36  1  0.59021920  0.08686559  0.08191345  1
  Al  Al37  1  0.59376757  0.08714160  0.57460034  1
  Al  Al38  1  0.58978320  0.59614033  0.08640642  1
  Al  Al39  1  0.59194869  0.58404774  0.57915751  1
  Al  Al40  1  0.41777712  0.40920833  0.08378517  1
  Al  Al41  1  0.40928083  0.41529166  0.58368233  1
  Al  Al42  1  0.42031694  0.92623099  0.08117551  1
  Al  Al43  1  0.42308471  0.92977307  0.58680509  1
  Al  Al44  1  0.91372834  0.41729730  0.08561758  1
  Al  Al45  1  0.91825571  0.41119245  0.58327772  1
  Al  Al46  1  0.91345159  0.92302824  0.08801041  1
  Al  Al47  1  0.91033057  0.92913351  0.58909000  1
  Al  Al48  1  0.41574768  0.09788038  0.41064946  1
  Al  Al49  1  0.40422100  0.08614922  0.92603961  1
  Al  Al50  1  0.42470457  0.57580063  0.42453553  1
  Al  Al51  1  0.42574513  0.57654150  0.92255961  1
  Al  Al52  1  0.90560662  0.08641878  0.42019060  1
  Al  Al53  1  0.91697402  0.09697302  0.91528432  1
  Al  Al54  1  0.91288491  0.58189479  0.40510888  1
  Al  Al55  1  0.91846483  0.57669916  0.92137784  1
  Al  Al56  1  0.07399471  0.42634437  0.42412691  1
  Al  Al57  1  0.08163221  0.39735795  0.91400995  1
  Al  Al58  1  0.08809784  0.92681600  0.40910093  1
  Al  Al59  1  0.07964374  0.92119418  0.92144613  1
  Al  Al60  1  0.58558258  0.41536796  0.41534719  1
  Al  Al61  1  0.58578236  0.42445938  0.92289812  1
  Al  Al62  1  0.58314415  0.92758833  0.42509693  1
  Al  Al63  1  0.59294103  0.91374480  0.91644910  1
  Al  Al64  1  0.09066240  0.08250566  0.41578718  1
  Al  Al65  1  0.08228397  0.10017744  0.91660299  1
  Al  Al66  1  0.07702279  0.59474900  0.41913282  1
  Al  Al67  1  0.08173092  0.58691981  0.92761834  1
  Al  Al68  1  0.58175299  0.09902633  0.41318652  1
  Al  Al69  1  0.59616752  0.07813347  0.92302109  1
  Al  Al70  1  0.59560794  0.58522442  0.42011611  1
  Al  Al71  1  0.59107680  0.59118062  0.92480916  1
  Al  Al72  1  0.42165864  0.41102451  0.42182944  1
  Al  Al73  1  0.41049809  0.41522192  0.92595361  1
  Al  Al74  1  0.42053851  0.93660909  0.42157762  1
  Al  Al75  1  0.42536484  0.92340220  0.91861241  1
  Al  Al76  1  0.90675288  0.42289066  0.41494954  1
  Al  Al77  1  0.91865391  0.40975825  0.91345743  1
  Al  Al78  1  0.91441963  0.92828922  0.41564832  1
  Al  Al79  1  0.91585751  0.92071033  0.91931996  1
  Al  Al80  1  0.08079038  0.40819088  0.07454530  1
  Al  Al81  1  0.07674409  0.41747338  0.58893311  1
  Al  Al82  1  0.07972698  0.92075594  0.08578634  1
  Al  Al83  1  0.07629110  0.92382972  0.58002224  1
  Al  Al84  1  0.58135595  0.41796444  0.08478392  1
  Al  Al85  1  0.58492625  0.42139283  0.57860024  1
  Al  Al86  1  0.59345925  0.91521715  0.07524721  1
  Al  Al87  1  0.58570727  0.92050007  0.58505212  1
  Al  Al88  1  0.40979370  0.09029281  0.08311276  1
  Al  Al89  1  0.40670163  0.08721673  0.57313298  1
  Al  Al90  1  0.42948409  0.58481565  0.09050933  1
  Al  Al91  1  0.41319488  0.57269065  0.59097665  1
  Al  Al92  1  0.91423684  0.09104544  0.08647246  1
  Al  Al93  1  0.90523421  0.08871428  0.58598148  1
  Al  Al94  1  0.91317312  0.58329540  0.09304183  1
  Al  Al95  1  0.91590554  0.57767907  0.57754142  1
  Al  Al96  1  0.24987281  0.13606805  0.12973335  1
  Al  Al97  1  0.24768466  0.13486350  0.63762463  1
  Al  Al98  1  0.24458140  0.63518586  0.13513585  1
  Al  Al99  1  0.24774578  0.63170772  0.63649111  1
  Al  Al100  1  0.75321213  0.13244121  0.13346205  1
  Al  Al101  1  0.75366698  0.13027872  0.63473784  1
  Al  Al102  1  0.75092630  0.62991811  0.13144127  1
  Al  Al103  1  0.75339379  0.63629681  0.62789132  1
  Al  Al104  1  0.24608114  0.36117150  0.13294708  1
  Al  Al105  1  0.24985701  0.36966700  0.63902475  1
  Al  Al106  1  0.25046339  0.86419971  0.13270842  1
  Al  Al107  1  0.24431788  0.86659022  0.63611553  1
  Al  Al108  1  0.74880656  0.36941433  0.13507513  1
  Al  Al109  1  0.75362823  0.36225620  0.63480462  1
  Al  Al110  1  0.74718447  0.86212760  0.13330723  1
  Al  Al111  1  0.75193418  0.87276045  0.63408920  1
  Al  Al112  1  0.25299537  0.13243115  0.36062710  1
  Al  Al113  1  0.24494497  0.13356599  0.86835651  1
  Al  Al114  1  0.24552472  0.63509051  0.36484828  1
  Al  Al115  1  0.24435986  0.63626266  0.86802485  1
  Al  Al116  1  0.74643329  0.13843255  0.36774020  1
  Al  Al117  1  0.75814125  0.13466323  0.86851037  1
  Al  Al118  1  0.75164134  0.62726426  0.36404593  1
  Al  Al119  1  0.74924609  0.63862396  0.87273387  1
  Al  Al120  1  0.25105437  0.36123134  0.36189924  1
  Al  Al121  1  0.24473639  0.36292281  0.86908690  1
  Al  Al122  1  0.24653586  0.87104373  0.36339632  1
  Al  Al123  1  0.24640793  0.87172883  0.86590438  1
  Al  Al124  1  0.75151089  0.36647063  0.36430243  1
  Al  Al125  1  0.75047949  0.36214916  0.86554053  1
  Al  Al126  1  0.75045127  0.86413476  0.36696061  1
  Al  Al127  1  0.75000524  0.86595822  0.86802937  1
  Al  Al128  1  0.13625401  0.24625744  0.12947857  1
  Al  Al129  1  0.13405260  0.24671905  0.63806100  1
  Al  Al130  1  0.13568271  0.75011744  0.13183513  1
  Al  Al131  1  0.13596750  0.74806662  0.63469591  1
  Al  Al132  1  0.63767143  0.24356359  0.13754191  1
  Al  Al133  1  0.63894128  0.24497229  0.63420326  1
  Al  Al134  1  0.63733886  0.74432322  0.13338956  1
  Al  Al135  1  0.63645929  0.74621692  0.63385493  1
  Al  Al136  1  0.13693242  0.24249139  0.36291260  1
  Al  Al137  1  0.13294564  0.24869920  0.86771991  1
  Al  Al138  1  0.13577790  0.74550045  0.36433908  1
  Al  Al139  1  0.13553624  0.75380240  0.87013084  1
  Al  Al140  1  0.63115649  0.24963068  0.36377347  1
  Al  Al141  1  0.64109198  0.24164733  0.86864972  1
  Al  Al142  1  0.63785723  0.74127094  0.36521230  1
  Al  Al143  1  0.63784236  0.75294293  0.86843372  1
  Al  Al144  1  0.36602428  0.24456197  0.13352956  1
  Al  Al145  1  0.36162214  0.24835163  0.63598987  1
  Al  Al146  1  0.36689227  0.74760312  0.13477056  1
  Al  Al147  1  0.36401104  0.75008693  0.63638687  1
  Al  Al148  1  0.86459565  0.24632905  0.13404698  1
  Al  Al149  1  0.86545881  0.24381495  0.63363869  1
  Al  Al150  1  0.86403003  0.74415735  0.13296713  1
  Al  Al151  1  0.86157513  0.75485972  0.62887532  1
  Al  Al152  1  0.37008535  0.24564455  0.36243301  1
  Al  Al153  1  0.36386200  0.24556379  0.86744495  1
  Al  Al154  1  0.36308544  0.74931000  0.36261336  1
  Al  Al155  1  0.36354074  0.74946687  0.86458537  1
  Al  Al156  1  0.86277036  0.24324441  0.36459418  1
  Al  Al157  1  0.87113216  0.24745657  0.86406832  1
  Al  Al158  1  0.85903626  0.74395014  0.36899980  1
  Al  Al159  1  0.86498182  0.75246121  0.86496508  1
  Al  Al160  1  0.13339590  0.13595666  0.24604059  1
  Al  Al161  1  0.12921032  0.13344244  0.75386641  1
  Al  Al162  1  0.13230935  0.63375478  0.24553146  1
  Al  Al163  1  0.13622225  0.63185833  0.74951632  1
  Al  Al164  1  0.63051950  0.13412288  0.25213665  1
  Al  Al165  1  0.63717070  0.13357410  0.74722123  1
  Al  Al166  1  0.63893064  0.62768848  0.24609785  1
  Al  Al167  1  0.64029268  0.63742427  0.75238161  1
  Al  Al168  1  0.36859911  0.13082770  0.24871725  1
  Al  Al169  1  0.36398838  0.13550243  0.75337554  1
  Al  Al170  1  0.36384086  0.63483804  0.24910312  1
  Al  Al171  1  0.36232296  0.63470948  0.74686084  1
  Al  Al172  1  0.86688453  0.13458822  0.24416757  1
  Al  Al173  1  0.86885838  0.13195125  0.75005966  1
  Al  Al174  1  0.86089893  0.63067497  0.24672526  1
  Al  Al175  1  0.86137727  0.63662799  0.74794509  1
  Al  Al176  1  0.13623430  0.36401911  0.24877650  1
  Al  Al177  1  0.13312498  0.36467460  0.75280302  1
  Al  Al178  1  0.13525390  0.86342244  0.24960318  1
  Al  Al179  1  0.12929283  0.86699892  0.75157797  1
  Al  Al180  1  0.63754901  0.37028775  0.25253458  1
  Al  Al181  1  0.63862605  0.36105003  0.75072525  1
  Al  Al182  1  0.63588360  0.86516996  0.24780693  1
  Al  Al183  1  0.63801413  0.86409668  0.74587399  1
  Al  Al184  1  0.36623122  0.35976528  0.24930686  1
  Al  Al185  1  0.36190237  0.36304635  0.74976419  1
  Al  Al186  1  0.36277910  0.87224801  0.25024523  1
  Al  Al187  1  0.36242386  0.86539823  0.75171265  1
  Al  Al188  1  0.86162935  0.36483971  0.24694016  1
  Al  Al189  1  0.86688768  0.36107657  0.75364151  1
  Al  Al190  1  0.86178710  0.86300737  0.24712550  1
  Al  Al191  1  0.86531244  0.86969751  0.75111383  1
  Al  Al192  1  0.32195741  0.49834692  0.32823241  1
  Al  Al193  1  0.50099868  0.32563730  0.82683146  1
  Al  Al194  1  0.49880160  0.17246365  0.67165811  1
  Al  Al195  1  0.18916079  0.17273164  0.49885016  1
  Al  Al196  1  0.31957684  0.00149030  0.67976019  1
  Al  Al197  1  0.17025593  0.81815620  0.49791042  1
  Al  Al198  1  0.31420930  0.66876092  0.50086809  1
  Al  Al199  1  0.68275949  0.49994668  0.68144978  1
  Al  Al200  1  0.17634904  0.00025456  0.18223603  1
  Al  Al201  1  0.16641669  0.49772135  0.17218709  1
  Al  Al202  1  0.31673211  0.66758570  0.00186877  1
  Al  Al203  1  0.50120771  0.66693659  0.31424519  1
  Al  Al204  1  0.81626933  0.00156377  0.30892315  1
  Al  Al205  1  0.16621974  0.49942688  0.82676092  1
  Al  Al206  1  0.17635942  0.32947229  0.50033704  1
  Al  Al207  1  0.32561549  0.31097543  0.49907147  1
  Al  Al208  1  0.32513851  0.50087352  0.81577338  1
  Al  Al209  1  0.82720938  0.31619197  0.49848063  1
  Al  Al210  1  -0.00000911  0.67738495  0.82739454  1
  Al  Al211  1  0.67789975  0.81542245  0.49968704  1
  Al  Al212  1  0.82668858  0.31373467  -0.00008360  1
  Al  Al213  1  0.81981937  0.50004778  0.82030295  1
  Al  Al214  1  0.82038045  0.82152220  0.00451796  1
  Al  Al215  1  0.00019785  0.31388370  0.17132457  1
  Al  Al216  1  0.67090780  0.31592043  0.00251304  1
  Al  Al217  1  -0.00183450  0.67943926  0.67025574  1
  Al  Al218  1  0.68616297  -0.00014508  0.81717440  1
  Al  Al219  1  -0.00055467  0.16794871  0.31927941  1
  Al  Al220  1  0.50137561  0.16698000  0.83258260  1
  Al  Al221  1  0.50350602  0.81554859  0.16744783  1
  Al  Al222  1  -0.00341439  0.67585108  0.30967831  1
  Al  Al223  1  -0.00156889  0.81455002  0.17224828  1
  Al  Al224  1  0.50097256  0.67324066  0.82759203  1
  Al  Al225  1  0.67479623  0.31562565  0.49995743  1
  Al  Al226  1  -0.00066730  0.31664875  0.68702392  1
  Al  Al227  1  0.32018218  0.82955835  -0.00270712  1
  Al  Al228  1  0.31423176  0.31233469  0.00153824  1
  Al  Al229  1  -0.00360243  0.32759114  0.32781140  1
  Al  Al230  1  0.49921969  0.82883376  0.32857186  1
  Al  Al231  1  0.50210945  0.82609063  0.82381547  1
  Al  Al232  1  0.50104074  0.67532694  0.67075752  1
  Al  Al233  1  -0.00298214  0.82554543  0.32980094  1
  Al  Al234  1  0.50133081  0.32904181  0.67101409  1
  Al  Al235  1  0.50244718  0.31724563  0.18286217  1
  Al  Al236  1  0.68088411  -0.00119847  0.17969868  1
  Al  Al237  1  0.32727124  0.82911393  0.49980651  1
  Al  Al238  1  0.32591806  0.49839887  0.17154445  1
  Au  Au239  1  0.67766429  0.00289094  0.66763414  1
  Au  Au240  1  0.16060520  0.82581484  0.00311025  1
  Au  Au241  1  0.83654983  0.83645878  0.50112099  1
  Au  Au242  1  0.16141078  0.32144019  0.50035281  1
  Au  Au243  1  0.33156757  0.83494987  -0.00275545  1
  Au  Au244  1  0.50149348  0.32378457  0.33078616  1
  Au  Au245  1  0.82889601  0.83060784  0.00235094  1
  Au  Au246  1  0.15565191  0.82683443  0.49758032  1
  Au  Au247  1  0.32364912  0.00208820  0.16569034  1
  Au  Au248  1  0.49828869  0.83928452  0.67627582  1
  Au  Au249  1  0.50126057  0.16892425  0.16805551  1
  Au  Au250  1  0.82607666  0.66417412  0.00071628  1
  Au  Au251  1  0.67334235  0.50129469  0.16494884  1
  Au  Au252  1  0.66197305  0.82139957  0.49889438  1
  Au  Au253  1  0.49889091  0.16608876  0.65935518  1
  Au  Au254  1  0.16292539  0.00564626  0.83577333  1
  Au  Au255  1  -0.00552856  0.34326318  0.32074392  1
  Au  Au256  1  -0.00199783  0.83895598  0.32084892  1
  Au  Au257  1  0.67652712  0.32727526  0.00044846  1
  Au  Au258  1  0.49973244  0.34136004  0.83032774  1
  Au  Au259  1  0.50365734  0.66369943  0.33099888  1
  Au  Au260  1  0.34052268  0.50114284  0.82285778  1
  Au  Au261  1  0.00262365  0.66311691  0.67133333  1
  Au  Au262  1  0.83092852  0.49558540  0.66962777  1
  Au  Au263  1  0.67234566  0.00667062  0.34003053  1
  Au  Au264  1  0.33430860  0.00031961  0.82821206  1
  Au  Au265  1  0.16895075  0.49799309  0.15952005  1
  Au  Au266  1  0.17486588  0.49964342  0.66285043  1
  Au  Au267  1  -0.00007381  0.82729993  0.83829590  1
  Au  Au268  1  0.34287696  0.83609523  0.50305895  1
  Au  Au269  1  0.83506917  0.00438594  0.82854782  1
  Au  Au270  1  0.50270083  0.66296366  0.67374471  1
  Au  Au271  1  0.33828015  0.49366474  0.32628842  1
  Au  Au272  1  0.32305059  0.00417296  0.33397894  1
  Au  Au273  1  0.82512817  0.66049651  0.49518141  1
  Au  Au274  1  0.67099445  0.50578608  0.83262103  1
  Au  Au275  1  0.17159398  0.00256394  0.66289595  1
  Au  Au276  1  0.16153107  0.50705541  0.33646306  1
  Au  Au277  1  0.49826027  0.84487833  0.33135777  1
  Au  Au278  1  0.68040790  0.49760107  0.33569885  1
  Au  Au279  1  0.50603167  0.16274931  0.84338325  1
  Au  Au280  1  -0.00060276  0.16144751  0.33010992  1
  Au  Au281  1  0.32460360  0.65543435  0.50322030  1
  Au  Au282  1  0.68424789  -0.00134632  0.16719187  1
  Au  Au283  1  -0.00169254  0.16956406  0.67297907  1
  Au  Au284  1  0.33228296  0.66048683  0.00406236  1
  Au  Au285  1  0.16369124  0.50179994  0.83871062  1
  Au  Au286  1  0.50413828  0.82472705  0.15317518  1
  Au  Au287  1  -0.00529403  0.84299635  0.67287249  1
