# generated using pymatgen
data_Ca24Ti8Al207Au49
_symmetry_space_group_name_H-M   'P 1'
_cell_length_a   17.32006131
_cell_length_b   17.32099231
_cell_length_c   17.32116205
_cell_angle_alpha   89.99318153
_cell_angle_beta   90.00227961
_cell_angle_gamma   90.00722427
_symmetry_Int_Tables_number   1
_chemical_formula_structural   Ca24Ti8Al207Au49
_chemical_formula_sum   'Ca24 Ti8 Al207 Au49'
_cell_volume   5196.35977184
_cell_formula_units_Z   1
loop_
 _symmetry_equiv_pos_site_id
 _symmetry_equiv_pos_as_xyz
  1  'x, y, z'
loop_
 _atom_site_type_symbol
 _atom_site_label
 _atom_site_symmetry_multiplicity
 _atom_site_fract_x
 _atom_site_fract_y
 _atom_site_fract_z
 _atom_site_occupancy
  Ca  Ca0  1  0.25103709  0.00522058  -0.00003140  1
  Ca  Ca1  1  0.25420539  0.00410264  0.49824259  1
  Ca  Ca2  1  0.25283482  0.49291125  -0.00177946  1
  Ca  Ca3  1  0.25611820  0.49779786  0.50443016  1
  Ca  Ca4  1  0.74260623  0.00035751  -0.00546900  1
  Ca  Ca5  1  0.74667207  0.00099093  0.49949975  1
  Ca  Ca6  1  0.74621770  0.49754072  -0.00206432  1
  Ca  Ca7  1  0.74600012  0.49769845  0.50268345  1
  Ca  Ca8  1  0.00442202  0.24996675  -0.00027786  1
  Ca  Ca9  1  0.00502731  0.25527561  0.49855223  1
  Ca  Ca10  1  0.00425977  0.74116793  -0.00252661  1
  Ca  Ca11  1  0.00424705  0.73873425  0.50316048  1
  Ca  Ca12  1  0.49748441  0.25314975  -0.00229258  1
  Ca  Ca13  1  0.49649159  0.25757845  0.50214697  1
  Ca  Ca14  1  0.49955754  0.75122947  -0.00331119  1
  Ca  Ca15  1  0.49671194  0.74180905  0.50166833  1
  Ca  Ca16  1  0.00044804  0.00637975  0.24488746  1
  Ca  Ca17  1  -0.00009799  0.00404630  0.75795400  1
  Ca  Ca18  1  0.00392042  0.49329610  0.24492724  1
  Ca  Ca19  1  -0.00157686  0.49858822  0.75438179  1
  Ca  Ca20  1  0.49509190  -0.00052030  0.24687991  1
  Ca  Ca21  1  0.49820625  0.00049002  0.75268871  1
  Ca  Ca22  1  0.49538019  0.49968136  0.24778393  1
  Ca  Ca23  1  0.50013453  0.49781966  0.75123433  1
  Ti  Ti24  1  0.24963335  0.25127122  0.25044442  1
  Ti  Ti25  1  0.25092372  0.25117339  0.74953958  1
  Ti  Ti26  1  0.25224451  0.74713380  0.24978807  1
  Ti  Ti27  1  0.25299684  0.74582922  0.75076445  1
  Ti  Ti28  1  0.75189806  0.25113434  0.24853430  1
  Ti  Ti29  1  0.74759886  0.25169231  0.75065992  1
  Ti  Ti30  1  0.74840446  0.74875659  0.24864669  1
  Ti  Ti31  1  0.74660357  0.74750957  0.75135453  1
  Al  Al32  1  0.08775387  0.09442663  0.07540830  1
  Al  Al33  1  0.08459366  0.08913410  0.58212899  1
  Al  Al34  1  0.09359047  0.57752058  0.07698140  1
  Al  Al35  1  0.09867596  0.57548961  0.58823370  1
  Al  Al36  1  0.57603667  0.08236075  0.07515404  1
  Al  Al37  1  0.57378622  0.08096548  0.59101655  1
  Al  Al38  1  0.57752222  0.57290799  0.08536516  1
  Al  Al39  1  0.58068058  0.57870590  0.59543499  1
  Al  Al40  1  0.41035158  0.40955790  0.08753751  1
  Al  Al41  1  0.41494688  0.41452666  0.59987469  1
  Al  Al42  1  0.42083525  0.91496875  0.08537471  1
  Al  Al43  1  0.41539187  0.89591684  0.58081906  1
  Al  Al44  1  0.92622077  0.41134138  0.08809583  1
  Al  Al45  1  0.91140032  0.42326414  0.59128395  1
  Al  Al46  1  0.91984226  0.92175979  0.07533886  1
  Al  Al47  1  0.92172648  0.92497831  0.57993380  1
  Al  Al48  1  0.41096323  0.09168700  0.41958106  1
  Al  Al49  1  0.41806086  0.09897783  0.91383403  1
  Al  Al50  1  0.41234325  0.57731628  0.41444943  1
  Al  Al51  1  0.41909840  0.58650032  0.91106629  1
  Al  Al52  1  0.92957785  0.09283910  0.40710832  1
  Al  Al53  1  0.92526879  0.09079416  0.91147522  1
  Al  Al54  1  0.90785949  0.57286147  0.41971440  1
  Al  Al55  1  0.90766043  0.57565855  0.91455509  1
  Al  Al56  1  0.08687399  0.41299336  0.41718132  1
  Al  Al57  1  0.08891141  0.41161262  0.92133845  1
  Al  Al58  1  0.08459597  0.92716663  0.42485930  1
  Al  Al59  1  0.10012060  0.93078002  0.91415747  1
  Al  Al60  1  0.58590528  0.42130937  0.40933062  1
  Al  Al61  1  0.57887866  0.41307220  0.90412585  1
  Al  Al62  1  0.56884517  0.91900735  0.41909634  1
  Al  Al63  1  0.58499378  0.92297670  0.90153069  1
  Al  Al64  1  0.08398147  0.09529208  0.41505974  1
  Al  Al65  1  0.09210148  0.09400471  0.91024795  1
  Al  Al66  1  0.08716870  0.57356824  0.42587358  1
  Al  Al67  1  0.09190729  0.58234065  0.91911360  1
  Al  Al68  1  0.56848265  0.07933484  0.41948917  1
  Al  Al69  1  0.58192164  0.08913185  0.90549937  1
  Al  Al70  1  0.58401309  0.57669004  0.41266738  1
  Al  Al71  1  0.58008898  0.57997084  0.90326391  1
  Al  Al72  1  0.41072807  0.41983555  0.41508977  1
  Al  Al73  1  0.41474040  0.40491068  0.91274440  1
  Al  Al74  1  0.40988680  0.90675090  0.41992162  1
  Al  Al75  1  0.42776483  0.91606661  0.91539109  1
  Al  Al76  1  0.91625289  0.41802011  0.40535914  1
  Al  Al77  1  0.91757727  0.41927089  0.91179300  1
  Al  Al78  1  0.92279783  0.92922380  0.42338827  1
  Al  Al79  1  0.91710239  0.92489404  0.92071486  1
  Al  Al80  1  0.08999896  0.40610581  0.08404314  1
  Al  Al81  1  0.09425364  0.41767872  0.58563247  1
  Al  Al82  1  0.08498595  0.92190822  0.07107646  1
  Al  Al83  1  0.08556196  0.92252548  0.58287104  1
  Al  Al84  1  0.57569625  0.41243558  0.09267615  1
  Al  Al85  1  0.57860168  0.41590668  0.60203716  1
  Al  Al86  1  0.57687132  0.91222393  0.08828352  1
  Al  Al87  1  0.57132864  0.91585037  0.59765079  1
  Al  Al88  1  0.41114644  0.09150505  0.07525545  1
  Al  Al89  1  0.41473382  0.09950327  0.57865460  1
  Al  Al90  1  0.41143178  0.57696177  0.08731281  1
  Al  Al91  1  0.41441448  0.58007519  0.59505835  1
  Al  Al92  1  0.92421867  0.08719814  0.07919859  1
  Al  Al93  1  0.92633559  0.08452940  0.58328992  1
  Al  Al94  1  0.91831002  0.57460680  0.07636024  1
  Al  Al95  1  0.90569513  0.57777142  0.58786831  1
  Al  Al96  1  0.25138950  0.14201761  0.13473329  1
  Al  Al97  1  0.25366170  0.13716520  0.63394739  1
  Al  Al98  1  0.25300879  0.63083111  0.13430355  1
  Al  Al99  1  0.25490219  0.62949019  0.63837287  1
  Al  Al100  1  0.75346520  0.13801048  0.13625295  1
  Al  Al101  1  0.74034277  0.13698468  0.64125347  1
  Al  Al102  1  0.74968442  0.63530729  0.13574188  1
  Al  Al103  1  0.74195223  0.63430058  0.63847256  1
  Al  Al104  1  0.25034059  0.36146998  0.13313666  1
  Al  Al105  1  0.25563545  0.36756958  0.63713090  1
  Al  Al106  1  0.24984434  0.86367512  0.13314498  1
  Al  Al107  1  0.25880299  0.85974732  0.63491463  1
  Al  Al108  1  0.75323378  0.36139609  0.13532272  1
  Al  Al109  1  0.74502326  0.36331519  0.63324909  1
  Al  Al110  1  0.74874567  0.86396084  0.12851479  1
  Al  Al111  1  0.74311550  0.86550439  0.63916238  1
  Al  Al112  1  0.25039206  0.14148190  0.37118407  1
  Al  Al113  1  0.25252394  0.13625655  0.86374485  1
  Al  Al114  1  0.25798730  0.63067089  0.36578339  1
  Al  Al115  1  0.25042151  0.62185437  0.85896515  1
  Al  Al116  1  0.75004339  0.13754867  0.36335579  1
  Al  Al117  1  0.74389783  0.13603861  0.86065839  1
  Al  Al118  1  0.74288905  0.63275471  0.36445998  1
  Al  Al119  1  0.74888275  0.62443709  0.85928591  1
  Al  Al120  1  0.25412049  0.36474081  0.36420424  1
  Al  Al121  1  0.25118838  0.37067621  0.86338943  1
  Al  Al122  1  0.25726666  0.86203235  0.36645228  1
  Al  Al123  1  0.25115345  0.86570214  0.86280203  1
  Al  Al124  1  0.75092956  0.36124197  0.36775636  1
  Al  Al125  1  0.74822374  0.36998354  0.86214290  1
  Al  Al126  1  0.74590173  0.86798071  0.36327399  1
  Al  Al127  1  0.74686215  0.86383240  0.86834989  1
  Al  Al128  1  0.12964299  0.25439073  0.13353350  1
  Al  Al129  1  0.13621270  0.24666974  0.63625021  1
  Al  Al130  1  0.13799297  0.74200325  0.13235693  1
  Al  Al131  1  0.13770420  0.74591673  0.63866065  1
  Al  Al132  1  0.62847868  0.25182242  0.13617545  1
  Al  Al133  1  0.62364811  0.25470939  0.64101003  1
  Al  Al134  1  0.63109669  0.75498761  0.13397004  1
  Al  Al135  1  0.62495318  0.74869436  0.64109977  1
  Al  Al136  1  0.13079728  0.25179849  0.36506309  1
  Al  Al137  1  0.13987903  0.25386867  0.86588691  1
  Al  Al138  1  0.13828737  0.74546871  0.36465589  1
  Al  Al139  1  0.13785418  0.73930141  0.86301071  1
  Al  Al140  1  0.63418386  0.25515432  0.36687311  1
  Al  Al141  1  0.62885065  0.25339074  0.86179920  1
  Al  Al142  1  0.63457784  0.74915665  0.36683915  1
  Al  Al143  1  0.63453376  0.74541712  0.86477377  1
  Al  Al144  1  0.37191244  0.25211157  0.13581688  1
  Al  Al145  1  0.36982392  0.25341517  0.63680773  1
  Al  Al146  1  0.36628319  0.75148893  0.13474240  1
  Al  Al147  1  0.37083309  0.74421083  0.63469232  1
  Al  Al148  1  0.87514866  0.25057851  0.13410031  1
  Al  Al149  1  0.86346312  0.25243939  0.63551403  1
  Al  Al150  1  0.86805526  0.75269900  0.13597032  1
  Al  Al151  1  0.86231547  0.74336379  0.63851505  1
  Al  Al152  1  0.36563741  0.25323125  0.37104026  1
  Al  Al153  1  0.36634137  0.25286178  0.86379388  1
  Al  Al154  1  0.36434438  0.74770078  0.37073586  1
  Al  Al155  1  0.36450829  0.74383843  0.86234930  1
  Al  Al156  1  0.87219252  0.25247706  0.36252864  1
  Al  Al157  1  0.86282259  0.24727886  0.86530089  1
  Al  Al158  1  0.86048923  0.74551859  0.36192386  1
  Al  Al159  1  0.86338884  0.75000209  0.86265423  1
  Al  Al160  1  0.13111469  0.14243251  0.24866175  1
  Al  Al161  1  0.13213043  0.13756884  0.75665798  1
  Al  Al162  1  0.13653943  0.63203214  0.24944348  1
  Al  Al163  1  0.13427533  0.62693877  0.74771854  1
  Al  Al164  1  0.63591947  0.13571379  0.24650234  1
  Al  Al165  1  0.62297695  0.13475062  0.75321003  1
  Al  Al166  1  0.63457348  0.63318043  0.24894351  1
  Al  Al167  1  0.62859180  0.62950228  0.75124110  1
  Al  Al168  1  0.36228788  0.13828419  0.24867553  1
  Al  Al169  1  0.37354512  0.13956294  0.75529242  1
  Al  Al170  1  0.36428653  0.63048543  0.24758694  1
  Al  Al171  1  0.37000329  0.62952910  0.75007395  1
  Al  Al172  1  0.87327913  0.13829201  0.24950515  1
  Al  Al173  1  0.86754268  0.13610331  0.75043480  1
  Al  Al174  1  0.86731005  0.63444463  0.24795717  1
  Al  Al175  1  0.86848205  0.63348466  0.75286488  1
  Al  Al176  1  0.13086985  0.36338286  0.25041449  1
  Al  Al177  1  0.13915085  0.37121728  0.74738458  1
  Al  Al178  1  0.13928287  0.86088970  0.24817930  1
  Al  Al179  1  0.13995524  0.86369926  0.75142552  1
  Al  Al180  1  0.63444598  0.36547895  0.25073394  1
  Al  Al181  1  0.63334144  0.37050297  0.74964509  1
  Al  Al182  1  0.63418543  0.86509135  0.24752385  1
  Al  Al183  1  0.63291570  0.86727060  0.75472117  1
  Al  Al184  1  0.36382171  0.36806509  0.24641834  1
  Al  Al185  1  0.36786016  0.36759711  0.75089342  1
  Al  Al186  1  0.36359746  0.86400192  0.24698253  1
  Al  Al187  1  0.36730203  0.86398387  0.75103045  1
  Al  Al188  1  0.87158303  0.36361261  0.24955534  1
  Al  Al189  1  0.86521289  0.36524953  0.75221499  1
  Al  Al190  1  0.86237267  0.86697791  0.24899057  1
  Al  Al191  1  0.86339476  0.86576350  0.75003735  1
  Al  Al192  1  0.66629054  0.82397091  0.50368546  1
  Al  Al193  1  0.49775919  0.82299592  0.31389561  1
  Al  Al194  1  0.33430770  0.00006837  0.67029425  1
  Al  Al195  1  0.17521147  0.00281396  0.69078615  1
  Al  Al196  1  0.32948133  0.00160389  0.32585354  1
  Al  Al197  1  0.67652735  0.00019113  0.68232039  1
  Al  Al198  1  0.81400270  0.00049412  0.82116696  1
  Al  Al199  1  0.82737956  0.82838933  0.49974184  1
  Al  Al200  1  0.81709682  0.67153857  0.50089593  1
  Al  Al201  1  0.18507603  0.49597303  0.17327401  1
  Al  Al202  1  0.18542780  0.49839348  0.32630638  1
  Al  Al203  1  0.67479999  0.00277933  0.17439097  1
  Al  Al204  1  0.82492310  0.32661191  0.00089596  1
  Al  Al205  1  0.49762361  0.32933322  0.31652963  1
  Al  Al206  1  0.67624623  0.17626393  -0.00145745  1
  Al  Al207  1  0.50012256  0.80909396  0.81104060  1
  Al  Al208  1  0.49975512  0.68153628  0.17511744  1
  Al  Al209  1  0.66868898  0.32977373  -0.00029850  1
  Al  Al210  1  0.32216479  0.00083059  0.83030803  1
  Al  Al211  1  0.19226922  0.19185892  -0.00076995  1
  Al  Al212  1  0.66788158  0.17801461  0.50157567  1
  Al  Al213  1  -0.00059680  0.81722497  0.67122271  1
  Al  Al214  1  0.00210059  0.31577200  0.82909913  1
  Al  Al215  1  0.82227284  0.00311332  0.32129922  1
  Al  Al216  1  0.68153403  0.49777789  0.18584430  1
  Al  Al217  1  0.00397830  0.82439710  0.16467737  1
  Al  Al218  1  0.00048067  0.82320121  0.32585240  1
  Al  Al219  1  0.82471388  0.67733704  -0.00104434  1
  Al  Al220  1  0.32957889  0.82705860  -0.00252672  1
  Al  Al221  1  0.18861382  0.83338152  0.50090582  1
  Al  Al222  1  0.17969305  0.00172465  0.32385664  1
  Al  Al223  1  0.49857621  0.67089209  0.32903993  1
  Al  Al224  1  0.17432841  0.00308449  0.16827991  1
  Al  Al225  1  0.00656832  0.82474122  0.83327713  1
  Al  Al226  1  0.66881213  0.67290775  0.00108209  1
  Al  Al227  1  0.32750206  0.00172618  0.16962908  1
  Al  Al228  1  0.49901701  0.17515253  0.31533802  1
  Al  Al229  1  0.80380256  0.49949950  0.69358491  1
  Al  Al230  1  0.00029385  0.66015874  0.32591156  1
  Al  Al231  1  0.18495346  0.67461049  0.50145122  1
  Al  Al232  1  0.30983874  0.67112757  -0.00287494  1
  Al  Al233  1  0.31274226  0.30954232  -0.00054552  1
  Al  Al234  1  0.17645857  0.81570397  -0.00311258  1
  Al  Al235  1  0.80705619  0.49852971  0.31595020  1
  Al  Al236  1  0.00152272  0.32433985  0.67211861  1
  Al  Al237  1  0.18538207  0.31993540  0.50094043  1
  Al  Al238  1  0.82987149  0.17926538  0.49804416  1
  Au  Au239  1  0.33955142  0.49721766  0.82332453  1
  Au  Au240  1  0.66200200  0.16226124  0.49955546  1
  Au  Au241  1  0.49835317  0.17324440  0.16414274  1
  Au  Au242  1  0.49633294  0.17868362  0.67537368  1
  Au  Au243  1  0.84643205  0.17550149  0.49699047  1
  Au  Au244  1  -0.00187796  0.65953302  0.83654603  1
  Au  Au245  1  0.32644143  0.66986677  -0.00155202  1
  Au  Au246  1  -0.00128862  0.83466905  0.66789209  1
  Au  Au247  1  0.66140988  0.83808604  -0.00504998  1
  Au  Au248  1  0.33468328  -0.00334316  0.65313688  1
  Au  Au249  1  0.00893658  0.83998785  0.83990000  1
  Au  Au250  1  0.66959543  0.65702835  -0.00319042  1
  Au  Au251  1  0.33336457  0.00074384  0.83623661  1
  Au  Au252  1  0.00196637  0.33646126  0.67605631  1
  Au  Au253  1  0.83523638  0.82589264  -0.00124311  1
  Au  Au254  1  0.66821111  0.65388934  0.50278653  1
  Au  Au255  1  0.00443646  0.65993847  0.16081182  1
  Au  Au256  1  0.84289646  0.82139115  0.49841375  1
  Au  Au257  1  0.82706415  0.16431068  -0.00122080  1
  Au  Au258  1  0.33334307  0.33246573  0.50603658  1
  Au  Au259  1  0.82631047  0.00290779  0.83254003  1
  Au  Au260  1  0.00264396  0.32826905  0.32711330  1
  Au  Au261  1  0.49939726  0.67460383  0.68270502  1
  Au  Au262  1  0.49992107  0.66951266  0.17060897  1
  Au  Au263  1  0.16272710  0.00491365  0.67916632  1
  Au  Au264  1  0.66106234  0.34188034  0.50602540  1
  Au  Au265  1  0.33370688  0.66478414  0.50302094  1
  Au  Au266  1  0.82928315  0.00279626  0.15651199  1
  Au  Au267  1  -0.00131263  0.66283010  0.33819301  1
  Au  Au268  1  0.00314201  0.17366368  0.17123933  1
  Au  Au269  1  0.00261689  0.83648430  0.16755760  1
  Au  Au270  1  0.00275184  0.83570499  0.33813090  1
  Au  Au271  1  0.49703684  0.33267569  0.32884845  1
  Au  Au272  1  0.83035021  0.49815483  0.17021906  1
  Au  Au273  1  0.66632814  0.00084636  0.16530365  1
  Au  Au274  1  0.66396764  -0.00100327  0.68072823  1
  Au  Au275  1  0.67573255  0.49762753  0.81756658  1
  Au  Au276  1  0.65554085  0.00017778  0.32909965  1
  Au  Au277  1  0.83536439  0.00565192  0.33204356  1
  Au  Au278  1  0.17553603  0.17274972  0.50112191  1
  Au  Au279  1  0.16787223  0.49632153  0.82713053  1
  Au  Au280  1  0.82704405  0.00414304  0.65929221  1
  Au  Au281  1  0.16382967  0.00750403  0.32159153  1
  Au  Au282  1  0.00047800  0.16772785  0.68201585  1
  Au  Au283  1  0.65232100  0.83234813  0.50536131  1
  Au  Au284  1  0.83120383  0.34341279  0.49895115  1
  Au  Au285  1  0.17231617  0.82709426  0.50099140  1
  Au  Au286  1  0.00272267  0.65613539  0.66330876  1
  Au  Au287  1  0.82902275  0.33736024  -0.00391722  1
