# generated using pymatgen
data_Ca24Ti8Al207Au49
_symmetry_space_group_name_H-M   'P 1'
_cell_length_a   17.31718768
_cell_length_b   17.31829707
_cell_length_c   17.31816978
_cell_angle_alpha   89.99686009
_cell_angle_beta   90.00533062
_cell_angle_gamma   90.00109295
_symmetry_Int_Tables_number   1
_chemical_formula_structural   Ca24Ti8Al207Au49
_chemical_formula_sum   'Ca24 Ti8 Al207 Au49'
_cell_volume   5193.79183397
_cell_formula_units_Z   1
loop_
 _symmetry_equiv_pos_site_id
 _symmetry_equiv_pos_as_xyz
  1  'x, y, z'
loop_
 _atom_site_type_symbol
 _atom_site_label
 _atom_site_symmetry_multiplicity
 _atom_site_fract_x
 _atom_site_fract_y
 _atom_site_fract_z
 _atom_site_occupancy
  Ca  Ca0  1  0.25192833  0.00177868  -0.00152944  1
  Ca  Ca1  1  0.25425617  0.00096212  0.50427351  1
  Ca  Ca2  1  0.24796043  0.49740227  0.00101397  1
  Ca  Ca3  1  0.24856128  0.50033561  0.49964608  1
  Ca  Ca4  1  0.74760653  0.00232885  -0.00161864  1
  Ca  Ca5  1  0.74458313  0.00763881  0.50146662  1
  Ca  Ca6  1  0.75258412  0.49687647  -0.00110024  1
  Ca  Ca7  1  0.74817426  0.49393242  0.50123311  1
  Ca  Ca8  1  -0.00274681  0.25354880  -0.00209904  1
  Ca  Ca9  1  0.00050770  0.24961186  0.49852732  1
  Ca  Ca10  1  0.00029679  0.74629894  0.00421318  1
  Ca  Ca11  1  0.00085474  0.75211717  0.49710295  1
  Ca  Ca12  1  0.50063863  0.24694338  -0.00428678  1
  Ca  Ca13  1  0.50163766  0.24624196  0.50114487  1
  Ca  Ca14  1  0.50196485  0.74982667  -0.00225809  1
  Ca  Ca15  1  0.50010540  0.75173333  0.49936347  1
  Ca  Ca16  1  -0.00124542  0.00173841  0.25631227  1
  Ca  Ca17  1  -0.00602391  0.00420840  0.75278581  1
  Ca  Ca18  1  0.00067185  0.49903198  0.24781509  1
  Ca  Ca19  1  0.00074290  0.50138694  0.75364924  1
  Ca  Ca20  1  0.50082709  -0.00365492  0.25444249  1
  Ca  Ca21  1  0.50240146  0.00235745  0.75053954  1
  Ca  Ca22  1  0.49931070  0.50424609  0.25162682  1
  Ca  Ca23  1  0.49943071  0.50086515  0.75106726  1
  Ti  Ti24  1  0.24906288  0.25235709  0.24908904  1
  Ti  Ti25  1  0.25257144  0.24996220  0.75150038  1
  Ti  Ti26  1  0.25185492  0.74812361  0.24928627  1
  Ti  Ti27  1  0.25174744  0.75049596  0.74940024  1
  Ti  Ti28  1  0.75171691  0.25026078  0.24916223  1
  Ti  Ti29  1  0.74727217  0.24834155  0.75150522  1
  Ti  Ti30  1  0.74832022  0.74994936  0.24918909  1
  Ti  Ti31  1  0.74787216  0.75185511  0.75177970  1
  Al  Al32  1  0.07916318  0.08733963  0.07726038  1
  Al  Al33  1  0.07834344  0.07738624  0.58245802  1
  Al  Al34  1  0.08913792  0.58644380  0.08133213  1
  Al  Al35  1  0.08611203  0.57643457  0.57580308  1
  Al  Al36  1  0.58557439  0.08837858  0.07273333  1
  Al  Al37  1  0.58792725  0.08989156  0.58648628  1
  Al  Al38  1  0.58871310  0.59569023  0.08159489  1
  Al  Al39  1  0.57549741  0.58324853  0.58318300  1
  Al  Al40  1  0.42029075  0.41524891  0.07729827  1
  Al  Al41  1  0.41510736  0.40427399  0.57903224  1
  Al  Al42  1  0.42822013  0.90339757  0.08545229  1
  Al  Al43  1  0.41633231  0.90303381  0.58391770  1
  Al  Al44  1  0.91316867  0.41412714  0.09281668  1
  Al  Al45  1  0.92177308  0.40754371  0.58855224  1
  Al  Al46  1  0.92196543  0.91647187  0.08002191  1
  Al  Al47  1  0.91302888  0.93199639  0.58790931  1
  Al  Al48  1  0.42748067  0.08303674  0.42601573  1
  Al  Al49  1  0.41450497  0.08554691  0.91442725  1
  Al  Al50  1  0.41145104  0.60053836  0.41383420  1
  Al  Al51  1  0.41866615  0.57824646  0.91878159  1
  Al  Al52  1  0.90031918  0.08451865  0.41861022  1
  Al  Al53  1  0.90070486  0.08518636  0.91463261  1
  Al  Al54  1  0.92585004  0.58156869  0.40871058  1
  Al  Al55  1  0.90979903  0.57894133  0.91870943  1
  Al  Al56  1  0.08931163  0.42165690  0.41135903  1
  Al  Al57  1  0.07851656  0.42074898  0.92127867  1
  Al  Al58  1  0.07681074  0.90966689  0.41397209  1
  Al  Al59  1  0.08156882  0.90431176  0.92093367  1
  Al  Al60  1  0.57944684  0.42310765  0.42590001  1
  Al  Al61  1  0.57862357  0.40805150  0.91326226  1
  Al  Al62  1  0.57909081  0.91431154  0.40812689  1
  Al  Al63  1  0.59406180  0.91692129  0.91524316  1
  Al  Al64  1  0.07467838  0.07310303  0.42466555  1
  Al  Al65  1  0.07966586  0.08636931  0.92293160  1
  Al  Al66  1  0.08830250  0.58499562  0.40565556  1
  Al  Al67  1  0.08957133  0.58942626  0.92243900  1
  Al  Al68  1  0.59149622  0.08703943  0.42049810  1
  Al  Al69  1  0.59514881  0.08243687  0.91080642  1
  Al  Al70  1  0.57027131  0.59330329  0.41520451  1
  Al  Al71  1  0.58817134  0.59144782  0.92092035  1
  Al  Al72  1  0.40714743  0.41486262  0.42313769  1
  Al  Al73  1  0.41785126  0.41283730  0.90985602  1
  Al  Al74  1  0.41738654  0.89711847  0.41894636  1
  Al  Al75  1  0.42145235  0.92170054  0.91981523  1
  Al  Al76  1  0.91944345  0.41663835  0.41647030  1
  Al  Al77  1  0.91101386  0.41867566  0.91571118  1
  Al  Al78  1  0.91743880  0.92407875  0.40701784  1
  Al  Al79  1  0.91483352  0.92118407  0.91092585  1
  Al  Al80  1  0.07560222  0.41311871  0.08828705  1
  Al  Al81  1  0.08177831  0.41403865  0.58709909  1
  Al  Al82  1  0.08662190  0.90375770  0.07752334  1
  Al  Al83  1  0.08137695  0.92077658  0.57934706  1
  Al  Al84  1  0.58078359  0.41480103  0.07732038  1
  Al  Al85  1  0.57886790  0.41732980  0.58431104  1
  Al  Al86  1  0.58725514  0.89912110  0.07782305  1
  Al  Al87  1  0.57827185  0.91825018  0.59002755  1
  Al  Al88  1  0.41470400  0.09436892  0.07354566  1
  Al  Al89  1  0.42353389  0.08885679  0.58827600  1
  Al  Al90  1  0.42286645  0.58697746  0.08247624  1
  Al  Al91  1  0.41456500  0.59918161  0.57513228  1
  Al  Al92  1  0.91077106  0.09234623  0.07490528  1
  Al  Al93  1  0.90281595  0.09038678  0.58178904  1
  Al  Al94  1  0.90923455  0.57538864  0.08207596  1
  Al  Al95  1  0.92314727  0.57155700  0.57928238  1
  Al  Al96  1  0.25127690  0.13511395  0.13502736  1
  Al  Al97  1  0.25649395  0.13751488  0.63751910  1
  Al  Al98  1  0.25093161  0.63537909  0.13158750  1
  Al  Al99  1  0.25409064  0.64012013  0.62807545  1
  Al  Al100  1  0.75403025  0.13414216  0.13181363  1
  Al  Al101  1  0.74790926  0.13481544  0.63475358  1
  Al  Al102  1  0.74438975  0.63738279  0.13657723  1
  Al  Al103  1  0.75146876  0.63666207  0.63943264  1
  Al  Al104  1  0.24771540  0.36603987  0.12871309  1
  Al  Al105  1  0.25582361  0.36297695  0.63740111  1
  Al  Al106  1  0.24800431  0.86115477  0.13568966  1
  Al  Al107  1  0.25825308  0.86376894  0.63042347  1
  Al  Al108  1  0.75419328  0.36643138  0.12956720  1
  Al  Al109  1  0.74584084  0.36176210  0.63420765  1
  Al  Al110  1  0.74496870  0.86318761  0.13492075  1
  Al  Al111  1  0.75054867  0.86734387  0.63759370  1
  Al  Al112  1  0.25115084  0.13870628  0.36324848  1
  Al  Al113  1  0.25551094  0.13631698  0.86443131  1
  Al  Al114  1  0.25282754  0.63600637  0.36607985  1
  Al  Al115  1  0.24883130  0.63964012  0.87062908  1
  Al  Al116  1  0.75334519  0.13606463  0.36817842  1
  Al  Al117  1  0.74585271  0.13358905  0.86626012  1
  Al  Al118  1  0.74944835  0.63825889  0.36050914  1
  Al  Al119  1  0.74606535  0.63706103  0.86606735  1
  Al  Al120  1  0.24876646  0.37144645  0.36162063  1
  Al  Al121  1  0.25213873  0.36052364  0.87209481  1
  Al  Al122  1  0.25703202  0.85941721  0.36728174  1
  Al  Al123  1  0.24950702  0.86159249  0.86449944  1
  Al  Al124  1  0.75438561  0.36587815  0.36424067  1
  Al  Al125  1  0.74942574  0.35972347  0.87282007  1
  Al  Al126  1  0.74877602  0.86499652  0.36076557  1
  Al  Al127  1  0.74208047  0.86761900  0.86551709  1
  Al  Al128  1  0.13284919  0.25461815  0.13561550  1
  Al  Al129  1  0.13170773  0.25540913  0.63671611  1
  Al  Al130  1  0.13311206  0.74593612  0.13585766  1
  Al  Al131  1  0.13619570  0.74971670  0.63146734  1
  Al  Al132  1  0.63969250  0.24687614  0.12825921  1
  Al  Al133  1  0.63385926  0.24487408  0.63263640  1
  Al  Al134  1  0.62904736  0.75129863  0.13487830  1
  Al  Al135  1  0.63537372  0.75321554  0.63606563  1
  Al  Al136  1  0.12915104  0.25602362  0.36254728  1
  Al  Al137  1  0.13434032  0.25153272  0.86537414  1
  Al  Al138  1  0.13653008  0.74685779  0.36707895  1
  Al  Al139  1  0.13495409  0.74947625  0.86832717  1
  Al  Al140  1  0.64179549  0.24596406  0.37244623  1
  Al  Al141  1  0.63222391  0.24555737  0.86876818  1
  Al  Al142  1  0.63179860  0.75210295  0.36434008  1
  Al  Al143  1  0.62993017  0.75315587  0.86635738  1
  Al  Al144  1  0.36241601  0.25111149  0.12769962  1
  Al  Al145  1  0.36912830  0.25084251  0.63597768  1
  Al  Al146  1  0.37095675  0.74810126  0.13377110  1
  Al  Al147  1  0.36750443  0.75191942  0.63037502  1
  Al  Al148  1  0.86370098  0.25199695  0.13168322  1
  Al  Al149  1  0.86323010  0.24790640  0.63538425  1
  Al  Al150  1  0.86505750  0.75028863  0.13587386  1
  Al  Al151  1  0.86761858  0.74958855  0.64058211  1
  Al  Al152  1  0.36142247  0.25491853  0.36613604  1
  Al  Al153  1  0.37146802  0.24715206  0.86804913  1
  Al  Al154  1  0.36935869  0.74917376  0.36527497  1
  Al  Al155  1  0.37261895  0.75228792  0.86651836  1
  Al  Al156  1  0.87185064  0.25014916  0.36331655  1
  Al  Al157  1  0.86007962  0.24638373  0.87200839  1
  Al  Al158  1  0.86704774  0.75223879  0.36237274  1
  Al  Al159  1  0.86176200  0.75129979  0.86433317  1
  Al  Al160  1  0.13274182  0.13812551  0.25185762  1
  Al  Al161  1  0.13681054  0.13925795  0.74674714  1
  Al  Al162  1  0.13999014  0.63010957  0.24881719  1
  Al  Al163  1  0.13570288  0.63687713  0.75416204  1
  Al  Al164  1  0.64049419  0.13820894  0.24845933  1
  Al  Al165  1  0.62947807  0.13627583  0.75203077  1
  Al  Al166  1  0.62422508  0.63830185  0.24977751  1
  Al  Al167  1  0.63332635  0.63743545  0.75301610  1
  Al  Al168  1  0.36562669  0.14030304  0.24561507  1
  Al  Al169  1  0.37481621  0.13802145  0.75011210  1
  Al  Al170  1  0.37199942  0.63635006  0.25212589  1
  Al  Al171  1  0.36344510  0.63943098  0.75252344  1
  Al  Al172  1  0.86637541  0.13581265  0.25492122  1
  Al  Al173  1  0.86134565  0.13447990  0.74730212  1
  Al  Al174  1  0.86201575  0.63063809  0.24671562  1
  Al  Al175  1  0.86482239  0.63229878  0.75719568  1
  Al  Al176  1  0.13397721  0.36862631  0.24917744  1
  Al  Al177  1  0.13841921  0.36542193  0.75184878  1
  Al  Al178  1  0.13726871  0.86126354  0.25485035  1
  Al  Al179  1  0.13621773  0.86133858  0.74793672  1
  Al  Al180  1  0.63850611  0.36117153  0.24618479  1
  Al  Al181  1  0.63456353  0.36075000  0.75522500  1
  Al  Al182  1  0.62822220  0.86192363  0.25038759  1
  Al  Al183  1  0.62862200  0.86586785  0.75043052  1
  Al  Al184  1  0.36257953  0.36492664  0.24803543  1
  Al  Al185  1  0.37022773  0.36166531  0.75804926  1
  Al  Al186  1  0.36945628  0.86177141  0.24925499  1
  Al  Al187  1  0.37380704  0.86134013  0.74659146  1
  Al  Al188  1  0.86952872  0.36477614  0.24774774  1
  Al  Al189  1  0.85910183  0.36020561  0.75223443  1
  Al  Al190  1  0.86392639  0.86652841  0.25103336  1
  Al  Al191  1  0.86195630  0.86641161  0.75039175  1
  Al  Al192  1  0.00176699  0.67528212  0.67815088  1
  Al  Al193  1  0.81243779  0.83092051  -0.00136852  1
  Al  Al194  1  0.31707093  0.81921163  -0.00012300  1
  Al  Al195  1  0.80875033  -0.00003509  0.81169706  1
  Al  Al196  1  0.50273065  0.17163788  0.31807860  1
  Al  Al197  1  0.33124679  0.00146359  0.33122194  1
  Al  Al198  1  0.83149300  0.49805795  0.68840750  1
  Al  Al199  1  0.17641521  0.82224924  0.49932303  1
  Al  Al200  1  0.32511685  -0.00147280  0.81574407  1
  Al  Al201  1  0.32237449  0.50066563  0.17926388  1
  Al  Al202  1  0.17366129  -0.00041535  0.17308260  1
  Al  Al203  1  0.17444058  0.17186188  0.50018524  1
  Al  Al204  1  0.68482317  0.49755112  0.83106489  1
  Al  Al205  1  0.67056199  0.82939328  0.50032081  1
  Al  Al206  1  0.82836514  0.00132227  0.18443649  1
  Al  Al207  1  -0.00171016  0.32970350  0.80978475  1
  Al  Al208  1  0.00152191  0.68630794  0.31496703  1
  Al  Al209  1  0.66957604  -0.00120515  0.17147629  1
  Al  Al210  1  0.17576615  0.50090677  0.68150502  1
  Al  Al211  1  0.18470079  0.00016920  0.67448685  1
  Al  Al212  1  0.16683057  0.00107365  0.82457705  1
  Al  Al213  1  0.82107850  0.31386729  0.49982234  1
  Al  Al214  1  0.67384782  0.50054912  0.67502638  1
  Al  Al215  1  -0.00171230  0.18414917  0.17693683  1
  Al  Al216  1  0.81322578  0.67347822  0.00156236  1
  Al  Al217  1  -0.00074788  0.18030384  0.67119640  1
  Al  Al218  1  0.67834170  0.50226548  0.32699429  1
  Al  Al219  1  0.18601901  0.18096397  -0.00024862  1
  Al  Al220  1  0.50002939  0.68657792  0.67927144  1
  Al  Al221  1  0.32855788  0.18405109  0.50038747  1
  Al  Al222  1  0.19013383  0.32859624  0.49936137  1
  Al  Al223  1  0.68534792  0.00125047  0.68769675  1
  Al  Al224  1  0.50266590  0.31310625  0.68531506  1
  Al  Al225  1  0.67155795  0.67440680  0.50114623  1
  Al  Al226  1  0.82877343  0.83462827  0.49884823  1
  Al  Al227  1  0.82977478  0.66995341  0.49874837  1
  Al  Al228  1  0.33406255  0.00032875  0.17051661  1
  Al  Al229  1  0.00149393  0.81990645  0.19148271  1
  Al  Al230  1  0.33533892  0.50221964  0.67246325  1
  Al  Al231  1  0.68365460  0.00129618  0.32481257  1
  Al  Al232  1  0.68102674  0.49863621  0.16885826  1
  Al  Al233  1  0.50354403  0.32263216  0.33159747  1
  Al  Al234  1  -0.00130457  0.81965973  0.82069090  1
  Al  Al235  1  0.31745641  0.50000230  0.82454670  1
  Al  Al236  1  0.50064671  0.31856957  0.17361425  1
  Al  Al237  1  -0.00344273  0.17363056  0.82717269  1
  Al  Al238  1  0.17402578  -0.00081719  0.32855133  1
  Au  Au239  1  0.50252718  0.84018912  0.82689722  1
  Au  Au240  1  0.33643342  0.49965474  0.16991069  1
  Au  Au241  1  0.82860443  0.82544781  -0.00253214  1
  Au  Au242  1  0.49600242  0.33728514  0.32745715  1
  Au  Au243  1  0.16909982  0.50234711  0.83331144  1
  Au  Au244  1  -0.00155454  0.16422522  0.33999863  1
  Au  Au245  1  0.50209999  0.17046309  0.16387299  1
  Au  Au246  1  0.66347352  0.32282308  0.50258396  1
  Au  Au247  1  -0.00290986  0.84698215  0.67477872  1
  Au  Au248  1  -0.00162112  0.18142934  0.16017144  1
  Au  Au249  1  0.83975548  0.00336919  0.17170504  1
  Au  Au250  1  0.17853685  0.66140098  0.49683667  1
  Au  Au251  1  0.66946690  0.49829829  0.16391639  1
  Au  Au252  1  -0.00351729  0.67218449  0.84441855  1
  Au  Au253  1  0.50040343  0.67798792  0.17099036  1
  Au  Au254  1  0.66315769  0.31902289  -0.00130862  1
  Au  Au255  1  0.83974240  0.49832169  0.31962908  1
  Au  Au256  1  0.00317284  0.33782643  0.32243030  1
  Au  Au257  1  0.82459213  0.85090726  0.49718521  1
  Au  Au258  1  0.17327502  0.32774349  0.50167675  1
  Au  Au259  1  0.16337853  0.32705401  0.00302811  1
  Au  Au260  1  0.33700274  0.32184913  -0.00341510  1
  Au  Au261  1  0.49811821  0.66626820  0.82759875  1
  Au  Au262  1  -0.00020947  0.16830244  0.66675444  1
  Au  Au263  1  0.34241685  -0.00411712  0.16224091  1
  Au  Au264  1  0.17721046  0.83476189  0.50103852  1
  Au  Au265  1  0.00146531  0.82844101  0.17686792  1
  Au  Au266  1  -0.00331978  0.33130663  0.82661167  1
  Au  Au267  1  0.65456578  -0.00509389  0.16955344  1
  Au  Au268  1  0.15793971  -0.00051439  0.16886125  1
  Au  Au269  1  0.32439420  0.83466886  0.00000066  1
  Au  Au270  1  0.32273787  0.66130002  -0.00099977  1
  Au  Au271  1  0.33085565  -0.00273129  0.34669366  1
  Au  Au272  1  0.00362389  0.66839309  0.66273097  1
  Au  Au273  1  0.32354367  0.50440279  0.34326119  1
  Au  Au274  1  0.66819352  0.49799373  0.83299361  1
  Au  Au275  1  0.16177891  0.49815328  0.17456547  1
  Au  Au276  1  0.50263947  0.16833409  0.83123039  1
  Au  Au277  1  0.82419588  0.65422865  0.49600747  1
  Au  Au278  1  0.67412073  0.00114205  0.67526367  1
  Au  Au279  1  0.83639489  0.32143739  0.49991509  1
  Au  Au280  1  -0.00465062  0.65721831  0.16912351  1
  Au  Au281  1  0.50128711  0.32782644  0.67659422  1
  Au  Au282  1  0.33778560  -0.00120334  0.66557084  1
  Au  Au283  1  0.82987934  0.49399688  0.67152453  1
  Au  Au284  1  0.83285808  0.32755743  0.00247233  1
  Au  Au285  1  0.16950421  -0.00392758  0.84006210  1
  Au  Au286  1  0.66753359  0.50799857  0.33970210  1
  Au  Au287  1  0.32762904  0.50328683  0.65737635  1
