# generated using pymatgen
data_Ca24Ti8Al207Au49
_symmetry_space_group_name_H-M   'P 1'
_cell_length_a   17.32010112
_cell_length_b   17.32022162
_cell_length_c   17.32005889
_cell_angle_alpha   90.00511953
_cell_angle_beta   90.00506064
_cell_angle_gamma   90.00391213
_symmetry_Int_Tables_number   1
_chemical_formula_structural   Ca24Ti8Al207Au49
_chemical_formula_sum   'Ca24 Ti8 Al207 Au49'
_cell_volume   5195.80959942
_cell_formula_units_Z   1
loop_
 _symmetry_equiv_pos_site_id
 _symmetry_equiv_pos_as_xyz
  1  'x, y, z'
loop_
 _atom_site_type_symbol
 _atom_site_label
 _atom_site_symmetry_multiplicity
 _atom_site_fract_x
 _atom_site_fract_y
 _atom_site_fract_z
 _atom_site_occupancy
  Ca  Ca0  1  0.25320281  -0.00287984  -0.00103695  1
  Ca  Ca1  1  0.24997003  -0.00261237  0.49788554  1
  Ca  Ca2  1  0.25225291  0.49993532  0.00249410  1
  Ca  Ca3  1  0.24753701  0.50282878  0.49968302  1
  Ca  Ca4  1  0.75050255  -0.00808048  0.00051527  1
  Ca  Ca5  1  0.75175528  -0.00150519  0.49944261  1
  Ca  Ca6  1  0.75052718  0.50222163  0.00025750  1
  Ca  Ca7  1  0.75138600  0.50270319  0.50148740  1
  Ca  Ca8  1  0.00474327  0.24573199  0.00049669  1
  Ca  Ca9  1  -0.00263155  0.24872689  0.50221103  1
  Ca  Ca10  1  -0.00577566  0.75613162  -0.00100558  1
  Ca  Ca11  1  -0.00312261  0.75276088  0.50439686  1
  Ca  Ca12  1  0.50031299  0.25252160  0.01025762  1
  Ca  Ca13  1  0.50153222  0.24481147  0.49268896  1
  Ca  Ca14  1  0.50622020  0.75227862  0.00049984  1
  Ca  Ca15  1  0.50143147  0.75470819  0.49717977  1
  Ca  Ca16  1  -0.00177443  0.00252817  0.25400862  1
  Ca  Ca17  1  -0.00157695  -0.00077304  0.75054243  1
  Ca  Ca18  1  -0.00277854  0.49813477  0.25363034  1
  Ca  Ca19  1  -0.00296060  0.50087450  0.74528516  1
  Ca  Ca20  1  0.49969913  -0.00010076  0.25484247  1
  Ca  Ca21  1  0.50133007  -0.00671339  0.74986339  1
  Ca  Ca22  1  0.50473486  0.49977761  0.25048736  1
  Ca  Ca23  1  0.50470659  0.50467135  0.74675632  1
  Ti  Ti24  1  0.25177299  0.24661847  0.24989977  1
  Ti  Ti25  1  0.24723899  0.24826516  0.75031795  1
  Ti  Ti26  1  0.25104470  0.75337532  0.25212136  1
  Ti  Ti27  1  0.24940749  0.75079975  0.74610043  1
  Ti  Ti28  1  0.74972262  0.24923440  0.25135841  1
  Ti  Ti29  1  0.75173777  0.25071324  0.74944783  1
  Ti  Ti30  1  0.74994080  0.75069983  0.25083932  1
  Ti  Ti31  1  0.75032653  0.74890739  0.74894684  1
  Al  Al32  1  0.08617439  0.07908442  0.08989668  1
  Al  Al33  1  0.08903982  0.08260713  0.58066608  1
  Al  Al34  1  0.07854809  0.57333946  0.07900474  1
  Al  Al35  1  0.07703824  0.59534751  0.58802222  1
  Al  Al36  1  0.57834628  0.08659850  0.09281505  1
  Al  Al37  1  0.59437861  0.07611493  0.57236606  1
  Al  Al38  1  0.59122421  0.58428139  0.08324609  1
  Al  Al39  1  0.58340029  0.59090966  0.58650359  1
  Al  Al40  1  0.41269053  0.41304104  0.09630226  1
  Al  Al41  1  0.42368896  0.43040992  0.56950197  1
  Al  Al42  1  0.40956191  0.91053170  0.08343819  1
  Al  Al43  1  0.41118969  0.91340319  0.58197514  1
  Al  Al44  1  0.92157916  0.41749745  0.08499158  1
  Al  Al45  1  0.91101312  0.41528790  0.59465414  1
  Al  Al46  1  0.90682570  0.91713427  0.07582769  1
  Al  Al47  1  0.91257206  0.90846910  0.57484985  1
  Al  Al48  1  0.41554323  0.07953179  0.40778085  1
  Al  Al49  1  0.41883321  0.07056721  0.92108786  1
  Al  Al50  1  0.42384375  0.58933342  0.41683771  1
  Al  Al51  1  0.42594383  0.57934228  0.92314708  1
  Al  Al52  1  0.90834515  0.07929635  0.41369696  1
  Al  Al53  1  0.90760391  0.08379611  0.91704904  1
  Al  Al54  1  0.91246975  0.58436473  0.42568217  1
  Al  Al55  1  0.91058325  0.58772803  0.91309479  1
  Al  Al56  1  0.07529870  0.41982009  0.42424723  1
  Al  Al57  1  0.07603258  0.40519299  0.91114486  1
  Al  Al58  1  0.08161577  0.91890567  0.41746597  1
  Al  Al59  1  0.07651743  0.91368002  0.92096476  1
  Al  Al60  1  0.58885882  0.41768622  0.40413526  1
  Al  Al61  1  0.57970220  0.43478248  0.91755315  1
  Al  Al62  1  0.58322283  0.91261050  0.41455956  1
  Al  Al63  1  0.59545430  0.90778323  0.91541415  1
  Al  Al64  1  0.08913161  0.08579244  0.42020664  1
  Al  Al65  1  0.07420231  0.07883709  0.92042403  1
  Al  Al66  1  0.08670552  0.59232798  0.42950004  1
  Al  Al67  1  0.07068926  0.58295612  0.91783388  1
  Al  Al68  1  0.58565229  0.08685446  0.41178952  1
  Al  Al69  1  0.59009403  0.06797305  0.91310256  1
  Al  Al70  1  0.58585029  0.58385551  0.40944618  1
  Al  Al71  1  0.59621338  0.59216138  0.92112445  1
  Al  Al72  1  0.42803360  0.41314663  0.40915107  1
  Al  Al73  1  0.41955077  0.42260497  0.93236689  1
  Al  Al74  1  0.41549912  0.91475041  0.41122104  1
  Al  Al75  1  0.41238645  0.91066649  0.91878324  1
  Al  Al76  1  0.91406302  0.41990522  0.42057653  1
  Al  Al77  1  0.91925167  0.41173030  0.90389141  1
  Al  Al78  1  0.90596157  0.91482035  0.41326487  1
  Al  Al79  1  0.91012321  0.91362290  0.91439895  1
  Al  Al80  1  0.08125878  0.41276069  0.08616311  1
  Al  Al81  1  0.07211985  0.41360144  0.58831684  1
  Al  Al82  1  0.09580061  0.92422883  0.08149810  1
  Al  Al83  1  0.08367202  0.91825295  0.58426297  1
  Al  Al84  1  0.57355543  0.42176284  0.09609060  1
  Al  Al85  1  0.58738545  0.42702923  0.57153836  1
  Al  Al86  1  0.58866390  0.90813102  0.07985268  1
  Al  Al87  1  0.58757953  0.91526273  0.58037290  1
  Al  Al88  1  0.42159914  0.08439237  0.09554186  1
  Al  Al89  1  0.40575821  0.07100855  0.58021816  1
  Al  Al90  1  0.41494974  0.57571530  0.09005353  1
  Al  Al91  1  0.42392945  0.59593068  0.58398997  1
  Al  Al92  1  0.91081279  0.08446641  0.07809176  1
  Al  Al93  1  0.91604140  0.08765033  0.57338007  1
  Al  Al94  1  0.91000656  0.58052096  0.07613956  1
  Al  Al95  1  0.91299774  0.58947829  0.58997551  1
  Al  Al96  1  0.24975285  0.12622493  0.13766892  1
  Al  Al97  1  0.24834824  0.13739324  0.63057322  1
  Al  Al98  1  0.25334369  0.63006232  0.13782143  1
  Al  Al99  1  0.24682976  0.64105495  0.62633725  1
  Al  Al100  1  0.75130521  0.12917870  0.13558676  1
  Al  Al101  1  0.75378717  0.13554703  0.63487556  1
  Al  Al102  1  0.74908778  0.63382180  0.13394090  1
  Al  Al103  1  0.75301908  0.63089677  0.63644599  1
  Al  Al104  1  0.25246220  0.36883925  0.14055778  1
  Al  Al105  1  0.24508918  0.36333835  0.63446222  1
  Al  Al106  1  0.25178365  0.87245659  0.13940880  1
  Al  Al107  1  0.24888807  0.86232663  0.63130561  1
  Al  Al108  1  0.75057788  0.36323502  0.13652633  1
  Al  Al109  1  0.75276937  0.37400798  0.63698493  1
  Al  Al110  1  0.74742750  0.86935590  0.13676944  1
  Al  Al111  1  0.75284160  0.86118598  0.63384683  1
  Al  Al112  1  0.24997417  0.12771783  0.36252495  1
  Al  Al113  1  0.24779245  0.13511574  0.86536790  1
  Al  Al114  1  0.25211121  0.63803876  0.37088412  1
  Al  Al115  1  0.25278887  0.63803096  0.86129840  1
  Al  Al116  1  0.75023759  0.13265185  0.36380514  1
  Al  Al117  1  0.75407926  0.13735145  0.86724493  1
  Al  Al118  1  0.74735316  0.63117697  0.36518408  1
  Al  Al119  1  0.75090534  0.63553348  0.86494029  1
  Al  Al120  1  0.25534025  0.36342829  0.36451861  1
  Al  Al121  1  0.24408243  0.36208314  0.86411002  1
  Al  Al122  1  0.24942877  0.87308565  0.36398432  1
  Al  Al123  1  0.25333060  0.86320206  0.86204729  1
  Al  Al124  1  0.74756333  0.37075283  0.36418056  1
  Al  Al125  1  0.75598360  0.36573033  0.86706870  1
  Al  Al126  1  0.75510792  0.86666817  0.36684934  1
  Al  Al127  1  0.74740243  0.86180098  0.86892374  1
  Al  Al128  1  0.14038481  0.24752425  0.13253215  1
  Al  Al129  1  0.13163863  0.24955349  0.63529257  1
  Al  Al130  1  0.14019184  0.75489022  0.13837440  1
  Al  Al131  1  0.12991865  0.74996029  0.62829826  1
  Al  Al132  1  0.63596919  0.24889152  0.13460762  1
  Al  Al133  1  0.63795505  0.25071352  0.63549904  1
  Al  Al134  1  0.63804820  0.75040026  0.13088949  1
  Al  Al135  1  0.62999152  0.75064060  0.63555585  1
  Al  Al136  1  0.13779760  0.24465351  0.36571573  1
  Al  Al137  1  0.12942578  0.24964178  0.86559229  1
  Al  Al138  1  0.13783322  0.75203359  0.36907486  1
  Al  Al139  1  0.13507794  0.74982837  0.86230406  1
  Al  Al140  1  0.63026994  0.24817655  0.36165415  1
  Al  Al141  1  0.63651661  0.25075411  0.86404358  1
  Al  Al142  1  0.63713884  0.75149208  0.36549848  1
  Al  Al143  1  0.63573773  0.74854787  0.86829058  1
  Al  Al144  1  0.36333742  0.24849762  0.13751760  1
  Al  Al145  1  0.36134241  0.25066310  0.63058297  1
  Al  Al146  1  0.36094513  0.75677219  0.13521604  1
  Al  Al147  1  0.37192216  0.74927242  0.63221084  1
  Al  Al148  1  0.86277650  0.24389935  0.13676721  1
  Al  Al149  1  0.86747377  0.25280722  0.63677143  1
  Al  Al150  1  0.86163990  0.75438806  0.13565994  1
  Al  Al151  1  0.87109527  0.74863373  0.63819284  1
  Al  Al152  1  0.37229243  0.24443448  0.35995085  1
  Al  Al153  1  0.36339259  0.24809165  0.86417487  1
  Al  Al154  1  0.36625092  0.75450258  0.36295840  1
  Al  Al155  1  0.36734147  0.75348677  0.86482020  1
  Al  Al156  1  0.86205587  0.24638714  0.36807843  1
  Al  Al157  1  0.86987107  0.25125956  0.86102157  1
  Al  Al158  1  0.86287808  0.74996004  0.36438107  1
  Al  Al159  1  0.86446665  0.75094367  0.86571840  1
  Al  Al160  1  0.13286118  0.12820568  0.25039642  1
  Al  Al161  1  0.13164635  0.13470003  0.74938997  1
  Al  Al162  1  0.13573892  0.63822669  0.25112398  1
  Al  Al163  1  0.12652215  0.64039826  0.74401730  1
  Al  Al164  1  0.63569847  0.13270859  0.24997454  1
  Al  Al165  1  0.63843628  0.13460117  0.75263500  1
  Al  Al166  1  0.63598499  0.63691066  0.24941277  1
  Al  Al167  1  0.63422903  0.63654541  0.74472649  1
  Al  Al168  1  0.36395550  0.12627838  0.25131853  1
  Al  Al169  1  0.36454415  0.13582782  0.74575530  1
  Al  Al170  1  0.36495530  0.63841203  0.24813889  1
  Al  Al171  1  0.36640528  0.64020603  0.74634308  1
  Al  Al172  1  0.86375961  0.12675789  0.25143651  1
  Al  Al173  1  0.86758044  0.13416272  0.75191500  1
  Al  Al174  1  0.86116195  0.63092696  0.25168998  1
  Al  Al175  1  0.86768096  0.63261043  0.74994097  1
  Al  Al176  1  0.13728654  0.36370226  0.25057010  1
  Al  Al177  1  0.12957525  0.36353336  0.74943066  1
  Al  Al178  1  0.13790122  0.87260585  0.25223665  1
  Al  Al179  1  0.13429249  0.86329301  0.74468953  1
  Al  Al180  1  0.62941397  0.36167486  0.25022469  1
  Al  Al181  1  0.63590535  0.36548440  0.74965143  1
  Al  Al182  1  0.63290871  0.86290125  0.25233166  1
  Al  Al183  1  0.63815665  0.86348372  0.75138692  1
  Al  Al184  1  0.37360389  0.36380880  0.24799862  1
  Al  Al185  1  0.36216358  0.36213555  0.74988186  1
  Al  Al186  1  0.36696976  0.87401248  0.25433647  1
  Al  Al187  1  0.36509974  0.86463654  0.74166259  1
  Al  Al188  1  0.86215854  0.36881156  0.25287429  1
  Al  Al189  1  0.86666421  0.36849064  0.74867424  1
  Al  Al190  1  0.86200346  0.87241684  0.25000345  1
  Al  Al191  1  0.86295057  0.86451602  0.75002883  1
  Al  Al192  1  0.50143030  0.67128946  0.81888715  1
  Al  Al193  1  0.32750890  0.49949208  0.82851964  1
  Al  Al194  1  0.68786041  0.81938900  0.49979465  1
  Al  Al195  1  0.32364800  0.50194404  0.66971628  1
  Al  Al196  1  0.67894082  -0.00121024  0.68541821  1
  Al  Al197  1  0.68362270  0.50155190  0.81700428  1
  Al  Al198  1  0.49965940  0.32782208  0.66815200  1
  Al  Al199  1  0.33017194  0.68555771  0.00114231  1
  Al  Al200  1  0.33012727  0.50153519  0.31473324  1
  Al  Al201  1  0.68206162  -0.00224282  0.32297890  1
  Al  Al202  1  0.17648571  0.31772583  0.49917236  1
  Al  Al203  1  0.32306664  -0.00117535  0.81171655  1
  Al  Al204  1  0.50123530  0.69072413  0.31812367  1
  Al  Al205  1  0.81034280  -0.00157343  0.82305869  1
  Al  Al206  1  0.31744767  0.81954902  0.49700070  1
  Al  Al207  1  0.50056788  0.81935158  0.18222740  1
  Al  Al208  1  0.49927054  0.19345389  0.19927429  1
  Al  Al209  1  0.69041285  0.18107974  0.49839584  1
  Al  Al210  1  0.31767779  0.32702566  0.00231742  1
  Al  Al211  1  0.66838224  0.33172356  0.00149623  1
  Al  Al212  1  0.49810520  0.32772104  0.83018435  1
  Al  Al213  1  0.18815980  0.82930885  -0.00062891  1
  Al  Al214  1  0.68106356  0.16866403  -0.00020006  1
  Al  Al215  1  0.50099893  0.82727298  0.81785213  1
  Al  Al216  1  0.17023245  0.50174443  0.32187423  1
  Al  Al217  1  0.00152321  0.83125799  0.16923169  1
  Al  Al218  1  0.17013837  0.50233946  0.66914575  1
  Al  Al219  1  0.18916022  0.00089311  0.67580384  1
  Al  Al220  1  0.81023238  0.69043802  0.00069998  1
  Al  Al221  1  0.50159720  0.16377263  0.66678732  1
  Al  Al222  1  0.83049983  -0.00001755  0.66856347  1
  Al  Al223  1  0.50125869  0.16952817  0.82748546  1
  Al  Al224  1  0.83215947  0.31447132  0.00048119  1
  Al  Al225  1  -0.00085323  0.82299787  0.32515147  1
  Al  Al226  1  0.16972625  0.50376099  0.82163022  1
  Al  Al227  1  0.17098152  0.67377367  0.00131747  1
  Al  Al228  1  0.32073756  0.17364188  0.49504659  1
  Al  Al229  1  -0.00368344  0.17796238  0.32703495  1
  Al  Al230  1  0.32534156  0.16937415  0.00196636  1
  Al  Al231  1  -0.00018023  0.31731961  0.18150195  1
  Al  Al232  1  0.81703272  0.68986218  0.50245588  1
  Al  Al233  1  0.16946654  -0.00294777  0.82839352  1
  Al  Al234  1  0.67900638  0.49862269  0.18832731  1
  Al  Al235  1  -0.00069130  0.17350711  0.67599279  1
  Al  Al236  1  -0.00056432  0.81951936  0.81803214  1
  Al  Al237  1  0.82228458  0.31671808  0.50166660  1
  Al  Al238  1  -0.00235151  0.67059499  0.17903161  1
  Au  Au239  1  0.82721229  0.32846023  0.50129694  1
  Au  Au240  1  0.67559239  0.15304171  0.00042841  1
  Au  Au241  1  0.16780980  0.82756338  0.49885322  1
  Au  Au242  1  0.16605565  0.50381731  0.33811736  1
  Au  Au243  1  -0.00405804  0.65480257  0.17357976  1
  Au  Au244  1  0.66740031  0.32783067  0.49535522  1
  Au  Au245  1  0.66199322  0.34629391  0.00370490  1
  Au  Au246  1  0.15571432  0.68270707  0.00133295  1
  Au  Au247  1  0.82468247  0.49630449  0.16653447  1
  Au  Au248  1  -0.00069494  0.67550017  0.34692633  1
  Au  Au249  1  -0.00242696  0.83093820  0.66888017  1
  Au  Au250  1  0.00555641  0.84688225  0.16893282  1
  Au  Au251  1  0.50231706  0.66757451  0.83110654  1
  Au  Au252  1  0.67313485  0.50304742  0.66831616  1
  Au  Au253  1  -0.00231664  0.67127362  0.82258435  1
  Au  Au254  1  0.66283354  -0.00316141  0.17539370  1
  Au  Au255  1  0.49835630  0.33746156  0.83797728  1
  Au  Au256  1  0.17107432  0.00072315  0.33038679  1
  Au  Au257  1  0.82383931  0.67980083  0.00046928  1
  Au  Au258  1  0.17687103  0.49875280  0.16176734  1
  Au  Au259  1  0.50040041  0.16098315  0.83666218  1
  Au  Au260  1  0.33462566  0.66896612  0.00134190  1
  Au  Au261  1  0.00117324  0.17640549  0.66371610  1
  Au  Au262  1  -0.00206642  0.17017150  0.16215632  1
  Au  Au263  1  0.50218960  0.14882479  0.66211521  1
  Au  Au264  1  0.83073361  0.00062593  0.17116756  1
  Au  Au265  1  0.84724860  0.32141269  -0.00115390  1
  Au  Au266  1  0.33989478  0.50568561  0.67344881  1
  Au  Au267  1  0.16123971  0.32450855  0.50401079  1
  Au  Au268  1  0.32643132  0.16103688  0.49507071  1
  Au  Au269  1  -0.00244859  0.17533070  0.83702431  1
  Au  Au270  1  0.49829273  0.82780393  0.17274568  1
  Au  Au271  1  0.32812441  -0.00111216  0.17246534  1
  Au  Au272  1  0.34482434  0.50211863  0.32314710  1
  Au  Au273  1  -0.00242836  0.33413647  0.32803628  1
  Au  Au274  1  0.00132777  0.17295788  0.33737507  1
  Au  Au275  1  0.50271061  0.66214377  0.17264591  1
  Au  Au276  1  0.33600156  0.33463049  0.49616085  1
  Au  Au277  1  0.16762563  0.33114765  0.00079178  1
  Au  Au278  1  0.16875095  0.49807531  0.83737697  1
  Au  Au279  1  0.66862375  0.67186083  0.49789106  1
  Au  Au280  1  0.83125751  0.49935583  0.82343261  1
  Au  Au281  1  0.17119890  0.15858342  -0.00089575  1
  Au  Au282  1  0.50162476  0.31607288  0.31709842  1
  Au  Au283  1  0.32958778  0.67145168  0.49851080  1
  Au  Au284  1  0.50082851  0.83016961  0.66572036  1
  Au  Au285  1  0.33773788  0.17281478  0.00093628  1
  Au  Au286  1  0.82181510  0.50302977  0.33616417  1
  Au  Au287  1  0.50279348  0.34294554  0.66411542  1
