# generated using pymatgen
data_Ca24Ti8Al207Au49
_symmetry_space_group_name_H-M   'P 1'
_cell_length_a   17.31847281
_cell_length_b   17.31879705
_cell_length_c   17.31974329
_cell_angle_alpha   90.00150719
_cell_angle_beta   89.99830144
_cell_angle_gamma   89.99783004
_symmetry_Int_Tables_number   1
_chemical_formula_structural   Ca24Ti8Al207Au49
_chemical_formula_sum   'Ca24 Ti8 Al207 Au49'
_cell_volume   5194.79920160
_cell_formula_units_Z   1
loop_
 _symmetry_equiv_pos_site_id
 _symmetry_equiv_pos_as_xyz
  1  'x, y, z'
loop_
 _atom_site_type_symbol
 _atom_site_label
 _atom_site_symmetry_multiplicity
 _atom_site_fract_x
 _atom_site_fract_y
 _atom_site_fract_z
 _atom_site_occupancy
  Ca  Ca0  1  0.24756353  -0.00032335  -0.00255621  1
  Ca  Ca1  1  0.24963143  0.00014744  0.50006100  1
  Ca  Ca2  1  0.24509574  0.50057150  -0.00189390  1
  Ca  Ca3  1  0.25152576  0.50030730  0.50317250  1
  Ca  Ca4  1  0.75197163  -0.00194323  0.00219542  1
  Ca  Ca5  1  0.74635598  -0.00142673  0.49590527  1
  Ca  Ca6  1  0.75018522  0.50082531  -0.00223037  1
  Ca  Ca7  1  0.74441190  0.50147995  0.50303855  1
  Ca  Ca8  1  -0.00160865  0.25373527  0.00143246  1
  Ca  Ca9  1  0.00198171  0.25102688  0.49372104  1
  Ca  Ca10  1  -0.00829896  0.75218455  0.00002805  1
  Ca  Ca11  1  0.00354998  0.74748964  0.50184101  1
  Ca  Ca12  1  0.50245739  0.25731209  -0.00610430  1
  Ca  Ca13  1  0.49993079  0.25657977  0.50371768  1
  Ca  Ca14  1  0.50739145  0.75209709  -0.00226259  1
  Ca  Ca15  1  0.50031672  0.74890697  0.50001027  1
  Ca  Ca16  1  0.00053619  0.00015013  0.25184710  1
  Ca  Ca17  1  0.00045235  -0.00274454  0.75151550  1
  Ca  Ca18  1  0.00046422  0.49713910  0.24881910  1
  Ca  Ca19  1  -0.00366902  0.50170679  0.75134066  1
  Ca  Ca20  1  0.50013337  0.00159009  0.25419400  1
  Ca  Ca21  1  0.49972126  0.00207239  0.74972013  1
  Ca  Ca22  1  0.50418090  0.49679605  0.25463097  1
  Ca  Ca23  1  0.50566978  0.49931500  0.74767527  1
  Ti  Ti24  1  0.24817299  0.25030861  0.25059683  1
  Ti  Ti25  1  0.25186018  0.25164150  0.74854515  1
  Ti  Ti26  1  0.24792020  0.75149010  0.25242680  1
  Ti  Ti27  1  0.24989932  0.74910001  0.74846563  1
  Ti  Ti28  1  0.75001279  0.25038722  0.25105879  1
  Ti  Ti29  1  0.74834300  0.25258564  0.75078523  1
  Ti  Ti30  1  0.74961570  0.75081537  0.24807945  1
  Ti  Ti31  1  0.75061703  0.74860893  0.75110928  1
  Al  Al32  1  0.08023739  0.08758117  0.10133534  1
  Al  Al33  1  0.08660671  0.07896271  0.57260435  1
  Al  Al34  1  0.08466145  0.57273066  0.09100142  1
  Al  Al35  1  0.09883630  0.58593927  0.58394676  1
  Al  Al36  1  0.58912166  0.07835598  0.07793662  1
  Al  Al37  1  0.57787482  0.08331816  0.57896517  1
  Al  Al38  1  0.59208148  0.58432085  0.07417915  1
  Al  Al39  1  0.58461799  0.57720142  0.58565229  1
  Al  Al40  1  0.41877355  0.41904523  0.08520173  1
  Al  Al41  1  0.41004917  0.41320894  0.58868455  1
  Al  Al42  1  0.42069946  0.91973870  0.07565054  1
  Al  Al43  1  0.41051347  0.92405741  0.58583668  1
  Al  Al44  1  0.91260973  0.41196640  0.07123873  1
  Al  Al45  1  0.91510711  0.41971602  0.58606731  1
  Al  Al46  1  0.90962859  0.92267451  0.08186953  1
  Al  Al47  1  0.91913333  0.91498882  0.58056871  1
  Al  Al48  1  0.40854855  0.08611575  0.43092495  1
  Al  Al49  1  0.42231514  0.07239351  0.91398264  1
  Al  Al50  1  0.42370756  0.58387647  0.42473721  1
  Al  Al51  1  0.42711576  0.57914492  0.91294359  1
  Al  Al52  1  0.91468318  0.08314573  0.41278750  1
  Al  Al53  1  0.91739584  0.07432341  0.92737218  1
  Al  Al54  1  0.92646111  0.58181188  0.41931444  1
  Al  Al55  1  0.90420914  0.58519857  0.91079217  1
  Al  Al56  1  0.08582134  0.42342624  0.42178510  1
  Al  Al57  1  0.08556490  0.41368773  0.92271037  1
  Al  Al58  1  0.09395529  0.91587893  0.41553510  1
  Al  Al59  1  0.07317498  0.91067531  0.91406602  1
  Al  Al60  1  0.59092044  0.41717841  0.42036754  1
  Al  Al61  1  0.60127104  0.41877928  0.91203332  1
  Al  Al62  1  0.58575858  0.91199714  0.40393423  1
  Al  Al63  1  0.58583671  0.91047404  0.91184567  1
  Al  Al64  1  0.09312346  0.07918333  0.40724780  1
  Al  Al65  1  0.07798538  0.07472338  0.92948976  1
  Al  Al66  1  0.09035474  0.58984352  0.41992141  1
  Al  Al67  1  0.06959327  0.57689564  0.91552875  1
  Al  Al68  1  0.59177777  0.07349588  0.41516891  1
  Al  Al69  1  0.58692222  0.07835201  0.91691684  1
  Al  Al70  1  0.58677362  0.57922500  0.41414496  1
  Al  Al71  1  0.59917797  0.58313008  0.91165374  1
  Al  Al72  1  0.41594461  0.41105827  0.42815298  1
  Al  Al73  1  0.42089406  0.41908274  0.91640052  1
  Al  Al74  1  0.42343605  0.90986295  0.41610209  1
  Al  Al75  1  0.42262771  0.91090474  0.90747758  1
  Al  Al76  1  0.91902140  0.42004645  0.42120352  1
  Al  Al77  1  0.90061428  0.41878571  0.91120080  1
  Al  Al78  1  0.91616026  0.91939422  0.41809246  1
  Al  Al79  1  0.91352112  0.90093524  0.91972720  1
  Al  Al80  1  0.09556378  0.41288275  0.08392923  1
  Al  Al81  1  0.09207198  0.42448486  0.59056378  1
  Al  Al82  1  0.08416656  0.92689532  0.08694309  1
  Al  Al83  1  0.08869017  0.90819070  0.57842237  1
  Al  Al84  1  0.59299289  0.41145146  0.07515132  1
  Al  Al85  1  0.58666544  0.41466560  0.58370046  1
  Al  Al86  1  0.59003812  0.91370022  0.08102721  1
  Al  Al87  1  0.57939160  0.91927655  0.57612340  1
  Al  Al88  1  0.41998791  0.07635787  0.07550667  1
  Al  Al89  1  0.40236451  0.08635791  0.58903057  1
  Al  Al90  1  0.42065449  0.57290715  0.08226018  1
  Al  Al91  1  0.41208690  0.57627203  0.59068334  1
  Al  Al92  1  0.91576453  0.08627475  0.09577106  1
  Al  Al93  1  0.91740399  0.07591697  0.57163255  1
  Al  Al94  1  0.91251869  0.58810602  0.07326500  1
  Al  Al95  1  0.91734746  0.57662623  0.58294222  1
  Al  Al96  1  0.24291541  0.13239413  0.13658638  1
  Al  Al97  1  0.25271271  0.13278388  0.63025460  1
  Al  Al98  1  0.24627890  0.63480381  0.13647332  1
  Al  Al99  1  0.24823596  0.63281631  0.63280539  1
  Al  Al100  1  0.75372852  0.13167808  0.13589058  1
  Al  Al101  1  0.74393012  0.13607941  0.63518035  1
  Al  Al102  1  0.74762107  0.62888090  0.13480442  1
  Al  Al103  1  0.74775864  0.62689456  0.63831216  1
  Al  Al104  1  0.24374345  0.36461074  0.13309633  1
  Al  Al105  1  0.25466253  0.36804379  0.63208830  1
  Al  Al106  1  0.24501174  0.86567269  0.13765055  1
  Al  Al107  1  0.24893918  0.86744262  0.63354522  1
  Al  Al108  1  0.75074310  0.36782785  0.13305715  1
  Al  Al109  1  0.74527361  0.37537815  0.63771731  1
  Al  Al110  1  0.74895542  0.86571231  0.12933247  1
  Al  Al111  1  0.74720890  0.86539802  0.63818751  1
  Al  Al112  1  0.24631869  0.13629565  0.36508209  1
  Al  Al113  1  0.25171677  0.13828179  0.86447638  1
  Al  Al114  1  0.24662525  0.64006094  0.37401967  1
  Al  Al115  1  0.24889635  0.63366209  0.86054043  1
  Al  Al116  1  0.75121902  0.12956826  0.36197668  1
  Al  Al117  1  0.74912157  0.13858760  0.87040699  1
  Al  Al118  1  0.74596924  0.63549448  0.36491628  1
  Al  Al119  1  0.74872661  0.63097322  0.86584993  1
  Al  Al120  1  0.25214687  0.36128208  0.36662229  1
  Al  Al121  1  0.24698047  0.36725061  0.86600662  1
  Al  Al122  1  0.24194642  0.86591263  0.37134004  1
  Al  Al123  1  0.25203289  0.86024923  0.86339896  1
  Al  Al124  1  0.74446813  0.36836238  0.36715009  1
  Al  Al125  1  0.74956657  0.37156488  0.86518656  1
  Al  Al126  1  0.74877615  0.87218059  0.36120600  1
  Al  Al127  1  0.75029514  0.86076720  0.87358712  1
  Al  Al128  1  0.13212570  0.24885326  0.13775362  1
  Al  Al129  1  0.14032363  0.24963859  0.63416896  1
  Al  Al130  1  0.13087440  0.75208570  0.13950372  1
  Al  Al131  1  0.13703815  0.74941039  0.63072111  1
  Al  Al132  1  0.64159059  0.25091847  0.13094884  1
  Al  Al133  1  0.63758797  0.25471705  0.62931982  1
  Al  Al134  1  0.64015283  0.74953170  0.12851541  1
  Al  Al135  1  0.63584036  0.74887750  0.63854737  1
  Al  Al136  1  0.12929044  0.24783661  0.36489679  1
  Al  Al137  1  0.13687718  0.25173636  0.86465059  1
  Al  Al138  1  0.13409023  0.75197165  0.36778317  1
  Al  Al139  1  0.13397403  0.75049179  0.86069689  1
  Al  Al140  1  0.63988725  0.24966274  0.37213800  1
  Al  Al141  1  0.63511368  0.25506727  0.86822884  1
  Al  Al142  1  0.63610082  0.75427867  0.36271718  1
  Al  Al143  1  0.63556421  0.74663973  0.86947492  1
  Al  Al144  1  0.35918869  0.24765150  0.13220808  1
  Al  Al145  1  0.36332328  0.25024604  0.62956958  1
  Al  Al146  1  0.36070578  0.75583206  0.13714356  1
  Al  Al147  1  0.36217931  0.74771402  0.63250265  1
  Al  Al148  1  0.86373312  0.24994116  0.13692952  1
  Al  Al149  1  0.85925267  0.25496401  0.63939692  1
  Al  Al150  1  0.86491432  0.75344669  0.13442998  1
  Al  Al151  1  0.86150637  0.74882744  0.63827870  1
  Al  Al152  1  0.36312435  0.24868011  0.36825333  1
  Al  Al153  1  0.37163071  0.25289525  0.86146709  1
  Al  Al154  1  0.36411304  0.75051749  0.36745379  1
  Al  Al155  1  0.37385794  0.74699691  0.85947500  1
  Al  Al156  1  0.86766184  0.24956435  0.36133789  1
  Al  Al157  1  0.85952439  0.25863164  0.87079169  1
  Al  Al158  1  0.86159483  0.75355990  0.36167204  1
  Al  Al159  1  0.86312234  0.75055516  0.86668834  1
  Al  Al160  1  0.13098266  0.13440199  0.25059409  1
  Al  Al161  1  0.14070564  0.13409681  0.74519386  1
  Al  Al162  1  0.13522705  0.63694552  0.25075248  1
  Al  Al163  1  0.13625503  0.63048790  0.74683576  1
  Al  Al164  1  0.63701277  0.13520274  0.25205897  1
  Al  Al165  1  0.62882282  0.14202596  0.74974569  1
  Al  Al166  1  0.63834020  0.62943575  0.24932559  1
  Al  Al167  1  0.63704439  0.63059407  0.75312212  1
  Al  Al168  1  0.36063476  0.13446956  0.25105535  1
  Al  Al169  1  0.36779304  0.13706569  0.74650571  1
  Al  Al170  1  0.36164664  0.63802466  0.25122225  1
  Al  Al171  1  0.36481252  0.63273695  0.74588853  1
  Al  Al172  1  0.86813306  0.13173034  0.25030616  1
  Al  Al173  1  0.85870434  0.13269545  0.75428687  1
  Al  Al174  1  0.86248578  0.63521967  0.24652419  1
  Al  Al175  1  0.86057337  0.62812320  0.75347976  1
  Al  Al176  1  0.13402202  0.36556743  0.24985800  1
  Al  Al177  1  0.13863630  0.36841410  0.74779501  1
  Al  Al178  1  0.13278418  0.87004129  0.25250573  1
  Al  Al179  1  0.13539162  0.86419256  0.74721289  1
  Al  Al180  1  0.63868466  0.36790851  0.24886772  1
  Al  Al181  1  0.63754964  0.37046493  0.75171654  1
  Al  Al182  1  0.63390224  0.86609093  0.25080487  1
  Al  Al183  1  0.63495373  0.86209496  0.75625321  1
  Al  Al184  1  0.36375461  0.35969397  0.24800482  1
  Al  Al185  1  0.36539440  0.36629815  0.74719423  1
  Al  Al186  1  0.36291377  0.86525189  0.25897229  1
  Al  Al187  1  0.36351966  0.86346141  0.74880951  1
  Al  Al188  1  0.86364852  0.36828145  0.25157259  1
  Al  Al189  1  0.86055087  0.37329927  0.75118860  1
  Al  Al190  1  0.86119836  0.87446195  0.24642525  1
  Al  Al191  1  0.86787353  0.86655903  0.75429270  1
  Al  Al192  1  0.81630333  0.50240350  0.32411782  1
  Al  Al193  1  0.68617589  -0.00131447  0.18679966  1
  Al  Al194  1  0.50313283  0.67242277  0.17134742  1
  Al  Al195  1  0.50006055  0.17205736  0.33253840  1
  Al  Al196  1  0.50076619  0.67314555  0.68004072  1
  Al  Al197  1  0.32640298  -0.00075699  0.81511891  1
  Al  Al198  1  0.82904539  0.67129939  0.50021367  1
  Al  Al199  1  0.67390464  0.67917575  0.50164498  1
  Al  Al200  1  -0.00187593  0.32870688  0.82785760  1
  Al  Al201  1  -0.00511106  0.82928554  0.17588004  1
  Al  Al202  1  0.50300569  0.32782122  0.32889459  1
  Al  Al203  1  0.32413072  0.50171479  0.32924847  1
  Al  Al204  1  0.33042171  0.67067669  -0.00052090  1
  Al  Al205  1  0.00071471  0.66823423  0.67147971  1
  Al  Al206  1  0.68216941  0.00050591  0.81958736  1
  Al  Al207  1  0.31367359  0.49838292  0.17491241  1
  Al  Al208  1  -0.00022670  0.16912029  0.82518549  1
  Al  Al209  1  0.32270853  0.82134295  0.50067953  1
  Al  Al210  1  0.17468251  0.18213664  0.00165605  1
  Al  Al211  1  0.49704501  0.82812080  0.18842004  1
  Al  Al212  1  -0.00164744  0.32142850  0.17572859  1
  Al  Al213  1  0.81918346  0.17486614  0.49845774  1
  Al  Al214  1  0.81370988  0.33135348  0.50189573  1
  Al  Al215  1  -0.00046567  0.82209254  0.68300627  1
  Al  Al216  1  0.82416437  0.18024618  0.00098646  1
  Al  Al217  1  0.31883891  0.50006822  0.81335814  1
  Al  Al218  1  0.16702786  0.67098931  -0.00138815  1
  Al  Al219  1  0.32643274  0.82768122  -0.00252758  1
  Al  Al220  1  0.82188288  0.00263175  0.67624726  1
  Al  Al221  1  -0.00110239  0.67989020  0.32162896  1
  Al  Al222  1  -0.00236116  0.17113698  0.66690477  1
  Al  Al223  1  0.17971906  0.32489023  0.49973452  1
  Al  Al224  1  -0.00278634  0.68509353  0.82309898  1
  Al  Al225  1  0.17125529  0.82804109  0.00024509  1
  Al  Al226  1  0.17456060  0.50170153  0.31644973  1
  Al  Al227  1  0.50158701  0.68292838  0.32785431  1
  Al  Al228  1  0.31403062  -0.00034896  0.33077382  1
  Al  Al229  1  0.31678428  -0.00346318  0.17406576  1
  Al  Al230  1  0.80602105  0.68924693  0.00068379  1
  Al  Al231  1  0.00101843  0.32877598  0.67465180  1
  Al  Al232  1  0.50016331  0.83060089  0.68522348  1
  Al  Al233  1  0.50020677  0.17152568  0.17059834  1
  Al  Al234  1  0.50170469  0.32243411  0.67957636  1
  Al  Al235  1  0.50271241  0.32775812  0.17333311  1
  Al  Al236  1  0.16999231  -0.00060549  0.82100243  1
  Al  Al237  1  0.81810636  0.82350072  0.49975386  1
  Al  Al238  1  0.31764025  0.32376373  0.00030304  1
  Au  Au239  1  0.31811768  0.00142648  0.15754126  1
  Au  Au240  1  0.66800392  0.17816402  -0.00221189  1
  Au  Au241  1  0.33032787  0.00015315  0.33626691  1
  Au  Au242  1  0.67049426  0.16886128  0.49906935  1
  Au  Au243  1  0.00071747  0.16283397  0.32590389  1
  Au  Au244  1  0.83041873  0.00121324  0.66690233  1
  Au  Au245  1  0.49763314  0.17209698  0.34845330  1
  Au  Au246  1  -0.00025679  0.32787674  0.16015784  1
  Au  Au247  1  0.33393020  0.50047904  0.82139102  1
  Au  Au248  1  0.32215459  0.83385641  0.50249540  1
  Au  Au249  1  0.49631939  0.83766457  0.17411357  1
  Au  Au250  1  0.33952666  0.49604970  0.32832294  1
  Au  Au251  1  -0.00069868  0.82662397  0.67095983  1
  Au  Au252  1  0.00126264  0.82844096  0.34069551  1
  Au  Au253  1  0.66308118  0.00168959  0.67264734  1
  Au  Au254  1  0.82619536  0.00001337  0.32686235  1
  Au  Au255  1  0.17673358  0.33596905  0.50497412  1
  Au  Au256  1  0.00249157  0.33400016  0.33536320  1
  Au  Au257  1  0.66922917  0.83054002  0.49617257  1
  Au  Au258  1  -0.00276482  0.17749264  0.65113839  1
  Au  Au259  1  0.82992080  0.32548973  0.50203347  1
  Au  Au260  1  0.15916915  0.49885193  0.82405028  1
  Au  Au261  1  0.50127301  0.16578819  0.83221820  1
  Au  Au262  1  0.66518287  0.49713712  0.16994191  1
  Au  Au263  1  0.17450774  -0.00377412  0.83712343  1
  Au  Au264  1  0.50221799  0.65687359  0.17938639  1
  Au  Au265  1  0.32615072  0.33841034  0.00117381  1
  Au  Au266  1  0.15072690  0.67463988  0.00042283  1
  Au  Au267  1  0.50742903  0.33810162  0.82922752  1
  Au  Au268  1  0.16078448  0.17302953  0.00619466  1
  Au  Au269  1  0.33494230  0.16334022  -0.00925177  1
  Au  Au270  1  0.83070657  0.49811539  0.15788844  1
  Au  Au271  1  0.34623719  0.67648960  0.00088905  1
  Au  Au272  1  0.67620126  0.00032924  0.17274001  1
  Au  Au273  1  0.17733119  -0.00065927  0.65964085  1
  Au  Au274  1  0.49604462  0.17387561  0.66138155  1
  Au  Au275  1  -0.00290597  0.17497050  0.84085353  1
  Au  Au276  1  0.82838326  0.50445934  0.33581846  1
  Au  Au277  1  -0.00292202  0.65753475  0.17426763  1
  Au  Au278  1  0.49955473  0.17702333  0.15449407  1
  Au  Au279  1  0.82952549  -0.00719230  0.84058199  1
  Au  Au280  1  0.50834738  0.66945959  0.83061611  1
  Au  Au281  1  -0.00004312  0.83392495  0.16546122  1
  Au  Au282  1  0.67580891  0.82025497  -0.00167049  1
  Au  Au283  1  0.83334690  0.17176662  0.00304719  1
  Au  Au284  1  0.49677041  0.82928135  0.66881887  1
  Au  Au285  1  0.32488130  0.66517037  0.50433529  1
  Au  Au286  1  0.18046194  0.16828834  0.49625481  1
  Au  Au287  1  0.82571080  0.50171756  0.67548159  1
