# generated using pymatgen
data_Ca24Ti8Al207Au49
_symmetry_space_group_name_H-M   'P 1'
_cell_length_a   17.32274574
_cell_length_b   17.31936391
_cell_length_c   17.32265878
_cell_angle_alpha   89.99958671
_cell_angle_beta   89.99641668
_cell_angle_gamma   90.00639378
_symmetry_Int_Tables_number   1
_chemical_formula_structural   Ca24Ti8Al207Au49
_chemical_formula_sum   'Ca24 Ti8 Al207 Au49'
_cell_volume   5197.12563535
_cell_formula_units_Z   1
loop_
 _symmetry_equiv_pos_site_id
 _symmetry_equiv_pos_as_xyz
  1  'x, y, z'
loop_
 _atom_site_type_symbol
 _atom_site_label
 _atom_site_symmetry_multiplicity
 _atom_site_fract_x
 _atom_site_fract_y
 _atom_site_fract_z
 _atom_site_occupancy
  Ca  Ca0  1  0.24996262  0.00697319  -0.00325911  1
  Ca  Ca1  1  0.25036335  -0.00042220  0.50148216  1
  Ca  Ca2  1  0.25320936  0.49133659  -0.00062340  1
  Ca  Ca3  1  0.24728236  0.49772202  0.49971999  1
  Ca  Ca4  1  0.75492257  0.00096990  0.00379252  1
  Ca  Ca5  1  0.74859032  0.00282268  0.49948034  1
  Ca  Ca6  1  0.74893144  0.49761795  -0.00085955  1
  Ca  Ca7  1  0.75162938  0.49609192  0.49938121  1
  Ca  Ca8  1  -0.00106196  0.25200611  -0.00042426  1
  Ca  Ca9  1  -0.00145521  0.25137056  0.50049266  1
  Ca  Ca10  1  -0.00116070  0.74921380  -0.00037498  1
  Ca  Ca11  1  0.00139060  0.74406190  0.50158759  1
  Ca  Ca12  1  0.50064120  0.25634387  -0.00021366  1
  Ca  Ca13  1  0.49917800  0.25253624  0.50257797  1
  Ca  Ca14  1  0.50016569  0.74601295  -0.00608252  1
  Ca  Ca15  1  0.49910856  0.75085150  0.50660804  1
  Ca  Ca16  1  -0.00262682  0.00492129  0.24738240  1
  Ca  Ca17  1  0.00242864  0.00302563  0.75649128  1
  Ca  Ca18  1  -0.00287119  0.49268875  0.25154212  1
  Ca  Ca19  1  -0.00080058  0.49597484  0.75182715  1
  Ca  Ca20  1  0.49983581  0.00334078  0.25266367  1
  Ca  Ca21  1  0.49829086  -0.00178303  0.74985563  1
  Ca  Ca22  1  0.50347002  0.49253767  0.24749575  1
  Ca  Ca23  1  0.50194579  0.50421640  0.75803615  1
  Ti  Ti24  1  0.24784350  0.25098710  0.25090787  1
  Ti  Ti25  1  0.24854212  0.24948903  0.74975787  1
  Ti  Ti26  1  0.24943196  0.74809919  0.25162150  1
  Ti  Ti27  1  0.25188299  0.75155125  0.74968892  1
  Ti  Ti28  1  0.75102858  0.25112221  0.25083332  1
  Ti  Ti29  1  0.75115411  0.25065023  0.74871140  1
  Ti  Ti30  1  0.75042554  0.74849606  0.24773447  1
  Ti  Ti31  1  0.74804652  0.74955506  0.75229409  1
  Al  Al32  1  0.08300158  0.09773138  0.07499913  1
  Al  Al33  1  0.08242531  0.09034174  0.58850220  1
  Al  Al34  1  0.07067892  0.57303948  0.07639597  1
  Al  Al35  1  0.08399600  0.58432354  0.57466408  1
  Al  Al36  1  0.58567517  0.08386615  0.08071912  1
  Al  Al37  1  0.58768737  0.07756146  0.57171186  1
  Al  Al38  1  0.59129933  0.58110999  0.07385254  1
  Al  Al39  1  0.57651029  0.58903237  0.59004699  1
  Al  Al40  1  0.42581041  0.40448344  0.08033554  1
  Al  Al41  1  0.41299895  0.41480167  0.57460484  1
  Al  Al42  1  0.42069349  0.92564549  0.07413863  1
  Al  Al43  1  0.41378079  0.91161295  0.59677659  1
  Al  Al44  1  0.91160436  0.41113951  0.09370684  1
  Al  Al45  1  0.92286350  0.41248392  0.59008782  1
  Al  Al46  1  0.90852012  0.92438137  0.08171990  1
  Al  Al47  1  0.92403633  0.92149146  0.58655349  1
  Al  Al48  1  0.42171871  0.08427124  0.42320014  1
  Al  Al49  1  0.40171128  0.08889198  0.91876568  1
  Al  Al50  1  0.41651384  0.58273012  0.42469618  1
  Al  Al51  1  0.42480849  0.58440657  0.91060455  1
  Al  Al52  1  0.91620666  0.08987847  0.41225037  1
  Al  Al53  1  0.92853876  0.08025707  0.92002062  1
  Al  Al54  1  0.91945891  0.57799750  0.41858435  1
  Al  Al55  1  0.91539888  0.58388785  0.91595923  1
  Al  Al56  1  0.08365782  0.40396631  0.41766204  1
  Al  Al57  1  0.08109007  0.40858432  0.91192126  1
  Al  Al58  1  0.08342308  0.92111313  0.42422274  1
  Al  Al59  1  0.08310452  0.92480630  0.90768586  1
  Al  Al60  1  0.57892816  0.40655615  0.40885243  1
  Al  Al61  1  0.58428411  0.41504571  0.91972196  1
  Al  Al62  1  0.58134964  0.92263970  0.42619287  1
  Al  Al63  1  0.58021903  0.91386640  0.91093281  1
  Al  Al64  1  0.08043544  0.08892151  0.41766184  1
  Al  Al65  1  0.09729389  0.08835958  0.91257291  1
  Al  Al66  1  0.08239411  0.58573605  0.41956917  1
  Al  Al67  1  0.07544005  0.57511917  0.91332885  1
  Al  Al68  1  0.59114089  0.09186381  0.41961052  1
  Al  Al69  1  0.58732994  0.08047536  0.92078460  1
  Al  Al70  1  0.58343252  0.57974577  0.41882284  1
  Al  Al71  1  0.58618862  0.58675463  0.91461279  1
  Al  Al72  1  0.41794062  0.40093885  0.41383602  1
  Al  Al73  1  0.42125008  0.40921464  0.91698549  1
  Al  Al74  1  0.41926715  0.92249762  0.42785574  1
  Al  Al75  1  0.41888828  0.91698716  0.90876664  1
  Al  Al76  1  0.92236461  0.40960013  0.40820287  1
  Al  Al77  1  0.91830552  0.40917613  0.91539427  1
  Al  Al78  1  0.91955426  0.92700992  0.41600359  1
  Al  Al79  1  0.92360239  0.91058664  0.91800638  1
  Al  Al80  1  0.07451724  0.40483830  0.08384770  1
  Al  Al81  1  0.08442385  0.40257743  0.58170919  1
  Al  Al82  1  0.07120355  0.92803626  0.07532432  1
  Al  Al83  1  0.08466490  0.91622311  0.58593114  1
  Al  Al84  1  0.58877618  0.40770669  0.08337818  1
  Al  Al85  1  0.57973583  0.42077005  0.57397062  1
  Al  Al86  1  0.58455465  0.92031949  0.08162949  1
  Al  Al87  1  0.57482810  0.91142755  0.58638223  1
  Al  Al88  1  0.40784936  0.09033360  0.07672879  1
  Al  Al89  1  0.40730844  0.07074656  0.58481813  1
  Al  Al90  1  0.42920784  0.57405950  0.07091185  1
  Al  Al91  1  0.41834428  0.59509635  0.58785857  1
  Al  Al92  1  0.92016565  0.08388461  0.09076995  1
  Al  Al93  1  0.92086279  0.09022008  0.58587423  1
  Al  Al94  1  0.90618045  0.57398120  0.08853281  1
  Al  Al95  1  0.91865926  0.57452025  0.57827177  1
  Al  Al96  1  0.24891407  0.14089965  0.13060967  1
  Al  Al97  1  0.24892306  0.13692266  0.63089109  1
  Al  Al98  1  0.24866737  0.63276137  0.13704508  1
  Al  Al99  1  0.25112868  0.63491997  0.63045333  1
  Al  Al100  1  0.75165540  0.13545304  0.13588676  1
  Al  Al101  1  0.75155684  0.13780238  0.62931234  1
  Al  Al102  1  0.74961394  0.63099486  0.13071632  1
  Al  Al103  1  0.74745535  0.63570896  0.63762436  1
  Al  Al104  1  0.24745254  0.36233545  0.13501068  1
  Al  Al105  1  0.24991253  0.36543305  0.63717860  1
  Al  Al106  1  0.25128198  0.85938622  0.13536383  1
  Al  Al107  1  0.25261200  0.86782300  0.63725544  1
  Al  Al108  1  0.75046862  0.37165341  0.13849528  1
  Al  Al109  1  0.74944905  0.36300044  0.62991917  1
  Al  Al110  1  0.75072789  0.86706959  0.13341372  1
  Al  Al111  1  0.75043105  0.86437715  0.63968918  1
  Al  Al112  1  0.24845157  0.14108569  0.37169902  1
  Al  Al113  1  0.24817494  0.13238515  0.86475339  1
  Al  Al114  1  0.24914718  0.63119317  0.36977126  1
  Al  Al115  1  0.25387706  0.63698972  0.86110684  1
  Al  Al116  1  0.75228854  0.13577564  0.36804974  1
  Al  Al117  1  0.75101047  0.13984584  0.86400831  1
  Al  Al118  1  0.74898212  0.62733374  0.36167893  1
  Al  Al119  1  0.74695634  0.63901045  0.87476946  1
  Al  Al120  1  0.24656461  0.36823118  0.36233363  1
  Al  Al121  1  0.24702677  0.36114106  0.86500323  1
  Al  Al122  1  0.24956503  0.86370369  0.36503355  1
  Al  Al123  1  0.25288329  0.87224068  0.85987614  1
  Al  Al124  1  0.75164542  0.36804253  0.36898647  1
  Al  Al125  1  0.75316851  0.36303999  0.86422974  1
  Al  Al126  1  0.75243702  0.86968664  0.36125598  1
  Al  Al127  1  0.74825087  0.86196085  0.86328937  1
  Al  Al128  1  0.13477086  0.25156473  0.12931409  1
  Al  Al129  1  0.13604564  0.25266361  0.63111816  1
  Al  Al130  1  0.12815389  0.75240946  0.13447812  1
  Al  Al131  1  0.13754853  0.75080147  0.63781424  1
  Al  Al132  1  0.63587983  0.25775870  0.13251339  1
  Al  Al133  1  0.63464614  0.24958616  0.62973638  1
  Al  Al134  1  0.63535031  0.74677986  0.13285532  1
  Al  Al135  1  0.63319068  0.74983645  0.63706842  1
  Al  Al136  1  0.13053113  0.25438142  0.37085132  1
  Al  Al137  1  0.13314203  0.24857526  0.86913561  1
  Al  Al138  1  0.13500014  0.74624719  0.36612015  1
  Al  Al139  1  0.13668378  0.75814877  0.86450011  1
  Al  Al140  1  0.63918208  0.25304881  0.36752611  1
  Al  Al141  1  0.63345061  0.25717427  0.86891725  1
  Al  Al142  1  0.63861317  0.74642023  0.36264699  1
  Al  Al143  1  0.62633413  0.74882137  0.86591217  1
  Al  Al144  1  0.36449983  0.25182897  0.13532986  1
  Al  Al145  1  0.36636720  0.24940642  0.63908786  1
  Al  Al146  1  0.36538912  0.74684802  0.13640665  1
  Al  Al147  1  0.36619225  0.75083469  0.63828883  1
  Al  Al148  1  0.86572526  0.25574590  0.13842826  1
  Al  Al149  1  0.86568759  0.25286786  0.62953487  1
  Al  Al150  1  0.86903569  0.74383922  0.13809124  1
  Al  Al151  1  0.86356005  0.74990503  0.63923696  1
  Al  Al152  1  0.36495750  0.25306095  0.36492672  1
  Al  Al153  1  0.36196011  0.24727358  0.86302520  1
  Al  Al154  1  0.36540752  0.74599227  0.36678178  1
  Al  Al155  1  0.37080152  0.75040240  0.85846086  1
  Al  Al156  1  0.86895288  0.25223739  0.36577299  1
  Al  Al157  1  0.87324954  0.25137386  0.86343158  1
  Al  Al158  1  0.86344041  0.74893346  0.35800624  1
  Al  Al159  1  0.86555854  0.74827520  0.86654155  1
  Al  Al160  1  0.13464694  0.14345907  0.25317691  1
  Al  Al161  1  0.13468963  0.13640420  0.75336819  1
  Al  Al162  1  0.13625792  0.63197109  0.24972474  1
  Al  Al163  1  0.13748447  0.63608577  0.75044225  1
  Al  Al164  1  0.63593937  0.13689120  0.24844017  1
  Al  Al165  1  0.63503111  0.13881414  0.75144910  1
  Al  Al166  1  0.63576276  0.62674566  0.24707255  1
  Al  Al167  1  0.63503981  0.63416144  0.75573400  1
  Al  Al168  1  0.36296887  0.13771387  0.24915719  1
  Al  Al169  1  0.36220258  0.12761995  0.75015252  1
  Al  Al170  1  0.36529004  0.63122013  0.25436141  1
  Al  Al171  1  0.36411814  0.62845314  0.74954777  1
  Al  Al172  1  0.86513649  0.13480345  0.25154890  1
  Al  Al173  1  0.86633452  0.13682429  0.75061661  1
  Al  Al174  1  0.86107640  0.62583416  0.24674376  1
  Al  Al175  1  0.86204401  0.63391645  0.75593627  1
  Al  Al176  1  0.12872879  0.36227920  0.25025511  1
  Al  Al177  1  0.12975807  0.36115133  0.74935581  1
  Al  Al178  1  0.13392974  0.86410729  0.24942003  1
  Al  Al179  1  0.13378017  0.86963625  0.75263909  1
  Al  Al180  1  0.63693466  0.36725691  0.25056910  1
  Al  Al181  1  0.63489879  0.36273540  0.75216108  1
  Al  Al182  1  0.63407043  0.86527599  0.24640037  1
  Al  Al183  1  0.62732487  0.86227128  0.75016308  1
  Al  Al184  1  0.36589582  0.36406617  0.25087016  1
  Al  Al185  1  0.36353334  0.36814545  0.75428795  1
  Al  Al186  1  0.36576954  0.86289513  0.25206720  1
  Al  Al187  1  0.36957720  0.87071548  0.74914728  1
  Al  Al188  1  0.86373199  0.36853638  0.25126171  1
  Al  Al189  1  0.86902930  0.36122995  0.74937280  1
  Al  Al190  1  0.86614050  0.87009634  0.24702696  1
  Al  Al191  1  0.86908578  0.86611589  0.75652167  1
  Al  Al192  1  0.67054345  0.49879451  0.67290370  1
  Al  Al193  1  -0.00128376  0.66806076  0.67232128  1
  Al  Al194  1  0.67402310  0.81833789  0.50051451  1
  Al  Al195  1  0.18523683  0.00275747  0.68425798  1
  Al  Al196  1  0.16706435  0.49595304  0.17939440  1
  Al  Al197  1  0.49811797  0.67641744  0.32259634  1
  Al  Al198  1  0.17098250  0.66937606  -0.00178846  1
  Al  Al199  1  0.17521557  0.00271508  0.16815499  1
  Al  Al200  1  0.33055260  0.49816319  0.17407939  1
  Al  Al201  1  0.81436302  0.32486435  0.00194618  1
  Al  Al202  1  0.50179742  0.18811251  0.32568491  1
  Al  Al203  1  0.68072684  0.00019502  0.82361585  1
  Al  Al204  1  0.82679823  0.81608922  0.00139646  1
  Al  Al205  1  0.68050625  0.18766381  0.00040684  1
  Al  Al206  1  0.00093082  0.19174138  0.68369434  1
  Al  Al207  1  0.32777114  0.82702265  -0.00287217  1
  Al  Al208  1  0.17035176  0.83146028  -0.00162339  1
  Al  Al209  1  0.83291760  0.17306384  0.00115851  1
  Al  Al210  1  0.32815781  0.00156205  0.32951333  1
  Al  Al211  1  0.49989920  0.18703721  0.17156246  1
  Al  Al212  1  0.00104931  0.82086752  0.68670839  1
  Al  Al213  1  0.49557849  0.82420501  0.17434348  1
  Al  Al214  1  0.17488551  0.81673320  0.50111966  1
  Al  Al215  1  -0.00010052  0.18947972  0.17950718  1
  Al  Al216  1  0.82469175  0.00294033  0.68184414  1
  Al  Al217  1  0.32671086  0.00042313  0.17390400  1
  Al  Al218  1  0.32712129  0.82166006  0.50190750  1
  Al  Al219  1  0.50045588  0.16712144  0.67090113  1
  Al  Al220  1  0.49962231  0.69227859  0.69761521  1
  Al  Al221  1  0.67840325  0.00130291  0.18381859  1
  Al  Al222  1  0.31000432  0.31656196  0.50032180  1
  Al  Al223  1  0.31940872  0.31260396  -0.00071701  1
  Al  Al224  1  0.83321929  0.82323431  0.49918902  1
  Al  Al225  1  0.49924041  0.18146509  0.83065426  1
  Al  Al226  1  0.00247629  0.68632105  0.82416573  1
  Al  Al227  1  0.18017767  0.49801461  0.82805834  1
  Al  Al228  1  0.82435103  0.49854216  0.67987555  1
  Al  Al229  1  0.32975039  0.67312821  -0.00162861  1
  Al  Al230  1  -0.00175006  0.67218008  0.31931524  1
  Al  Al231  1  0.17458055  0.00267019  0.32759662  1
  Al  Al232  1  0.67272208  0.81680512  -0.00150016  1
  Al  Al233  1  0.00169610  0.82841854  0.32422469  1
  Al  Al234  1  0.66898935  -0.00113869  0.67236643  1
  Al  Al235  1  0.81951798  0.67207881  0.49868232  1
  Al  Al236  1  0.68167822  0.49891579  0.82763214  1
  Al  Al237  1  0.17240817  0.49918171  0.67317846  1
  Al  Al238  1  0.49990552  0.33051551  0.68339600  1
  Au  Au239  1  0.66910646  0.82913859  -0.00130172  1
  Au  Au240  1  0.00291173  0.17500893  0.83124316  1
  Au  Au241  1  0.82497866  0.16569899  0.49935379  1
  Au  Au242  1  0.49742542  0.83305550  0.16561073  1
  Au  Au243  1  -0.00364301  0.65871108  0.17134034  1
  Au  Au244  1  0.50380596  0.66817560  0.15799642  1
  Au  Au245  1  0.66886894  0.66636128  0.50336209  1
  Au  Au246  1  0.83604664  0.33350259  0.50018324  1
  Au  Au247  1  0.50253900  0.18138813  0.34118261  1
  Au  Au248  1  0.82554008  0.83841945  0.49982859  1
  Au  Au249  1  0.33565962  0.49569713  0.33917313  1
  Au  Au250  1  0.66730032  0.49522451  0.33136310  1
  Au  Au251  1  0.00086285  0.82567532  0.67466488  1
  Au  Au252  1  0.16103220  0.49843644  0.66531858  1
  Au  Au253  1  0.32204807  0.67299643  0.50124190  1
  Au  Au254  1  0.67559140  0.17562910  0.00043181  1
  Au  Au255  1  0.32550835  0.00097242  0.82750008  1
  Au  Au256  1  0.49851007  0.82039481  0.81782642  1
  Au  Au257  1  0.16429667  0.18024839  0.50023713  1
  Au  Au258  1  0.17401387  0.00231766  0.67137496  1
  Au  Au259  1  0.50106552  0.15823110  0.65793895  1
  Au  Au260  1  0.83532806  0.00295453  0.31932792  1
  Au  Au261  1  0.00394261  0.82813141  0.33686504  1
  Au  Au262  1  -0.00617608  0.83387298  0.16120183  1
  Au  Au263  1  0.50057843  0.83227509  0.33977563  1
  Au  Au264  1  0.16551359  0.49815809  0.34009619  1
  Au  Au265  1  0.33653836  0.50103472  0.66643621  1
  Au  Au266  1  0.67002743  -0.00027202  0.33680612  1
  Au  Au267  1  0.82924507  0.00289418  0.66991226  1
  Au  Au268  1  0.33108486  0.49686647  0.84001925  1
  Au  Au269  1  0.49932789  0.34533595  0.67617414  1
  Au  Au270  1  0.16255487  0.01100569  0.17478633  1
  Au  Au271  1  0.83665881  0.49882797  0.32598807  1
  Au  Au272  1  0.49887998  0.17361586  0.84517226  1
  Au  Au273  1  0.32974140  0.16957397  0.50277152  1
  Au  Au274  1  0.66350884  0.32403419  0.49913684  1
  Au  Au275  1  0.67417853  0.49905551  0.16163150  1
  Au  Au276  1  0.16916069  0.32321524  -0.00152918  1
  Au  Au277  1  0.82652995  0.66556200  0.00260867  1
  Au  Au278  1  0.67587080  0.00154366  0.17136305  1
  Au  Au279  1  0.17723934  0.65352853  -0.00340485  1
  Au  Au280  1  0.82877624  -0.00168540  0.84482707  1
  Au  Au281  1  0.00111819  0.17942062  0.32655029  1
  Au  Au282  1  0.16144953  0.49612470  0.16809405  1
  Au  Au283  1  0.50093339  0.66778443  0.33126196  1
  Au  Au284  1  0.49783461  0.17603849  0.15894763  1
  Au  Au285  1  0.17425620  0.84368513  -0.00336486  1
  Au  Au286  1  0.33813295  0.49637480  0.15991768  1
  Au  Au287  1  0.83340456  0.49539486  0.82897299  1
