# generated using pymatgen
data_Ca24Ti8Al207Au49
_symmetry_space_group_name_H-M   'P 1'
_cell_length_a   17.32447590
_cell_length_b   17.32130925
_cell_length_c   17.32277160
_cell_angle_alpha   89.99800902
_cell_angle_beta   90.00182272
_cell_angle_gamma   90.00108449
_symmetry_Int_Tables_number   1
_chemical_formula_structural   Ca24Ti8Al207Au49
_chemical_formula_sum   'Ca24 Ti8 Al207 Au49'
_cell_volume   5198.26241605
_cell_formula_units_Z   1
loop_
 _symmetry_equiv_pos_site_id
 _symmetry_equiv_pos_as_xyz
  1  'x, y, z'
loop_
 _atom_site_type_symbol
 _atom_site_label
 _atom_site_symmetry_multiplicity
 _atom_site_fract_x
 _atom_site_fract_y
 _atom_site_fract_z
 _atom_site_occupancy
  Ca  Ca0  1  0.24872468  -0.00084467  -0.00638128  1
  Ca  Ca1  1  0.24891525  -0.00141832  0.50344430  1
  Ca  Ca2  1  0.25055752  0.50332593  -0.00042484  1
  Ca  Ca3  1  0.24718007  0.50362657  0.49881639  1
  Ca  Ca4  1  0.74554396  0.00264424  -0.00984909  1
  Ca  Ca5  1  0.74354752  -0.00244659  0.50600070  1
  Ca  Ca6  1  0.74925485  0.49896969  0.00152772  1
  Ca  Ca7  1  0.74695913  0.50013548  0.49928855  1
  Ca  Ca8  1  -0.00294899  0.25080809  -0.00367415  1
  Ca  Ca9  1  -0.00135005  0.25419222  0.50145819  1
  Ca  Ca10  1  -0.00185949  0.74672109  -0.00075306  1
  Ca  Ca11  1  0.00189510  0.75032395  0.49909810  1
  Ca  Ca12  1  0.50599363  0.24985852  -0.00147618  1
  Ca  Ca13  1  0.49832017  0.25000461  0.50017785  1
  Ca  Ca14  1  0.50027431  0.74736621  -0.00107160  1
  Ca  Ca15  1  0.49727895  0.74836224  0.50196695  1
  Ca  Ca16  1  0.00188624  -0.00055649  0.24473491  1
  Ca  Ca17  1  -0.00287257  0.00231591  0.75142473  1
  Ca  Ca18  1  -0.00035017  0.49790473  0.24722318  1
  Ca  Ca19  1  0.00166345  0.49678161  0.74972094  1
  Ca  Ca20  1  0.50215265  -0.00271121  0.24241133  1
  Ca  Ca21  1  0.50267500  -0.00096342  0.75090631  1
  Ca  Ca22  1  0.50117499  0.50281370  0.24686286  1
  Ca  Ca23  1  0.49832928  0.50615628  0.75596341  1
  Ti  Ti24  1  0.24938056  0.25532401  0.24810762  1
  Ti  Ti25  1  0.24976136  0.24982966  0.75216576  1
  Ti  Ti26  1  0.25093069  0.74638341  0.24977996  1
  Ti  Ti27  1  0.24972540  0.75030875  0.75104847  1
  Ti  Ti28  1  0.74952937  0.25265593  0.24887469  1
  Ti  Ti29  1  0.74927131  0.24965592  0.75211621  1
  Ti  Ti30  1  0.74831792  0.74858173  0.25058626  1
  Ti  Ti31  1  0.74863170  0.75072561  0.74897876  1
  Al  Al32  1  0.07938407  0.08174875  0.07763203  1
  Al  Al33  1  0.08229839  0.07977894  0.60372376  1
  Al  Al34  1  0.08439932  0.58124137  0.08400746  1
  Al  Al35  1  0.08434997  0.58467151  0.58102592  1
  Al  Al36  1  0.58851762  0.08687702  0.07000418  1
  Al  Al37  1  0.59134288  0.08574384  0.58235009  1
  Al  Al38  1  0.58101591  0.57969552  0.07967734  1
  Al  Al39  1  0.58510044  0.59814043  0.58551164  1
  Al  Al40  1  0.41780663  0.42580107  0.08706406  1
  Al  Al41  1  0.42106092  0.42011292  0.58295046  1
  Al  Al42  1  0.42117672  0.90931040  0.09189486  1
  Al  Al43  1  0.41509198  0.91196846  0.58393329  1
  Al  Al44  1  0.91205251  0.41359957  0.09413652  1
  Al  Al45  1  0.92771385  0.41683813  0.58595036  1
  Al  Al46  1  0.92111076  0.91584336  0.07009301  1
  Al  Al47  1  0.91737107  0.92613318  0.58785744  1
  Al  Al48  1  0.43327830  0.07605539  0.42019620  1
  Al  Al49  1  0.42818280  0.08700005  0.90829731  1
  Al  Al50  1  0.41945841  0.58023020  0.41385222  1
  Al  Al51  1  0.40890024  0.58968987  0.91327294  1
  Al  Al52  1  0.92136576  0.08750650  0.42037244  1
  Al  Al53  1  0.90831614  0.08933275  0.90495208  1
  Al  Al54  1  0.90811442  0.57196950  0.41212411  1
  Al  Al55  1  0.92527393  0.57622242  0.92637175  1
  Al  Al56  1  0.08441215  0.41395688  0.40671983  1
  Al  Al57  1  0.07940707  0.41175738  0.90766970  1
  Al  Al58  1  0.08879370  0.90901082  0.42817597  1
  Al  Al59  1  0.08271335  0.92463385  0.91932456  1
  Al  Al60  1  0.58114505  0.42164680  0.41572321  1
  Al  Al61  1  0.58783459  0.40755629  0.92207023  1
  Al  Al62  1  0.57626203  0.90768181  0.41337195  1
  Al  Al63  1  0.58902585  0.92440631  0.91204102  1
  Al  Al64  1  0.07351072  0.08147164  0.41917102  1
  Al  Al65  1  0.07275502  0.08882987  0.90366043  1
  Al  Al66  1  0.09273512  0.57489969  0.41742752  1
  Al  Al67  1  0.08658624  0.58064278  0.91845291  1
  Al  Al68  1  0.58857840  0.09421012  0.42320700  1
  Al  Al69  1  0.59196006  0.09292372  0.90934742  1
  Al  Al70  1  0.58967348  0.58893249  0.42176165  1
  Al  Al71  1  0.57297876  0.59044645  0.91808417  1
  Al  Al72  1  0.41633277  0.41986248  0.41206356  1
  Al  Al73  1  0.41607270  0.42666296  0.91412333  1
  Al  Al74  1  0.42004315  0.90216917  0.41876335  1
  Al  Al75  1  0.42177600  0.92308752  0.92092590  1
  Al  Al76  1  0.92231509  0.41439456  0.39469059  1
  Al  Al77  1  0.92052277  0.40424518  0.91700104  1
  Al  Al78  1  0.92429363  0.92390830  0.42450487  1
  Al  Al79  1  0.90722844  0.92460310  0.90994510  1
  Al  Al80  1  0.07716041  0.41665605  0.09023795  1
  Al  Al81  1  0.08336630  0.41546977  0.58360517  1
  Al  Al82  1  0.08150656  0.91613006  0.07737044  1
  Al  Al83  1  0.09570910  0.91795498  0.58849740  1
  Al  Al84  1  0.58895651  0.40922661  0.08157700  1
  Al  Al85  1  0.57681452  0.42154036  0.58221074  1
  Al  Al86  1  0.57874759  0.91177244  0.08468112  1
  Al  Al87  1  0.58149886  0.91669308  0.58569469  1
  Al  Al88  1  0.42510344  0.07095247  0.07575805  1
  Al  Al89  1  0.42056532  0.07417240  0.58579239  1
  Al  Al90  1  0.40784967  0.58654014  0.07819910  1
  Al  Al91  1  0.42510981  0.58947393  0.59209483  1
  Al  Al92  1  0.91772872  0.08762491  0.06768683  1
  Al  Al93  1  0.92050605  0.08701384  0.60030540  1
  Al  Al94  1  0.91174450  0.57541056  0.09241025  1
  Al  Al95  1  0.92472487  0.58497924  0.57893188  1
  Al  Al96  1  0.24652095  0.13772565  0.13345039  1
  Al  Al97  1  0.24653094  0.12584994  0.64167839  1
  Al  Al98  1  0.25116734  0.63090406  0.13102703  1
  Al  Al99  1  0.24950182  0.63575309  0.63680370  1
  Al  Al100  1  0.74685050  0.13831040  0.13149022  1
  Al  Al101  1  0.74600127  0.13332740  0.64062735  1
  Al  Al102  1  0.74900987  0.62976786  0.13785182  1
  Al  Al103  1  0.74639498  0.63418854  0.63402469  1
  Al  Al104  1  0.24904790  0.37509566  0.13547763  1
  Al  Al105  1  0.25092807  0.36359387  0.63840695  1
  Al  Al106  1  0.25130058  0.86149939  0.13763351  1
  Al  Al107  1  0.24748936  0.87035947  0.63657100  1
  Al  Al108  1  0.75003137  0.36977361  0.13248191  1
  Al  Al109  1  0.75018241  0.36625424  0.63992922  1
  Al  Al110  1  0.74485522  0.86170011  0.13749228  1
  Al  Al111  1  0.74611729  0.86389073  0.63026978  1
  Al  Al112  1  0.24667259  0.13964929  0.36379362  1
  Al  Al113  1  0.24710776  0.13705465  0.86412813  1
  Al  Al114  1  0.25187931  0.63116534  0.36271548  1
  Al  Al115  1  0.25262328  0.62962213  0.86853878  1
  Al  Al116  1  0.74870855  0.13664687  0.36733811  1
  Al  Al117  1  0.74784935  0.13430002  0.86462209  1
  Al  Al118  1  0.74918541  0.63159470  0.36342802  1
  Al  Al119  1  0.74584428  0.63253695  0.86306665  1
  Al  Al120  1  0.24924803  0.37525690  0.36235790  1
  Al  Al121  1  0.24705451  0.36813527  0.86575850  1
  Al  Al122  1  0.24643447  0.86351480  0.36383420  1
  Al  Al123  1  0.25195932  0.86360623  0.86388748  1
  Al  Al124  1  0.75205631  0.37466397  0.36165969  1
  Al  Al125  1  0.74867739  0.35929232  0.87429329  1
  Al  Al126  1  0.74730002  0.86316158  0.36980373  1
  Al  Al127  1  0.74682561  0.86776097  0.86253123  1
  Al  Al128  1  0.13743596  0.25503874  0.13100134  1
  Al  Al129  1  0.13429731  0.24915143  0.64014506  1
  Al  Al130  1  0.13772521  0.74504836  0.13592051  1
  Al  Al131  1  0.13712282  0.75470060  0.63385933  1
  Al  Al132  1  0.63693010  0.25391371  0.13067528  1
  Al  Al133  1  0.63700044  0.24650180  0.63854933  1
  Al  Al134  1  0.62805655  0.74971728  0.13989073  1
  Al  Al135  1  0.63513585  0.74790552  0.63074101  1
  Al  Al136  1  0.13195753  0.25822643  0.36233827  1
  Al  Al137  1  0.13158117  0.25040604  0.86652344  1
  Al  Al138  1  0.13497511  0.75001864  0.36260703  1
  Al  Al139  1  0.13510135  0.74695130  0.86428632  1
  Al  Al140  1  0.63815997  0.25470251  0.36455486  1
  Al  Al141  1  0.63099060  0.24730293  0.86495990  1
  Al  Al142  1  0.63693163  0.74800952  0.36974310  1
  Al  Al143  1  0.63477648  0.74961263  0.86261881  1
  Al  Al144  1  0.36271150  0.25242274  0.13658866  1
  Al  Al145  1  0.36234506  0.24940870  0.63563336  1
  Al  Al146  1  0.36701358  0.74525760  0.13495906  1
  Al  Al147  1  0.36286613  0.74779973  0.63701837  1
  Al  Al148  1  0.86269887  0.25385940  0.13367035  1
  Al  Al149  1  0.86732027  0.24270834  0.63866807  1
  Al  Al150  1  0.86166689  0.74997466  0.13758297  1
  Al  Al151  1  0.86371020  0.75268467  0.63304843  1
  Al  Al152  1  0.36207656  0.25761579  0.36256672  1
  Al  Al153  1  0.37164185  0.24915353  0.86380908  1
  Al  Al154  1  0.36491429  0.74957587  0.36302840  1
  Al  Al155  1  0.36622403  0.74197244  0.86967333  1
  Al  Al156  1  0.86807022  0.25849446  0.36175514  1
  Al  Al157  1  0.86876124  0.24980248  0.86408994  1
  Al  Al158  1  0.86464177  0.74994174  0.36650771  1
  Al  Al159  1  0.86330462  0.74990530  0.86333385  1
  Al  Al160  1  0.13348943  0.13749211  0.24974174  1
  Al  Al161  1  0.12654630  0.13857960  0.75087128  1
  Al  Al162  1  0.13896024  0.62709316  0.25005855  1
  Al  Al163  1  0.13771822  0.63408783  0.75408500  1
  Al  Al164  1  0.63731695  0.13841965  0.24949548  1
  Al  Al165  1  0.63531707  0.12734728  0.75597812  1
  Al  Al166  1  0.63382613  0.62820144  0.25062727  1
  Al  Al167  1  0.62967393  0.63718329  0.74766929  1
  Al  Al168  1  0.36338799  0.13791296  0.25027429  1
  Al  Al169  1  0.36587667  0.13521059  0.74972020  1
  Al  Al170  1  0.36637843  0.62807916  0.24603795  1
  Al  Al171  1  0.36741580  0.63610433  0.75432434  1
  Al  Al172  1  0.86356583  0.13869923  0.25269491  1
  Al  Al173  1  0.86521190  0.13475455  0.75501642  1
  Al  Al174  1  0.86276186  0.63115146  0.25059819  1
  Al  Al175  1  0.86206423  0.63462094  0.74912038  1
  Al  Al176  1  0.13568263  0.37391014  0.25175043  1
  Al  Al177  1  0.13225491  0.36376480  0.75503595  1
  Al  Al178  1  0.12969729  0.86151630  0.24691177  1
  Al  Al179  1  0.13060322  0.86651529  0.74789404  1
  Al  Al180  1  0.63810446  0.37298194  0.24848815  1
  Al  Al181  1  0.63611463  0.36580876  0.75700792  1
  Al  Al182  1  0.63194266  0.86272740  0.25403165  1
  Al  Al183  1  0.63647042  0.86940542  0.74837307  1
  Al  Al184  1  0.36266359  0.37587572  0.24924943  1
  Al  Al185  1  0.36508916  0.36674519  0.75748160  1
  Al  Al186  1  0.36741515  0.86004519  0.24972473  1
  Al  Al187  1  0.36428234  0.86324614  0.74921769  1
  Al  Al188  1  0.86242755  0.37193571  0.24746182  1
  Al  Al189  1  0.86570526  0.36290577  0.75378953  1
  Al  Al190  1  0.86880006  0.86167930  0.25323645  1
  Al  Al191  1  0.86402114  0.86638963  0.75219309  1
  Al  Al192  1  0.82900369  0.32990764  0.49729797  1
  Al  Al193  1  0.32200512  0.00026245  0.17321439  1
  Al  Al194  1  0.16866664  0.17082065  0.50459950  1
  Al  Al195  1  0.32436987  0.32972091  0.00116866  1
  Al  Al196  1  0.67552803  0.68250581  0.00142376  1
  Al  Al197  1  0.32917925  0.67039035  0.50019625  1
  Al  Al198  1  0.16875421  -0.00147682  0.32040533  1
  Al  Al199  1  0.32739641  0.82028852  0.00024540  1
  Al  Al200  1  0.66898773  0.00210670  0.32777931  1
  Al  Al201  1  0.83015822  0.00050389  0.16632807  1
  Al  Al202  1  0.00095849  0.67119121  0.32773333  1
  Al  Al203  1  0.32854757  0.17316540  -0.00231926  1
  Al  Al204  1  0.17879418  0.32681128  0.49925115  1
  Al  Al205  1  0.00099922  0.82614140  0.82515166  1
  Al  Al206  1  0.50011817  0.81276476  0.67322521  1
  Al  Al207  1  0.50238216  0.16883156  0.68517786  1
  Al  Al208  1  0.49947846  0.81639946  0.82887273  1
  Al  Al209  1  0.67199158  0.50410515  0.67795023  1
  Al  Al210  1  0.81733327  0.67742263  0.49840542  1
  Al  Al211  1  0.00063931  0.31452433  0.68597362  1
  Al  Al212  1  0.81565002  0.16950353  0.50532297  1
  Al  Al213  1  0.49956386  0.32521079  0.17905614  1
  Al  Al214  1  0.31213953  0.82190724  0.50110983  1
  Al  Al215  1  0.33394975  -0.00286517  0.32920374  1
  Al  Al216  1  0.50160199  0.68555832  0.32044608  1
  Al  Al217  1  0.82586453  -0.00052165  0.32649697  1
  Al  Al218  1  -0.00065325  0.18302144  0.31529242  1
  Al  Al219  1  0.82417291  0.49735999  0.82571344  1
  Al  Al220  1  0.67098557  0.00105710  0.17145840  1
  Al  Al221  1  0.81696776  0.82334929  -0.00186438  1
  Al  Al222  1  0.81235334  0.18269144  -0.00320387  1
  Al  Al223  1  0.17454088  0.81779434  -0.00142815  1
  Al  Al224  1  0.17719508  0.68549349  0.49872880  1
  Al  Al225  1  0.32645048  0.00096444  0.82104537  1
  Al  Al226  1  0.50142127  0.17012829  0.16907794  1
  Al  Al227  1  0.33070380  0.50111132  0.68815940  1
  Al  Al228  1  0.49980523  0.32603093  0.68340634  1
  Al  Al229  1  0.33112802  0.17861867  0.49714527  1
  Al  Al230  1  0.82821663  0.66918520  0.00156840  1
  Al  Al231  1  -0.00096481  0.67731483  0.17361598  1
  Al  Al232  1  0.17488589  0.49908880  0.67993915  1
  Al  Al233  1  0.00131798  0.68019547  0.68002312  1
  Al  Al234  1  0.50084571  0.18236057  0.32299630  1
  Al  Al235  1  0.00023358  0.31760129  0.19366625  1
  Al  Al236  1  0.17312736  0.00138096  0.81511182  1
  Al  Al237  1  0.81818863  0.00015418  0.69005156  1
  Al  Al238  1  0.67228147  0.31753383  0.50331505  1
  Au  Au239  1  0.67118694  -0.00125049  0.67543016  1
  Au  Au240  1  0.83441288  -0.00425097  0.33513652  1
  Au  Au241  1  0.49948101  0.33063120  0.83345676  1
  Au  Au242  1  0.33921356  0.16887523  0.00259039  1
  Au  Au243  1  0.00111539  0.82878464  0.65976714  1
  Au  Au244  1  0.82327384  0.00049258  0.15090431  1
  Au  Au245  1  0.00151980  0.65504889  0.33000677  1
  Au  Au246  1  0.65623238  0.32296438  0.50450632  1
  Au  Au247  1  0.83664218  0.50094232  0.66373677  1
  Au  Au248  1  0.50202009  0.67864415  0.33570914  1
  Au  Au249  1  0.32576831  -0.00350261  0.67217775  1
  Au  Au250  1  0.66882783  0.83259745  0.00049113  1
  Au  Au251  1  0.17214277  0.49811141  0.83058127  1
  Au  Au252  1  0.66342767  0.50143361  0.66921993  1
  Au  Au253  1  0.00115260  0.83362794  0.33574366  1
  Au  Au254  1  0.83969813  0.34317932  0.49366311  1
  Au  Au255  1  -0.00192922  0.66207513  0.82713265  1
  Au  Au256  1  0.15938315  0.33307414  0.00108175  1
  Au  Au257  1  0.65861040  0.82225026  0.50027284  1
  Au  Au258  1  0.17092694  0.50081431  0.17322315  1
  Au  Au259  1  0.65845689  0.50398296  0.83491433  1
  Au  Au260  1  0.32760568  0.34160394  0.50098619  1
  Au  Au261  1  0.65793650  -0.00203690  0.33171811  1
  Au  Au262  1  0.67629235  0.50281230  0.33557286  1
  Au  Au263  1  -0.00116984  0.82654351  0.16046402  1
  Au  Au264  1  0.15341390  0.17083247  0.50991968  1
  Au  Au265  1  0.49945562  0.33076766  0.32677649  1
  Au  Au266  1  0.49714701  0.67355074  0.15942932  1
  Au  Au267  1  0.82550866  0.66253747  0.49852500  1
  Au  Au268  1  -0.00089382  0.18082994  0.32796324  1
  Au  Au269  1  0.82937918  0.83969025  0.50288319  1
  Au  Au270  1  0.33594920  0.83182654  0.00099913  1
  Au  Au271  1  0.50274637  0.17469795  0.66903756  1
  Au  Au272  1  0.33905254  0.16380412  0.49605718  1
  Au  Au273  1  0.33253509  0.50254756  0.67182404  1
  Au  Au274  1  0.35010692  -0.00543599  0.32481543  1
  Au  Au275  1  0.67435897  0.49958098  0.16313279  1
  Au  Au276  1  0.82628296  0.32931186  0.00310334  1
  Au  Au277  1  0.17464355  -0.00162433  0.15539160  1
  Au  Au278  1  -0.00196681  0.17409172  0.16106519  1
  Au  Au279  1  -0.00065310  0.83440168  0.83424683  1
  Au  Au280  1  0.33373518  0.33795324  -0.00037020  1
  Au  Au281  1  0.32648924  0.50331081  0.32551132  1
  Au  Au282  1  0.82476393  0.15552420  0.50804865  1
  Au  Au283  1  0.17263823  0.66915942  0.00117452  1
  Au  Au284  1  0.16526792  0.00030589  0.33706009  1
  Au  Au285  1  0.83584519  0.49681696  0.83699763  1
  Au  Au286  1  0.16378333  0.16551520  -0.00777290  1
  Au  Au287  1  0.50010095  0.83214503  0.82262272  1
