# generated using pymatgen
data_Ca24Ti8Al207Au49
_symmetry_space_group_name_H-M   'P 1'
_cell_length_a   17.32001534
_cell_length_b   17.31786716
_cell_length_c   17.32135445
_cell_angle_alpha   90.00037759
_cell_angle_beta   89.99995432
_cell_angle_gamma   89.99768695
_symmetry_Int_Tables_number   1
_chemical_formula_structural   Ca24Ti8Al207Au49
_chemical_formula_sum   'Ca24 Ti8 Al207 Au49'
_cell_volume   5195.46621094
_cell_formula_units_Z   1
loop_
 _symmetry_equiv_pos_site_id
 _symmetry_equiv_pos_as_xyz
  1  'x, y, z'
loop_
 _atom_site_type_symbol
 _atom_site_label
 _atom_site_symmetry_multiplicity
 _atom_site_fract_x
 _atom_site_fract_y
 _atom_site_fract_z
 _atom_site_occupancy
  Ca  Ca0  1  0.24769271  -0.00241392  0.00248490  1
  Ca  Ca1  1  0.24488529  0.00251391  0.49808231  1
  Ca  Ca2  1  0.25404282  0.50125586  0.00018095  1
  Ca  Ca3  1  0.24864125  0.49510855  0.49452701  1
  Ca  Ca4  1  0.75016940  0.00155283  -0.00098242  1
  Ca  Ca5  1  0.75506702  -0.00104607  0.50332467  1
  Ca  Ca6  1  0.74683013  0.49625292  0.00380681  1
  Ca  Ca7  1  0.75015377  0.49936748  0.49675561  1
  Ca  Ca8  1  -0.00530522  0.24562329  -0.00066489  1
  Ca  Ca9  1  -0.00438227  0.24671252  0.50177263  1
  Ca  Ca10  1  -0.00082071  0.75791142  -0.00085368  1
  Ca  Ca11  1  -0.01012443  0.75420807  0.50493484  1
  Ca  Ca12  1  0.50522523  0.24898321  0.00088637  1
  Ca  Ca13  1  0.50199361  0.24639883  0.49754662  1
  Ca  Ca14  1  0.50062764  0.74924277  0.00006948  1
  Ca  Ca15  1  0.50316914  0.75078092  0.50011054  1
  Ca  Ca16  1  -0.00273056  -0.00270710  0.24994451  1
  Ca  Ca17  1  -0.00364772  -0.00051934  0.74679448  1
  Ca  Ca18  1  0.00011995  0.49948756  0.25397159  1
  Ca  Ca19  1  -0.00364462  0.49863578  0.74763539  1
  Ca  Ca20  1  0.50092936  -0.00115442  0.24870445  1
  Ca  Ca21  1  0.50733417  -0.00156858  0.75572154  1
  Ca  Ca22  1  0.50050817  0.50496942  0.24435429  1
  Ca  Ca23  1  0.50093870  0.50174934  0.75376589  1
  Ti  Ti24  1  0.24793421  0.24917306  0.25029920  1
  Ti  Ti25  1  0.24704333  0.24902178  0.75004522  1
  Ti  Ti26  1  0.25008666  0.75016007  0.24673203  1
  Ti  Ti27  1  0.24843583  0.75107763  0.75161724  1
  Ti  Ti28  1  0.75202798  0.24732018  0.25031737  1
  Ti  Ti29  1  0.75186691  0.24773944  0.74914859  1
  Ti  Ti30  1  0.75063556  0.75183641  0.25111771  1
  Ti  Ti31  1  0.75109046  0.75239253  0.75005643  1
  Al  Al32  1  0.08641528  0.07298880  0.08854560  1
  Al  Al33  1  0.07820472  0.08959498  0.58144259  1
  Al  Al34  1  0.08543056  0.58334610  0.08019823  1
  Al  Al35  1  0.08371553  0.59391868  0.58058672  1
  Al  Al36  1  0.58961865  0.08452439  0.07355453  1
  Al  Al37  1  0.59791060  0.07967923  0.58958580  1
  Al  Al38  1  0.57369202  0.59012483  0.08459746  1
  Al  Al39  1  0.58530851  0.58638168  0.57976217  1
  Al  Al40  1  0.41040397  0.42431319  0.09252784  1
  Al  Al41  1  0.42170891  0.41891197  0.57078867  1
  Al  Al42  1  0.41595258  0.91596362  0.08345815  1
  Al  Al43  1  0.42248371  0.93044698  0.58583501  1
  Al  Al44  1  0.91332421  0.41019649  0.07712042  1
  Al  Al45  1  0.91330466  0.40417234  0.57483574  1
  Al  Al46  1  0.92342217  0.91063356  0.08678184  1
  Al  Al47  1  0.90635619  0.91067988  0.58683862  1
  Al  Al48  1  0.41377154  0.08296707  0.41903133  1
  Al  Al49  1  0.42245148  0.08415785  0.92061788  1
  Al  Al50  1  0.42353241  0.58905476  0.40785022  1
  Al  Al51  1  0.41906561  0.59787056  0.92813719  1
  Al  Al52  1  0.91331873  0.08779368  0.42491967  1
  Al  Al53  1  0.90804787  0.08724146  0.91621051  1
  Al  Al54  1  0.91368473  0.58529326  0.42286720  1
  Al  Al55  1  0.92362412  0.58765393  0.91968782  1
  Al  Al56  1  0.07434801  0.40584905  0.41453686  1
  Al  Al57  1  0.08035218  0.39486683  0.91879802  1
  Al  Al58  1  0.07217544  0.91282314  0.41039091  1
  Al  Al59  1  0.08768952  0.91109495  0.92572860  1
  Al  Al60  1  0.58138895  0.40535394  0.41505213  1
  Al  Al61  1  0.59137393  0.42038690  0.92436820  1
  Al  Al62  1  0.58826022  0.91513160  0.41831369  1
  Al  Al63  1  0.59523968  0.91386603  0.91284389  1
  Al  Al64  1  0.08533587  0.08837875  0.42123788  1
  Al  Al65  1  0.07448656  0.08005907  0.91952961  1
  Al  Al66  1  0.08405020  0.58964669  0.42553237  1
  Al  Al67  1  0.07808967  0.59009871  0.91940993  1
  Al  Al68  1  0.58794806  0.08041444  0.42088472  1
  Al  Al69  1  0.59589574  0.08122278  0.91182239  1
  Al  Al70  1  0.58163948  0.59440575  0.41492413  1
  Al  Al71  1  0.57889589  0.58577807  0.91461584  1
  Al  Al72  1  0.42170386  0.40910673  0.41111998  1
  Al  Al73  1  0.42213627  0.42210676  0.93190270  1
  Al  Al74  1  0.42743579  0.92468754  0.41043976  1
  Al  Al75  1  0.42167165  0.91505900  0.91928265  1
  Al  Al76  1  0.91363864  0.40143928  0.41386391  1
  Al  Al77  1  0.91953745  0.39964779  0.91817402  1
  Al  Al78  1  0.91166865  0.90551728  0.41982572  1
  Al  Al79  1  0.91395468  0.91964167  0.91516348  1
  Al  Al80  1  0.08927980  0.40834319  0.07707065  1
  Al  Al81  1  0.07681263  0.41506282  0.57699171  1
  Al  Al82  1  0.08799268  0.90982291  0.09093615  1
  Al  Al83  1  0.06968020  0.91581341  0.58692234  1
  Al  Al84  1  0.58571180  0.41190164  0.07892014  1
  Al  Al85  1  0.58667148  0.41698877  0.57430065  1
  Al  Al86  1  0.58905319  0.90980717  0.07640069  1
  Al  Al87  1  0.59760183  0.92030587  0.58494006  1
  Al  Al88  1  0.41530233  0.08011203  0.07834164  1
  Al  Al89  1  0.41108460  0.08556402  0.58364036  1
  Al  Al90  1  0.41006424  0.58899608  0.09112375  1
  Al  Al91  1  0.42334103  0.58169600  0.57993787  1
  Al  Al92  1  0.91406148  0.08520464  0.07761527  1
  Al  Al93  1  0.90774658  0.08511497  0.58794355  1
  Al  Al94  1  0.92052915  0.57722129  0.07879294  1
  Al  Al95  1  0.91649758  0.59664244  0.57794926  1
  Al  Al96  1  0.24552879  0.12886719  0.13752819  1
  Al  Al97  1  0.24525431  0.13679077  0.62941819  1
  Al  Al98  1  0.25443707  0.63252263  0.13064575  1
  Al  Al99  1  0.24744872  0.63653134  0.63635037  1
  Al  Al100  1  0.75361215  0.12875627  0.13608406  1
  Al  Al101  1  0.75446768  0.13244488  0.63060612  1
  Al  Al102  1  0.74878464  0.63706487  0.13766941  1
  Al  Al103  1  0.75265545  0.64031919  0.62834067  1
  Al  Al104  1  0.25104187  0.36408237  0.13340120  1
  Al  Al105  1  0.24516982  0.36289926  0.63482572  1
  Al  Al106  1  0.24832106  0.86933017  0.13350940  1
  Al  Al107  1  0.24559559  0.86274243  0.63465704  1
  Al  Al108  1  0.74998683  0.36188973  0.13718670  1
  Al  Al109  1  0.75474862  0.36343953  0.63398114  1
  Al  Al110  1  0.74968819  0.87179368  0.13762750  1
  Al  Al111  1  0.75381482  0.86872250  0.63558102  1
  Al  Al112  1  0.24610152  0.13838859  0.36862207  1
  Al  Al113  1  0.24842561  0.13315628  0.86479797  1
  Al  Al114  1  0.24465883  0.63333742  0.36056214  1
  Al  Al115  1  0.25461416  0.63801324  0.86759683  1
  Al  Al116  1  0.75556255  0.13803175  0.37211637  1
  Al  Al117  1  0.75110133  0.12781429  0.86390946  1
  Al  Al118  1  0.75448994  0.64058015  0.37168784  1
  Al  Al119  1  0.74926461  0.63728467  0.86174505  1
  Al  Al120  1  0.24806653  0.36544855  0.36310791  1
  Al  Al121  1  0.24511517  0.36077250  0.87305203  1
  Al  Al122  1  0.25005188  0.86300754  0.36243709  1
  Al  Al123  1  0.24721181  0.86441356  0.86722926  1
  Al  Al124  1  0.75626763  0.36083405  0.36822809  1
  Al  Al125  1  0.75050369  0.36176380  0.86432969  1
  Al  Al126  1  0.75437944  0.86686196  0.36693175  1
  Al  Al127  1  0.74780768  0.87401757  0.86260695  1
  Al  Al128  1  0.13543406  0.25412293  0.13476549  1
  Al  Al129  1  0.13117438  0.24844618  0.63411294  1
  Al  Al130  1  0.13524073  0.75609758  0.13067180  1
  Al  Al131  1  0.12950792  0.74915557  0.63719500  1
  Al  Al132  1  0.63399739  0.25345930  0.13407860  1
  Al  Al133  1  0.63551917  0.24264689  0.63397135  1
  Al  Al134  1  0.63791585  0.75082709  0.13487077  1
  Al  Al135  1  0.63619247  0.74926917  0.63421601  1
  Al  Al136  1  0.12791412  0.24755506  0.36308034  1
  Al  Al137  1  0.12790389  0.24915454  0.86583555  1
  Al  Al138  1  0.13467943  0.75271235  0.36109163  1
  Al  Al139  1  0.13312590  0.75415175  0.86705556  1
  Al  Al140  1  0.63618598  0.24721735  0.36666958  1
  Al  Al141  1  0.64056316  0.24753755  0.86367791  1
  Al  Al142  1  0.63658340  0.74859819  0.36623737  1
  Al  Al143  1  0.63853009  0.75426691  0.86536826  1
  Al  Al144  1  0.36485300  0.25277285  0.13488054  1
  Al  Al145  1  0.36602486  0.24479882  0.63429748  1
  Al  Al146  1  0.36467693  0.74401302  0.13042880  1
  Al  Al147  1  0.36439103  0.74581663  0.63391058  1
  Al  Al148  1  0.86614048  0.24426458  0.13434798  1
  Al  Al149  1  0.86368183  0.24740642  0.63065095  1
  Al  Al150  1  0.86414705  0.75723555  0.13711545  1
  Al  Al151  1  0.86757415  0.75661368  0.63573484  1
  Al  Al152  1  0.36565119  0.24963427  0.36269058  1
  Al  Al153  1  0.36444878  0.25408572  0.86427374  1
  Al  Al154  1  0.36537114  0.74305669  0.36159196  1
  Al  Al155  1  0.36682512  0.74842733  0.86809741  1
  Al  Al156  1  0.87008773  0.24954396  0.36663220  1
  Al  Al157  1  0.86587839  0.24408314  0.86341475  1
  Al  Al158  1  0.86555918  0.75642236  0.36744436  1
  Al  Al159  1  0.86379410  0.75774913  0.86328702  1
  Al  Al160  1  0.12827140  0.13631751  0.24845926  1
  Al  Al161  1  0.13300273  0.13263990  0.75234518  1
  Al  Al162  1  0.13528830  0.63434524  0.24184914  1
  Al  Al163  1  0.13582617  0.63420430  0.75178847  1
  Al  Al164  1  0.63634547  0.13627261  0.24735722  1
  Al  Al165  1  0.64188632  0.12912938  0.74830560  1
  Al  Al166  1  0.63398503  0.63861349  0.25230946  1
  Al  Al167  1  0.63321189  0.63872596  0.74918406  1
  Al  Al168  1  0.36502796  0.13629795  0.24686477  1
  Al  Al169  1  0.36369345  0.13656545  0.75067552  1
  Al  Al170  1  0.36532044  0.63289644  0.24532873  1
  Al  Al171  1  0.36835583  0.63802754  0.75053302  1
  Al  Al172  1  0.86883311  0.13123795  0.25339878  1
  Al  Al173  1  0.86168431  0.12597438  0.74904858  1
  Al  Al174  1  0.86460457  0.63755646  0.25084110  1
  Al  Al175  1  0.86575715  0.63647811  0.74259790  1
  Al  Al176  1  0.13048256  0.36541197  0.25415590  1
  Al  Al177  1  0.12728064  0.36140069  0.75033843  1
  Al  Al178  1  0.13215507  0.86573723  0.24502930  1
  Al  Al179  1  0.12708063  0.86560622  0.74900959  1
  Al  Al180  1  0.63464357  0.36027137  0.25569456  1
  Al  Al181  1  0.63833269  0.36265726  0.74355301  1
  Al  Al182  1  0.63681028  0.86556406  0.25074141  1
  Al  Al183  1  0.63994708  0.87066311  0.74803432  1
  Al  Al184  1  0.36537860  0.36418646  0.24895479  1
  Al  Al185  1  0.36038497  0.36592941  0.74648266  1
  Al  Al186  1  0.36354382  0.86375453  0.24434287  1
  Al  Al187  1  0.36305941  0.86354790  0.75392690  1
  Al  Al188  1  0.86725744  0.36143337  0.25219827  1
  Al  Al189  1  0.87164200  0.35992160  0.75108463  1
  Al  Al190  1  0.86604790  0.86961933  0.25165341  1
  Al  Al191  1  0.86684678  0.87222500  0.74896987  1
  Al  Al192  1  0.67524832  0.50060483  0.82099101  1
  Al  Al193  1  0.49962470  0.80858203  0.17197188  1
  Al  Al194  1  -0.00119814  0.68899995  0.17015524  1
  Al  Al195  1  0.31283946  0.66993279  0.49728250  1
  Al  Al196  1  0.50367301  0.17361714  0.82171149  1
  Al  Al197  1  0.81052662  0.30738253  -0.00013554  1
  Al  Al198  1  0.16751612  0.18221794  0.00144291  1
  Al  Al199  1  0.00192580  0.32349755  0.17622866  1
  Al  Al200  1  0.50295363  0.32520138  0.17975941  1
  Al  Al201  1  0.50257226  0.81710432  0.82810439  1
  Al  Al202  1  0.68167640  0.00176730  0.32085816  1
  Al  Al203  1  -0.00337440  0.17937582  0.68252565  1
  Al  Al204  1  0.82271053  0.50056330  0.66566948  1
  Al  Al205  1  0.69283830  0.18752975  -0.00008214  1
  Al  Al206  1  0.50031424  0.82422265  0.67251083  1
  Al  Al207  1  -0.00148976  0.68484273  0.32924598  1
  Al  Al208  1  0.67209328  0.50081308  0.17073020  1
  Al  Al209  1  0.16646739  0.81679571  0.50023777  1
  Al  Al210  1  0.17652133  0.00058776  0.82362339  1
  Al  Al211  1  0.82895084  0.50004808  0.32721509  1
  Al  Al212  1  0.33124874  0.83225014  0.49811306  1
  Al  Al213  1  0.82692850  0.49873783  0.17271395  1
  Al  Al214  1  0.31486538  0.00016178  0.68267890  1
  Al  Al215  1  0.68662980  0.31666075  0.50036996  1
  Al  Al216  1  0.82677797  0.67526162  0.00097960  1
  Al  Al217  1  0.16718406  -0.00011817  0.31505826  1
  Al  Al218  1  0.67422909  0.68263602  -0.00069061  1
  Al  Al219  1  0.50043329  0.18207283  0.32257566  1
  Al  Al220  1  0.18404809  0.49747194  0.17628456  1
  Al  Al221  1  -0.00122106  0.68359015  0.81710363  1
  Al  Al222  1  0.50362175  0.33271684  0.82876860  1
  Al  Al223  1  0.18568171  0.68734495  -0.00012551  1
  Al  Al224  1  0.33225811  0.50337722  0.82559820  1
  Al  Al225  1  0.16761043  0.49405928  0.82973058  1
  Al  Al226  1  0.50091635  0.81548748  0.32629857  1
  Al  Al227  1  0.49866839  0.31931725  0.66919799  1
  Al  Al228  1  0.31559714  0.81445192  0.00054119  1
  Al  Al229  1  0.68888666  0.82175410  0.50074344  1
  Al  Al230  1  0.32455676  0.31891598  0.49821559  1
  Al  Al231  1  0.81469212  0.82846438  0.00021260  1
  Al  Al232  1  0.32423918  0.00103624  0.31744203  1
  Al  Al233  1  0.17802822  0.50012813  0.66772852  1
  Al  Al234  1  0.17133712  0.31348140  0.49786166  1
  Al  Al235  1  0.32482170  0.18373685  -0.00044649  1
  Al  Al236  1  0.83192595  0.49787414  0.83331361  1
  Al  Al237  1  0.67615374  0.50162874  0.32726411  1
  Al  Al238  1  0.32596303  0.49955032  0.31708114  1
  Au  Au239  1  0.50022197  0.66365805  0.67807621  1
  Au  Au240  1  0.34343193  0.50771921  0.83741690  1
  Au  Au241  1  0.32728756  0.00260694  0.16773439  1
  Au  Au242  1  0.34182521  0.00183512  0.82831919  1
  Au  Au243  1  0.17369581  0.67515809  -0.00269309  1
  Au  Au244  1  0.32608960  0.82771889  -0.00122842  1
  Au  Au245  1  0.32811786  0.66223799  0.49728551  1
  Au  Au246  1  0.65982332  0.49971427  0.67284011  1
  Au  Au247  1  0.50055330  0.33481826  0.17174972  1
  Au  Au248  1  0.32551942  0.33465542  0.00353246  1
  Au  Au249  1  0.50362307  0.84005852  0.67527008  1
  Au  Au250  1  -0.00048299  0.16558078  0.16843611  1
  Au  Au251  1  -0.00185152  0.32843143  0.67121445  1
  Au  Au252  1  0.17473308  0.49695987  0.16191203  1
  Au  Au253  1  0.15142611  0.49203756  0.83601527  1
  Au  Au254  1  0.82469716  -0.00003696  0.82649487  1
  Au  Au255  1  -0.00103807  0.67834245  0.66900244  1
  Au  Au256  1  0.83002637  0.00024203  0.34056772  1
  Au  Au257  1  0.34173656  0.49802081  0.32240591  1
  Au  Au258  1  0.33561893  0.84786491  0.49773496  1
  Au  Au259  1  0.82854328  0.49725969  0.84895871  1
  Au  Au260  1  0.83201690  0.50142430  0.65283303  1
  Au  Au261  1  0.32038105  0.16908182  0.49877264  1
  Au  Au262  1  -0.00365302  0.17184356  0.83105939  1
  Au  Au263  1  0.16769097  0.00133576  0.65856616  1
  Au  Au264  1  0.15994046  0.49995473  0.33866784  1
  Au  Au265  1  0.16670787  0.50024956  0.66234963  1
  Au  Au266  1  0.68049243  0.16811501  0.50117337  1
  Au  Au267  1  0.66992183  0.67052884  -0.00097677  1
  Au  Au268  1  0.50135279  0.16905325  0.33307075  1
  Au  Au269  1  0.00017855  0.83145233  0.83196870  1
  Au  Au270  1  0.67657518  0.67434268  0.49957305  1
  Au  Au271  1  0.33384475  0.49605775  0.66106863  1
  Au  Au272  1  0.50049828  0.17047568  0.15775647  1
  Au  Au273  1  0.17334909  0.16623147  0.00226769  1
  Au  Au274  1  0.15047282  0.82226469  0.50123089  1
  Au  Au275  1  0.50672577  0.32598077  0.84430916  1
  Au  Au276  1  0.16784633  -0.00192751  0.83247960  1
  Au  Au277  1  -0.00171274  0.68105236  0.34523843  1
  Au  Au278  1  0.83441939  -0.00131467  0.16530061  1
  Au  Au279  1  0.17122920  -0.00093984  0.33158470  1
  Au  Au280  1  0.49862806  0.33029656  0.66303786  1
  Au  Au281  1  0.66031347  0.49796064  0.32660681  1
  Au  Au282  1  0.66342519  0.00051051  0.17052102  1
  Au  Au283  1  0.50325127  0.15585689  0.67314373  1
  Au  Au284  1  -0.00181128  0.67264808  0.16475960  1
  Au  Au285  1  0.50227725  0.82540635  0.17343137  1
  Au  Au286  1  -0.00242960  0.17415663  0.33937999  1
  Au  Au287  1  -0.00047527  0.33257364  0.16798724  1
