# generated using pymatgen
data_Ca24Ti8Al207Au49
_symmetry_space_group_name_H-M   'P 1'
_cell_length_a   17.32298236
_cell_length_b   17.32125137
_cell_length_c   17.32092796
_cell_angle_alpha   89.99776836
_cell_angle_beta   90.00045729
_cell_angle_gamma   90.00098197
_symmetry_Int_Tables_number   1
_chemical_formula_structural   Ca24Ti8Al207Au49
_chemical_formula_sum   'Ca24 Ti8 Al207 Au49'
_cell_volume   5197.24371563
_cell_formula_units_Z   1
loop_
 _symmetry_equiv_pos_site_id
 _symmetry_equiv_pos_as_xyz
  1  'x, y, z'
loop_
 _atom_site_type_symbol
 _atom_site_label
 _atom_site_symmetry_multiplicity
 _atom_site_fract_x
 _atom_site_fract_y
 _atom_site_fract_z
 _atom_site_occupancy
  Ca  Ca0  1  0.25051293  -0.00439693  0.00209496  1
  Ca  Ca1  1  0.25088354  -0.00229260  0.49866840  1
  Ca  Ca2  1  0.25532991  0.49982582  -0.00375455  1
  Ca  Ca3  1  0.25442116  0.50536331  0.50243835  1
  Ca  Ca4  1  0.75088702  -0.00507445  -0.00012495  1
  Ca  Ca5  1  0.75143333  -0.00115699  0.50140032  1
  Ca  Ca6  1  0.74631819  0.50045289  0.00097365  1
  Ca  Ca7  1  0.74856471  0.50145746  0.49868661  1
  Ca  Ca8  1  -0.00178806  0.24241251  -0.00055753  1
  Ca  Ca9  1  -0.00122225  0.24851421  0.49862476  1
  Ca  Ca10  1  -0.00248567  0.75800538  0.00104342  1
  Ca  Ca11  1  0.00212081  0.75535501  0.50002430  1
  Ca  Ca12  1  0.50083794  0.25261695  -0.00088778  1
  Ca  Ca13  1  0.49876100  0.24819640  0.49762471  1
  Ca  Ca14  1  0.50156473  0.75167541  -0.00226362  1
  Ca  Ca15  1  0.50088045  0.75273949  0.50068888  1
  Ca  Ca16  1  0.00028721  -0.00565180  0.24884759  1
  Ca  Ca17  1  -0.00430894  -0.00321718  0.75329678  1
  Ca  Ca18  1  -0.00380470  0.50201231  0.24984586  1
  Ca  Ca19  1  0.00064444  0.50057533  0.75025062  1
  Ca  Ca20  1  0.49867880  -0.00234311  0.24791162  1
  Ca  Ca21  1  0.50232779  -0.00410887  0.75244835  1
  Ca  Ca22  1  0.50324481  0.50077293  0.24643895  1
  Ca  Ca23  1  0.50071541  0.50149416  0.75156089  1
  Ti  Ti24  1  0.25044817  0.24883703  0.24957839  1
  Ti  Ti25  1  0.25077073  0.24937203  0.75153270  1
  Ti  Ti26  1  0.24955083  0.75079272  0.25028176  1
  Ti  Ti27  1  0.25060626  0.75081143  0.74957232  1
  Ti  Ti28  1  0.75098576  0.24848864  0.24869098  1
  Ti  Ti29  1  0.74903428  0.24774598  0.75128535  1
  Ti  Ti30  1  0.75122187  0.75194284  0.24954759  1
  Ti  Ti31  1  0.74917656  0.75257278  0.75043839  1
  Al  Al32  1  0.07967695  0.07568629  0.08143532  1
  Al  Al33  1  0.07947741  0.07791519  0.57639611  1
  Al  Al34  1  0.07637193  0.58780712  0.08220715  1
  Al  Al35  1  0.08825017  0.59985781  0.58326755  1
  Al  Al36  1  0.59007494  0.08790729  0.08126898  1
  Al  Al37  1  0.58521140  0.07718558  0.58800836  1
  Al  Al38  1  0.58083750  0.58522597  0.08385831  1
  Al  Al39  1  0.57529715  0.58336497  0.58998667  1
  Al  Al40  1  0.42084313  0.40348635  0.08416170  1
  Al  Al41  1  0.40772086  0.41392133  0.58240332  1
  Al  Al42  1  0.41991515  0.90833810  0.07892862  1
  Al  Al43  1  0.42627822  0.90934028  0.58554548  1
  Al  Al44  1  0.91791683  0.41630845  0.08430680  1
  Al  Al45  1  0.91838223  0.42278825  0.57702902  1
  Al  Al46  1  0.90707923  0.91075668  0.09065273  1
  Al  Al47  1  0.91049130  0.90451668  0.58316749  1
  Al  Al48  1  0.40850532  0.08558961  0.41847715  1
  Al  Al49  1  0.41320265  0.08142061  0.92269664  1
  Al  Al50  1  0.41655048  0.59744833  0.42294655  1
  Al  Al51  1  0.42411464  0.59006092  0.91562279  1
  Al  Al52  1  0.92309722  0.08038803  0.41768536  1
  Al  Al53  1  0.91811123  0.08238004  0.91264793  1
  Al  Al54  1  0.92461259  0.58488057  0.41313263  1
  Al  Al55  1  0.91306264  0.58165663  0.91894215  1
  Al  Al56  1  0.08079757  0.41258336  0.42204817  1
  Al  Al57  1  0.08259787  0.41500516  0.91778114  1
  Al  Al58  1  0.08224859  0.91454938  0.40928750  1
  Al  Al59  1  0.08989663  0.91905820  0.91447044  1
  Al  Al60  1  0.57875010  0.41630975  0.41763388  1
  Al  Al61  1  0.59098567  0.42327929  0.91940708  1
  Al  Al62  1  0.58046061  0.91929893  0.41907229  1
  Al  Al63  1  0.58480646  0.90753170  0.91523151  1
  Al  Al64  1  0.08739931  0.07822524  0.40908335  1
  Al  Al65  1  0.08139382  0.08077566  0.90395754  1
  Al  Al66  1  0.08391547  0.59776741  0.42332408  1
  Al  Al67  1  0.07842850  0.58196478  0.92014691  1
  Al  Al68  1  0.58007438  0.07776878  0.42343081  1
  Al  Al69  1  0.59103112  0.08243687  0.92230676  1
  Al  Al70  1  0.57461396  0.58307982  0.40923729  1
  Al  Al71  1  0.58578916  0.58527102  0.90981371  1
  Al  Al72  1  0.41623033  0.40581942  0.42325066  1
  Al  Al73  1  0.41418975  0.41363174  0.92450545  1
  Al  Al74  1  0.41588364  0.91883370  0.41750960  1
  Al  Al75  1  0.41742705  0.90514897  0.91530314  1
  Al  Al76  1  0.91684482  0.41838346  0.41527195  1
  Al  Al77  1  0.91396350  0.41844874  0.91685936  1
  Al  Al78  1  0.91759360  0.90600119  0.41814595  1
  Al  Al79  1  0.91018388  0.91505294  0.92125059  1
  Al  Al80  1  0.07584577  0.41079043  0.07938726  1
  Al  Al81  1  0.08781411  0.42059073  0.57759457  1
  Al  Al82  1  0.08106872  0.90853758  0.08782743  1
  Al  Al83  1  0.07254223  0.91102062  0.58437366  1
  Al  Al84  1  0.58165410  0.41090990  0.08420845  1
  Al  Al85  1  0.58106495  0.41910112  0.58130483  1
  Al  Al86  1  0.58648863  0.90975555  0.08057578  1
  Al  Al87  1  0.58683141  0.91642121  0.59777529  1
  Al  Al88  1  0.41812795  0.08604568  0.07826768  1
  Al  Al89  1  0.41831751  0.09059462  0.57508412  1
  Al  Al90  1  0.42473866  0.58892200  0.08078589  1
  Al  Al91  1  0.41129030  0.59047662  0.58619107  1
  Al  Al92  1  0.90946926  0.07356141  0.08607971  1
  Al  Al93  1  0.91478595  0.07515071  0.58118783  1
  Al  Al94  1  0.91568505  0.58706926  0.08323367  1
  Al  Al95  1  0.92755093  0.58683167  0.58496325  1
  Al  Al96  1  0.24826054  0.13401276  0.13518944  1
  Al  Al97  1  0.25397378  0.13533545  0.63316554  1
  Al  Al98  1  0.25093471  0.63912289  0.13225740  1
  Al  Al99  1  0.25131874  0.63904133  0.63206971  1
  Al  Al100  1  0.74855703  0.13004310  0.12902369  1
  Al  Al101  1  0.75153163  0.12703440  0.63880422  1
  Al  Al102  1  0.75007431  0.63832044  0.13260983  1
  Al  Al103  1  0.74285038  0.63811731  0.63582103  1
  Al  Al104  1  0.25463023  0.36317460  0.13346388  1
  Al  Al105  1  0.25143209  0.36444431  0.63740114  1
  Al  Al106  1  0.24987199  0.86277927  0.13580064  1
  Al  Al107  1  0.25087311  0.86512062  0.63191689  1
  Al  Al108  1  0.75112502  0.36453233  0.13546173  1
  Al  Al109  1  0.74901622  0.36570896  0.63787835  1
  Al  Al110  1  0.75314815  0.86967690  0.13384071  1
  Al  Al111  1  0.74904371  0.86806156  0.63293253  1
  Al  Al112  1  0.25127012  0.13567677  0.36644558  1
  Al  Al113  1  0.24912489  0.12966652  0.86313333  1
  Al  Al114  1  0.24912191  0.63764674  0.36914389  1
  Al  Al115  1  0.25079413  0.63447111  0.86556861  1
  Al  Al116  1  0.75338918  0.13391868  0.36380994  1
  Al  Al117  1  0.74837141  0.13468193  0.87162900  1
  Al  Al118  1  0.75022404  0.63249763  0.36236422  1
  Al  Al119  1  0.74717253  0.63566275  0.86412690  1
  Al  Al120  1  0.25578937  0.36352555  0.36567607  1
  Al  Al121  1  0.25412465  0.36612669  0.86560327  1
  Al  Al122  1  0.24688497  0.86657652  0.36550820  1
  Al  Al123  1  0.25075614  0.86765182  0.86168673  1
  Al  Al124  1  0.74925144  0.37074586  0.36209953  1
  Al  Al125  1  0.74897624  0.36281255  0.86553897  1
  Al  Al126  1  0.75346087  0.86495659  0.36994739  1
  Al  Al127  1  0.74694133  0.86507762  0.86725495  1
  Al  Al128  1  0.13416248  0.24592702  0.13325200  1
  Al  Al129  1  0.13631466  0.24712167  0.63648326  1
  Al  Al130  1  0.12691760  0.75444689  0.13729755  1
  Al  Al131  1  0.13633613  0.74979660  0.63196159  1
  Al  Al132  1  0.63685012  0.24890382  0.13338164  1
  Al  Al133  1  0.63615994  0.25030235  0.63804064  1
  Al  Al134  1  0.63936981  0.75463733  0.13070950  1
  Al  Al135  1  0.63163064  0.75887381  0.63653761  1
  Al  Al136  1  0.13523771  0.25097193  0.36462405  1
  Al  Al137  1  0.13038169  0.24757705  0.86543559  1
  Al  Al138  1  0.13456446  0.75164964  0.36782999  1
  Al  Al139  1  0.13211648  0.75167314  0.86370119  1
  Al  Al140  1  0.63720177  0.24873806  0.36368220  1
  Al  Al141  1  0.63512205  0.24876250  0.86413995  1
  Al  Al142  1  0.63605939  0.75464958  0.36496996  1
  Al  Al143  1  0.63548009  0.75054455  0.86529599  1
  Al  Al144  1  0.36600081  0.25256852  0.13191196  1
  Al  Al145  1  0.36347196  0.25190387  0.63124737  1
  Al  Al146  1  0.36569694  0.75359498  0.13286095  1
  Al  Al147  1  0.36527111  0.75082309  0.63190168  1
  Al  Al148  1  0.86138398  0.24506918  0.12633705  1
  Al  Al149  1  0.86232608  0.24793299  0.63099104  1
  Al  Al150  1  0.86737390  0.75428902  0.13069052  1
  Al  Al151  1  0.86274975  0.75532568  0.63214908  1
  Al  Al152  1  0.36434690  0.24770986  0.36933682  1
  Al  Al153  1  0.36682964  0.25346903  0.86676040  1
  Al  Al154  1  0.36268366  0.75101479  0.37083338  1
  Al  Al155  1  0.36423485  0.75408598  0.86639616  1
  Al  Al156  1  0.86188448  0.25047618  0.36977188  1
  Al  Al157  1  0.86564902  0.24658948  0.87001514  1
  Al  Al158  1  0.86636492  0.75687266  0.36580057  1
  Al  Al159  1  0.86274711  0.75603426  0.87118498  1
  Al  Al160  1  0.13637860  0.13195804  0.25298386  1
  Al  Al161  1  0.13543715  0.13149307  0.75444893  1
  Al  Al162  1  0.13455067  0.63802338  0.24685230  1
  Al  Al163  1  0.13673770  0.63390552  0.74778741  1
  Al  Al164  1  0.63772629  0.13350130  0.24431557  1
  Al  Al165  1  0.63834672  0.12711577  0.75075955  1
  Al  Al166  1  0.63525309  0.63927666  0.24835431  1
  Al  Al167  1  0.63266654  0.63453031  0.75100481  1
  Al  Al168  1  0.36316815  0.13680592  0.24935580  1
  Al  Al169  1  0.36369527  0.13599801  0.75189024  1
  Al  Al170  1  0.36245790  0.63742188  0.25001547  1
  Al  Al171  1  0.36500860  0.63795174  0.75220695  1
  Al  Al172  1  0.86287833  0.12999626  0.24269541  1
  Al  Al173  1  0.86380086  0.13557527  0.75351366  1
  Al  Al174  1  0.86636935  0.64165448  0.24950014  1
  Al  Al175  1  0.86298146  0.64175109  0.75063655  1
  Al  Al176  1  0.13899344  0.36518903  0.24963236  1
  Al  Al177  1  0.13592963  0.36377087  0.75398412  1
  Al  Al178  1  0.13123771  0.86352836  0.25293981  1
  Al  Al179  1  0.13467665  0.86308002  0.74967075  1
  Al  Al180  1  0.63444010  0.36272973  0.24760217  1
  Al  Al181  1  0.63261493  0.36715069  0.75194531  1
  Al  Al182  1  0.63860285  0.86608608  0.24572988  1
  Al  Al183  1  0.63693540  0.87168970  0.74944764  1
  Al  Al184  1  0.36721071  0.36201264  0.24819507  1
  Al  Al185  1  0.37140596  0.36191854  0.74958497  1
  Al  Al186  1  0.36524229  0.86271573  0.25263196  1
  Al  Al187  1  0.36654510  0.86593434  0.74953538  1
  Al  Al188  1  0.86448024  0.36277548  0.25250119  1
  Al  Al189  1  0.86470746  0.36139958  0.75452178  1
  Al  Al190  1  0.86768244  0.86564561  0.24588571  1
  Al  Al191  1  0.86543350  0.86518744  0.74618719  1
  Al  Al192  1  0.00104192  0.82462847  0.82050054  1
  Al  Al193  1  0.67228766  0.50055878  0.17647822  1
  Al  Al194  1  0.50065906  0.17660888  0.82777048  1
  Al  Al195  1  -0.00018035  0.17219530  0.68657363  1
  Al  Al196  1  0.17617594  -0.00323565  0.18625225  1
  Al  Al197  1  0.32152160  0.68105578  -0.00078018  1
  Al  Al198  1  0.33332140  0.49814555  0.17120314  1
  Al  Al199  1  0.18710086  0.82118788  -0.00119822  1
  Al  Al200  1  0.18097688  0.17387908  0.49928950  1
  Al  Al201  1  0.50080691  0.17752975  0.67324741  1
  Al  Al202  1  0.67843254  0.67634642  -0.00099174  1
  Al  Al203  1  0.81384772  0.50019695  0.82752491  1
  Al  Al204  1  0.17197360  0.49684564  0.17158794  1
  Al  Al205  1  0.49986238  0.69128171  0.69110778  1
  Al  Al206  1  0.67793461  0.31613821  -0.00014882  1
  Al  Al207  1  0.33060612  0.00131884  0.67781217  1
  Al  Al208  1  0.50192521  0.81152235  0.17960632  1
  Al  Al209  1  0.82844516  0.68234629  0.49911980  1
  Al  Al210  1  0.00107716  0.69005866  0.31990258  1
  Al  Al211  1  0.49951087  0.18961308  0.17281850  1
  Al  Al212  1  0.67677725  0.32505525  0.49940861  1
  Al  Al213  1  0.31683682  0.18677596  -0.00078634  1
  Al  Al214  1  0.67847842  0.17086279  0.50235619  1
  Al  Al215  1  -0.00027639  0.69424323  0.68200440  1
  Al  Al216  1  0.66879512  0.67990532  0.49911086  1
  Al  Al217  1  0.00057187  0.32988391  0.67998322  1
  Al  Al218  1  -0.00151568  0.31483666  0.18209163  1
  Al  Al219  1  0.81883253  -0.00047414  0.81914491  1
  Al  Al220  1  0.17800350  0.50317519  0.82270664  1
  Al  Al221  1  0.50051171  0.32268858  0.31662653  1
  Al  Al222  1  0.18738336  0.31664623  -0.00012084  1
  Al  Al223  1  0.82592954  0.50145886  0.17774848  1
  Al  Al224  1  0.33139281  -0.00155935  0.17058413  1
  Al  Al225  1  0.49856192  0.68469809  0.31114250  1
  Al  Al226  1  0.67478418  0.00034252  0.31725122  1
  Al  Al227  1  0.17741378  0.82600205  0.49987566  1
  Al  Al228  1  0.32114324  0.50105460  0.68192898  1
  Al  Al229  1  0.50115221  0.16966997  0.32796686  1
  Al  Al230  1  0.17253113  -0.00012435  0.68058452  1
  Al  Al231  1  0.82044856  0.50404691  0.67194317  1
  Al  Al232  1  -0.00137464  0.17853057  0.31593665  1
  Al  Al233  1  0.50174190  0.81014430  0.81087528  1
  Al  Al234  1  0.31421812  0.00049009  0.32323700  1
  Al  Al235  1  0.18849446  0.32529296  0.50098798  1
  Al  Al236  1  0.83071585  -0.00231961  0.32009556  1
  Al  Al237  1  0.16909402  0.50302588  0.32935177  1
  Al  Al238  1  0.33065927  0.50322255  0.33246859  1
  Au  Au239  1  0.16094455  0.67706644  -0.00039326  1
  Au  Au240  1  0.16496664  0.82447790  0.50167547  1
  Au  Au241  1  -0.00355625  0.16612390  0.16647941  1
  Au  Au242  1  0.50082695  0.16071738  0.83104859  1
  Au  Au243  1  -0.00312265  0.67903118  0.17295285  1
  Au  Au244  1  0.82880021  0.16561373  0.49932219  1
  Au  Au245  1  0.49972168  0.17325624  0.17090582  1
  Au  Au246  1  0.17858028  0.33107718  0.00117759  1
  Au  Au247  1  0.82475455  0.33712008  0.49935201  1
  Au  Au248  1  -0.00148984  0.83367549  0.82913244  1
  Au  Au249  1  0.67290388  0.84269102  0.50263155  1
  Au  Au250  1  0.83404535  -0.00358862  0.33228496  1
  Au  Au251  1  0.84443411  0.67720330  0.49905855  1
  Au  Au252  1  0.82439467  0.15923048  -0.00099384  1
  Au  Au253  1  0.66123891  0.49888091  0.67839192  1
  Au  Au254  1  0.67085144  -0.00312471  0.83264591  1
  Au  Au255  1  0.49801990  0.32676905  0.65910496  1
  Au  Au256  1  0.16913782  0.16579281  0.49855225  1
  Au  Au257  1  0.82726093  -0.00510111  0.66887300  1
  Au  Au258  1  0.33389935  0.68406147  0.00067013  1
  Au  Au259  1  0.83204828  0.67895487  -0.00059692  1
  Au  Au260  1  0.00264029  0.33284738  0.66263857  1
  Au  Au261  1  0.16589296  0.50716404  0.34071361  1
  Au  Au262  1  0.83639681  0.50497494  0.67789915  1
  Au  Au263  1  0.67230556  -0.00289259  0.16491125  1
  Au  Au264  1  0.33738321  0.82285056  0.50100249  1
  Au  Au265  1  0.16898215  0.50075398  0.83133171  1
  Au  Au266  1  -0.00224682  0.16058085  0.67405482  1
  Au  Au267  1  0.16077912  0.50171648  0.16800495  1
  Au  Au268  1  0.00077665  0.32671786  0.33159138  1
  Au  Au269  1  0.82507995  0.33395100  0.00137067  1
  Au  Au270  1  0.32507779  -0.00374176  0.84214451  1
  Au  Au271  1  -0.00294073  0.32290819  0.84009358  1
  Au  Au272  1  0.66628648  0.67938290  0.00051667  1
  Au  Au273  1  -0.00397012  0.66103328  0.82497161  1
  Au  Au274  1  0.83550418  0.50444536  0.32610767  1
  Au  Au275  1  0.34180388  0.49903477  0.33588198  1
  Au  Au276  1  0.17125650  -0.00322964  0.17432009  1
  Au  Au277  1  0.15721472  -0.00647615  0.67607336  1
  Au  Au278  1  0.17372147  0.50524317  0.65852849  1
  Au  Au279  1  0.34219158  0.50091582  0.82996311  1
  Au  Au280  1  0.17134259  0.15433515  -0.00635424  1
  Au  Au281  1  0.50445590  0.34075031  0.83468017  1
  Au  Au282  1  0.50122719  0.83199974  0.32680675  1
  Au  Au283  1  0.49655140  0.68051399  0.67853988  1
  Au  Au284  1  0.66260657  0.49848786  0.32576877  1
  Au  Au285  1  0.34064761  0.00175371  0.66356263  1
  Au  Au286  1  0.66369698  0.66345420  0.49778668  1
  Au  Au287  1  0.33682670  0.50251231  0.16006491  1
