# generated using pymatgen
data_Ca24Ti8Al207Au49
_symmetry_space_group_name_H-M   'P 1'
_cell_length_a   17.31787969
_cell_length_b   17.31624305
_cell_length_c   17.31772873
_cell_angle_alpha   89.99658742
_cell_angle_beta   89.99371047
_cell_angle_gamma   89.99755148
_symmetry_Int_Tables_number   1
_chemical_formula_structural   Ca24Ti8Al207Au49
_chemical_formula_sum   'Ca24 Ti8 Al207 Au49'
_cell_volume   5193.25107473
_cell_formula_units_Z   1
loop_
 _symmetry_equiv_pos_site_id
 _symmetry_equiv_pos_as_xyz
  1  'x, y, z'
loop_
 _atom_site_type_symbol
 _atom_site_label
 _atom_site_symmetry_multiplicity
 _atom_site_fract_x
 _atom_site_fract_y
 _atom_site_fract_z
 _atom_site_occupancy
  Ca  Ca0  1  0.24987099  -0.00004667  -0.00066302  1
  Ca  Ca1  1  0.24726741  -0.00750953  0.49699071  1
  Ca  Ca2  1  0.25246743  0.49893717  0.00006998  1
  Ca  Ca3  1  0.24947224  0.50554518  0.50037408  1
  Ca  Ca4  1  0.74512206  -0.00278883  0.00200515  1
  Ca  Ca5  1  0.75218054  -0.00385962  0.49612178  1
  Ca  Ca6  1  0.75195343  0.49803109  0.00645707  1
  Ca  Ca7  1  0.75403974  0.50123193  0.49755060  1
  Ca  Ca8  1  0.00080571  0.25054138  -0.00021416  1
  Ca  Ca9  1  -0.00127964  0.24904531  0.49985257  1
  Ca  Ca10  1  0.00220682  0.75629951  0.00179667  1
  Ca  Ca11  1  0.00295415  0.75374118  0.49858454  1
  Ca  Ca12  1  0.49812815  0.25130820  0.00497254  1
  Ca  Ca13  1  0.50512035  0.25105241  0.49880476  1
  Ca  Ca14  1  0.49657633  0.75704654  0.00207529  1
  Ca  Ca15  1  0.49627441  0.75550083  0.49714369  1
  Ca  Ca16  1  -0.00255675  -0.00713043  0.24829746  1
  Ca  Ca17  1  0.00106695  -0.00127123  0.75210332  1
  Ca  Ca18  1  0.00249620  0.49976940  0.25073041  1
  Ca  Ca19  1  0.00303191  0.49929183  0.75315053  1
  Ca  Ca20  1  0.50016384  -0.00511811  0.24487777  1
  Ca  Ca21  1  0.49882326  -0.00282814  0.75523984  1
  Ca  Ca22  1  0.49755229  0.50217159  0.24349767  1
  Ca  Ca23  1  0.49961262  0.50342886  0.75329614  1
  Ti  Ti24  1  0.25041892  0.25075527  0.24726573  1
  Ti  Ti25  1  0.24851213  0.25021085  0.75287944  1
  Ti  Ti26  1  0.25019137  0.75021785  0.24864314  1
  Ti  Ti27  1  0.25168446  0.74933527  0.75269116  1
  Ti  Ti28  1  0.75053807  0.24704159  0.25007942  1
  Ti  Ti29  1  0.75239901  0.24878206  0.74902688  1
  Ti  Ti30  1  0.74963380  0.75261150  0.25018646  1
  Ti  Ti31  1  0.74852668  0.75213881  0.75026551  1
  Al  Al32  1  0.09151246  0.07654304  0.08701091  1
  Al  Al33  1  0.07559788  0.07573962  0.58622172  1
  Al  Al34  1  0.08414418  0.58217938  0.08361519  1
  Al  Al35  1  0.08398224  0.58698168  0.58010019  1
  Al  Al36  1  0.58880593  0.07449634  0.09119762  1
  Al  Al37  1  0.57959001  0.07524147  0.57703427  1
  Al  Al38  1  0.57168481  0.58309479  0.08255540  1
  Al  Al39  1  0.57612037  0.58474594  0.57033409  1
  Al  Al40  1  0.40878784  0.41233802  0.08901537  1
  Al  Al41  1  0.41941578  0.42653371  0.58156886  1
  Al  Al42  1  0.41855007  0.90876545  0.08288075  1
  Al  Al43  1  0.40393619  0.91128882  0.58251537  1
  Al  Al44  1  0.91630614  0.42030522  0.08069251  1
  Al  Al45  1  0.91912775  0.40512306  0.58382461  1
  Al  Al46  1  0.92056313  0.90996385  0.09031111  1
  Al  Al47  1  0.90462819  0.91582444  0.57806972  1
  Al  Al48  1  0.42482042  0.07274798  0.42479963  1
  Al  Al49  1  0.41278462  0.07811005  0.92037415  1
  Al  Al50  1  0.40776547  0.59131913  0.41753540  1
  Al  Al51  1  0.41488746  0.58319000  0.92084656  1
  Al  Al52  1  0.91912361  0.08262324  0.41241275  1
  Al  Al53  1  0.92073288  0.09284924  0.91774052  1
  Al  Al54  1  0.91883593  0.58169252  0.41802631  1
  Al  Al55  1  0.92469395  0.58378162  0.90744008  1
  Al  Al56  1  0.08665014  0.42436310  0.40720388  1
  Al  Al57  1  0.09079491  0.40805269  0.91809404  1
  Al  Al58  1  0.08238224  0.90869185  0.40792284  1
  Al  Al59  1  0.08146469  0.91595183  0.92416221  1
  Al  Al60  1  0.58328891  0.42126617  0.41371896  1
  Al  Al61  1  0.57356547  0.41056339  0.92815883  1
  Al  Al62  1  0.58774496  0.90853677  0.40789169  1
  Al  Al63  1  0.57986614  0.91092683  0.92327177  1
  Al  Al64  1  0.07346411  0.07386616  0.40267852  1
  Al  Al65  1  0.07929395  0.08901906  0.91511475  1
  Al  Al66  1  0.09344041  0.58512442  0.41404469  1
  Al  Al67  1  0.08193653  0.58913731  0.91218087  1
  Al  Al68  1  0.58638244  0.07119590  0.41345738  1
  Al  Al69  1  0.57786691  0.07486549  0.92793909  1
  Al  Al70  1  0.58506970  0.58412839  0.41368030  1
  Al  Al71  1  0.57664818  0.58476404  0.92358467  1
  Al  Al72  1  0.41737169  0.42335374  0.41461946  1
  Al  Al73  1  0.41048292  0.40767961  0.92521290  1
  Al  Al74  1  0.41966304  0.90514441  0.41719555  1
  Al  Al75  1  0.41494217  0.91057196  0.91697820  1
  Al  Al76  1  0.91810843  0.41605456  0.42126113  1
  Al  Al77  1  0.92159714  0.41800901  0.91570752  1
  Al  Al78  1  0.91851033  0.90952654  0.41532729  1
  Al  Al79  1  0.92142802  0.91508411  0.92464326  1
  Al  Al80  1  0.09653537  0.41198959  0.07915300  1
  Al  Al81  1  0.07438081  0.41869114  0.58947740  1
  Al  Al82  1  0.08764433  0.91237227  0.09499690  1
  Al  Al83  1  0.09047366  0.91524652  0.57185760  1
  Al  Al84  1  0.57395693  0.40720556  0.08677583  1
  Al  Al85  1  0.57936629  0.41798832  0.57774041  1
  Al  Al86  1  0.58543888  0.91069872  0.08865744  1
  Al  Al87  1  0.59007343  0.91025590  0.57291343  1
  Al  Al88  1  0.41644261  0.08313092  0.08134451  1
  Al  Al89  1  0.40912411  0.07075822  0.59069277  1
  Al  Al90  1  0.41031814  0.57826945  0.08965622  1
  Al  Al91  1  0.40588770  0.58713966  0.57737123  1
  Al  Al92  1  0.91595814  0.07978495  0.07845424  1
  Al  Al93  1  0.91151150  0.07739351  0.59134393  1
  Al  Al94  1  0.92419460  0.57838826  0.08737460  1
  Al  Al95  1  0.92211789  0.58612386  0.58274439  1
  Al  Al96  1  0.25105176  0.13440498  0.13067675  1
  Al  Al97  1  0.25278904  0.13677017  0.63880984  1
  Al  Al98  1  0.25158354  0.63528073  0.12956297  1
  Al  Al99  1  0.25000780  0.63511260  0.63543606  1
  Al  Al100  1  0.74831355  0.12954313  0.13815377  1
  Al  Al101  1  0.75407686  0.13485504  0.62967691  1
  Al  Al102  1  0.75005600  0.63933936  0.13570166  1
  Al  Al103  1  0.75211522  0.63886846  0.63493943  1
  Al  Al104  1  0.25208058  0.36711924  0.13207592  1
  Al  Al105  1  0.24830157  0.36516275  0.63655937  1
  Al  Al106  1  0.24942421  0.87101998  0.13882514  1
  Al  Al107  1  0.25357659  0.86387213  0.63609099  1
  Al  Al108  1  0.75169814  0.36176054  0.13722559  1
  Al  Al109  1  0.75213956  0.36631093  0.63690193  1
  Al  Al110  1  0.74612426  0.87226784  0.13813891  1
  Al  Al111  1  0.74999867  0.86435838  0.63104568  1
  Al  Al112  1  0.25258308  0.13668433  0.35911114  1
  Al  Al113  1  0.24759895  0.13668453  0.87279217  1
  Al  Al114  1  0.24986408  0.63749027  0.36450602  1
  Al  Al115  1  0.25340412  0.63168739  0.87141464  1
  Al  Al116  1  0.75238318  0.13519802  0.36962385  1
  Al  Al117  1  0.75197031  0.13633750  0.86481612  1
  Al  Al118  1  0.75102537  0.64108177  0.36363306  1
  Al  Al119  1  0.74652878  0.63818888  0.86462668  1
  Al  Al120  1  0.24672231  0.36467924  0.36304026  1
  Al  Al121  1  0.24736267  0.36744429  0.86753111  1
  Al  Al122  1  0.24772903  0.86335958  0.36190257  1
  Al  Al123  1  0.25448081  0.86485030  0.86840899  1
  Al  Al124  1  0.75071700  0.36085847  0.36141642  1
  Al  Al125  1  0.75552890  0.35828497  0.86292242  1
  Al  Al126  1  0.74946989  0.86548151  0.36677974  1
  Al  Al127  1  0.74938961  0.86494725  0.86627973  1
  Al  Al128  1  0.13739419  0.25252662  0.12871256  1
  Al  Al129  1  0.13263672  0.25406922  0.63582637  1
  Al  Al130  1  0.13692483  0.75094231  0.13637856  1
  Al  Al131  1  0.13795235  0.75219505  0.63499057  1
  Al  Al132  1  0.63025357  0.24668377  0.13696104  1
  Al  Al133  1  0.63853972  0.24706530  0.62761389  1
  Al  Al134  1  0.63155309  0.76017694  0.13557899  1
  Al  Al135  1  0.63399685  0.75631591  0.63309124  1
  Al  Al136  1  0.12905750  0.24983460  0.36145247  1
  Al  Al137  1  0.13251437  0.25015089  0.86967694  1
  Al  Al138  1  0.13345935  0.75818933  0.36689909  1
  Al  Al139  1  0.13729511  0.74808649  0.86679236  1
  Al  Al140  1  0.63437254  0.24656452  0.36689495  1
  Al  Al141  1  0.63558008  0.24549872  0.86481923  1
  Al  Al142  1  0.63223323  0.75809709  0.36460461  1
  Al  Al143  1  0.63213839  0.75794002  0.86840139  1
  Al  Al144  1  0.36521856  0.25321006  0.12970135  1
  Al  Al145  1  0.36444311  0.25116703  0.63377114  1
  Al  Al146  1  0.36113428  0.75493296  0.12877004  1
  Al  Al147  1  0.36477016  0.74788537  0.63442752  1
  Al  Al148  1  0.86734000  0.24741864  0.13797546  1
  Al  Al149  1  0.86870130  0.24956594  0.63403291  1
  Al  Al150  1  0.86444765  0.75609652  0.13857227  1
  Al  Al151  1  0.86381240  0.75411482  0.63517583  1
  Al  Al152  1  0.36481467  0.25233366  0.36320060  1
  Al  Al153  1  0.36052946  0.25030342  0.87227629  1
  Al  Al154  1  0.36452179  0.75130841  0.36158684  1
  Al  Al155  1  0.36456213  0.75247127  0.87420883  1
  Al  Al156  1  0.87196260  0.24479699  0.36237147  1
  Al  Al157  1  0.87388236  0.24861166  0.86218187  1
  Al  Al158  1  0.86890126  0.76175403  0.36490477  1
  Al  Al159  1  0.86432279  0.75070476  0.86209729  1
  Al  Al160  1  0.13628705  0.13547231  0.24561922  1
  Al  Al161  1  0.13422639  0.13573357  0.75306624  1
  Al  Al162  1  0.13762443  0.63519773  0.25209261  1
  Al  Al163  1  0.13807693  0.63698376  0.75425302  1
  Al  Al164  1  0.63042228  0.13437313  0.24836940  1
  Al  Al165  1  0.63659912  0.13469436  0.74637831  1
  Al  Al166  1  0.63447069  0.63985493  0.24888020  1
  Al  Al167  1  0.63157651  0.64146416  0.74697178  1
  Al  Al168  1  0.37092365  0.13757224  0.24124306  1
  Al  Al169  1  0.36565421  0.13758775  0.75412005  1
  Al  Al170  1  0.36374723  0.63441489  0.24617790  1
  Al  Al171  1  0.36548258  0.63704328  0.75538652  1
  Al  Al172  1  0.86445455  0.12697379  0.25156294  1
  Al  Al173  1  0.86530565  0.13360625  0.74838569  1
  Al  Al174  1  0.86534836  0.63895421  0.25370168  1
  Al  Al175  1  0.86430277  0.63709026  0.74913719  1
  Al  Al176  1  0.13209636  0.36440722  0.24775050  1
  Al  Al177  1  0.12946322  0.36272692  0.75556425  1
  Al  Al178  1  0.13028712  0.86340655  0.24713907  1
  Al  Al179  1  0.14077571  0.86383604  0.75382582  1
  Al  Al180  1  0.63405935  0.36301752  0.24705267  1
  Al  Al181  1  0.63500722  0.36039845  0.74808789  1
  Al  Al182  1  0.63076070  0.86648125  0.24900086  1
  Al  Al183  1  0.63228012  0.86501414  0.75150187  1
  Al  Al184  1  0.36608033  0.37013393  0.24234177  1
  Al  Al185  1  0.36313028  0.36277461  0.75471102  1
  Al  Al186  1  0.36943885  0.86346759  0.24705459  1
  Al  Al187  1  0.36757341  0.86132061  0.75193640  1
  Al  Al188  1  0.87254449  0.36073868  0.25274050  1
  Al  Al189  1  0.87331201  0.36160389  0.74866704  1
  Al  Al190  1  0.86327989  0.87192134  0.24891880  1
  Al  Al191  1  0.86004367  0.86801744  0.74654759  1
  Al  Al192  1  0.66827337  0.69239350  0.00345828  1
  Al  Al193  1  0.32881923  0.17651637  0.50067188  1
  Al  Al194  1  0.30916767  0.80809539  0.49787172  1
  Al  Al195  1  0.17149914  0.16562751  0.49627817  1
  Al  Al196  1  0.68191356  0.50138190  0.32050995  1
  Al  Al197  1  0.66791813  0.49410517  0.83372710  1
  Al  Al198  1  0.00097798  0.18354629  0.68640452  1
  Al  Al199  1  0.18643186  0.50068728  0.18451941  1
  Al  Al200  1  0.00092725  0.68526260  0.17414131  1
  Al  Al201  1  0.18505669  0.82396825  0.00253916  1
  Al  Al202  1  0.31336572  0.50110580  0.31460480  1
  Al  Al203  1  0.50134851  0.82715286  0.67537103  1
  Al  Al204  1  0.81634609  0.82577543  0.00206714  1
  Al  Al205  1  0.49993462  0.69014569  0.82316064  1
  Al  Al206  1  0.67214850  -0.00095716  0.82772434  1
  Al  Al207  1  0.49910432  0.68328426  0.32368040  1
  Al  Al208  1  0.67980432  0.31427886  0.00193707  1
  Al  Al209  1  0.18946848  0.69207645  0.49889603  1
  Al  Al210  1  0.82283449  0.50004422  0.18380270  1
  Al  Al211  1  0.82914667  0.69187369  0.49789152  1
  Al  Al212  1  0.17305512  -0.00144345  0.31246858  1
  Al  Al213  1  0.32450328  0.50086007  0.68093120  1
  Al  Al214  1  0.00046280  0.83527354  0.67543852  1
  Al  Al215  1  0.49677910  0.68697934  0.17242946  1
  Al  Al216  1  0.66806488  0.49989799  0.16817225  1
  Al  Al217  1  0.00077878  0.17392077  0.18173549  1
  Al  Al218  1  0.68265252  0.00008748  0.31056095  1
  Al  Al219  1  0.49883668  0.31822506  0.82513655  1
  Al  Al220  1  0.49957670  0.32112718  0.31518343  1
  Al  Al221  1  0.17231544  0.00025876  0.82907765  1
  Al  Al222  1  0.82504814  0.49959990  0.82045283  1
  Al  Al223  1  0.00252575  0.67632804  0.68659804  1
  Al  Al224  1  0.17615270  0.33663149  0.50097166  1
  Al  Al225  1  0.83177171  0.00012820  0.82038633  1
  Al  Al226  1  0.32895590  -0.00094529  0.32050293  1
  Al  Al227  1  0.32601572  -0.00116877  0.81739776  1
  Al  Al228  1  0.81954805  0.31707848  0.49848743  1
  Al  Al229  1  0.67406539  0.68789844  0.49824574  1
  Al  Al230  1  0.49957304  0.17833809  0.67607390  1
  Al  Al231  1  0.67714563  0.50457355  0.67246909  1
  Al  Al232  1  0.83071869  0.66916777  -0.00100946  1
  Al  Al233  1  0.00104266  0.81528152  0.82556263  1
  Al  Al234  1  0.00186769  0.68696287  0.32959608  1
  Al  Al235  1  0.82028440  0.18354137  0.00077166  1
  Al  Al236  1  0.17094219  0.50042767  0.67923442  1
  Al  Al237  1  0.68920568  -0.00096270  0.66979384  1
  Al  Al238  1  0.19242962  -0.00017257  0.67291644  1
  Au  Au239  1  0.32696501  -0.00561297  0.33599670  1
  Au  Au240  1  0.17538668  -0.00271620  0.67309901  1
  Au  Au241  1  0.00025347  0.15889137  0.17446122  1
  Au  Au242  1  0.83443703  0.00063553  0.83691326  1
  Au  Au243  1  0.82910697  0.33327970  -0.00117471  1
  Au  Au244  1  0.33679854  0.49486597  0.83065756  1
  Au  Au245  1  0.67341358  0.49148090  0.84954114  1
  Au  Au246  1  0.33233765  0.67296621  0.00409105  1
  Au  Au247  1  -0.00155602  0.82676683  0.66076486  1
  Au  Au248  1  0.33054077  0.17712973  0.00086030  1
  Au  Au249  1  0.15670716  0.16115491  0.48756778  1
  Au  Au250  1  0.50114793  0.17011718  0.16397488  1
  Au  Au251  1  0.49962429  0.33651160  0.32236549  1
  Au  Au252  1  0.16547078  0.50055643  0.82930477  1
  Au  Au253  1  0.17452298  0.50072563  0.17269040  1
  Au  Au254  1  0.50057474  0.15981398  0.33044600  1
  Au  Au255  1  -0.00074559  0.16921269  0.67680448  1
  Au  Au256  1  0.50079888  0.17003879  0.84374697  1
  Au  Au257  1  0.66713103  0.16491068  0.49602574  1
  Au  Au258  1  0.66657821  0.67570378  0.00713210  1
  Au  Au259  1  0.82693729  0.67504638  0.50126137  1
  Au  Au260  1  0.67054159  0.50791303  0.65733827  1
  Au  Au261  1  0.00131063  0.32581677  0.82993166  1
  Au  Au262  1  0.33996892  0.33171995  0.50212221  1
  Au  Au263  1  0.83003691  -0.00319939  0.33325368  1
  Au  Au264  1  0.32650437  -0.00231279  0.15936588  1
  Au  Au265  1  0.84280349  0.67300996  -0.00124578  1
  Au  Au266  1  0.82961209  0.49733258  0.33143385  1
  Au  Au267  1  0.49779682  0.34309683  0.67747921  1
  Au  Au268  1  0.49692593  0.67253716  0.65643581  1
  Au  Au269  1  0.67276004  0.33623169  0.49683113  1
  Au  Au270  1  0.67292603  0.16259918  0.00261477  1
  Au  Au271  1  0.49915835  0.67567370  0.83245227  1
  Au  Au272  1  0.16384769  0.33783019  0.50317484  1
  Au  Au273  1  0.83758521  0.16816612  0.49978007  1
  Au  Au274  1  0.84687589  0.49602339  0.67281634  1
  Au  Au275  1  0.00233554  0.33585880  0.16433206  1
  Au  Au276  1  0.33319681  0.16475669  0.49990840  1
  Au  Au277  1  0.49878791  0.16392780  0.66738667  1
  Au  Au278  1  0.00246209  0.67083215  0.32339197  1
  Au  Au279  1  0.82367140  -0.00081828  0.16162438  1
  Au  Au280  1  0.16240270  0.67640095  -0.00000094  1
  Au  Au281  1  0.16352018  0.17429642  0.00005612  1
  Au  Au282  1  0.32027649  0.50190662  0.33038254  1
  Au  Au283  1  0.67240323  -0.00255777  0.66754036  1
  Au  Au284  1  0.17992270  0.67787605  0.50060612  1
  Au  Au285  1  0.00026921  0.32669514  0.33675303  1
  Au  Au286  1  0.49863470  0.67260269  0.33268998  1
  Au  Au287  1  0.49902985  0.83633061  0.66708123  1
