# generated using pymatgen
data_Ca24Ti8Al207Au49
_symmetry_space_group_name_H-M   'P 1'
_cell_length_a   17.32231969
_cell_length_b   17.31991880
_cell_length_c   17.32133969
_cell_angle_alpha   89.99545616
_cell_angle_beta   89.99796798
_cell_angle_gamma   90.00041169
_symmetry_Int_Tables_number   1
_chemical_formula_structural   Ca24Ti8Al207Au49
_chemical_formula_sum   'Ca24 Ti8 Al207 Au49'
_cell_volume   5196.76858807
_cell_formula_units_Z   1
loop_
 _symmetry_equiv_pos_site_id
 _symmetry_equiv_pos_as_xyz
  1  'x, y, z'
loop_
 _atom_site_type_symbol
 _atom_site_label
 _atom_site_symmetry_multiplicity
 _atom_site_fract_x
 _atom_site_fract_y
 _atom_site_fract_z
 _atom_site_occupancy
  Ca  Ca0  1  0.23853032  -0.00556709  -0.00095885  1
  Ca  Ca1  1  0.24915802  -0.00096682  0.50319112  1
  Ca  Ca2  1  0.25057461  0.50311605  0.00364473  1
  Ca  Ca3  1  0.25740090  0.49920849  0.49781028  1
  Ca  Ca4  1  0.75007970  0.00148070  0.00263293  1
  Ca  Ca5  1  0.74341805  -0.00127907  0.50414084  1
  Ca  Ca6  1  0.74499156  0.49814923  0.00370785  1
  Ca  Ca7  1  0.74807688  0.50086213  0.49649745  1
  Ca  Ca8  1  -0.00554192  0.24324669  -0.00119005  1
  Ca  Ca9  1  0.00412613  0.24736112  0.50268762  1
  Ca  Ca10  1  0.00183822  0.75058611  -0.00111655  1
  Ca  Ca11  1  0.00078502  0.74865820  0.50168287  1
  Ca  Ca12  1  0.50285185  0.25242083  -0.00070027  1
  Ca  Ca13  1  0.49889072  0.25290114  0.49963972  1
  Ca  Ca14  1  0.49948968  0.74704554  -0.00010876  1
  Ca  Ca15  1  0.49729669  0.74615179  0.50035407  1
  Ca  Ca16  1  -0.00000606  -0.00012449  0.24565573  1
  Ca  Ca17  1  -0.00157157  0.00088766  0.75476191  1
  Ca  Ca18  1  -0.00145765  0.50207566  0.25047159  1
  Ca  Ca19  1  0.00265936  0.50078153  0.75132280  1
  Ca  Ca20  1  0.50201395  0.00115835  0.25632994  1
  Ca  Ca21  1  0.49863605  -0.00061648  0.74755481  1
  Ca  Ca22  1  0.50174092  0.50107599  0.25465989  1
  Ca  Ca23  1  0.49491197  0.50315134  0.74824774  1
  Ti  Ti24  1  0.25299131  0.25044194  0.25138050  1
  Ti  Ti25  1  0.25188618  0.24974112  0.74913767  1
  Ti  Ti26  1  0.24991224  0.74796539  0.25039671  1
  Ti  Ti27  1  0.24854221  0.74980091  0.74804524  1
  Ti  Ti28  1  0.74733444  0.25157660  0.24964174  1
  Ti  Ti29  1  0.74720141  0.24885826  0.75025810  1
  Ti  Ti30  1  0.75111231  0.74857761  0.24954256  1
  Ti  Ti31  1  0.74922518  0.75095693  0.74857638  1
  Al  Al32  1  0.07614008  0.07368504  0.07155043  1
  Al  Al33  1  0.08439583  0.09207702  0.58967495  1
  Al  Al34  1  0.09014167  0.59267902  0.07843307  1
  Al  Al35  1  0.08600334  0.59260132  0.58796714  1
  Al  Al36  1  0.58016552  0.09828085  0.08329052  1
  Al  Al37  1  0.57629498  0.08777029  0.58945380  1
  Al  Al38  1  0.57985197  0.57195962  0.07916332  1
  Al  Al39  1  0.57080370  0.58471122  0.57849626  1
  Al  Al40  1  0.43030199  0.41618092  0.09828966  1
  Al  Al41  1  0.40951666  0.41165833  0.59188787  1
  Al  Al42  1  0.41911082  0.91285766  0.08301528  1
  Al  Al43  1  0.42773854  0.90882254  0.58060911  1
  Al  Al44  1  0.90212445  0.42315685  0.08719246  1
  Al  Al45  1  0.92873914  0.41644191  0.57468254  1
  Al  Al46  1  0.91762790  0.89992828  0.08290699  1
  Al  Al47  1  0.92503624  0.90711914  0.58835068  1
  Al  Al48  1  0.41310628  0.10018884  0.41992961  1
  Al  Al49  1  0.42746338  0.07782577  0.91591205  1
  Al  Al50  1  0.40902913  0.58895512  0.41418338  1
  Al  Al51  1  0.41654560  0.58861018  0.90715675  1
  Al  Al52  1  0.92004375  0.08281160  0.42449943  1
  Al  Al53  1  0.92335485  0.09172284  0.91282475  1
  Al  Al54  1  0.91808661  0.57704049  0.40642759  1
  Al  Al55  1  0.92756667  0.59324333  0.91361857  1
  Al  Al56  1  0.08372414  0.42318397  0.41518743  1
  Al  Al57  1  0.07140519  0.42276246  0.91730352  1
  Al  Al58  1  0.08087983  0.91755252  0.42527909  1
  Al  Al59  1  0.08652754  0.91520150  0.91272306  1
  Al  Al60  1  0.57979733  0.41746266  0.40971685  1
  Al  Al61  1  0.58658520  0.41255961  0.92341322  1
  Al  Al62  1  0.58212081  0.89986691  0.42362584  1
  Al  Al63  1  0.58850998  0.92117767  0.90658597  1
  Al  Al64  1  0.08372033  0.08502224  0.42584304  1
  Al  Al65  1  0.08500568  0.08183567  0.90247930  1
  Al  Al66  1  0.08507631  0.58208339  0.41695047  1
  Al  Al67  1  0.08710336  0.60083376  0.91521776  1
  Al  Al68  1  0.57182598  0.09146702  0.41843423  1
  Al  Al69  1  0.59130631  0.08321208  0.90855343  1
  Al  Al70  1  0.58232888  0.58131193  0.41280900  1
  Al  Al71  1  0.57453368  0.58251154  0.91551993  1
  Al  Al72  1  0.41349793  0.41519482  0.41198720  1
  Al  Al73  1  0.42535135  0.42871289  0.90968238  1
  Al  Al74  1  0.42405000  0.90967843  0.41864544  1
  Al  Al75  1  0.42229934  0.91524492  0.91923895  1
  Al  Al76  1  0.91083494  0.42211854  0.40679169  1
  Al  Al77  1  0.91648638  0.40857805  0.92358851  1
  Al  Al78  1  0.91841511  0.91883065  0.42204455  1
  Al  Al79  1  0.91698591  0.90704942  0.92145152  1
  Al  Al80  1  0.07630199  0.43037017  0.08049071  1
  Al  Al81  1  0.08256797  0.41962442  0.58297311  1
  Al  Al82  1  0.07856902  0.90430605  0.07909045  1
  Al  Al83  1  0.08213910  0.90694899  0.58955112  1
  Al  Al84  1  0.59015877  0.40442644  0.08666687  1
  Al  Al85  1  0.56889059  0.40582698  0.58769928  1
  Al  Al86  1  0.57501905  0.91309077  0.07888070  1
  Al  Al87  1  0.58620162  0.90410046  0.58539475  1
  Al  Al88  1  0.42770338  0.08638796  0.09124543  1
  Al  Al89  1  0.41600779  0.10144309  0.58133722  1
  Al  Al90  1  0.41555951  0.57741464  0.08048120  1
  Al  Al91  1  0.40498292  0.58709549  0.58656774  1
  Al  Al92  1  0.91565037  0.08034631  0.07344234  1
  Al  Al93  1  0.92516069  0.09236709  0.58617103  1
  Al  Al94  1  0.91255735  0.58167620  0.09029975  1
  Al  Al95  1  0.92971669  0.59664254  0.58679530  1
  Al  Al96  1  0.25069056  0.13288939  0.14012020  1
  Al  Al97  1  0.25257724  0.13264924  0.63862604  1
  Al  Al98  1  0.24918952  0.63157010  0.13392874  1
  Al  Al99  1  0.25302515  0.63587507  0.62957063  1
  Al  Al100  1  0.74839059  0.13499446  0.13635390  1
  Al  Al101  1  0.74323260  0.13291874  0.63860547  1
  Al  Al102  1  0.75247988  0.63046867  0.13608800  1
  Al  Al103  1  0.74809434  0.64246953  0.63440603  1
  Al  Al104  1  0.25541308  0.37252378  0.14050229  1
  Al  Al105  1  0.25561294  0.36569334  0.63649547  1
  Al  Al106  1  0.24904340  0.86358135  0.13557305  1
  Al  Al107  1  0.24565685  0.86607334  0.63742317  1
  Al  Al108  1  0.74812923  0.36854288  0.13456509  1
  Al  Al109  1  0.74336623  0.35982757  0.63259990  1
  Al  Al110  1  0.75799425  0.86319134  0.13258410  1
  Al  Al111  1  0.74289529  0.86566481  0.63579265  1
  Al  Al112  1  0.25398509  0.13675626  0.36595822  1
  Al  Al113  1  0.24911781  0.13429705  0.85945593  1
  Al  Al114  1  0.25327690  0.63484832  0.37275793  1
  Al  Al115  1  0.24514828  0.64094301  0.86306709  1
  Al  Al116  1  0.74653304  0.13604019  0.36309798  1
  Al  Al117  1  0.74294492  0.13413526  0.86221242  1
  Al  Al118  1  0.75279862  0.63374946  0.36468815  1
  Al  Al119  1  0.75125635  0.63990389  0.86027990  1
  Al  Al120  1  0.25575375  0.36485559  0.36388385  1
  Al  Al121  1  0.25630723  0.36129532  0.86086144  1
  Al  Al122  1  0.24689774  0.86540129  0.36469634  1
  Al  Al123  1  0.24560641  0.86172752  0.86006319  1
  Al  Al124  1  0.74782986  0.36404349  0.36473569  1
  Al  Al125  1  0.74723548  0.36137081  0.86855930  1
  Al  Al126  1  0.75215930  0.86551722  0.36449025  1
  Al  Al127  1  0.75162529  0.86214212  0.86070095  1
  Al  Al128  1  0.13717592  0.24742358  0.13773787  1
  Al  Al129  1  0.13725831  0.24600338  0.63771514  1
  Al  Al130  1  0.13037767  0.74856899  0.13613207  1
  Al  Al131  1  0.13164750  0.74782719  0.63702977  1
  Al  Al132  1  0.63707531  0.25244342  0.12777880  1
  Al  Al133  1  0.62916425  0.24720182  0.63292622  1
  Al  Al134  1  0.63847568  0.75214030  0.13513140  1
  Al  Al135  1  0.62588228  0.75297865  0.63336834  1
  Al  Al136  1  0.13756825  0.24781769  0.36334009  1
  Al  Al137  1  0.13364289  0.24499410  0.86128448  1
  Al  Al138  1  0.13575361  0.74694736  0.36396638  1
  Al  Al139  1  0.12524958  0.75067942  0.85989837  1
  Al  Al140  1  0.62924231  0.25216291  0.36663928  1
  Al  Al141  1  0.62753935  0.24893196  0.86630397  1
  Al  Al142  1  0.63635599  0.75376645  0.36860929  1
  Al  Al143  1  0.63252777  0.74908856  0.86378990  1
  Al  Al144  1  0.36527513  0.25468912  0.13554250  1
  Al  Al145  1  0.36895323  0.24825135  0.63464283  1
  Al  Al146  1  0.36389442  0.74713369  0.13592370  1
  Al  Al147  1  0.36872925  0.74858822  0.63487096  1
  Al  Al148  1  0.86271864  0.25105123  0.13588309  1
  Al  Al149  1  0.86379481  0.24691734  0.63481927  1
  Al  Al150  1  0.87228998  0.75029005  0.13651050  1
  Al  Al151  1  0.86746432  0.75170442  0.63447117  1
  Al  Al152  1  0.37472964  0.25007605  0.36248735  1
  Al  Al153  1  0.37493142  0.24889688  0.85991666  1
  Al  Al154  1  0.36398717  0.74746089  0.36641059  1
  Al  Al155  1  0.36667178  0.74759981  0.86490402  1
  Al  Al156  1  0.86336840  0.24827855  0.36141655  1
  Al  Al157  1  0.86216079  0.24855068  0.86464054  1
  Al  Al158  1  0.86557977  0.74996881  0.36513458  1
  Al  Al159  1  0.87032329  0.75207446  0.86236752  1
  Al  Al160  1  0.13333170  0.13088759  0.25223050  1
  Al  Al161  1  0.13349586  0.12998338  0.74958823  1
  Al  Al162  1  0.13597633  0.63408889  0.24665924  1
  Al  Al163  1  0.13060259  0.63480178  0.74796417  1
  Al  Al164  1  0.63309082  0.13535205  0.25153785  1
  Al  Al165  1  0.62931666  0.13335200  0.74804700  1
  Al  Al166  1  0.63693468  0.63589800  0.24983683  1
  Al  Al167  1  0.62772914  0.63905709  0.74723776  1
  Al  Al168  1  0.36995784  0.13562753  0.25344171  1
  Al  Al169  1  0.37286748  0.13436672  0.74746825  1
  Al  Al170  1  0.36259251  0.62876966  0.25390810  1
  Al  Al171  1  0.36748256  0.63809519  0.74622279  1
  Al  Al172  1  0.86632446  0.13271150  0.24818968  1
  Al  Al173  1  0.86676020  0.13422432  0.75146190  1
  Al  Al174  1  0.86486906  0.63219211  0.24724432  1
  Al  Al175  1  0.86907986  0.63764335  0.74885915  1
  Al  Al176  1  0.13740635  0.36486601  0.24955618  1
  Al  Al177  1  0.13510115  0.36521923  0.74961696  1
  Al  Al178  1  0.13555606  0.86705194  0.24639207  1
  Al  Al179  1  0.12807876  0.86559042  0.74903646  1
  Al  Al180  1  0.62628812  0.36191572  0.24559572  1
  Al  Al181  1  0.62948991  0.36014026  0.74960280  1
  Al  Al182  1  0.63802092  0.86518663  0.25044011  1
  Al  Al183  1  0.63466042  0.86829835  0.74970820  1
  Al  Al184  1  0.37163451  0.36766169  0.25260391  1
  Al  Al185  1  0.37462291  0.36276886  0.74506474  1
  Al  Al186  1  0.36537037  0.86300703  0.25508534  1
  Al  Al187  1  0.36641985  0.86426035  0.74596367  1
  Al  Al188  1  0.85965762  0.37006010  0.24959356  1
  Al  Al189  1  0.86201758  0.36317648  0.74845134  1
  Al  Al190  1  0.86495859  0.86827712  0.24877061  1
  Al  Al191  1  0.87177654  0.86445186  0.74711723  1
  Al  Al192  1  0.81740308  0.18038624  -0.00117831  1
  Al  Al193  1  0.67480041  -0.00032374  0.16866310  1
  Al  Al194  1  0.82655966  0.50077493  0.83003057  1
  Al  Al195  1  0.68696427  0.83021104  -0.00193000  1
  Al  Al196  1  0.66888652  0.50005963  0.67121157  1
  Al  Al197  1  0.81697190  0.17133085  0.50122751  1
  Al  Al198  1  0.32557195  0.31267805  0.49900951  1
  Al  Al199  1  0.68435483  0.49883135  0.31652199  1
  Al  Al200  1  0.32412384  -0.00032370  0.17604070  1
  Al  Al201  1  0.32809416  -0.00046818  0.66807443  1
  Al  Al202  1  0.19002347  0.17701126  0.50202596  1
  Al  Al203  1  0.17332102  0.32838989  0.49932334  1
  Al  Al204  1  0.81392411  0.82066384  0.50219854  1
  Al  Al205  1  0.82602647  0.32691406  0.49723487  1
  Al  Al206  1  0.00098031  0.31465205  0.67392795  1
  Al  Al207  1  0.33190668  0.17167728  -0.00050571  1
  Al  Al208  1  0.00056171  0.67353841  0.31778880  1
  Al  Al209  1  0.50055932  0.68592721  0.32299343  1
  Al  Al210  1  0.17395327  0.17054327  -0.00198792  1
  Al  Al211  1  0.32502472  0.50122649  0.80829115  1
  Al  Al212  1  0.83184663  0.50180114  0.66751174  1
  Al  Al213  1  0.31902682  0.67662348  -0.00432781  1
  Al  Al214  1  0.00058826  0.32292215  0.32844509  1
  Al  Al215  1  0.32848423  0.00249840  0.33253891  1
  Al  Al216  1  0.50127448  0.66996402  0.17053578  1
  Al  Al217  1  0.81912662  -0.00032221  0.83350728  1
  Al  Al218  1  0.67293845  0.67195820  -0.00066595  1
  Al  Al219  1  0.67231816  0.50102459  0.82765782  1
  Al  Al220  1  0.67311325  -0.00229812  0.33498270  1
  Al  Al221  1  0.17886631  0.80859505  -0.00239553  1
  Al  Al222  1  0.00116387  0.83152335  0.31602824  1
  Al  Al223  1  0.82801876  0.68680011  -0.00090974  1
  Al  Al224  1  0.33272252  0.33443524  -0.00003225  1
  Al  Al225  1  0.31588428  -0.00230676  0.82578660  1
  Al  Al226  1  0.17578378  0.81974663  0.50121833  1
  Al  Al227  1  -0.00172286  0.32580836  0.17303383  1
  Al  Al228  1  -0.00204305  0.31501807  0.82518599  1
  Al  Al229  1  0.18699227  0.50086703  0.31940829  1
  Al  Al230  1  0.67559146  0.67662516  0.50000347  1
  Al  Al231  1  0.32750177  0.81683919  0.50135246  1
  Al  Al232  1  0.17303321  0.50116160  0.82906090  1
  Al  Al233  1  0.50066681  0.81526913  0.81448632  1
  Al  Al234  1  0.50051338  0.82136659  0.18918217  1
  Al  Al235  1  0.18672846  0.50107028  0.67218861  1
  Al  Al236  1  0.16715461  0.32844637  -0.00045919  1
  Al  Al237  1  0.82490743  0.00114272  0.66990927  1
  Al  Al238  1  0.50172245  0.19812643  0.19242670  1
  Au  Au239  1  0.32697451  0.15577974  0.00163904  1
  Au  Au240  1  0.33997660  -0.00054172  0.65720375  1
  Au  Au241  1  0.83727589  0.66123072  0.49483687  1
  Au  Au242  1  -0.00054150  0.82802225  0.82655236  1
  Au  Au243  1  0.17448259  0.50107442  0.84173691  1
  Au  Au244  1  0.83731038  0.00439347  0.33196017  1
  Au  Au245  1  0.49585170  0.67336275  0.67205550  1
  Au  Au246  1  0.00099528  0.16367325  0.16348770  1
  Au  Au247  1  0.17528376  0.50080025  0.66708673  1
  Au  Au248  1  0.33856638  -0.00200717  0.33842350  1
  Au  Au249  1  0.82542357  -0.00003620  0.84858593  1
  Au  Au250  1  0.17005712  0.50258935  0.17108433  1
  Au  Au251  1  0.32519948  0.83241161  0.00049632  1
  Au  Au252  1  0.83027120  0.50165145  0.84564693  1
  Au  Au253  1  0.66684228  0.16579363  0.50227631  1
  Au  Au254  1  0.15621651  -0.00159600  0.67660793  1
  Au  Au255  1  0.65288149  0.49540662  0.67383152  1
  Au  Au256  1  0.83818944  -0.00490645  0.16238989  1
  Au  Au257  1  0.00169757  0.82541063  0.33210493  1
  Au  Au258  1  0.66098171  -0.00224580  0.34528593  1
  Au  Au259  1  0.34080050  0.34842249  0.00127801  1
  Au  Au260  1  0.67396585  0.49923396  0.16924401  1
  Au  Au261  1  0.16079872  -0.00444525  0.16281146  1
  Au  Au262  1  0.32341838  -0.00285985  0.84092426  1
  Au  Au263  1  0.00057975  0.17371678  0.34035754  1
  Au  Au264  1  0.32699547  0.66728403  -0.00188248  1
  Au  Au265  1  0.66982056  0.83088372  -0.00338094  1
  Au  Au266  1  0.33497694  -0.00045592  0.16963666  1
  Au  Au267  1  0.17219308  0.67240491  0.49797007  1
  Au  Au268  1  0.66293082  0.67938951  0.50020807  1
  Au  Au269  1  0.50006830  0.32329848  0.32020213  1
  Au  Au270  1  0.83230463  0.67075641  -0.00022123  1
  Au  Au271  1  0.50250417  0.33463250  0.82479891  1
  Au  Au272  1  0.83787648  0.32993697  0.50078009  1
  Au  Au273  1  0.65980928  0.00118096  0.16310841  1
  Au  Au274  1  0.15149164  0.32241121  -0.00081107  1
  Au  Au275  1  0.16452419  0.00103310  0.33651643  1
  Au  Au276  1  0.33888492  0.49958056  0.18263445  1
  Au  Au277  1  0.50056738  0.83066756  0.82252257  1
  Au  Au278  1  0.82186797  0.32880524  0.00303729  1
  Au  Au279  1  0.84023946  0.00161261  0.66613686  1
  Au  Au280  1  -0.00631994  0.34182568  0.17481470  1
  Au  Au281  1  0.84763029  0.50230765  0.66412697  1
  Au  Au282  1  0.65726178  -0.00179703  0.67462585  1
  Au  Au283  1  0.66902058  0.17543681  -0.00391268  1
  Au  Au284  1  0.00141540  0.67037011  0.16793649  1
  Au  Au285  1  0.66235161  0.33417622  0.49926342  1
  Au  Au286  1  0.50222793  0.16442425  0.82100917  1
  Au  Au287  1  0.82394045  0.83460544  0.50325862  1
