# generated using pymatgen
data_Ca24Ti8Al207Au49
_symmetry_space_group_name_H-M   'P 1'
_cell_length_a   17.32327681
_cell_length_b   17.32467064
_cell_length_c   17.32347746
_cell_angle_alpha   90.00522405
_cell_angle_beta   90.00448986
_cell_angle_gamma   89.99875218
_symmetry_Int_Tables_number   1
_chemical_formula_structural   Ca24Ti8Al207Au49
_chemical_formula_sum   'Ca24 Ti8 Al207 Au49'
_cell_volume   5199.12314457
_cell_formula_units_Z   1
loop_
 _symmetry_equiv_pos_site_id
 _symmetry_equiv_pos_as_xyz
  1  'x, y, z'
loop_
 _atom_site_type_symbol
 _atom_site_label
 _atom_site_symmetry_multiplicity
 _atom_site_fract_x
 _atom_site_fract_y
 _atom_site_fract_z
 _atom_site_occupancy
  Ca  Ca0  1  0.24427806  0.00512490  0.00220024  1
  Ca  Ca1  1  0.24471805  -0.00483054  0.49823568  1
  Ca  Ca2  1  0.24225322  0.49178714  0.00062483  1
  Ca  Ca3  1  0.24449124  0.50289398  0.50023692  1
  Ca  Ca4  1  0.75317165  0.00436374  -0.00273947  1
  Ca  Ca5  1  0.74789563  -0.00183295  0.50197433  1
  Ca  Ca6  1  0.75109279  0.49592212  0.00062262  1
  Ca  Ca7  1  0.74989212  0.50077997  0.50159624  1
  Ca  Ca8  1  0.00539219  0.24916796  0.00125111  1
  Ca  Ca9  1  0.00509840  0.24959989  0.49986669  1
  Ca  Ca10  1  0.00137731  0.74515550  -0.00238010  1
  Ca  Ca11  1  0.00380710  0.75259550  0.50324820  1
  Ca  Ca12  1  0.49811248  0.25111589  0.00049275  1
  Ca  Ca13  1  0.49928164  0.25338934  0.49812900  1
  Ca  Ca14  1  0.50122370  0.75071634  0.00274908  1
  Ca  Ca15  1  0.49604096  0.75282787  0.49719538  1
  Ca  Ca16  1  0.00704813  0.00311290  0.24965349  1
  Ca  Ca17  1  0.00111157  -0.00089151  0.74534746  1
  Ca  Ca18  1  0.00408470  0.49669967  0.24713712  1
  Ca  Ca19  1  0.00017733  0.49963763  0.74957908  1
  Ca  Ca20  1  0.49341317  0.00115724  0.25358398  1
  Ca  Ca21  1  0.50011684  0.00332402  0.74795987  1
  Ca  Ca22  1  0.49928494  0.49717517  0.25140534  1
  Ca  Ca23  1  0.50472043  0.49927334  0.74687516  1
  Ti  Ti24  1  0.25055378  0.24978015  0.24986153  1
  Ti  Ti25  1  0.24855419  0.25025227  0.74989119  1
  Ti  Ti26  1  0.24997809  0.74969459  0.25270179  1
  Ti  Ti27  1  0.24762887  0.74966969  0.74767093  1
  Ti  Ti28  1  0.74871722  0.25099115  0.24822481  1
  Ti  Ti29  1  0.75042771  0.25057150  0.75076536  1
  Ti  Ti30  1  0.74838032  0.74886327  0.25150919  1
  Ti  Ti31  1  0.75218513  0.74983431  0.74847335  1
  Al  Al32  1  0.08844947  0.09669977  0.09093833  1
  Al  Al33  1  0.09388420  0.08328914  0.58242010  1
  Al  Al34  1  0.08429451  0.57310566  0.08623452  1
  Al  Al35  1  0.08194479  0.60188817  0.58563090  1
  Al  Al36  1  0.58364946  0.08238973  0.08194064  1
  Al  Al37  1  0.59491527  0.08111128  0.58601540  1
  Al  Al38  1  0.58459438  0.57316479  0.09688287  1
  Al  Al39  1  0.59171645  0.57125486  0.58422164  1
  Al  Al40  1  0.40904571  0.40905715  0.07743275  1
  Al  Al41  1  0.42472235  0.41783038  0.57776582  1
  Al  Al42  1  0.41826962  0.92628314  0.09270539  1
  Al  Al43  1  0.40659074  0.91238445  0.57139967  1
  Al  Al44  1  0.91782832  0.41728661  0.08629116  1
  Al  Al45  1  0.91633355  0.42502217  0.58515812  1
  Al  Al46  1  0.92522531  0.92982466  0.07475215  1
  Al  Al47  1  0.92762323  0.90846938  0.59165596  1
  Al  Al48  1  0.40870373  0.07494502  0.41419538  1
  Al  Al49  1  0.41058130  0.08667930  0.92304594  1
  Al  Al50  1  0.41204246  0.59321051  0.41915911  1
  Al  Al51  1  0.42120039  0.56866890  0.91995738  1
  Al  Al52  1  0.92877356  0.08085028  0.42276159  1
  Al  Al53  1  0.92126864  0.09342322  0.91881904  1
  Al  Al54  1  0.92379995  0.58020561  0.42126032  1
  Al  Al55  1  0.92320663  0.58662115  0.90546649  1
  Al  Al56  1  0.08851705  0.41183401  0.42065610  1
  Al  Al57  1  0.08768295  0.40516471  0.92248741  1
  Al  Al58  1  0.09575761  0.91410356  0.41684179  1
  Al  Al59  1  0.07413761  0.91508852  0.90787678  1
  Al  Al60  1  0.59198027  0.41252445  0.42374482  1
  Al  Al61  1  0.58506434  0.41658952  0.91260392  1
  Al  Al62  1  0.56880121  0.91049825  0.41607414  1
  Al  Al63  1  0.58040490  0.92661108  0.91198215  1
  Al  Al64  1  0.09703587  0.08397829  0.41530559  1
  Al  Al65  1  0.08381438  0.09580132  0.91876983  1
  Al  Al66  1  0.09058746  0.58846834  0.42315557  1
  Al  Al67  1  0.07942997  0.58817317  0.91112408  1
  Al  Al68  1  0.57648517  0.08401010  0.42641876  1
  Al  Al69  1  0.58592066  0.08274000  0.91674138  1
  Al  Al70  1  0.57955825  0.57891577  0.41821488  1
  Al  Al71  1  0.58204372  0.57059990  0.91111876  1
  Al  Al72  1  0.41718590  0.41804309  0.41989754  1
  Al  Al73  1  0.40459040  0.40858903  0.91924342  1
  Al  Al74  1  0.40556254  0.90830021  0.41011497  1
  Al  Al75  1  0.42631590  0.93057725  0.91639749  1
  Al  Al76  1  0.92319051  0.41857202  0.42188670  1
  Al  Al77  1  0.92401183  0.41849544  0.91610674  1
  Al  Al78  1  0.93318967  0.91901801  0.42873816  1
  Al  Al79  1  0.92258067  0.91383624  0.90894765  1
  Al  Al80  1  0.09544889  0.40912629  0.08699365  1
  Al  Al81  1  0.08460998  0.41221479  0.57690208  1
  Al  Al82  1  0.08832309  0.93515002  0.08875008  1
  Al  Al83  1  0.09076690  0.90746668  0.58815878  1
  Al  Al84  1  0.58707328  0.41854011  0.08827293  1
  Al  Al85  1  0.59617669  0.41148427  0.58717842  1
  Al  Al86  1  0.57805952  0.92407695  0.08868779  1
  Al  Al87  1  0.58815893  0.92522940  0.58539938  1
  Al  Al88  1  0.40759405  0.08708398  0.08448289  1
  Al  Al89  1  0.41558739  0.07902209  0.57485999  1
  Al  Al90  1  0.42157092  0.57460047  0.08531298  1
  Al  Al91  1  0.41192279  0.58818558  0.57510800  1
  Al  Al92  1  0.92471440  0.09766139  0.08194317  1
  Al  Al93  1  0.92348859  0.07776321  0.58306173  1
  Al  Al94  1  0.92159871  0.57497433  0.08620099  1
  Al  Al95  1  0.92075894  0.58787291  0.59637307  1
  Al  Al96  1  0.24898981  0.13439329  0.12985105  1
  Al  Al97  1  0.24593725  0.13448942  0.62941938  1
  Al  Al98  1  0.24815768  0.63162417  0.13839315  1
  Al  Al99  1  0.24058513  0.63567481  0.63144323  1
  Al  Al100  1  0.75102763  0.14019017  0.12912375  1
  Al  Al101  1  0.75100388  0.12984552  0.63731108  1
  Al  Al102  1  0.74883776  0.63461156  0.13565094  1
  Al  Al103  1  0.75218543  0.63566553  0.63711045  1
  Al  Al104  1  0.24665070  0.36195690  0.13141623  1
  Al  Al105  1  0.24036588  0.36570436  0.63309297  1
  Al  Al106  1  0.24780717  0.87274435  0.14081351  1
  Al  Al107  1  0.24392167  0.86297996  0.63016262  1
  Al  Al108  1  0.74757567  0.36233528  0.13329082  1
  Al  Al109  1  0.74763824  0.36573884  0.63091556  1
  Al  Al110  1  0.75253550  0.86560372  0.13525673  1
  Al  Al111  1  0.75332644  0.86625791  0.63742929  1
  Al  Al112  1  0.24558868  0.13431268  0.36643048  1
  Al  Al113  1  0.24702764  0.13887554  0.87423023  1
  Al  Al114  1  0.24822871  0.63176520  0.36698417  1
  Al  Al115  1  0.24242844  0.63613942  0.86060589  1
  Al  Al116  1  0.74998649  0.13620790  0.35997107  1
  Al  Al117  1  0.74888494  0.13981591  0.87062234  1
  Al  Al118  1  0.74711170  0.63313740  0.36398381  1
  Al  Al119  1  0.75493276  0.63702672  0.86287139  1
  Al  Al120  1  0.24812889  0.36914659  0.36396134  1
  Al  Al121  1  0.24664390  0.36097325  0.87019844  1
  Al  Al122  1  0.24828679  0.86203904  0.37200425  1
  Al  Al123  1  0.24316797  0.86319646  0.86138397  1
  Al  Al124  1  0.74774956  0.36273788  0.36974878  1
  Al  Al125  1  0.75148203  0.36098563  0.86789515  1
  Al  Al126  1  0.74890925  0.86146056  0.36412196  1
  Al  Al127  1  0.75506419  0.86225223  0.86274284  1
  Al  Al128  1  0.13662124  0.24808680  0.13288531  1
  Al  Al129  1  0.13569569  0.24708296  0.63135059  1
  Al  Al130  1  0.14021860  0.74883579  0.14086147  1
  Al  Al131  1  0.12959093  0.75091951  0.63541529  1
  Al  Al132  1  0.63020063  0.24963259  0.13045924  1
  Al  Al133  1  0.63832858  0.25216356  0.63388854  1
  Al  Al134  1  0.63188629  0.75351017  0.13665721  1
  Al  Al135  1  0.63502703  0.74886481  0.63619812  1
  Al  Al136  1  0.13849156  0.24954417  0.36519988  1
  Al  Al137  1  0.13529125  0.24824466  0.86824691  1
  Al  Al138  1  0.13910586  0.74847654  0.37173067  1
  Al  Al139  1  0.12866017  0.75061661  0.85922963  1
  Al  Al140  1  0.63056503  0.25216111  0.36262792  1
  Al  Al141  1  0.62946440  0.24959080  0.86629075  1
  Al  Al142  1  0.63001109  0.74909919  0.36375179  1
  Al  Al143  1  0.63730177  0.75019131  0.86219895  1
  Al  Al144  1  0.36330718  0.25054030  0.12940549  1
  Al  Al145  1  0.36083199  0.24870157  0.63298565  1
  Al  Al146  1  0.36273802  0.75322634  0.13765938  1
  Al  Al147  1  0.36270686  0.75236371  0.63231425  1
  Al  Al148  1  0.86864027  0.24630112  0.13103403  1
  Al  Al149  1  0.86283882  0.25291661  0.63481877  1
  Al  Al150  1  0.86163936  0.74808807  0.13571147  1
  Al  Al151  1  0.87161439  0.74949581  0.63776419  1
  Al  Al152  1  0.36593673  0.24813632  0.36579567  1
  Al  Al153  1  0.36469541  0.25013753  0.87178107  1
  Al  Al154  1  0.36586693  0.75383049  0.36712542  1
  Al  Al155  1  0.36079245  0.74936772  0.86203193  1
  Al  Al156  1  0.86520132  0.25130395  0.36457159  1
  Al  Al157  1  0.86797502  0.24338007  0.86956433  1
  Al  Al158  1  0.86616457  0.74739472  0.36502203  1
  Al  Al159  1  0.87153307  0.75071075  0.86206527  1
  Al  Al160  1  0.13785964  0.13339874  0.24550333  1
  Al  Al161  1  0.13876076  0.13742037  0.75085785  1
  Al  Al162  1  0.13670057  0.62973084  0.25566811  1
  Al  Al163  1  0.12856555  0.63345767  0.74788793  1
  Al  Al164  1  0.62935777  0.13911782  0.24876859  1
  Al  Al165  1  0.63582512  0.13759360  0.74958871  1
  Al  Al166  1  0.63249244  0.63089517  0.24860657  1
  Al  Al167  1  0.63486414  0.63270397  0.74586691  1
  Al  Al168  1  0.36450678  0.13615569  0.24690159  1
  Al  Al169  1  0.35934274  0.13716445  0.75230378  1
  Al  Al170  1  0.36523931  0.63420258  0.25499383  1
  Al  Al171  1  0.36237954  0.63718080  0.74481894  1
  Al  Al172  1  0.86652663  0.13570016  0.24326722  1
  Al  Al173  1  0.86525334  0.13670148  0.74994315  1
  Al  Al174  1  0.86548428  0.63459169  0.25250457  1
  Al  Al175  1  0.87338933  0.63743104  0.74969193  1
  Al  Al176  1  0.13805276  0.36706465  0.24861102  1
  Al  Al177  1  0.13608417  0.36803763  0.75299815  1
  Al  Al178  1  0.13854692  0.86884685  0.25639206  1
  Al  Al179  1  0.12991099  0.86526146  0.74518083  1
  Al  Al180  1  0.63080800  0.36558262  0.24714794  1
  Al  Al181  1  0.63603372  0.36402421  0.74941140  1
  Al  Al182  1  0.63117297  0.86410213  0.25223558  1
  Al  Al183  1  0.63655423  0.86584472  0.74564203  1
  Al  Al184  1  0.36762066  0.36202584  0.24920052  1
  Al  Al185  1  0.36091058  0.36077628  0.75311101  1
  Al  Al186  1  0.36694870  0.86544084  0.25298056  1
  Al  Al187  1  0.36109547  0.86429029  0.74553119  1
  Al  Al188  1  0.86359196  0.36155533  0.24843150  1
  Al  Al189  1  0.86408084  0.36270502  0.75283836  1
  Al  Al190  1  0.86540761  0.86351258  0.24962530  1
  Al  Al191  1  0.87363338  0.86408852  0.74665272  1
  Al  Al192  1  0.32421039  0.49825361  0.66991806  1
  Al  Al193  1  0.33035109  0.83335227  -0.00321261  1
  Al  Al194  1  0.00277403  0.67281446  0.18202171  1
  Al  Al195  1  0.82882375  0.00242473  0.82011318  1
  Al  Al196  1  0.30927246  0.68906676  0.49935469  1
  Al  Al197  1  0.00207596  0.31728942  0.17347925  1
  Al  Al198  1  0.67481326  0.00084025  0.81371225  1
  Al  Al199  1  0.82892583  0.18020223  0.50048002  1
  Al  Al200  1  0.67417665  0.67321990  0.49980097  1
  Al  Al201  1  0.49937880  0.32608809  0.67796633  1
  Al  Al202  1  0.31431090  0.49503132  0.17873495  1
  Al  Al203  1  0.30765798  -0.00142706  0.31914052  1
  Al  Al204  1  0.68572804  0.49875103  0.81069201  1
  Al  Al205  1  0.83592198  -0.00229259  0.32242178  1
  Al  Al206  1  0.00242231  0.82589428  0.16778394  1
  Al  Al207  1  0.82592124  0.32305665  -0.00020860  1
  Al  Al208  1  0.66993501  -0.00132654  0.33249328  1
  Al  Al209  1  0.49782227  0.66837680  0.82119234  1
  Al  Al210  1  0.67756945  0.83351314  -0.00096843  1
  Al  Al211  1  0.00161989  0.17169090  0.68788671  1
  Al  Al212  1  0.49968849  0.82783404  0.66687101  1
  Al  Al213  1  0.49938480  0.82675050  0.82362911  1
  Al  Al214  1  0.31689632  0.49891540  0.82641908  1
  Al  Al215  1  0.49964383  0.16967855  0.67422557  1
  Al  Al216  1  0.31129030  0.32004434  0.49975269  1
  Al  Al217  1  0.67273370  0.82722018  0.50010724  1
  Al  Al218  1  0.67377490  0.18455224  0.49874863  1
  Al  Al219  1  0.68219887  0.49722794  0.32253792  1
  Al  Al220  1  0.17030093  0.67313328  0.00175467  1
  Al  Al221  1  0.32289219  0.00059825  0.82574934  1
  Al  Al222  1  0.82908357  0.67184669  0.50202488  1
  Al  Al223  1  0.50131828  0.67881385  0.17873399  1
  Al  Al224  1  0.16913813  0.00196428  0.81586313  1
  Al  Al225  1  0.32741411  0.66761691  -0.00131331  1
  Al  Al226  1  0.68194672  0.00240294  0.17626909  1
  Al  Al227  1  0.00194324  0.32648306  0.32591938  1
  Al  Al228  1  0.31050643  -0.00005653  0.66957394  1
  Al  Al229  1  0.16931916  0.82924725  0.00215626  1
  Al  Al230  1  0.00304710  0.82040886  0.32874660  1
  Al  Al231  1  0.81153802  0.49861160  0.18189056  1
  Al  Al232  1  0.67003396  0.66658474  0.00046548  1
  Al  Al233  1  0.82901075  0.82564947  0.50103768  1
  Al  Al234  1  0.00232874  0.17126554  0.31287432  1
  Al  Al235  1  0.83307950  0.67599731  0.00022646  1
  Al  Al236  1  0.00097331  0.31311806  0.82506095  1
  Al  Al237  1  0.81250509  0.49981573  0.68223762  1
  Al  Al238  1  0.00027609  0.32790505  0.67270711  1
  Au  Au239  1  0.49531202  0.16699637  0.33697235  1
  Au  Au240  1  0.49768212  0.33288988  0.16611733  1
  Au  Au241  1  0.15347866  0.82910823  -0.00149989  1
  Au  Au242  1  0.50485288  0.66630023  0.65504301  1
  Au  Au243  1  0.83532063  -0.00788896  0.33838942  1
  Au  Au244  1  0.50202823  0.33341900  0.33584221  1
  Au  Au245  1  0.65776877  -0.00112897  0.32858370  1
  Au  Au246  1  0.83270827  0.49928914  0.82770307  1
  Au  Au247  1  0.34005039  0.49900702  0.67588119  1
  Au  Au248  1  0.84319639  0.83121959  -0.00113580  1
  Au  Au249  1  0.82716503  -0.00504121  0.66037811  1
  Au  Au250  1  0.49957371  0.67763489  0.33512622  1
  Au  Au251  1  0.49865455  0.67073346  0.16959624  1
  Au  Au252  1  0.50240343  0.17396721  0.65790686  1
  Au  Au253  1  0.83028500  0.00989184  0.15456629  1
  Au  Au254  1  0.66758044  0.33280001  0.00033106  1
  Au  Au255  1  0.49669350  0.16799780  0.83698621  1
  Au  Au256  1  0.66674240  0.65110971  0.00105829  1
  Au  Au257  1  0.00452498  0.17278982  0.67094912  1
  Au  Au258  1  0.32729321  -0.00132930  0.66757893  1
  Au  Au259  1  0.16718527  0.49777200  0.83814828  1
  Au  Au260  1  0.00322449  0.67091946  0.33623053  1
  Au  Au261  1  0.66966459  0.49813362  0.32027865  1
  Au  Au262  1  0.31824424  0.00272656  0.17326872  1
  Au  Au263  1  0.33095832  0.50215859  0.33629241  1
  Au  Au264  1  0.82573037  0.34060865  0.50127758  1
  Au  Au265  1  0.66247943  0.84112077  -0.00091994  1
  Au  Au266  1  0.00610737  0.17285625  0.32934689  1
  Au  Au267  1  0.84235301  0.49781994  0.32593497  1
  Au  Au268  1  0.49953027  0.83613140  0.18089364  1
  Au  Au269  1  0.15890575  0.50329473  0.66287229  1
  Au  Au270  1  0.31714750  0.16094956  0.49601074  1
  Au  Au271  1  0.49905137  0.16580492  0.16820923  1
  Au  Au272  1  0.49603902  0.33939019  0.82706568  1
  Au  Au273  1  0.49818761  0.84036555  0.66961931  1
  Au  Au274  1  0.16341478  0.49832135  0.33008692  1
  Au  Au275  1  0.82314271  0.16396682  0.50007670  1
  Au  Au276  1  0.83839246  0.32185709  -0.00203875  1
  Au  Au277  1  0.34674065  0.83730556  -0.00248044  1
  Au  Au278  1  0.32141377  0.17664786  0.00065311  1
  Au  Au279  1  0.32151757  0.65171377  -0.00254790  1
  Au  Au280  1  0.16472592  0.00248458  0.83181616  1
  Au  Au281  1  0.32181603  0.49460340  0.16372206  1
  Au  Au282  1  0.32421879  0.33105200  0.50227656  1
  Au  Au283  1  0.49738664  0.67289883  0.83774826  1
  Au  Au284  1  0.67577577  0.16397612  0.00018892  1
  Au  Au285  1  0.83972849  0.66548471  0.00035903  1
  Au  Au286  1  0.00321849  0.84031149  0.17663747  1
  Au  Au287  1  0.82767081  0.00649826  0.83623597  1
