# generated using pymatgen
data_Ca24Ti8Al207Au49
_symmetry_space_group_name_H-M   'P 1'
_cell_length_a   17.31761474
_cell_length_b   17.31676047
_cell_length_c   17.31710248
_cell_angle_alpha   89.99799860
_cell_angle_beta   89.99802193
_cell_angle_gamma   89.99693444
_symmetry_Int_Tables_number   1
_chemical_formula_structural   Ca24Ti8Al207Au49
_chemical_formula_sum   'Ca24 Ti8 Al207 Au49'
_cell_volume   5193.13902768
_cell_formula_units_Z   1
loop_
 _symmetry_equiv_pos_site_id
 _symmetry_equiv_pos_as_xyz
  1  'x, y, z'
loop_
 _atom_site_type_symbol
 _atom_site_label
 _atom_site_symmetry_multiplicity
 _atom_site_fract_x
 _atom_site_fract_y
 _atom_site_fract_z
 _atom_site_occupancy
  Ca  Ca0  1  0.25107302  -0.00004040  -0.00527426  1
  Ca  Ca1  1  0.24884933  0.00109865  0.50282634  1
  Ca  Ca2  1  0.24931374  0.50158962  -0.00095841  1
  Ca  Ca3  1  0.24963169  0.50300836  0.49993126  1
  Ca  Ca4  1  0.75111665  0.00038365  0.00208292  1
  Ca  Ca5  1  0.74501169  -0.00367894  0.49554958  1
  Ca  Ca6  1  0.75269935  0.49702792  -0.00073330  1
  Ca  Ca7  1  0.75429819  0.50335315  0.49944501  1
  Ca  Ca8  1  -0.00587928  0.25169408  0.00053194  1
  Ca  Ca9  1  0.00367267  0.24057640  0.49912038  1
  Ca  Ca10  1  -0.00124860  0.75152578  0.00221893  1
  Ca  Ca11  1  0.00212491  0.75102369  0.49697176  1
  Ca  Ca12  1  0.50409815  0.24935044  -0.00147600  1
  Ca  Ca13  1  0.49645785  0.24552991  0.49961465  1
  Ca  Ca14  1  0.50128814  0.75424743  -0.00234043  1
  Ca  Ca15  1  0.49646890  0.75088305  0.50053755  1
  Ca  Ca16  1  -0.00567403  0.00018234  0.25572770  1
  Ca  Ca17  1  0.00681631  0.00195192  0.74284972  1
  Ca  Ca18  1  -0.00270377  0.50379407  0.25462528  1
  Ca  Ca19  1  0.00004719  0.49751227  0.74888900  1
  Ca  Ca20  1  0.50183687  -0.00259948  0.25587527  1
  Ca  Ca21  1  0.49396485  -0.00368675  0.74773830  1
  Ca  Ca22  1  0.50158932  0.50238470  0.25346599  1
  Ca  Ca23  1  0.49910389  0.50294622  0.74638452  1
  Ti  Ti24  1  0.25044946  0.24994170  0.25539949  1
  Ti  Ti25  1  0.25105340  0.24761444  0.74720217  1
  Ti  Ti26  1  0.24889249  0.74913479  0.25239036  1
  Ti  Ti27  1  0.25122981  0.75095475  0.74966861  1
  Ti  Ti28  1  0.74902109  0.24978780  0.25127914  1
  Ti  Ti29  1  0.74683164  0.24911055  0.74937895  1
  Ti  Ti30  1  0.75070448  0.75080155  0.25081466  1
  Ti  Ti31  1  0.74690584  0.75015889  0.75047228  1
  Al  Al32  1  0.07127681  0.07551349  0.08279009  1
  Al  Al33  1  0.09123645  0.08746723  0.58363994  1
  Al  Al34  1  0.07916741  0.58448969  0.08706072  1
  Al  Al35  1  0.10004466  0.58240856  0.57866931  1
  Al  Al36  1  0.58692353  0.07930159  0.08445929  1
  Al  Al37  1  0.57316994  0.08569792  0.58039319  1
  Al  Al38  1  0.58192020  0.58178364  0.08419288  1
  Al  Al39  1  0.57367146  0.59064328  0.58884172  1
  Al  Al40  1  0.42054880  0.42333677  0.08382348  1
  Al  Al41  1  0.41694014  0.42127724  0.58570846  1
  Al  Al42  1  0.42696419  0.91750065  0.07324409  1
  Al  Al43  1  0.41172135  0.90751933  0.58864243  1
  Al  Al44  1  0.90506345  0.41640854  0.08434721  1
  Al  Al45  1  0.93013167  0.42302456  0.58295877  1
  Al  Al46  1  0.91798793  0.91248464  0.09114246  1
  Al  Al47  1  0.92503802  0.92018299  0.57805877  1
  Al  Al48  1  0.42249258  0.08590880  0.41573885  1
  Al  Al49  1  0.41066340  0.07765098  0.90678472  1
  Al  Al50  1  0.39901454  0.58952920  0.41998363  1
  Al  Al51  1  0.42719275  0.58633404  0.91145900  1
  Al  Al52  1  0.92491120  0.08428552  0.41117574  1
  Al  Al53  1  0.92214728  0.09221222  0.92197856  1
  Al  Al54  1  0.91945928  0.59586927  0.40920268  1
  Al  Al55  1  0.91928685  0.57771183  0.91483872  1
  Al  Al56  1  0.08432562  0.41885740  0.41754741  1
  Al  Al57  1  0.07707084  0.42000497  0.91810017  1
  Al  Al58  1  0.09097109  0.92112494  0.41207088  1
  Al  Al59  1  0.09195342  0.92105717  0.90714644  1
  Al  Al60  1  0.57492321  0.42270203  0.41392588  1
  Al  Al61  1  0.58746597  0.40421209  0.91504298  1
  Al  Al62  1  0.58717754  0.91639156  0.41607885  1
  Al  Al63  1  0.57599312  0.90602636  0.92057373  1
  Al  Al64  1  0.08951684  0.08577230  0.41626079  1
  Al  Al65  1  0.08660046  0.07889475  0.89996433  1
  Al  Al66  1  0.08469417  0.59513428  0.41679041  1
  Al  Al67  1  0.07803872  0.58125454  0.91398466  1
  Al  Al68  1  0.58514364  0.08130408  0.40954162  1
  Al  Al69  1  0.57362788  0.08545292  0.92111980  1
  Al  Al70  1  0.58167775  0.57929576  0.42266739  1
  Al  Al71  1  0.58389672  0.58947617  0.91103420  1
  Al  Al72  1  0.41080803  0.42701509  0.41048526  1
  Al  Al73  1  0.42915165  0.41354195  0.90891789  1
  Al  Al74  1  0.41580339  0.90855208  0.42465228  1
  Al  Al75  1  0.41415116  0.91488770  0.90585729  1
  Al  Al76  1  0.92352717  0.42589742  0.41287049  1
  Al  Al77  1  0.91086969  0.41285390  0.92006058  1
  Al  Al78  1  0.91936754  0.91883678  0.41660561  1
  Al  Al79  1  0.92452451  0.91564001  0.92449057  1
  Al  Al80  1  0.07556788  0.42322477  0.07820269  1
  Al  Al81  1  0.09082517  0.42080238  0.59078680  1
  Al  Al82  1  0.07586986  0.90898573  0.08936260  1
  Al  Al83  1  0.08887892  0.92310210  0.58512211  1
  Al  Al84  1  0.59170798  0.41841640  0.07581449  1
  Al  Al85  1  0.57390476  0.42257099  0.58645574  1
  Al  Al86  1  0.59161295  0.91204782  0.08179907  1
  Al  Al87  1  0.57688299  0.90662504  0.57923335  1
  Al  Al88  1  0.42584665  0.07925092  0.07304192  1
  Al  Al89  1  0.41346861  0.08313742  0.59213486  1
  Al  Al90  1  0.42184884  0.58201608  0.08743312  1
  Al  Al91  1  0.40955094  0.59727726  0.58319210  1
  Al  Al92  1  0.91284027  0.08628990  0.08299004  1
  Al  Al93  1  0.92830340  0.08361495  0.58322585  1
  Al  Al94  1  0.91328522  0.57941742  0.09157555  1
  Al  Al95  1  0.91412386  0.58514413  0.56922611  1
  Al  Al96  1  0.25229030  0.13572713  0.14080055  1
  Al  Al97  1  0.25110646  0.12724033  0.63416489  1
  Al  Al98  1  0.24557771  0.63568808  0.13658657  1
  Al  Al99  1  0.25240795  0.63860697  0.62975438  1
  Al  Al100  1  0.74463525  0.13467639  0.13772360  1
  Al  Al101  1  0.74866964  0.13698513  0.63774631  1
  Al  Al102  1  0.75307691  0.63697324  0.13315022  1
  Al  Al103  1  0.74998650  0.63286769  0.63456603  1
  Al  Al104  1  0.25313451  0.36464962  0.14047172  1
  Al  Al105  1  0.24921563  0.36300085  0.63561227  1
  Al  Al106  1  0.24575683  0.86441771  0.13565721  1
  Al  Al107  1  0.25325282  0.87059540  0.63457685  1
  Al  Al108  1  0.75242520  0.36536035  0.13649237  1
  Al  Al109  1  0.74761218  0.36809350  0.63983912  1
  Al  Al110  1  0.75037733  0.86423294  0.13055483  1
  Al  Al111  1  0.74478494  0.86328364  0.63317747  1
  Al  Al112  1  0.24613717  0.13010004  0.37045552  1
  Al  Al113  1  0.25297616  0.13506388  0.86184769  1
  Al  Al114  1  0.24943509  0.63430493  0.36969497  1
  Al  Al115  1  0.24718842  0.63637597  0.86216197  1
  Al  Al116  1  0.74909711  0.13665654  0.36564485  1
  Al  Al117  1  0.74524926  0.13507698  0.86059341  1
  Al  Al118  1  0.75593653  0.63698477  0.36935201  1
  Al  Al119  1  0.74585242  0.63617881  0.86397511  1
  Al  Al120  1  0.25127862  0.36905155  0.36643873  1
  Al  Al121  1  0.24624539  0.36323456  0.85996166  1
  Al  Al122  1  0.25042758  0.86776035  0.36655758  1
  Al  Al123  1  0.25347886  0.86638397  0.86352107  1
  Al  Al124  1  0.75469402  0.36241353  0.36454310  1
  Al  Al125  1  0.74793353  0.36192182  0.86215450  1
  Al  Al126  1  0.74915901  0.86285699  0.36791331  1
  Al  Al127  1  0.74459147  0.86023958  0.87405647  1
  Al  Al128  1  0.13598920  0.24857797  0.14205415  1
  Al  Al129  1  0.13658429  0.23977108  0.63050652  1
  Al  Al130  1  0.13264330  0.75034674  0.13439994  1
  Al  Al131  1  0.14029829  0.74946539  0.63269408  1
  Al  Al132  1  0.63303348  0.24978160  0.13834856  1
  Al  Al133  1  0.62703541  0.25165427  0.63674407  1
  Al  Al134  1  0.63609442  0.75557457  0.13544749  1
  Al  Al135  1  0.63364117  0.75022873  0.63067037  1
  Al  Al136  1  0.13294667  0.24629546  0.36938482  1
  Al  Al137  1  0.13631373  0.24474968  0.86143145  1
  Al  Al138  1  0.13407005  0.74536227  0.37070249  1
  Al  Al139  1  0.13793929  0.75438925  0.86816772  1
  Al  Al140  1  0.62737692  0.24732112  0.36146578  1
  Al  Al141  1  0.62586481  0.24853721  0.86232007  1
  Al  Al142  1  0.63607903  0.75293149  0.36874336  1
  Al  Al143  1  0.62780482  0.74910087  0.86674574  1
  Al  Al144  1  0.36705574  0.25083185  0.14042731  1
  Al  Al145  1  0.37040155  0.24599154  0.63686015  1
  Al  Al146  1  0.36353553  0.75136345  0.13921061  1
  Al  Al147  1  0.36163837  0.75142410  0.62926658  1
  Al  Al148  1  0.86260311  0.25140917  0.13746906  1
  Al  Al149  1  0.86589677  0.24519777  0.63243523  1
  Al  Al150  1  0.86602742  0.75332286  0.13205001  1
  Al  Al151  1  0.86360800  0.74809651  0.63303211  1
  Al  Al152  1  0.36738802  0.24891950  0.36698181  1
  Al  Al153  1  0.37020774  0.24901611  0.85986932  1
  Al  Al154  1  0.36120382  0.74938098  0.37124688  1
  Al  Al155  1  0.37218697  0.75148692  0.86076250  1
  Al  Al156  1  0.87147119  0.24798714  0.36414247  1
  Al  Al157  1  0.86339794  0.25024822  0.86480682  1
  Al  Al158  1  0.86922971  0.74749834  0.36791516  1
  Al  Al159  1  0.86257506  0.75244643  0.87110589  1
  Al  Al160  1  0.13414615  0.13264065  0.25953792  1
  Al  Al161  1  0.13067209  0.13416189  0.74480392  1
  Al  Al162  1  0.13207290  0.63324466  0.25567052  1
  Al  Al163  1  0.14066999  0.62787806  0.74372002  1
  Al  Al164  1  0.63309712  0.12747232  0.25464696  1
  Al  Al165  1  0.62414176  0.13452183  0.74737225  1
  Al  Al166  1  0.63869517  0.63778477  0.25240176  1
  Al  Al167  1  0.62738587  0.64012859  0.74624973  1
  Al  Al168  1  0.36505701  0.13092166  0.26011120  1
  Al  Al169  1  0.36671862  0.12891070  0.74901336  1
  Al  Al170  1  0.36152045  0.63221043  0.25427942  1
  Al  Al171  1  0.37187979  0.63989052  0.74521226  1
  Al  Al172  1  0.86310603  0.13505495  0.25240274  1
  Al  Al173  1  0.87046791  0.13776291  0.74987717  1
  Al  Al174  1  0.86487771  0.63380317  0.25102128  1
  Al  Al175  1  0.86191710  0.63730506  0.75125430  1
  Al  Al176  1  0.13489621  0.36761567  0.25709602  1
  Al  Al177  1  0.13585494  0.36610625  0.74673643  1
  Al  Al178  1  0.13596138  0.86176666  0.25415605  1
  Al  Al179  1  0.13764993  0.86437158  0.74774477  1
  Al  Al180  1  0.63219009  0.36488129  0.25184322  1
  Al  Al181  1  0.62474292  0.36386934  0.75018530  1
  Al  Al182  1  0.63914948  0.87188712  0.25137663  1
  Al  Al183  1  0.63285708  0.86375451  0.75129139  1
  Al  Al184  1  0.36870694  0.36789038  0.25374211  1
  Al  Al185  1  0.36958943  0.36346013  0.74819865  1
  Al  Al186  1  0.36259394  0.86583627  0.25459247  1
  Al  Al187  1  0.36407668  0.86976541  0.74945537  1
  Al  Al188  1  0.86471613  0.37279022  0.25013499  1
  Al  Al189  1  0.86555468  0.36179170  0.74730091  1
  Al  Al190  1  0.86505342  0.86300574  0.25179340  1
  Al  Al191  1  0.86134212  0.86083940  0.75133915  1
  Al  Al192  1  0.19545338  0.00083270  0.80201967  1
  Al  Al193  1  -0.00009414  0.68197736  0.82289631  1
  Al  Al194  1  0.18585190  0.81880850  0.50022196  1
  Al  Al195  1  0.50064902  0.82408474  0.31978712  1
  Al  Al196  1  0.49786043  0.17633154  0.18575236  1
  Al  Al197  1  0.67720900  0.17317019  0.49999851  1
  Al  Al198  1  0.81798605  -0.00081634  0.32787954  1
  Al  Al199  1  0.67020454  0.33136739  0.49950378  1
  Al  Al200  1  -0.00085798  0.17258187  0.18549891  1
  Al  Al201  1  0.32141285  0.17810081  0.49849696  1
  Al  Al202  1  0.31639020  0.50281733  0.67146296  1
  Al  Al203  1  0.68187039  0.68052157  0.50076926  1
  Al  Al204  1  0.49834966  0.67039955  0.33260224  1
  Al  Al205  1  0.68327995  0.50108641  0.17421584  1
  Al  Al206  1  0.82208158  -0.00017276  0.17590657  1
  Al  Al207  1  0.32224893  0.82683675  -0.00113323  1
  Al  Al208  1  -0.00124460  0.32892516  0.17825808  1
  Al  Al209  1  0.32517631  0.33281525  -0.00305482  1
  Al  Al210  1  0.82866964  -0.00085430  0.82815101  1
  Al  Al211  1  0.66744100  -0.00603103  0.83058715  1
  Al  Al212  1  0.69104921  0.31581954  0.00016107  1
  Al  Al213  1  0.66996942  0.00115543  0.66929557  1
  Al  Al214  1  0.81712620  0.18780974  0.00079186  1
  Al  Al215  1  0.67647439  0.50194007  0.67799380  1
  Al  Al216  1  0.00066427  0.82685520  0.67902428  1
  Al  Al217  1  0.32495821  0.66925759  0.00000237  1
  Al  Al218  1  0.83274797  0.32203159  0.50089028  1
  Al  Al219  1  0.32758692  0.17343276  -0.00037072  1
  Al  Al220  1  0.49790984  0.80695404  0.68821184  1
  Al  Al221  1  0.17453627  0.17312813  0.00334620  1
  Al  Al222  1  0.00318725  0.31459798  0.67328217  1
  Al  Al223  1  0.16881740  0.00017826  0.18653852  1
  Al  Al224  1  0.00001148  0.32160951  0.82668944  1
  Al  Al225  1  0.17722463  0.32068875  0.50366014  1
  Al  Al226  1  0.17240008  0.32620995  0.00076562  1
  Al  Al227  1  0.32246894  0.49981832  0.82826843  1
  Al  Al228  1  0.00169546  0.81614574  0.31768545  1
  Al  Al229  1  0.81987944  0.49852467  0.81915281  1
  Al  Al230  1  -0.00129799  0.68663267  0.18645177  1
  Al  Al231  1  0.50079318  0.68068964  0.17984223  1
  Al  Al232  1  0.00266200  0.66624111  0.67080038  1
  Al  Al233  1  0.68115217  0.50051550  0.32708261  1
  Al  Al234  1  0.81849455  0.81795807  0.50053601  1
  Al  Al235  1  0.17783256  0.49588821  0.17880172  1
  Al  Al236  1  0.67689883  0.68145239  0.00426988  1
  Al  Al237  1  0.32953454  -0.00109994  0.17573460  1
  Al  Al238  1  0.82641976  -0.00056196  0.67116177  1
  Au  Au239  1  0.49599721  0.32748258  0.67395945  1
  Au  Au240  1  0.66728666  0.67211399  0.50079147  1
  Au  Au241  1  0.67108359  0.17052375  -0.00128834  1
  Au  Au242  1  0.82606028  0.83621053  0.00262826  1
  Au  Au243  1  0.00166962  0.32395218  0.33181814  1
  Au  Au244  1  0.82858633  0.15327055  0.49961579  1
  Au  Au245  1  0.33818721  0.49920916  0.82164979  1
  Au  Au246  1  0.49504742  0.32844547  0.33442437  1
  Au  Au247  1  0.15975986  0.49800146  0.82182503  1
  Au  Au248  1  0.17323730  0.50592713  0.33628272  1
  Au  Au249  1  0.16929155  0.49793611  0.16988406  1
  Au  Au250  1  0.33554734  0.50147322  0.17976568  1
  Au  Au251  1  0.83062844  0.50487715  0.32697572  1
  Au  Au252  1  0.00528171  0.67353654  0.65615791  1
  Au  Au253  1  0.50056605  0.82862124  0.16751261  1
  Au  Au254  1  0.17151793  0.84010674  0.00170452  1
  Au  Au255  1  0.84344049  0.33432176  0.50066423  1
  Au  Au256  1  0.66943930  0.49614194  0.83394475  1
  Au  Au257  1  0.65635178  -0.00115632  0.83393806  1
  Au  Au258  1  0.32252272  -0.00135738  0.67812376  1
  Au  Au259  1  0.67343639  -0.00263642  0.17396449  1
  Au  Au260  1  0.33021322  0.16925756  0.50129258  1
  Au  Au261  1  0.34089450  0.67531932  0.00061174  1
  Au  Au262  1  0.32965597  -0.00323372  0.34258476  1
  Au  Au263  1  0.16146438  0.66813680  -0.00302783  1
  Au  Au264  1  0.33204404  0.33899644  0.49961084  1
  Au  Au265  1  -0.00214746  0.32570402  0.16608585  1
  Au  Au266  1  0.84417025  0.00372460  0.82779748  1
  Au  Au267  1  -0.00312137  0.67317963  0.17635678  1
  Au  Au268  1  0.66789046  0.67290742  0.00179525  1
  Au  Au269  1  0.65455380  0.32528891  0.49916062  1
  Au  Au270  1  0.50655174  0.33881619  0.16763730  1
  Au  Au271  1  0.50059788  0.68235951  0.81580567  1
  Au  Au272  1  0.16798581  0.32891760  0.50150186  1
  Au  Au273  1  0.15245759  -0.00222827  0.18283966  1
  Au  Au274  1  0.84027191  0.50217772  0.67051095  1
  Au  Au275  1  0.00082493  0.17375018  0.82111869  1
  Au  Au276  1  0.33027755  -0.00194020  0.15860090  1
  Au  Au277  1  0.00228744  0.83152600  0.32545904  1
  Au  Au278  1  0.00281006  0.83080749  0.83016420  1
  Au  Au279  1  0.49528808  0.17051292  0.82536726  1
  Au  Au280  1  0.83048116  0.83016006  0.50271023  1
  Au  Au281  1  0.66657152  -0.00358344  0.65820101  1
  Au  Au282  1  0.34082400  0.32579439  -0.00282093  1
  Au  Au283  1  0.66538427  0.50192418  0.67224063  1
  Au  Au284  1  0.49852175  0.16326418  0.17497465  1
  Au  Au285  1  0.16259777  0.16124794  0.00164806  1
  Au  Au286  1  0.83141553  0.66136867  -0.00190312  1
  Au  Au287  1  0.17500277  0.83207711  0.50140162  1
