# generated using pymatgen
data_Ca24Ti8Al207Au49
_symmetry_space_group_name_H-M   'P 1'
_cell_length_a   17.32031667
_cell_length_b   17.32267740
_cell_length_c   17.32255433
_cell_angle_alpha   89.99827793
_cell_angle_beta   90.00281062
_cell_angle_gamma   90.00301539
_symmetry_Int_Tables_number   1
_chemical_formula_structural   Ca24Ti8Al207Au49
_chemical_formula_sum   'Ca24 Ti8 Al207 Au49'
_cell_volume   5197.35972270
_cell_formula_units_Z   1
loop_
 _symmetry_equiv_pos_site_id
 _symmetry_equiv_pos_as_xyz
  1  'x, y, z'
loop_
 _atom_site_type_symbol
 _atom_site_label
 _atom_site_symmetry_multiplicity
 _atom_site_fract_x
 _atom_site_fract_y
 _atom_site_fract_z
 _atom_site_occupancy
  Ca  Ca0  1  0.25441988  -0.00125229  -0.00190512  1
  Ca  Ca1  1  0.25375318  0.00356498  0.50265231  1
  Ca  Ca2  1  0.25541225  0.49974572  0.00047241  1
  Ca  Ca3  1  0.25412682  0.49717493  0.50147955  1
  Ca  Ca4  1  0.74735643  0.00116915  -0.00006486  1
  Ca  Ca5  1  0.75053191  -0.00731270  0.50183452  1
  Ca  Ca6  1  0.74386353  0.49799271  -0.00109510  1
  Ca  Ca7  1  0.74740666  0.50507593  0.50061107  1
  Ca  Ca8  1  0.00407627  0.25135743  0.00257481  1
  Ca  Ca9  1  0.00187624  0.24592271  0.49553165  1
  Ca  Ca10  1  -0.00085642  0.74750689  -0.00156717  1
  Ca  Ca11  1  -0.00560582  0.74799186  0.49807776  1
  Ca  Ca12  1  0.49589200  0.25378961  0.00099863  1
  Ca  Ca13  1  0.49783939  0.25088949  0.49640560  1
  Ca  Ca14  1  0.50341838  0.74303574  -0.00028672  1
  Ca  Ca15  1  0.50670936  0.74966155  0.49965288  1
  Ca  Ca16  1  -0.00196553  -0.00193369  0.25090051  1
  Ca  Ca17  1  -0.00128802  -0.00203314  0.74534594  1
  Ca  Ca18  1  0.00274890  0.50144871  0.24945639  1
  Ca  Ca19  1  0.00252149  0.50411907  0.74882752  1
  Ca  Ca20  1  0.50156899  -0.00307211  0.25305579  1
  Ca  Ca21  1  0.49917289  -0.00111379  0.75238856  1
  Ca  Ca22  1  0.50087095  0.50197372  0.24964522  1
  Ca  Ca23  1  0.49798705  0.49937266  0.75326685  1
  Ti  Ti24  1  0.25077333  0.25211411  0.25017639  1
  Ti  Ti25  1  0.25084122  0.25165442  0.74947690  1
  Ti  Ti26  1  0.25321256  0.74862506  0.24947233  1
  Ti  Ti27  1  0.25017554  0.74802215  0.75156744  1
  Ti  Ti28  1  0.74995589  0.25142264  0.25069152  1
  Ti  Ti29  1  0.75040321  0.25077970  0.74931207  1
  Ti  Ti30  1  0.74795161  0.74850310  0.24961814  1
  Ti  Ti31  1  0.74981702  0.74849647  0.74988936  1
  Al  Al32  1  0.07514148  0.08729453  0.07827620  1
  Al  Al33  1  0.08991182  0.08422636  0.58245574  1
  Al  Al34  1  0.08710109  0.58082556  0.08761982  1
  Al  Al35  1  0.08409963  0.57588580  0.59142874  1
  Al  Al36  1  0.58440515  0.08307931  0.07977874  1
  Al  Al37  1  0.57965598  0.07721596  0.57950156  1
  Al  Al38  1  0.59304881  0.58910546  0.07991690  1
  Al  Al39  1  0.58610803  0.58685253  0.58077035  1
  Al  Al40  1  0.41215708  0.42284072  0.07919512  1
  Al  Al41  1  0.41273466  0.41578833  0.60157940  1
  Al  Al42  1  0.41495135  0.90761357  0.07579206  1
  Al  Al43  1  0.41247523  0.91255558  0.57680459  1
  Al  Al44  1  0.92175054  0.41479569  0.08948019  1
  Al  Al45  1  0.91521564  0.42496696  0.57761564  1
  Al  Al46  1  0.92019009  0.91305677  0.08988722  1
  Al  Al47  1  0.91465021  0.91027337  0.57894147  1
  Al  Al48  1  0.41700091  0.08872817  0.41394671  1
  Al  Al49  1  0.41623963  0.07685355  0.91760779  1
  Al  Al50  1  0.42275567  0.58474495  0.40536562  1
  Al  Al51  1  0.41869026  0.58372594  0.90558160  1
  Al  Al52  1  0.91604996  0.08857496  0.41947071  1
  Al  Al53  1  0.90494412  0.08545022  0.92567410  1
  Al  Al54  1  0.90924661  0.58510269  0.41824175  1
  Al  Al55  1  0.90902728  0.58018828  0.90941134  1
  Al  Al56  1  0.09180293  0.41698452  0.41593976  1
  Al  Al57  1  0.09059712  0.42948065  0.92157589  1
  Al  Al58  1  0.07200281  0.91229451  0.41728176  1
  Al  Al59  1  0.08149262  0.91789803  0.91831594  1
  Al  Al60  1  0.57994162  0.42340475  0.41348825  1
  Al  Al61  1  0.58067214  0.42427171  0.90449937  1
  Al  Al62  1  0.58739783  0.91538481  0.41702073  1
  Al  Al63  1  0.58861907  0.91072516  0.91839140  1
  Al  Al64  1  0.07949674  0.09077584  0.42581288  1
  Al  Al65  1  0.08702545  0.07874391  0.92235689  1
  Al  Al66  1  0.08057682  0.57518405  0.41115719  1
  Al  Al67  1  0.09007971  0.58317023  0.91636955  1
  Al  Al68  1  0.57758132  0.08070862  0.40823491  1
  Al  Al69  1  0.58710281  0.07743933  0.92088700  1
  Al  Al70  1  0.58618756  0.59365780  0.41509746  1
  Al  Al71  1  0.58921038  0.58961009  0.91028743  1
  Al  Al72  1  0.41740272  0.42325802  0.41374283  1
  Al  Al73  1  0.41508462  0.41770696  0.90595196  1
  Al  Al74  1  0.41446408  0.91437821  0.41919274  1
  Al  Al75  1  0.41204127  0.91270566  0.91729822  1
  Al  Al76  1  0.91623226  0.42302833  0.41569655  1
  Al  Al77  1  0.90299848  0.42572988  0.91643856  1
  Al  Al78  1  0.91325149  0.90574426  0.41673081  1
  Al  Al79  1  0.91876414  0.92180550  0.91967039  1
  Al  Al80  1  0.08429414  0.41735806  0.09481195  1
  Al  Al81  1  0.09726881  0.41971100  0.58114828  1
  Al  Al82  1  0.07504337  0.90701843  0.08545532  1
  Al  Al83  1  0.07849663  0.92264615  0.58681275  1
  Al  Al84  1  0.58361398  0.42958326  0.08508252  1
  Al  Al85  1  0.57455618  0.41504152  0.59774385  1
  Al  Al86  1  0.58687489  0.90815010  0.07731568  1
  Al  Al87  1  0.58739427  0.91247703  0.57631114  1
  Al  Al88  1  0.41994907  0.08179402  0.07997557  1
  Al  Al89  1  0.41559197  0.08155123  0.57631553  1
  Al  Al90  1  0.41500412  0.58151259  0.08607448  1
  Al  Al91  1  0.41224020  0.57627135  0.59573710  1
  Al  Al92  1  0.91108258  0.09170105  0.08188555  1
  Al  Al93  1  0.91409649  0.08738747  0.57604511  1
  Al  Al94  1  0.91885190  0.58064691  0.08424628  1
  Al  Al95  1  0.90791069  0.58954701  0.57998828  1
  Al  Al96  1  0.25519773  0.13600076  0.13721341  1
  Al  Al97  1  0.25025679  0.13620952  0.63367715  1
  Al  Al98  1  0.25658938  0.63469794  0.13665883  1
  Al  Al99  1  0.25158410  0.62791345  0.63685721  1
  Al  Al100  1  0.75143905  0.13538734  0.13530418  1
  Al  Al101  1  0.75078982  0.13226594  0.63172531  1
  Al  Al102  1  0.74433457  0.63000932  0.13492014  1
  Al  Al103  1  0.74876832  0.63273902  0.63577952  1
  Al  Al104  1  0.25303868  0.36613340  0.13619184  1
  Al  Al105  1  0.25149748  0.37246530  0.63756372  1
  Al  Al106  1  0.26036335  0.86246650  0.13480536  1
  Al  Al107  1  0.25396612  0.86363486  0.63700450  1
  Al  Al108  1  0.74965215  0.37151423  0.13776253  1
  Al  Al109  1  0.75240947  0.36723609  0.63567322  1
  Al  Al110  1  0.74163765  0.86398372  0.13656531  1
  Al  Al111  1  0.74903727  0.86831217  0.63673636  1
  Al  Al112  1  0.24951482  0.13829575  0.36313973  1
  Al  Al113  1  0.25336297  0.13772173  0.86438538  1
  Al  Al114  1  0.25028429  0.63471470  0.36456799  1
  Al  Al115  1  0.25670241  0.63314912  0.86539612  1
  Al  Al116  1  0.75544312  0.13595049  0.36445031  1
  Al  Al117  1  0.75001604  0.13559734  0.86381194  1
  Al  Al118  1  0.74615499  0.63494744  0.36512023  1
  Al  Al119  1  0.74569977  0.63307921  0.86538502  1
  Al  Al120  1  0.25000759  0.36619849  0.36367796  1
  Al  Al121  1  0.25537143  0.37038905  0.86341993  1
  Al  Al122  1  0.25485715  0.86142672  0.36438760  1
  Al  Al123  1  0.25420609  0.85979893  0.86696308  1
  Al  Al124  1  0.74688639  0.36431859  0.36486111  1
  Al  Al125  1  0.74802560  0.37137534  0.86557125  1
  Al  Al126  1  0.74709365  0.86040792  0.36582047  1
  Al  Al127  1  0.74600978  0.85938997  0.86670245  1
  Al  Al128  1  0.13092023  0.25387860  0.13745680  1
  Al  Al129  1  0.13902706  0.24927383  0.63497209  1
  Al  Al130  1  0.13690882  0.75158001  0.13716730  1
  Al  Al131  1  0.13660432  0.74779254  0.63664989  1
  Al  Al132  1  0.63530831  0.25319364  0.13798560  1
  Al  Al133  1  0.63351614  0.25778364  0.63923908  1
  Al  Al134  1  0.63093703  0.74490560  0.13391421  1
  Al  Al135  1  0.63696759  0.74868072  0.63690828  1
  Al  Al136  1  0.13445287  0.24983440  0.36462914  1
  Al  Al137  1  0.13815530  0.25511595  0.86348851  1
  Al  Al138  1  0.13665468  0.75097115  0.36516555  1
  Al  Al139  1  0.13129088  0.74637951  0.86394496  1
  Al  Al140  1  0.62910187  0.24824819  0.36339869  1
  Al  Al141  1  0.63588076  0.25408384  0.85946054  1
  Al  Al142  1  0.62955137  0.74967577  0.36332965  1
  Al  Al143  1  0.63114271  0.74590090  0.86519161  1
  Al  Al144  1  0.36807202  0.25144432  0.13614572  1
  Al  Al145  1  0.36435721  0.25680368  0.63693097  1
  Al  Al146  1  0.37116361  0.74584438  0.12956324  1
  Al  Al147  1  0.36252883  0.74781941  0.63803356  1
  Al  Al148  1  0.86760874  0.24914509  0.13752293  1
  Al  Al149  1  0.86187048  0.24983583  0.63110562  1
  Al  Al150  1  0.86636287  0.75357498  0.13638859  1
  Al  Al151  1  0.86270078  0.74644278  0.63717761  1
  Al  Al152  1  0.36898592  0.25119457  0.36284180  1
  Al  Al153  1  0.36932292  0.25562327  0.85937310  1
  Al  Al154  1  0.37082720  0.74903400  0.36335808  1
  Al  Al155  1  0.37017565  0.74580276  0.86758889  1
  Al  Al156  1  0.86493553  0.25364157  0.36856126  1
  Al  Al157  1  0.86220091  0.24653012  0.86531684  1
  Al  Al158  1  0.86209354  0.74472579  0.36535272  1
  Al  Al159  1  0.86895642  0.74928204  0.86444223  1
  Al  Al160  1  0.13504792  0.13632363  0.24498428  1
  Al  Al161  1  0.13720935  0.13709543  0.75085374  1
  Al  Al162  1  0.13592820  0.63460411  0.25023916  1
  Al  Al163  1  0.13241786  0.63370404  0.74922157  1
  Al  Al164  1  0.63646599  0.13476382  0.25133657  1
  Al  Al165  1  0.63593938  0.13380851  0.74672201  1
  Al  Al166  1  0.63140779  0.63313548  0.25033324  1
  Al  Al167  1  0.63474325  0.62998593  0.75446480  1
  Al  Al168  1  0.36743578  0.13556532  0.25247605  1
  Al  Al169  1  0.36628420  0.13529415  0.74674155  1
  Al  Al170  1  0.37184755  0.63635915  0.24908110  1
  Al  Al171  1  0.36414772  0.62988114  0.75256382  1
  Al  Al172  1  0.86482484  0.13385099  0.24856804  1
  Al  Al173  1  0.86124617  0.13085951  0.74580097  1
  Al  Al174  1  0.86286779  0.63282445  0.24414841  1
  Al  Al175  1  0.86703485  0.63293330  0.75534844  1
  Al  Al176  1  0.13594539  0.36719706  0.25018604  1
  Al  Al177  1  0.13751518  0.36894185  0.74741849  1
  Al  Al178  1  0.13840103  0.86515067  0.24701952  1
  Al  Al179  1  0.13679711  0.86360365  0.75406282  1
  Al  Al180  1  0.63161103  0.36905940  0.25185459  1
  Al  Al181  1  0.63643409  0.37186791  0.75186838  1
  Al  Al182  1  0.62637123  0.85983927  0.24922717  1
  Al  Al183  1  0.63201261  0.86163206  0.75221701  1
  Al  Al184  1  0.37027124  0.36651079  0.24974505  1
  Al  Al185  1  0.36523269  0.37163673  0.75072379  1
  Al  Al186  1  0.37370139  0.86025125  0.24886561  1
  Al  Al187  1  0.36903549  0.86142438  0.75421204  1
  Al  Al188  1  0.86638964  0.36513259  0.24670301  1
  Al  Al189  1  0.86240843  0.36766417  0.75765252  1
  Al  Al190  1  0.86102007  0.86552934  0.25108404  1
  Al  Al191  1  0.86097683  0.86906272  0.75106887  1
  Al  Al192  1  0.68028061  0.17091730  0.49604130  1
  Al  Al193  1  0.81565292  0.49988677  0.31880405  1
  Al  Al194  1  0.81204192  0.67216219  0.00006470  1
  Al  Al195  1  0.50219630  0.18057440  0.18459925  1
  Al  Al196  1  0.33087456  0.33115730  0.50054350  1
  Al  Al197  1  0.33323399  0.68205206  0.50005489  1
  Al  Al198  1  0.32039764  -0.00120219  0.81727625  1
  Al  Al199  1  0.81231694  0.82730614  0.00259918  1
  Al  Al200  1  0.31437090  0.17945230  0.49843614  1
  Al  Al201  1  0.50230409  0.18110120  0.82765338  1
  Al  Al202  1  0.17324476  0.33097278  0.00183148  1
  Al  Al203  1  -0.00085261  0.81662427  0.30863237  1
  Al  Al204  1  0.67759970  -0.00183964  0.82136865  1
  Al  Al205  1  0.00091509  0.33018481  0.66885270  1
  Al  Al206  1  0.32630180  0.31995992  -0.00195887  1
  Al  Al207  1  0.68750642  0.69089128  0.49997434  1
  Al  Al208  1  0.18435831  0.82937439  0.00149527  1
  Al  Al209  1  0.68476697  0.17676059  -0.00035714  1
  Al  Al210  1  0.31214310  0.50127913  0.30871127  1
  Al  Al211  1  0.67703143  0.32861236  0.50225663  1
  Al  Al212  1  0.49987542  0.82576562  0.67509949  1
  Al  Al213  1  0.66969948  0.33111860  -0.00189009  1
  Al  Al214  1  0.00104527  0.68577724  0.17661856  1
  Al  Al215  1  0.18889293  0.50242420  0.81454102  1
  Al  Al216  1  0.82172415  0.49861858  0.68341343  1
  Al  Al217  1  -0.00040714  0.17345786  0.67269109  1
  Al  Al218  1  0.00201738  0.33523330  0.83117481  1
  Al  Al219  1  0.18025873  0.17834491  0.00131190  1
  Al  Al220  1  0.32684135  -0.00130011  0.32106233  1
  Al  Al221  1  0.17079211  0.00025275  0.33178047  1
  Al  Al222  1  -0.00060267  0.17358151  0.31776351  1
  Al  Al223  1  -0.00088982  0.82065597  0.67879833  1
  Al  Al224  1  0.49959304  0.18619924  0.67201009  1
  Al  Al225  1  0.68047913  -0.00229342  0.31864150  1
  Al  Al226  1  0.82148986  0.00207119  0.17669421  1
  Al  Al227  1  0.18450647  0.83301824  0.50166325  1
  Al  Al228  1  0.19069464  0.50120921  0.18755695  1
  Al  Al229  1  0.17890143  -0.00076676  0.16506643  1
  Al  Al230  1  0.18479590  0.67233469  0.00159794  1
  Al  Al231  1  0.50017845  0.67034997  0.68549999  1
  Al  Al232  1  0.00059169  0.32962052  0.31796679  1
  Al  Al233  1  0.82611102  0.31436546  0.00271159  1
  Al  Al234  1  0.18198923  -0.00038202  0.68220823  1
  Al  Al235  1  -0.00005883  0.17147551  0.83008393  1
  Al  Al236  1  0.81024867  0.80878979  0.50165114  1
  Al  Al237  1  0.17346191  0.66800417  0.50164099  1
  Al  Al238  1  0.18016551  0.31273135  0.49949820  1
  Au  Au239  1  0.67495441  0.15511579  0.49336566  1
  Au  Au240  1  -0.00231832  0.83694701  0.82608519  1
  Au  Au241  1  0.34174502  -0.00486820  0.17061888  1
  Au  Au242  1  0.32776545  0.16824990  -0.00146854  1
  Au  Au243  1  0.32378946  0.50203135  0.32114714  1
  Au  Au244  1  0.66367048  0.50182667  0.67933799  1
  Au  Au245  1  0.83682477  0.32631675  0.49821985  1
  Au  Au246  1  0.16792465  0.83292399  0.50498033  1
  Au  Au247  1  0.50051919  0.82589615  0.16319694  1
  Au  Au248  1  -0.00151051  0.67304798  0.66121094  1
  Au  Au249  1  0.66238515  -0.00315889  0.67302578  1
  Au  Au250  1  0.83022036  -0.00045485  0.16812113  1
  Au  Au251  1  -0.00476908  0.15584298  0.83052216  1
  Au  Au252  1  0.50325575  0.17223013  0.84159711  1
  Au  Au253  1  0.00149606  0.66503619  0.83386370  1
  Au  Au254  1  -0.00091640  0.17702878  0.16743065  1
  Au  Au255  1  -0.00284294  0.66999696  0.33198737  1
  Au  Au256  1  0.82422578  -0.00015774  0.83556283  1
  Au  Au257  1  0.16976517  0.65715410  0.49676483  1
  Au  Au258  1  0.66666113  0.50411458  0.32525422  1
  Au  Au259  1  0.82831567  0.49800714  0.17076292  1
  Au  Au260  1  0.50273080  0.65934351  0.17428626  1
  Au  Au261  1  0.49978257  0.82213067  0.66283579  1
  Au  Au262  1  0.49834989  0.17993635  0.65630085  1
  Au  Au263  1  0.65278786  0.32735813  -0.00396637  1
  Au  Au264  1  0.50251276  0.16809861  0.17327687  1
  Au  Au265  1  0.83391239  0.00064112  0.66277759  1
  Au  Au266  1  0.50004292  0.82507822  0.33969916  1
  Au  Au267  1  0.83138735  0.50131012  0.67537906  1
  Au  Au268  1  0.33141918  -0.00136525  0.66663063  1
  Au  Au269  1  0.33560845  0.66710901  -0.00306610  1
  Au  Au270  1  0.00198403  0.35069031  0.83566574  1
  Au  Au271  1  0.66372925  0.33928258  0.50365473  1
  Au  Au272  1  0.49863380  0.34524795  0.17044168  1
  Au  Au273  1  0.49928224  0.32458838  0.33647677  1
  Au  Au274  1  0.84162991  0.32102728  0.00305261  1
  Au  Au275  1  0.82811112  -0.00029116  0.34254234  1
  Au  Au276  1  0.34670071  0.67179397  0.50037926  1
  Au  Au277  1  0.00041449  0.33345554  0.33011551  1
  Au  Au278  1  0.00414877  0.32559320  0.65251785  1
  Au  Au279  1  0.16273096  0.00042816  0.16087420  1
  Au  Au280  1  0.81933927  0.65711910  -0.00028878  1
  Au  Au281  1  0.66435882  -0.00312183  0.16903259  1
  Au  Au282  1  0.17104814  0.00457910  0.34735963  1
  Au  Au283  1  0.00113181  0.67423752  0.17116585  1
  Au  Au284  1  0.82766282  0.83478441  0.00198948  1
  Au  Au285  1  0.16858012  0.82252081  0.00080118  1
  Au  Au286  1  0.17317250  -0.00042364  0.83164921  1
  Au  Au287  1  0.50013432  0.82293899  0.83977262  1
