# generated using pymatgen
data_Ca24Ti8Al207Au49
_symmetry_space_group_name_H-M   'P 1'
_cell_length_a   17.32412967
_cell_length_b   17.32167114
_cell_length_c   17.32243025
_cell_angle_alpha   89.99951676
_cell_angle_beta   90.00107131
_cell_angle_gamma   90.00358386
_symmetry_Int_Tables_number   1
_chemical_formula_structural   Ca24Ti8Al207Au49
_chemical_formula_sum   'Ca24 Ti8 Al207 Au49'
_cell_volume   5198.16469166
_cell_formula_units_Z   1
loop_
 _symmetry_equiv_pos_site_id
 _symmetry_equiv_pos_as_xyz
  1  'x, y, z'
loop_
 _atom_site_type_symbol
 _atom_site_label
 _atom_site_symmetry_multiplicity
 _atom_site_fract_x
 _atom_site_fract_y
 _atom_site_fract_z
 _atom_site_occupancy
  Ca  Ca0  1  0.25030145  -0.00241168  -0.00055059  1
  Ca  Ca1  1  0.24389295  -0.00138501  0.50497227  1
  Ca  Ca2  1  0.25112716  0.50337866  -0.00042838  1
  Ca  Ca3  1  0.24416175  0.50239513  0.49993841  1
  Ca  Ca4  1  0.74796679  -0.00760066  0.00234885  1
  Ca  Ca5  1  0.75008828  -0.00001473  0.50070567  1
  Ca  Ca6  1  0.75188733  0.50635637  -0.00150270  1
  Ca  Ca7  1  0.75256415  0.50045540  0.50094895  1
  Ca  Ca8  1  0.00387073  0.25032369  -0.00287373  1
  Ca  Ca9  1  0.00157289  0.25325622  0.50710910  1
  Ca  Ca10  1  -0.00075243  0.75069671  -0.00065574  1
  Ca  Ca11  1  -0.00110907  0.75285728  0.50377050  1
  Ca  Ca12  1  0.49652256  0.24948564  0.00046665  1
  Ca  Ca13  1  0.50245477  0.25006995  0.49966157  1
  Ca  Ca14  1  0.50190615  0.75172887  -0.00455439  1
  Ca  Ca15  1  0.50405910  0.75440018  0.50071685  1
  Ca  Ca16  1  -0.00081388  -0.00616276  0.24607210  1
  Ca  Ca17  1  0.00084205  0.00062981  0.74715419  1
  Ca  Ca18  1  -0.00342607  0.50431567  0.25075260  1
  Ca  Ca19  1  -0.00320890  0.49519267  0.74989778  1
  Ca  Ca20  1  0.50287566  -0.00017248  0.24916741  1
  Ca  Ca21  1  0.49949856  0.00111746  0.74977467  1
  Ca  Ca22  1  0.50298219  0.50037775  0.24878134  1
  Ca  Ca23  1  0.50436432  0.50076994  0.75467635  1
  Ti  Ti24  1  0.25114484  0.24805529  0.24854097  1
  Ti  Ti25  1  0.25020504  0.24828633  0.75038637  1
  Ti  Ti26  1  0.24821661  0.75162500  0.24875703  1
  Ti  Ti27  1  0.25058922  0.75167301  0.75101215  1
  Ti  Ti28  1  0.74765275  0.25016501  0.24815364  1
  Ti  Ti29  1  0.74907134  0.25010118  0.75137591  1
  Ti  Ti30  1  0.75026310  0.75096092  0.24748616  1
  Ti  Ti31  1  0.74946908  0.75038149  0.75196181  1
  Al  Al32  1  0.08530192  0.08322684  0.07400110  1
  Al  Al33  1  0.08503823  0.08292627  0.59425193  1
  Al  Al34  1  0.08432229  0.59436890  0.07955468  1
  Al  Al35  1  0.07020451  0.59315770  0.58930829  1
  Al  Al36  1  0.57837304  0.08238169  0.09428056  1
  Al  Al37  1  0.58636963  0.08433960  0.59969749  1
  Al  Al38  1  0.59235453  0.58615802  0.07290649  1
  Al  Al39  1  0.58412808  0.58060657  0.58544012  1
  Al  Al40  1  0.42161164  0.41888609  0.08142768  1
  Al  Al41  1  0.43156779  0.41487176  0.58336438  1
  Al  Al42  1  0.41988867  0.91297566  0.07666599  1
  Al  Al43  1  0.41855889  0.91839528  0.58186239  1
  Al  Al44  1  0.91575261  0.42890835  0.08734090  1
  Al  Al45  1  0.91297225  0.41221923  0.59270716  1
  Al  Al46  1  0.91199400  0.90566807  0.09065733  1
  Al  Al47  1  0.92044095  0.91082971  0.58873466  1
  Al  Al48  1  0.42644229  0.08008066  0.41723358  1
  Al  Al49  1  0.41929835  0.08932484  0.91285184  1
  Al  Al50  1  0.42211236  0.57805806  0.41907808  1
  Al  Al51  1  0.42084882  0.60053592  0.91296223  1
  Al  Al52  1  0.91858889  0.07573840  0.41788379  1
  Al  Al53  1  0.92462045  0.07723621  0.91398465  1
  Al  Al54  1  0.91440703  0.58287686  0.41594137  1
  Al  Al55  1  0.90857544  0.57987994  0.91454070  1
  Al  Al56  1  0.07584534  0.42069827  0.42278921  1
  Al  Al57  1  0.07754247  0.40534427  0.91186976  1
  Al  Al58  1  0.07782612  0.91031504  0.41313699  1
  Al  Al59  1  0.08887626  0.91457253  0.92425954  1
  Al  Al60  1  0.58961690  0.40884301  0.42186804  1
  Al  Al61  1  0.58145751  0.42282243  0.91146546  1
  Al  Al62  1  0.59132105  0.92018306  0.41499217  1
  Al  Al63  1  0.58276733  0.90836469  0.91046427  1
  Al  Al64  1  0.07774319  0.07673943  0.42588205  1
  Al  Al65  1  0.08709480  0.08940455  0.91570052  1
  Al  Al66  1  0.07479047  0.58251223  0.41774835  1
  Al  Al67  1  0.08677102  0.58990274  0.92186340  1
  Al  Al68  1  0.58713648  0.07843458  0.40754772  1
  Al  Al69  1  0.57763711  0.08354431  0.90580028  1
  Al  Al70  1  0.58374584  0.57621846  0.42109087  1
  Al  Al71  1  0.58536001  0.59794341  0.91237258  1
  Al  Al72  1  0.42660128  0.42009931  0.41731991  1
  Al  Al73  1  0.42344365  0.41860511  0.91843062  1
  Al  Al74  1  0.42010358  0.91674201  0.42155138  1
  Al  Al75  1  0.41937203  0.90620972  0.91391569  1
  Al  Al76  1  0.91300745  0.42008079  0.41781654  1
  Al  Al77  1  0.91657456  0.41836676  0.89974597  1
  Al  Al78  1  0.91776565  0.91023810  0.41043521  1
  Al  Al79  1  0.91086525  0.91408000  0.92743002  1
  Al  Al80  1  0.08011869  0.41810741  0.07366548  1
  Al  Al81  1  0.07005262  0.40734669  0.58684116  1
  Al  Al82  1  0.07668052  0.90407909  0.08527222  1
  Al  Al83  1  0.08288687  0.91850285  0.59447558  1
  Al  Al84  1  0.58027816  0.42310187  0.08906267  1
  Al  Al85  1  0.58992559  0.40588802  0.58402730  1
  Al  Al86  1  0.58497251  0.91593175  0.08163457  1
  Al  Al87  1  0.58798860  0.92207193  0.58773208  1
  Al  Al88  1  0.42065916  0.08961321  0.08449871  1
  Al  Al89  1  0.42532728  0.08747015  0.59484646  1
  Al  Al90  1  0.41327098  0.58442311  0.07013781  1
  Al  Al91  1  0.42745092  0.58566292  0.58269235  1
  Al  Al92  1  0.91489493  0.06751059  0.08662904  1
  Al  Al93  1  0.92504981  0.08430974  0.59010358  1
  Al  Al94  1  0.91053423  0.58747258  0.08886597  1
  Al  Al95  1  0.91322802  0.58630592  0.59109414  1
  Al  Al96  1  0.24893707  0.12827143  0.13548687  1
  Al  Al97  1  0.24898926  0.12889801  0.63989561  1
  Al  Al98  1  0.24900376  0.63815902  0.13416167  1
  Al  Al99  1  0.24739517  0.63694023  0.63631436  1
  Al  Al100  1  0.74846868  0.12773918  0.13555204  1
  Al  Al101  1  0.74628859  0.12858333  0.63826580  1
  Al  Al102  1  0.75206635  0.63525304  0.12964960  1
  Al  Al103  1  0.74887567  0.63550623  0.63767416  1
  Al  Al104  1  0.24828652  0.36240643  0.13436914  1
  Al  Al105  1  0.24831040  0.36211151  0.64005102  1
  Al  Al106  1  0.24729574  0.86951492  0.13452246  1
  Al  Al107  1  0.24905495  0.86936465  0.63922072  1
  Al  Al108  1  0.75072439  0.37288645  0.13463667  1
  Al  Al109  1  0.74833760  0.36231476  0.63635975  1
  Al  Al110  1  0.74989240  0.86929189  0.13141148  1
  Al  Al111  1  0.75153422  0.86857395  0.63820492  1
  Al  Al112  1  0.25142027  0.13147343  0.36258550  1
  Al  Al113  1  0.24635753  0.13525368  0.86311050  1
  Al  Al114  1  0.24662193  0.63891836  0.36387663  1
  Al  Al115  1  0.25234718  0.63375438  0.86261737  1
  Al  Al116  1  0.74345249  0.13050410  0.36397181  1
  Al  Al117  1  0.74881121  0.13605026  0.86152016  1
  Al  Al118  1  0.75047364  0.63811558  0.36377076  1
  Al  Al119  1  0.75004059  0.63557528  0.86937405  1
  Al  Al120  1  0.24994938  0.36269445  0.36110633  1
  Al  Al121  1  0.24658580  0.36697545  0.86165060  1
  Al  Al122  1  0.24848953  0.86343241  0.36359900  1
  Al  Al123  1  0.24759002  0.86408840  0.86550363  1
  Al  Al124  1  0.74739288  0.36349701  0.36505732  1
  Al  Al125  1  0.75110872  0.37310015  0.86231352  1
  Al  Al126  1  0.74974175  0.86675803  0.36336606  1
  Al  Al127  1  0.74759388  0.86227706  0.87257710  1
  Al  Al128  1  0.13723966  0.24491809  0.13363668  1
  Al  Al129  1  0.13068071  0.24776566  0.63945065  1
  Al  Al130  1  0.13340575  0.75653792  0.13164628  1
  Al  Al131  1  0.13446208  0.75309679  0.63368896  1
  Al  Al132  1  0.63041998  0.25027909  0.13670414  1
  Al  Al133  1  0.63610180  0.24764145  0.63706013  1
  Al  Al134  1  0.63959733  0.75098075  0.12876602  1
  Al  Al135  1  0.63557600  0.75023819  0.63873338  1
  Al  Al136  1  0.13624747  0.24758905  0.36449468  1
  Al  Al137  1  0.13360235  0.24887775  0.86113447  1
  Al  Al138  1  0.13393240  0.75401222  0.36925867  1
  Al  Al139  1  0.13279931  0.75323465  0.86401616  1
  Al  Al140  1  0.63556967  0.24996411  0.36325582  1
  Al  Al141  1  0.62802916  0.24844462  0.86143122  1
  Al  Al142  1  0.63184408  0.75187877  0.36012217  1
  Al  Al143  1  0.63561581  0.74891820  0.87002110  1
  Al  Al144  1  0.37094666  0.24577516  0.13745302  1
  Al  Al145  1  0.36552777  0.24570884  0.63563314  1
  Al  Al146  1  0.36368120  0.75037869  0.13442970  1
  Al  Al147  1  0.36727616  0.75276976  0.63917086  1
  Al  Al148  1  0.85818752  0.25035360  0.13594034  1
  Al  Al149  1  0.86633316  0.25077125  0.63919661  1
  Al  Al150  1  0.86153005  0.75342080  0.12525110  1
  Al  Al151  1  0.86650191  0.75120799  0.63794367  1
  Al  Al152  1  0.36660089  0.24896415  0.36280013  1
  Al  Al153  1  0.37119421  0.24494232  0.86077062  1
  Al  Al154  1  0.37075300  0.75246846  0.36152673  1
  Al  Al155  1  0.36683289  0.74787625  0.86674286  1
  Al  Al156  1  0.86118014  0.24701484  0.36255072  1
  Al  Al157  1  0.86607599  0.25289050  0.86420505  1
  Al  Al158  1  0.86459747  0.75652464  0.36123445  1
  Al  Al159  1  0.86394053  0.75049288  0.87218195  1
  Al  Al160  1  0.13435568  0.13178726  0.24849425  1
  Al  Al161  1  0.13032001  0.12926112  0.74450891  1
  Al  Al162  1  0.13356237  0.64025238  0.24723813  1
  Al  Al163  1  0.13615336  0.63701728  0.75012388  1
  Al  Al164  1  0.63690947  0.12925253  0.24725523  1
  Al  Al165  1  0.63155650  0.13227537  0.74931879  1
  Al  Al166  1  0.63966993  0.63004977  0.24775788  1
  Al  Al167  1  0.63348966  0.63336579  0.75572094  1
  Al  Al168  1  0.36475307  0.12877674  0.24599891  1
  Al  Al169  1  0.36484131  0.12961462  0.75047315  1
  Al  Al170  1  0.36512901  0.63757118  0.25161501  1
  Al  Al171  1  0.37056036  0.63678520  0.75292417  1
  Al  Al172  1  0.86481278  0.13290316  0.24995692  1
  Al  Al173  1  0.86719784  0.13175691  0.74602739  1
  Al  Al174  1  0.86385748  0.63885377  0.24571333  1
  Al  Al175  1  0.86228604  0.63663835  0.75126456  1
  Al  Al176  1  0.13429012  0.36183164  0.24831187  1
  Al  Al177  1  0.12853329  0.36308661  0.75112580  1
  Al  Al178  1  0.12923767  0.86477978  0.24862111  1
  Al  Al179  1  0.13213714  0.86855241  0.74409378  1
  Al  Al180  1  0.63706002  0.37254410  0.24624160  1
  Al  Al181  1  0.63507674  0.37136499  0.75202464  1
  Al  Al182  1  0.63921553  0.86985903  0.24876299  1
  Al  Al183  1  0.63420731  0.86490888  0.75437305  1
  Al  Al184  1  0.36475567  0.36469793  0.24534640  1
  Al  Al185  1  0.36607247  0.36550326  0.75566338  1
  Al  Al186  1  0.36259317  0.86877542  0.24836924  1
  Al  Al187  1  0.36686061  0.86682645  0.75495174  1
  Al  Al188  1  0.86355086  0.36545087  0.25025695  1
  Al  Al189  1  0.86789424  0.36401647  0.74987942  1
  Al  Al190  1  0.86647916  0.86577467  0.24297150  1
  Al  Al191  1  0.86409066  0.86631275  0.74966630  1
  Al  Al192  1  0.66742049  0.17100106  0.00170778  1
  Al  Al193  1  0.82685936  0.17359901  0.50353493  1
  Al  Al194  1  0.50215956  0.32559948  0.31909343  1
  Al  Al195  1  0.50163004  0.82602163  0.18002552  1
  Al  Al196  1  0.31819693  0.82623953  0.50125130  1
  Al  Al197  1  0.82577762  0.67993946  0.50029503  1
  Al  Al198  1  0.17419645  0.31303749  -0.00178939  1
  Al  Al199  1  0.50164395  0.17263872  0.31284780  1
  Al  Al200  1  0.32908596  0.50022522  0.67796084  1
  Al  Al201  1  -0.00151091  0.32277501  0.32826337  1
  Al  Al202  1  0.81600445  -0.00078940  0.31349575  1
  Al  Al203  1  0.17241118  0.17282479  0.50344422  1
  Al  Al204  1  0.32987036  0.32647819  0.49990829  1
  Al  Al205  1  0.67361854  0.32785733  0.00090634  1
  Al  Al206  1  0.16648256  0.49864641  0.67729461  1
  Al  Al207  1  0.32675035  0.50004268  0.32630658  1
  Al  Al208  1  0.50168983  0.31197988  0.68235161  1
  Al  Al209  1  -0.00159466  0.67199703  0.81558617  1
  Al  Al210  1  0.68182712  0.82676505  0.50160888  1
  Al  Al211  1  0.17181910  0.50014165  0.32802730  1
  Al  Al212  1  0.17400859  0.49984896  0.17440313  1
  Al  Al213  1  0.33066166  0.17328121  0.50075611  1
  Al  Al214  1  0.66839559  0.18146193  0.50067041  1
  Al  Al215  1  0.17477406  0.00100034  0.32347532  1
  Al  Al216  1  0.31052664  0.17340978  -0.00014703  1
  Al  Al217  1  0.82095077  0.49966512  0.68675852  1
  Al  Al218  1  0.32867855  0.50254381  0.17188096  1
  Al  Al219  1  0.67216996  0.67442948  0.49966563  1
  Al  Al220  1  0.83073024  0.33148381  -0.00362938  1
  Al  Al221  1  0.81698291  0.32787120  0.50035514  1
  Al  Al222  1  0.82004720  -0.00299028  0.82309136  1
  Al  Al223  1  -0.00088650  0.18561943  0.81181672  1
  Al  Al224  1  -0.00175914  0.68776647  0.17325843  1
  Al  Al225  1  0.30973023  0.80998005  -0.00097594  1
  Al  Al226  1  0.32261364  0.66961285  0.49899881  1
  Al  Al227  1  0.18038788  -0.00098516  0.82521624  1
  Al  Al228  1  0.50213717  0.67047967  0.17189679  1
  Al  Al229  1  0.17152628  0.32636002  0.50132148  1
  Al  Al230  1  0.82532552  0.16888062  0.00045889  1
  Al  Al231  1  0.19113807  0.69283573  -0.00209743  1
  Al  Al232  1  -0.00247856  0.17065451  0.17757255  1
  Al  Al233  1  -0.00089157  0.83053335  0.81770820  1
  Al  Al234  1  -0.00156419  0.68546791  0.32611983  1
  Al  Al235  1  -0.00107305  0.32727535  0.17265900  1
  Al  Al236  1  0.50157043  0.82228223  0.67784348  1
  Al  Al237  1  0.82033418  0.50179987  0.31430326  1
  Al  Al238  1  0.32557750  0.32980889  -0.00155838  1
  Au  Au239  1  0.67133533  -0.00149374  0.17386193  1
  Au  Au240  1  0.32697645  0.33903380  0.50001984  1
  Au  Au241  1  0.32696938  0.17758317  -0.00043474  1
  Au  Au242  1  0.16390302  0.50057740  0.16419007  1
  Au  Au243  1  0.84140010  0.33616328  0.00081094  1
  Au  Au244  1  0.34050756  -0.00150497  0.16669020  1
  Au  Au245  1  0.67428054  0.49706005  0.33622815  1
  Au  Au246  1  0.66929166  0.82607177  -0.00045263  1
  Au  Au247  1  0.50335022  0.83872344  0.32944729  1
  Au  Au248  1  0.00252159  0.17446794  0.34200046  1
  Au  Au249  1  -0.00194891  0.65692188  0.82207183  1
  Au  Au250  1  0.82968104  -0.00182452  0.32381073  1
  Au  Au251  1  0.33158872  -0.00121413  0.33494640  1
  Au  Au252  1  0.66469884  0.33650016  -0.00088314  1
  Au  Au253  1  0.82788275  0.67106585  -0.00064147  1
  Au  Au254  1  0.83552921  0.16150172  0.00000421  1
  Au  Au255  1  0.82833173  -0.00040959  0.66404274  1
  Au  Au256  1  0.66291328  0.16013891  -0.00266603  1
  Au  Au257  1  0.50428054  0.66727939  0.33529866  1
  Au  Au258  1  0.00025242  0.17705094  0.82674028  1
  Au  Au259  1  0.82693579  -0.00222392  0.83367303  1
  Au  Au260  1  0.50462678  0.66811376  0.68103870  1
  Au  Au261  1  0.49823496  0.67275924  0.15599006  1
  Au  Au262  1  -0.00010476  0.17187657  0.16080731  1
  Au  Au263  1  0.49831252  0.32430064  0.17037429  1
  Au  Au264  1  0.32432299  0.81875931  0.00049156  1
  Au  Au265  1  0.49872572  0.32355155  0.82893982  1
  Au  Au266  1  0.33846778  0.67607635  0.49882441  1
  Au  Au267  1  0.15504049  0.49830817  0.66573983  1
  Au  Au268  1  0.50002580  0.83463218  0.68041227  1
  Au  Au269  1  0.67607404  0.50676567  0.83543581  1
  Au  Au270  1  0.83334095  0.82824256  0.50173798  1
  Au  Au271  1  0.65866287  0.16838144  0.50089408  1
  Au  Au272  1  0.32632572  -0.00103343  0.66396488  1
  Au  Au273  1  0.67492832  0.49735669  0.66425246  1
  Au  Au274  1  0.16645322  -0.00421190  0.15831946  1
  Au  Au275  1  0.16606543  -0.00112442  0.33224883  1
  Au  Au276  1  0.33479867  0.50487769  0.84203379  1
  Au  Au277  1  -0.00144390  0.83574386  0.83365017  1
  Au  Au278  1  0.16726992  0.49703821  0.84202749  1
  Au  Au279  1  0.16812284  -0.00099850  0.82880803  1
  Au  Au280  1  0.32827690  0.16083058  0.50221118  1
  Au  Au281  1  0.16733013  0.83770920  0.50554184  1
  Au  Au282  1  0.33752312  -0.00130338  0.83022972  1
  Au  Au283  1  0.34287896  0.49909459  0.66845745  1
  Au  Au284  1  0.68007611  0.50551230  0.16376694  1
  Au  Au285  1  0.15858676  0.66923061  0.50036299  1
  Au  Au286  1  0.84391174  0.17872131  0.50423182  1
  Au  Au287  1  0.66374975  -0.00149592  0.82143455  1
