# generated using pymatgen
data_Ca24Ti8Al207Au49
_symmetry_space_group_name_H-M   'P 1'
_cell_length_a   17.32387538
_cell_length_b   17.32485114
_cell_length_c   17.32381826
_cell_angle_alpha   89.99768792
_cell_angle_beta   89.99779143
_cell_angle_gamma   90.00460431
_symmetry_Int_Tables_number   1
_chemical_formula_structural   Ca24Ti8Al207Au49
_chemical_formula_sum   'Ca24 Ti8 Al207 Au49'
_cell_volume   5199.45925944
_cell_formula_units_Z   1
loop_
 _symmetry_equiv_pos_site_id
 _symmetry_equiv_pos_as_xyz
  1  'x, y, z'
loop_
 _atom_site_type_symbol
 _atom_site_label
 _atom_site_symmetry_multiplicity
 _atom_site_fract_x
 _atom_site_fract_y
 _atom_site_fract_z
 _atom_site_occupancy
  Ca  Ca0  1  0.24767976  -0.00298148  0.00216760  1
  Ca  Ca1  1  0.24506329  0.00037625  0.49700859  1
  Ca  Ca2  1  0.25367742  0.50224535  -0.00075223  1
  Ca  Ca3  1  0.25008987  0.50129881  0.50077641  1
  Ca  Ca4  1  0.75375702  -0.00067171  0.00151909  1
  Ca  Ca5  1  0.75019456  -0.00025708  0.49745886  1
  Ca  Ca6  1  0.74814327  0.50091025  0.00284213  1
  Ca  Ca7  1  0.74956447  0.50082474  0.49830598  1
  Ca  Ca8  1  -0.00289174  0.24737578  0.00284752  1
  Ca  Ca9  1  0.00262883  0.24579666  0.49714829  1
  Ca  Ca10  1  0.00299441  0.75187015  0.00340897  1
  Ca  Ca11  1  0.00127742  0.75156729  0.49762523  1
  Ca  Ca12  1  0.49945347  0.25318358  -0.00139590  1
  Ca  Ca13  1  0.50097959  0.25005082  0.49867905  1
  Ca  Ca14  1  0.49850074  0.74731406  -0.00276562  1
  Ca  Ca15  1  0.49989560  0.74864452  0.50037619  1
  Ca  Ca16  1  0.00445939  -0.00101088  0.25378423  1
  Ca  Ca17  1  0.00204893  -0.00069360  0.74858156  1
  Ca  Ca18  1  0.00160115  0.50293483  0.25340348  1
  Ca  Ca19  1  0.00167071  0.49809548  0.74814303  1
  Ca  Ca20  1  0.49981779  0.00168535  0.25609933  1
  Ca  Ca21  1  0.49748125  0.00349527  0.75053440  1
  Ca  Ca22  1  0.49763750  0.49815623  0.25175611  1
  Ca  Ca23  1  0.50025304  0.49564108  0.75018385  1
  Ti  Ti24  1  0.24949997  0.24943490  0.25159616  1
  Ti  Ti25  1  0.25008409  0.24936720  0.74820789  1
  Ti  Ti26  1  0.24895575  0.74942810  0.25120147  1
  Ti  Ti27  1  0.24937738  0.75047813  0.74891572  1
  Ti  Ti28  1  0.75065157  0.24934362  0.25013996  1
  Ti  Ti29  1  0.74936372  0.25065313  0.75041067  1
  Ti  Ti30  1  0.75061783  0.74949976  0.25115481  1
  Ti  Ti31  1  0.74992409  0.74836336  0.74876656  1
  Al  Al32  1  0.08736383  0.07564588  0.08899569  1
  Al  Al33  1  0.09157010  0.08050097  0.58048256  1
  Al  Al34  1  0.08758855  0.58623423  0.08282103  1
  Al  Al35  1  0.09157397  0.58456972  0.57771983  1
  Al  Al36  1  0.58437368  0.08107908  0.08686386  1
  Al  Al37  1  0.58618568  0.09174081  0.57753417  1
  Al  Al38  1  0.58749439  0.57591205  0.08461459  1
  Al  Al39  1  0.58425737  0.57968475  0.58242128  1
  Al  Al40  1  0.41536527  0.42085391  0.08676806  1
  Al  Al41  1  0.41670144  0.41558798  0.59218375  1
  Al  Al42  1  0.40320911  0.91699127  0.08501739  1
  Al  Al43  1  0.41197414  0.91571268  0.57932643  1
  Al  Al44  1  0.90742476  0.42403127  0.08757450  1
  Al  Al45  1  0.91756606  0.41903641  0.57656363  1
  Al  Al46  1  0.91623496  0.92281303  0.08672307  1
  Al  Al47  1  0.91901656  0.91049685  0.58499918  1
  Al  Al48  1  0.41686044  0.08355014  0.41179490  1
  Al  Al49  1  0.42244550  0.08320449  0.91280491  1
  Al  Al50  1  0.41317841  0.58022662  0.41879598  1
  Al  Al51  1  0.41898673  0.58041497  0.91674511  1
  Al  Al52  1  0.92322523  0.08700254  0.40993072  1
  Al  Al53  1  0.91234371  0.07798915  0.91092431  1
  Al  Al54  1  0.91788235  0.59387546  0.41167655  1
  Al  Al55  1  0.91842805  0.57894410  0.92204109  1
  Al  Al56  1  0.08324039  0.42010517  0.41816534  1
  Al  Al57  1  0.07867173  0.41958522  0.91316559  1
  Al  Al58  1  0.08642898  0.92092438  0.41356111  1
  Al  Al59  1  0.08825383  0.91299505  0.92229566  1
  Al  Al60  1  0.58197833  0.41181794  0.41098922  1
  Al  Al61  1  0.58400164  0.41575760  0.90559240  1
  Al  Al62  1  0.58569859  0.92437945  0.41240888  1
  Al  Al63  1  0.58147808  0.92084654  0.92028071  1
  Al  Al64  1  0.08831346  0.08602139  0.41084398  1
  Al  Al65  1  0.08034762  0.07745752  0.92075486  1
  Al  Al66  1  0.08333178  0.59292618  0.41412138  1
  Al  Al67  1  0.08824643  0.58392139  0.92320275  1
  Al  Al68  1  0.58827063  0.08810596  0.41346256  1
  Al  Al69  1  0.57984600  0.08582632  0.91203713  1
  Al  Al70  1  0.58492127  0.58036653  0.41916794  1
  Al  Al71  1  0.58574175  0.57722553  0.91137927  1
  Al  Al72  1  0.41992056  0.41475893  0.41331451  1
  Al  Al73  1  0.42300399  0.41242829  0.90787853  1
  Al  Al74  1  0.41125548  0.91831188  0.41754609  1
  Al  Al75  1  0.41325964  0.91392354  0.92503937  1
  Al  Al76  1  0.91600575  0.41883483  0.41647349  1
  Al  Al77  1  0.91827528  0.41693909  0.91710762  1
  Al  Al78  1  0.91622768  0.91547629  0.41858172  1
  Al  Al79  1  0.91461265  0.92198298  0.91377203  1
  Al  Al80  1  0.08268504  0.42322352  0.08153443  1
  Al  Al81  1  0.08645010  0.42238063  0.58351229  1
  Al  Al82  1  0.09442971  0.91600869  0.08479152  1
  Al  Al83  1  0.08217808  0.91701220  0.58756182  1
  Al  Al84  1  0.58513914  0.41990837  0.08745949  1
  Al  Al85  1  0.57966107  0.40972363  0.59080622  1
  Al  Al86  1  0.58592682  0.92216664  0.08167694  1
  Al  Al87  1  0.57965760  0.91844196  0.57644826  1
  Al  Al88  1  0.41215586  0.07435077  0.09300611  1
  Al  Al89  1  0.41857860  0.08627689  0.58314805  1
  Al  Al90  1  0.41147976  0.57739525  0.08402679  1
  Al  Al91  1  0.40828628  0.57696119  0.58654271  1
  Al  Al92  1  0.91538568  0.07765986  0.08891771  1
  Al  Al93  1  0.91857167  0.07691601  0.57967224  1
  Al  Al94  1  0.91038550  0.58113578  0.08960207  1
  Al  Al95  1  0.91240801  0.58574387  0.57358112  1
  Al  Al96  1  0.24890383  0.12923931  0.13980432  1
  Al  Al97  1  0.24855030  0.13477229  0.62954556  1
  Al  Al98  1  0.25095805  0.63557282  0.13669308  1
  Al  Al99  1  0.24948701  0.63726964  0.62979671  1
  Al  Al100  1  0.75290259  0.13236863  0.13337875  1
  Al  Al101  1  0.74844828  0.13890611  0.63266658  1
  Al  Al102  1  0.75241549  0.63063306  0.13769353  1
  Al  Al103  1  0.75063354  0.63619083  0.62846901  1
  Al  Al104  1  0.25144254  0.36475704  0.13617090  1
  Al  Al105  1  0.25422324  0.36610949  0.63461076  1
  Al  Al106  1  0.24683394  0.86916954  0.13667070  1
  Al  Al107  1  0.24255731  0.86895004  0.63335518  1
  Al  Al108  1  0.75069968  0.36806345  0.13613553  1
  Al  Al109  1  0.74254772  0.36504580  0.63418072  1
  Al  Al110  1  0.75217459  0.86732900  0.13675027  1
  Al  Al111  1  0.74962802  0.86417452  0.63354791  1
  Al  Al112  1  0.24710176  0.13385730  0.36885604  1
  Al  Al113  1  0.25023891  0.13035259  0.86186202  1
  Al  Al114  1  0.24923477  0.63657896  0.37210710  1
  Al  Al115  1  0.25140637  0.62862635  0.86301370  1
  Al  Al116  1  0.74608699  0.13198694  0.36774861  1
  Al  Al117  1  0.75143833  0.13557089  0.86893830  1
  Al  Al118  1  0.75286489  0.63292865  0.37107596  1
  Al  Al119  1  0.74803334  0.62885375  0.86313145  1
  Al  Al120  1  0.24935902  0.36288686  0.36752167  1
  Al  Al121  1  0.25057430  0.36976742  0.86386260  1
  Al  Al122  1  0.24437267  0.86715756  0.36567351  1
  Al  Al123  1  0.24720410  0.87105622  0.86355598  1
  Al  Al124  1  0.74877158  0.36512443  0.36480924  1
  Al  Al125  1  0.74708668  0.37161490  0.86207280  1
  Al  Al126  1  0.74961300  0.86579063  0.36534107  1
  Al  Al127  1  0.75356766  0.86810300  0.86252276  1
  Al  Al128  1  0.13628897  0.24760451  0.13785343  1
  Al  Al129  1  0.13879723  0.24789714  0.62950337  1
  Al  Al130  1  0.13512614  0.75255983  0.13620278  1
  Al  Al131  1  0.13479227  0.75321666  0.63058984  1
  Al  Al132  1  0.63605391  0.24753420  0.13516078  1
  Al  Al133  1  0.63013310  0.25277364  0.63334997  1
  Al  Al134  1  0.63720680  0.75002067  0.13813961  1
  Al  Al135  1  0.63415023  0.74705479  0.62950247  1
  Al  Al136  1  0.13241679  0.24460560  0.36812745  1
  Al  Al137  1  0.13786125  0.24737530  0.86271030  1
  Al  Al138  1  0.13592131  0.74840590  0.37029888  1
  Al  Al139  1  0.14056187  0.75399560  0.86568927  1
  Al  Al140  1  0.63755602  0.24999310  0.36957066  1
  Al  Al141  1  0.63363421  0.25529469  0.86601812  1
  Al  Al142  1  0.63802409  0.74718557  0.36959242  1
  Al  Al143  1  0.63748601  0.74690317  0.86247171  1
  Al  Al144  1  0.36507584  0.25119868  0.13950065  1
  Al  Al145  1  0.37195725  0.25082003  0.63699769  1
  Al  Al146  1  0.36320089  0.74944242  0.13644141  1
  Al  Al147  1  0.36503162  0.74726239  0.63479431  1
  Al  Al148  1  0.86393394  0.25022448  0.13236726  1
  Al  Al149  1  0.86419598  0.24836895  0.63596430  1
  Al  Al150  1  0.86646800  0.74651394  0.13875736  1
  Al  Al151  1  0.86757275  0.75071160  0.63413144  1
  Al  Al152  1  0.36449997  0.24924842  0.36551440  1
  Al  Al153  1  0.36490737  0.25444710  0.85975061  1
  Al  Al154  1  0.36276745  0.74828333  0.36330839  1
  Al  Al155  1  0.36182787  0.74712696  0.86284871  1
  Al  Al156  1  0.86716843  0.24526938  0.36167291  1
  Al  Al157  1  0.86073674  0.24966915  0.87014637  1
  Al  Al158  1  0.86605812  0.74576956  0.36494335  1
  Al  Al159  1  0.86004718  0.75032784  0.86392775  1
  Al  Al160  1  0.13583721  0.12990408  0.25528513  1
  Al  Al161  1  0.13753680  0.12706475  0.74706608  1
  Al  Al162  1  0.13050511  0.63781581  0.25238817  1
  Al  Al163  1  0.13656310  0.63700673  0.74780048  1
  Al  Al164  1  0.63695621  0.13233604  0.25366258  1
  Al  Al165  1  0.63339680  0.14072336  0.74986673  1
  Al  Al166  1  0.63818445  0.63110190  0.24865832  1
  Al  Al167  1  0.63775203  0.62943000  0.74730097  1
  Al  Al168  1  0.36205136  0.13288361  0.24984877  1
  Al  Al169  1  0.36427615  0.13357600  0.74695225  1
  Al  Al170  1  0.36247309  0.62864797  0.25143426  1
  Al  Al171  1  0.36119507  0.62796159  0.74680007  1
  Al  Al172  1  0.86495683  0.13344999  0.24940895  1
  Al  Al173  1  0.86621897  0.13579270  0.75342889  1
  Al  Al174  1  0.86732588  0.63164129  0.25202687  1
  Al  Al175  1  0.86483443  0.63256976  0.74755238  1
  Al  Al176  1  0.13371207  0.36377004  0.25206806  1
  Al  Al177  1  0.13692277  0.36312935  0.74936188  1
  Al  Al178  1  0.13662365  0.86903372  0.25087804  1
  Al  Al179  1  0.13284477  0.86852041  0.74810881  1
  Al  Al180  1  0.63532624  0.36382858  0.24943769  1
  Al  Al181  1  0.63141616  0.36547575  0.75022904  1
  Al  Al182  1  0.63535743  0.86757695  0.25322850  1
  Al  Al183  1  0.63622681  0.86120663  0.74978907  1
  Al  Al184  1  0.36442294  0.36886266  0.25252255  1
  Al  Al185  1  0.36565739  0.36861802  0.74929471  1
  Al  Al186  1  0.36070373  0.86692856  0.24814099  1
  Al  Al187  1  0.36115400  0.86465901  0.74939742  1
  Al  Al188  1  0.86346515  0.36964330  0.24997956  1
  Al  Al189  1  0.86296870  0.36750360  0.75007878  1
  Al  Al190  1  0.86508584  0.86525698  0.25041880  1
  Al  Al191  1  0.86747517  0.86248976  0.74711657  1
  Al  Al192  1  0.81936611  0.17461219  0.49856249  1
  Al  Al193  1  0.18751007  0.50118591  0.67902690  1
  Al  Al194  1  0.31529562  -0.00006459  0.31711966  1
  Al  Al195  1  0.49955627  0.82279090  0.33007193  1
  Al  Al196  1  0.67487699  0.00257482  0.67598033  1
  Al  Al197  1  0.67546443  0.32512558  -0.00079141  1
  Al  Al198  1  0.32974245  0.32901787  -0.00067117  1
  Al  Al199  1  0.81620271  0.00014748  0.31610858  1
  Al  Al200  1  0.49926635  0.82667431  0.82947625  1
  Al  Al201  1  0.82306116  0.49964323  0.67704747  1
  Al  Al202  1  0.00105776  0.67480411  0.66943861  1
  Al  Al203  1  0.49894145  0.32155881  0.17872242  1
  Al  Al204  1  0.67505776  0.82431918  -0.00068931  1
  Al  Al205  1  0.31834983  0.00298514  0.67487924  1
  Al  Al206  1  0.00176721  0.17617061  0.18442627  1
  Al  Al207  1  0.50115183  0.18749027  0.32097431  1
  Al  Al208  1  0.00031931  0.32993304  0.67105918  1
  Al  Al209  1  0.30829428  0.81725312  -0.00000217  1
  Al  Al210  1  0.18346074  0.68858392  0.00038483  1
  Al  Al211  1  -0.00024667  0.82347335  0.82610048  1
  Al  Al212  1  0.67802876  0.49698082  0.31821307  1
  Al  Al213  1  0.17307090  0.32604966  -0.00055704  1
  Al  Al214  1  0.83044204  -0.00051538  0.68465574  1
  Al  Al215  1  0.49987371  0.67136807  0.17660228  1
  Al  Al216  1  0.32386087  0.32404050  0.50156664  1
  Al  Al217  1  0.00125652  0.67998375  0.82824083  1
  Al  Al218  1  0.67853586  0.00150638  0.81946970  1
  Al  Al219  1  0.00084062  0.81736753  0.32828133  1
  Al  Al220  1  0.32906038  0.17685579  -0.00134408  1
  Al  Al221  1  0.49907433  0.18852085  0.81650780  1
  Al  Al222  1  0.50036579  0.67284302  0.81924059  1
  Al  Al223  1  -0.00123791  0.31854578  0.82387423  1
  Al  Al224  1  0.31559190  0.81701583  0.49903479  1
  Al  Al225  1  0.82516331  0.67504982  0.00067478  1
  Al  Al226  1  0.18442072  0.50096600  0.17551711  1
  Al  Al227  1  0.50106968  0.82840698  0.17305450  1
  Al  Al228  1  0.18014568  0.50205717  0.32759973  1
  Al  Al229  1  0.00032216  0.32274370  0.32210426  1
  Al  Al230  1  0.49799665  0.82114156  0.67396054  1
  Al  Al231  1  0.00265662  0.17332457  0.67659054  1
  Al  Al232  1  0.00105228  0.82415668  0.17278506  1
  Al  Al233  1  0.68310166  -0.00024895  0.18559541  1
  Al  Al234  1  0.81656037  0.32178671  0.49927800  1
  Al  Al235  1  0.82175755  0.81473654  0.49928487  1
  Al  Al236  1  0.82834801  0.82832040  0.00164790  1
  Al  Al237  1  0.17296022  0.16996974  0.00163606  1
  Al  Al238  1  0.67232824  0.67143021  0.00039272  1
  Au  Au239  1  0.00053646  0.17194103  0.84006930  1
  Au  Au240  1  0.33496911  -0.00305609  0.82983646  1
  Au  Au241  1  0.82849904  0.49948751  0.66585090  1
  Au  Au242  1  0.66473508  0.32724980  0.50026993  1
  Au  Au243  1  0.49916768  0.83315870  0.66976804  1
  Au  Au244  1  0.32997157  0.49821317  0.32400238  1
  Au  Au245  1  0.00253279  0.83636486  0.17555502  1
  Au  Au246  1  -0.00370652  0.34247201  0.17055992  1
  Au  Au247  1  0.49920815  0.67296640  0.33980352  1
  Au  Au248  1  0.00064444  0.66884866  0.83368526  1
  Au  Au249  1  0.67226825  -0.00122612  0.66427160  1
  Au  Au250  1  0.66249156  0.16966265  -0.00081949  1
  Au  Au251  1  0.68030452  -0.00045336  0.17278227  1
  Au  Au252  1  0.83423163  0.50198565  0.32588767  1
  Au  Au253  1  0.33336525  0.32794623  0.50143176  1
  Au  Au254  1  0.00267508  0.16760741  0.66402226  1
  Au  Au255  1  0.83121530  0.15964302  0.00176637  1
  Au  Au256  1  0.16628753  0.50109080  0.82544633  1
  Au  Au257  1  0.49767166  0.33394828  0.18148316  1
  Au  Au258  1  0.67770234  -0.00106766  0.83179153  1
  Au  Au259  1  0.16462793  0.32647071  0.50115652  1
  Au  Au260  1  -0.00130881  0.67530157  0.65692654  1
  Au  Au261  1  0.66739172  0.50223334  0.32242389  1
  Au  Au262  1  0.00205306  0.16119562  0.17691949  1
  Au  Au263  1  0.32864550  0.16076769  0.00371735  1
  Au  Au264  1  -0.00001419  0.66104455  0.17578395  1
  Au  Au265  1  0.32677383  0.00041030  0.66589046  1
  Au  Au266  1  0.49828740  0.16151087  0.17573207  1
  Au  Au267  1  0.32478570  0.16383791  0.49722257  1
  Au  Au268  1  0.50240813  0.17783655  0.66846292  1
  Au  Au269  1  0.49717809  0.65826328  0.67224534  1
  Au  Au270  1  0.00227878  0.32244028  0.33472644  1
  Au  Au271  1  0.16633362  0.83117381  0.50078001  1
  Au  Au272  1  0.67737969  0.66601333  0.50077773  1
  Au  Au273  1  0.83146482  0.33234149  0.00110215  1
  Au  Au274  1  0.33642316  0.49768660  0.82277232  1
  Au  Au275  1  0.67379133  0.83592658  0.49477102  1
  Au  Au276  1  0.16556029  0.33554630  0.00434403  1
  Au  Au277  1  0.83151912  0.00001639  0.32380460  1
  Au  Au278  1  -0.00047795  0.83552136  0.82195777  1
  Au  Au279  1  0.32997488  0.66990734  -0.00081154  1
  Au  Au280  1  0.32559919  0.66815821  0.50190761  1
  Au  Au281  1  0.49979647  0.66206285  0.17214201  1
  Au  Au282  1  0.66696325  0.49703345  0.67637640  1
  Au  Au283  1  0.16590764  -0.00026245  0.82826409  1
  Au  Au284  1  0.82351666  0.50053610  0.83813793  1
  Au  Au285  1  0.83169324  0.17038959  0.49868579  1
  Au  Au286  1  0.49719336  0.83904128  0.16785674  1
  Au  Au287  1  0.66907630  0.33573602  0.00006869  1
