# generated using pymatgen
data_Ca24Ti8Al207Au49
_symmetry_space_group_name_H-M   'P 1'
_cell_length_a   17.32028155
_cell_length_b   17.32075253
_cell_length_c   17.32026752
_cell_angle_alpha   89.99530531
_cell_angle_beta   90.00403035
_cell_angle_gamma   90.00350339
_symmetry_Int_Tables_number   1
_chemical_formula_structural   Ca24Ti8Al207Au49
_chemical_formula_sum   'Ca24 Ti8 Al207 Au49'
_cell_volume   5196.08559660
_cell_formula_units_Z   1
loop_
 _symmetry_equiv_pos_site_id
 _symmetry_equiv_pos_as_xyz
  1  'x, y, z'
loop_
 _atom_site_type_symbol
 _atom_site_label
 _atom_site_symmetry_multiplicity
 _atom_site_fract_x
 _atom_site_fract_y
 _atom_site_fract_z
 _atom_site_occupancy
  Ca  Ca0  1  0.24970331  -0.00144493  0.00344400  1
  Ca  Ca1  1  0.25125938  0.00371830  0.49832884  1
  Ca  Ca2  1  0.25528708  0.49660080  0.00290906  1
  Ca  Ca3  1  0.25158472  0.49656919  0.49911620  1
  Ca  Ca4  1  0.74937154  -0.00306617  0.00563510  1
  Ca  Ca5  1  0.74891304  0.00187641  0.49619041  1
  Ca  Ca6  1  0.74257204  0.50156503  -0.00029969  1
  Ca  Ca7  1  0.74865271  0.49781924  0.50465367  1
  Ca  Ca8  1  0.00080615  0.25442998  -0.00048079  1
  Ca  Ca9  1  0.00291496  0.25176914  0.50148124  1
  Ca  Ca10  1  -0.00014200  0.75265193  0.00153385  1
  Ca  Ca11  1  0.00407761  0.75647578  0.49920417  1
  Ca  Ca12  1  0.50021742  0.25852295  0.00001347  1
  Ca  Ca13  1  0.49903405  0.25067334  0.50128879  1
  Ca  Ca14  1  0.50113863  0.74665775  -0.00067634  1
  Ca  Ca15  1  0.49931787  0.74894789  0.50020682  1
  Ca  Ca16  1  -0.00093526  -0.00089720  0.24880494  1
  Ca  Ca17  1  0.00695432  0.00087122  0.73921492  1
  Ca  Ca18  1  0.00374261  0.50189151  0.24323393  1
  Ca  Ca19  1  -0.00100912  0.50059165  0.74539976  1
  Ca  Ca20  1  0.50010321  0.00090397  0.25273656  1
  Ca  Ca21  1  0.49745924  0.00102303  0.74627138  1
  Ca  Ca22  1  0.49686552  0.49596290  0.24582572  1
  Ca  Ca23  1  0.50269808  0.49907472  0.75085641  1
  Ti  Ti24  1  0.24970058  0.25010768  0.24995077  1
  Ti  Ti25  1  0.25286741  0.25173839  0.74861148  1
  Ti  Ti26  1  0.25135915  0.75055578  0.24649267  1
  Ti  Ti27  1  0.25275155  0.74858620  0.75328328  1
  Ti  Ti28  1  0.74857878  0.24972909  0.25012988  1
  Ti  Ti29  1  0.74775387  0.25171176  0.74878345  1
  Ti  Ti30  1  0.74874585  0.75087843  0.24897665  1
  Ti  Ti31  1  0.74813700  0.74915975  0.75112746  1
  Al  Al32  1  0.09086520  0.07719330  0.08914091  1
  Al  Al33  1  0.09053931  0.09238919  0.58257848  1
  Al  Al34  1  0.09629152  0.57907790  0.08285871  1
  Al  Al35  1  0.08265583  0.58310536  0.57830786  1
  Al  Al36  1  0.58232374  0.07810148  0.08928557  1
  Al  Al37  1  0.57795747  0.09622463  0.57643463  1
  Al  Al38  1  0.58291141  0.57878036  0.08696209  1
  Al  Al39  1  0.58749940  0.57575251  0.59175608  1
  Al  Al40  1  0.41010962  0.41269821  0.08942826  1
  Al  Al41  1  0.41984656  0.40315351  0.58386262  1
  Al  Al42  1  0.40541230  0.91535106  0.08449534  1
  Al  Al43  1  0.41588068  0.91229115  0.58658951  1
  Al  Al44  1  0.93029780  0.41942403  0.09321172  1
  Al  Al45  1  0.91911146  0.41385237  0.59657892  1
  Al  Al46  1  0.90797422  0.91152267  0.08115868  1
  Al  Al47  1  0.92581555  0.92120316  0.57559070  1
  Al  Al48  1  0.41500959  0.09056110  0.42248394  1
  Al  Al49  1  0.42278939  0.08456416  0.91398102  1
  Al  Al50  1  0.42064662  0.57496108  0.41705825  1
  Al  Al51  1  0.42221679  0.58562524  0.92042680  1
  Al  Al52  1  0.89960517  0.08031984  0.41698050  1
  Al  Al53  1  0.91346043  0.06668540  0.90946900  1
  Al  Al54  1  0.92047542  0.57991025  0.42751073  1
  Al  Al55  1  0.90581198  0.58251657  0.91963519  1
  Al  Al56  1  0.09238402  0.41173702  0.42614655  1
  Al  Al57  1  0.09237203  0.41183952  0.92643687  1
  Al  Al58  1  0.08887715  0.91529843  0.41836096  1
  Al  Al59  1  0.08375609  0.91954370  0.92810845  1
  Al  Al60  1  0.57748838  0.40806395  0.40998461  1
  Al  Al61  1  0.58197638  0.42230698  0.90897760  1
  Al  Al62  1  0.58973645  0.92797673  0.41234993  1
  Al  Al63  1  0.57893796  0.91339451  0.92180864  1
  Al  Al64  1  0.09479782  0.08302318  0.42392341  1
  Al  Al65  1  0.07690152  0.07574142  0.92569126  1
  Al  Al66  1  0.08630766  0.58001708  0.42193061  1
  Al  Al67  1  0.09380589  0.58571411  0.92710042  1
  Al  Al68  1  0.59280677  0.08989820  0.41521507  1
  Al  Al69  1  0.57788587  0.08748090  0.91117351  1
  Al  Al70  1  0.58094916  0.57781916  0.41699155  1
  Al  Al71  1  0.58386892  0.58269555  0.91131525  1
  Al  Al72  1  0.41658890  0.40598081  0.41304588  1
  Al  Al73  1  0.41397082  0.40890288  0.92486643  1
  Al  Al74  1  0.41764857  0.92159205  0.42156286  1
  Al  Al75  1  0.41256411  0.90851190  0.92299983  1
  Al  Al76  1  0.92193919  0.42058396  0.42467261  1
  Al  Al77  1  0.91759561  0.42710067  0.91251313  1
  Al  Al78  1  0.91316018  0.92181838  0.40894715  1
  Al  Al79  1  0.89837400  0.91143338  0.92040596  1
  Al  Al80  1  0.09372955  0.41119219  0.08878887  1
  Al  Al81  1  0.08254081  0.40089050  0.58745980  1
  Al  Al82  1  0.09315662  0.91715280  0.08897152  1
  Al  Al83  1  0.08906883  0.91501295  0.57951799  1
  Al  Al84  1  0.57544723  0.41769974  0.09541979  1
  Al  Al85  1  0.58289760  0.41218715  0.59353573  1
  Al  Al86  1  0.58743247  0.91811042  0.08505842  1
  Al  Al87  1  0.57205640  0.91214626  0.57971756  1
  Al  Al88  1  0.41504930  0.07767747  0.08910284  1
  Al  Al89  1  0.41536445  0.10017862  0.58425027  1
  Al  Al90  1  0.41245570  0.57765678  0.08830355  1
  Al  Al91  1  0.42342742  0.57946372  0.58145080  1
  Al  Al92  1  0.92104349  0.07279175  0.08335588  1
  Al  Al93  1  0.91818833  0.09155546  0.57628943  1
  Al  Al94  1  0.91307243  0.58107789  0.08001603  1
  Al  Al95  1  0.90617629  0.57551570  0.58816610  1
  Al  Al96  1  0.25053787  0.13874274  0.13243306  1
  Al  Al97  1  0.25282217  0.14085024  0.62619383  1
  Al  Al98  1  0.25215247  0.63790689  0.12631467  1
  Al  Al99  1  0.25178414  0.63482381  0.63546000  1
  Al  Al100  1  0.74852343  0.13688708  0.13429698  1
  Al  Al101  1  0.74532055  0.13461966  0.63394224  1
  Al  Al102  1  0.74911013  0.63581403  0.13486585  1
  Al  Al103  1  0.74994150  0.63440579  0.63673641  1
  Al  Al104  1  0.25392219  0.36549300  0.13160556  1
  Al  Al105  1  0.25074800  0.36536333  0.63119155  1
  Al  Al106  1  0.25035397  0.86170885  0.12757871  1
  Al  Al107  1  0.25202936  0.86383719  0.63744161  1
  Al  Al108  1  0.74124324  0.36817146  0.13653809  1
  Al  Al109  1  0.74955462  0.36502708  0.63420997  1
  Al  Al110  1  0.75295973  0.86573467  0.13636910  1
  Al  Al111  1  0.74871017  0.86423549  0.63413366  1
  Al  Al112  1  0.25028340  0.13744345  0.37019133  1
  Al  Al113  1  0.25181431  0.13795517  0.86311257  1
  Al  Al114  1  0.24873499  0.63635340  0.36261891  1
  Al  Al115  1  0.25365423  0.63157015  0.87170400  1
  Al  Al116  1  0.74500965  0.13203308  0.36480483  1
  Al  Al117  1  0.74898198  0.13670481  0.86243039  1
  Al  Al118  1  0.74816012  0.63505634  0.36371297  1
  Al  Al119  1  0.74821535  0.63232094  0.86506567  1
  Al  Al120  1  0.24837012  0.36522255  0.36555711  1
  Al  Al121  1  0.25414006  0.37099624  0.86266577  1
  Al  Al122  1  0.24976979  0.86485947  0.36266246  1
  Al  Al123  1  0.25117085  0.86168935  0.87184369  1
  Al  Al124  1  0.74298722  0.36584975  0.36609308  1
  Al  Al125  1  0.74183992  0.36853239  0.86369320  1
  Al  Al126  1  0.74741145  0.86848950  0.36510710  1
  Al  Al127  1  0.75318805  0.86471110  0.86581691  1
  Al  Al128  1  0.13567541  0.25835324  0.13182975  1
  Al  Al129  1  0.13913596  0.25083571  0.62903752  1
  Al  Al130  1  0.13375560  0.75000010  0.12789546  1
  Al  Al131  1  0.13729538  0.74957706  0.63761607  1
  Al  Al132  1  0.63442161  0.25327771  0.13277084  1
  Al  Al133  1  0.63053434  0.25021783  0.63395451  1
  Al  Al134  1  0.63432027  0.75204989  0.13668777  1
  Al  Al135  1  0.63013855  0.75050209  0.63763640  1
  Al  Al136  1  0.13403566  0.24748454  0.36621456  1
  Al  Al137  1  0.13958766  0.26034415  0.86653481  1
  Al  Al138  1  0.13706050  0.75329048  0.36145434  1
  Al  Al139  1  0.13936234  0.74509812  0.87512022  1
  Al  Al140  1  0.63492890  0.24892725  0.36586357  1
  Al  Al141  1  0.63510919  0.25061407  0.87025047  1
  Al  Al142  1  0.62955578  0.74961069  0.36036860  1
  Al  Al143  1  0.63497855  0.75276484  0.86511404  1
  Al  Al144  1  0.36664755  0.25841076  0.13262506  1
  Al  Al145  1  0.36962074  0.25009550  0.63437761  1
  Al  Al146  1  0.36446818  0.75133652  0.12688746  1
  Al  Al147  1  0.37187750  0.75001309  0.63889566  1
  Al  Al148  1  0.86412965  0.25248818  0.13832931  1
  Al  Al149  1  0.86457600  0.25218399  0.63695812  1
  Al  Al150  1  0.86767101  0.75183538  0.13131718  1
  Al  Al151  1  0.86345403  0.75023198  0.63757052  1
  Al  Al152  1  0.36348678  0.25159593  0.36414281  1
  Al  Al153  1  0.36566516  0.25686699  0.86503863  1
  Al  Al154  1  0.37099417  0.75034000  0.35974818  1
  Al  Al155  1  0.36421048  0.74885834  0.87254233  1
  Al  Al156  1  0.86251212  0.24928284  0.36362429  1
  Al  Al157  1  0.86172120  0.26001802  0.86423314  1
  Al  Al158  1  0.86165335  0.75364296  0.36225641  1
  Al  Al159  1  0.86306397  0.74553248  0.87171209  1
  Al  Al160  1  0.13692994  0.13501601  0.24639129  1
  Al  Al161  1  0.13946443  0.13997855  0.74671954  1
  Al  Al162  1  0.13606468  0.63822185  0.24274459  1
  Al  Al163  1  0.13970233  0.63264623  0.75300157  1
  Al  Al164  1  0.63415029  0.13454360  0.25235262  1
  Al  Al165  1  0.63156131  0.13752397  0.74675205  1
  Al  Al166  1  0.63571508  0.62843123  0.24889072  1
  Al  Al167  1  0.63427052  0.63388856  0.75072235  1
  Al  Al168  1  0.36269104  0.13788371  0.24929016  1
  Al  Al169  1  0.36560642  0.13383222  0.74463481  1
  Al  Al170  1  0.36156166  0.63171121  0.24535797  1
  Al  Al171  1  0.36335568  0.62912146  0.75088811  1
  Al  Al172  1  0.86036518  0.12746349  0.25312117  1
  Al  Al173  1  0.86147438  0.13704503  0.75013306  1
  Al  Al174  1  0.86689597  0.63806906  0.24406893  1
  Al  Al175  1  0.86673809  0.63480182  0.74863694  1
  Al  Al176  1  0.13710713  0.36438434  0.24715836  1
  Al  Al177  1  0.13769695  0.36477721  0.74581918  1
  Al  Al178  1  0.13833065  0.86843020  0.24260040  1
  Al  Al179  1  0.13978125  0.86104014  0.75255641  1
  Al  Al180  1  0.63045847  0.36396008  0.25034180  1
  Al  Al181  1  0.62736553  0.35978871  0.74967324  1
  Al  Al182  1  0.63077572  0.86550556  0.25107477  1
  Al  Al183  1  0.62999295  0.86583198  0.75083763  1
  Al  Al184  1  0.36595430  0.36525856  0.24749692  1
  Al  Al185  1  0.36906526  0.36690909  0.74708978  1
  Al  Al186  1  0.36937330  0.86320339  0.24684452  1
  Al  Al187  1  0.36993883  0.86283849  0.75218360  1
  Al  Al188  1  0.86417586  0.36472277  0.24908242  1
  Al  Al189  1  0.86597079  0.36887316  0.74508313  1
  Al  Al190  1  0.86336258  0.86906341  0.24882890  1
  Al  Al191  1  0.86098645  0.86512488  0.75342846  1
  Al  Al192  1  0.17946540  0.00097753  0.31423621  1
  Al  Al193  1  0.00166512  0.82125503  0.67368846  1
  Al  Al194  1  0.67147536  0.67018665  0.50100498  1
  Al  Al195  1  0.82418227  0.67924591  0.50016792  1
  Al  Al196  1  0.68857179  0.49707424  0.69319572  1
  Al  Al197  1  0.30783744  -0.00104314  0.18238793  1
  Al  Al198  1  0.32068128  0.49746483  0.32197128  1
  Al  Al199  1  0.00042626  0.67153802  0.32564618  1
  Al  Al200  1  0.82542127  0.17074214  -0.00357489  1
  Al  Al201  1  0.49910726  0.68193265  0.81660235  1
  Al  Al202  1  0.00129609  0.82934126  0.31914297  1
  Al  Al203  1  0.49933764  0.18672791  0.17357141  1
  Al  Al204  1  0.17481244  0.49726093  0.67233402  1
  Al  Al205  1  0.00096207  0.32902392  0.31580195  1
  Al  Al206  1  0.00130744  0.18669843  0.67174432  1
  Al  Al207  1  0.68053458  -0.00008826  0.18759276  1
  Al  Al208  1  0.49908934  0.67695840  0.18004342  1
  Al  Al209  1  0.00001788  0.16676124  0.33061622  1
  Al  Al210  1  0.67763067  0.32173423  0.50105304  1
  Al  Al211  1  -0.00126037  0.83335285  0.83009126  1
  Al  Al212  1  0.00155830  0.32921217  0.81434970  1
  Al  Al213  1  0.31089597  0.82523258  0.49968117  1
  Al  Al214  1  0.82468562  0.33418239  0.00514079  1
  Al  Al215  1  0.68473823  -0.00179958  0.82813043  1
  Al  Al216  1  0.81911461  0.50026737  0.32771968  1
  Al  Al217  1  0.32848089  0.66915435  0.49852561  1
  Al  Al218  1  0.49888833  0.18434052  0.81192950  1
  Al  Al219  1  0.80751217  0.18385844  0.50005763  1
  Al  Al220  1  0.68517344  0.82454905  0.00116156  1
  Al  Al221  1  0.19346611  0.50068294  0.18115971  1
  Al  Al222  1  0.83005466  0.00055883  0.68122202  1
  Al  Al223  1  0.18080823  0.00138731  0.67261431  1
  Al  Al224  1  0.17676551  0.68759609  0.49936155  1
  Al  Al225  1  0.17178507  0.00050356  0.82695574  1
  Al  Al226  1  0.17092583  0.18776097  -0.00110058  1
  Al  Al227  1  0.32859457  0.18593099  -0.00037456  1
  Al  Al228  1  0.81733266  0.49927279  0.17270370  1
  Al  Al229  1  0.00115048  0.18660361  0.16988001  1
  Al  Al230  1  0.49912172  0.18516388  0.33028842  1
  Al  Al231  1  -0.00030789  0.16958571  0.82795590  1
  Al  Al232  1  0.67488006  0.67206501  0.00040153  1
  Al  Al233  1  0.67008505  0.00172337  0.66742391  1
  Al  Al234  1  0.00268331  0.67020979  0.82386160  1
  Al  Al235  1  0.67723046  0.82704981  0.49835547  1
  Al  Al236  1  0.31778848  0.31255017  0.49914807  1
  Al  Al237  1  0.80847052  0.49934466  0.80581898  1
  Al  Al238  1  0.32686195  -0.00114393  0.82485457  1
  Au  Au239  1  0.83541249  0.50454018  0.32600514  1
  Au  Au240  1  0.65808070  0.49622992  0.32216377  1
  Au  Au241  1  0.00255449  0.66045447  0.83760525  1
  Au  Au242  1  0.65772111  0.16951977  0.00199557  1
  Au  Au243  1  0.49766056  0.82715943  0.15864675  1
  Au  Au244  1  0.16703917  0.17118342  -0.00328557  1
  Au  Au245  1  0.34223232  0.17542031  -0.00045027  1
  Au  Au246  1  0.33065693  0.00570459  0.66075117  1
  Au  Au247  1  0.81563393  0.50037904  0.82158149  1
  Au  Au248  1  0.16424089  0.50171313  0.66725572  1
  Au  Au249  1  0.49941498  0.17079204  0.17942810  1
  Au  Au250  1  0.32397364  -0.00070858  0.83744099  1
  Au  Au251  1  0.16650452  0.50072017  0.32817375  1
  Au  Au252  1  0.67487854  -0.00207252  0.84186515  1
  Au  Au253  1  0.83000604  0.15456158  -0.00451555  1
  Au  Au254  1  0.66520833  0.31894966  0.49998658  1
  Au  Au255  1  0.84095788  0.33844502  0.00615457  1
  Au  Au256  1  0.00253794  0.33781723  0.82924762  1
  Au  Au257  1  0.33309975  0.49712419  0.31824529  1
  Au  Au258  1  0.00404506  0.66457155  0.15912225  1
  Au  Au259  1  0.17404573  0.82742917  0.00011611  1
  Au  Au260  1  0.00089320  0.16995893  0.16612358  1
  Au  Au261  1  0.17360685  0.49924990  0.84024429  1
  Au  Au262  1  0.65909610  0.00172464  0.66124447  1
  Au  Au263  1  0.66013822  0.34128214  0.00275839  1
  Au  Au264  1  0.00022147  0.67768073  0.34141685  1
  Au  Au265  1  0.66479817  0.82457439  0.49665137  1
  Au  Au266  1  0.32733278  0.82112812  0.49977908  1
  Au  Au267  1  0.82452468  0.67735975  0.00317898  1
  Au  Au268  1  0.17421602  0.00075855  0.32591017  1
  Au  Au269  1  -0.00475388  0.16300775  0.34163385  1
  Au  Au270  1  -0.00117493  0.15459573  0.81993449  1
  Au  Au271  1  0.84054044  0.32798002  0.50513064  1
  Au  Au272  1  0.00348315  0.34003197  0.32775650  1
  Au  Au273  1  0.82717480  -0.00113476  0.17662707  1
  Au  Au274  1  0.33861933  0.49936700  0.83624230  1
  Au  Au275  1  0.84083252  0.82820449  0.49790564  1
  Au  Au276  1  0.50189563  0.83959649  0.33103705  1
  Au  Au277  1  0.84387463  0.00225021  0.67166281  1
  Au  Au278  1  0.33148606  0.66989793  0.00129130  1
  Au  Au279  1  0.49827436  0.82985473  0.82966146  1
  Au  Au280  1  0.49912546  0.66702681  0.33018021  1
  Au  Au281  1  -0.00024098  0.83821160  0.16946451  1
  Au  Au282  1  0.50095777  0.67296317  0.66741947  1
  Au  Au283  1  -0.00430740  0.67235722  0.65513602  1
  Au  Au284  1  0.33502733  0.00568038  0.32795032  1
  Au  Au285  1  0.33877931  0.49545169  0.66572455  1
  Au  Au286  1  -0.00315594  0.84967353  0.82657107  1
  Au  Au287  1  0.49868456  0.33071189  0.82536969  1
