# generated using pymatgen
data_Ca24Ti8Al207Au49
_symmetry_space_group_name_H-M   'P 1'
_cell_length_a   17.32377194
_cell_length_b   17.32525230
_cell_length_c   17.32457558
_cell_angle_alpha   90.00159871
_cell_angle_beta   89.99745164
_cell_angle_gamma   90.00368380
_symmetry_Int_Tables_number   1
_chemical_formula_structural   Ca24Ti8Al207Au49
_chemical_formula_sum   'Ca24 Ti8 Al207 Au49'
_cell_volume   5199.77591563
_cell_formula_units_Z   1
loop_
 _symmetry_equiv_pos_site_id
 _symmetry_equiv_pos_as_xyz
  1  'x, y, z'
loop_
 _atom_site_type_symbol
 _atom_site_label
 _atom_site_symmetry_multiplicity
 _atom_site_fract_x
 _atom_site_fract_y
 _atom_site_fract_z
 _atom_site_occupancy
  Ca  Ca0  1  0.24868950  -0.00048974  -0.00205573  1
  Ca  Ca1  1  0.25538426  0.00091266  0.50482442  1
  Ca  Ca2  1  0.24967537  0.49967973  -0.00351870  1
  Ca  Ca3  1  0.24963507  0.49746763  0.50152542  1
  Ca  Ca4  1  0.74878499  0.00058463  0.00090295  1
  Ca  Ca5  1  0.74403530  -0.00205183  0.49965125  1
  Ca  Ca6  1  0.74946957  0.50250434  0.00220798  1
  Ca  Ca7  1  0.74412157  0.50162204  0.49634274  1
  Ca  Ca8  1  -0.00455661  0.25236888  0.00142614  1
  Ca  Ca9  1  0.00344573  0.25358614  0.49858431  1
  Ca  Ca10  1  0.00006562  0.75145326  -0.00040443  1
  Ca  Ca11  1  0.00241674  0.74871638  0.50327792  1
  Ca  Ca12  1  0.50123874  0.24881107  0.00071696  1
  Ca  Ca13  1  0.49919091  0.24976024  0.49798768  1
  Ca  Ca14  1  0.50261208  0.74847850  0.00252684  1
  Ca  Ca15  1  0.49884837  0.74892282  0.49830180  1
  Ca  Ca16  1  -0.00078126  0.00180195  0.24425825  1
  Ca  Ca17  1  0.00052900  -0.00260026  0.75069734  1
  Ca  Ca18  1  -0.00328837  0.49765295  0.24807354  1
  Ca  Ca19  1  0.00206598  0.50067687  0.75200685  1
  Ca  Ca20  1  0.50291027  -0.00015495  0.24966444  1
  Ca  Ca21  1  0.49895249  0.00118468  0.74983666  1
  Ca  Ca22  1  0.50265973  0.49974607  0.25086222  1
  Ca  Ca23  1  0.49983568  0.50087596  0.75334090  1
  Ti  Ti24  1  0.25147988  0.25157512  0.24815596  1
  Ti  Ti25  1  0.24866537  0.25187636  0.75173341  1
  Ti  Ti26  1  0.25202587  0.74908860  0.25201154  1
  Ti  Ti27  1  0.24970992  0.74911944  0.74882079  1
  Ti  Ti28  1  0.74778638  0.25187112  0.24855684  1
  Ti  Ti29  1  0.75197759  0.24996174  0.75191206  1
  Ti  Ti30  1  0.74844776  0.74866638  0.24864708  1
  Ti  Ti31  1  0.75038931  0.75039078  0.75116140  1
  Al  Al32  1  0.07319150  0.09511062  0.08167293  1
  Al  Al33  1  0.09008943  0.08120304  0.58490361  1
  Al  Al34  1  0.08137299  0.58026149  0.07463490  1
  Al  Al35  1  0.08979164  0.58494905  0.58461066  1
  Al  Al36  1  0.58560197  0.08471648  0.09042200  1
  Al  Al37  1  0.58004921  0.08485312  0.58269647  1
  Al  Al38  1  0.59800150  0.58468846  0.08758123  1
  Al  Al39  1  0.57882698  0.58096380  0.57338056  1
  Al  Al40  1  0.42317740  0.41835077  0.08135469  1
  Al  Al41  1  0.40635886  0.41177845  0.57695851  1
  Al  Al42  1  0.41752559  0.91666980  0.07930919  1
  Al  Al43  1  0.41691528  0.92160581  0.58827332  1
  Al  Al44  1  0.90059588  0.41441717  0.08636406  1
  Al  Al45  1  0.92093933  0.42193111  0.58347550  1
  Al  Al46  1  0.91455065  0.92232608  0.07609455  1
  Al  Al47  1  0.90968649  0.91663604  0.58829906  1
  Al  Al48  1  0.41206497  0.08031241  0.41105444  1
  Al  Al49  1  0.41989050  0.08778747  0.91045229  1
  Al  Al50  1  0.42216849  0.58681598  0.41055895  1
  Al  Al51  1  0.42304195  0.57875414  0.91601919  1
  Al  Al52  1  0.92302045  0.07784637  0.42114781  1
  Al  Al53  1  0.91091131  0.08697078  0.92532939  1
  Al  Al54  1  0.91565644  0.57593545  0.41176889  1
  Al  Al55  1  0.91180114  0.58719262  0.92350525  1
  Al  Al56  1  0.09201704  0.41263897  0.42284862  1
  Al  Al57  1  0.08819189  0.42267645  0.91287915  1
  Al  Al58  1  0.08270501  0.92164322  0.42334392  1
  Al  Al59  1  0.08383288  0.90310685  0.91201046  1
  Al  Al60  1  0.58609971  0.42504852  0.40798770  1
  Al  Al61  1  0.58248654  0.41727380  0.91874422  1
  Al  Al62  1  0.58073735  0.91675122  0.41146625  1
  Al  Al63  1  0.58311018  0.91930224  0.91703233  1
  Al  Al64  1  0.08654910  0.08516765  0.42245051  1
  Al  Al65  1  0.08242891  0.08009219  0.92350521  1
  Al  Al66  1  0.08604259  0.58482936  0.42504012  1
  Al  Al67  1  0.08987010  0.58150362  0.91356475  1
  Al  Al68  1  0.58329495  0.08091282  0.41544010  1
  Al  Al69  1  0.57915590  0.08342101  0.91391556  1
  Al  Al70  1  0.58467311  0.58710767  0.40455700  1
  Al  Al71  1  0.58949730  0.58791409  0.92298488  1
  Al  Al72  1  0.41076182  0.41378591  0.41910202  1
  Al  Al73  1  0.41927727  0.41604038  0.91448848  1
  Al  Al74  1  0.41786029  0.91913932  0.40894576  1
  Al  Al75  1  0.41446961  0.91569843  0.91812106  1
  Al  Al76  1  0.91537309  0.42216859  0.41240897  1
  Al  Al77  1  0.90931787  0.41286340  0.92473673  1
  Al  Al78  1  0.91706665  0.91858259  0.42482691  1
  Al  Al79  1  0.92227628  0.90958306  0.91327506  1
  Al  Al80  1  0.07736451  0.41620291  0.08059187  1
  Al  Al81  1  0.09468088  0.41655980  0.58243094  1
  Al  Al82  1  0.08839829  0.91174409  0.07056955  1
  Al  Al83  1  0.08531445  0.91990164  0.58894679  1
  Al  Al84  1  0.59273969  0.42140053  0.09075303  1
  Al  Al85  1  0.57761302  0.42217327  0.57406719  1
  Al  Al86  1  0.58934471  0.92251996  0.08800353  1
  Al  Al87  1  0.57983857  0.91731381  0.58378806  1
  Al  Al88  1  0.42416899  0.08921950  0.08768041  1
  Al  Al89  1  0.41373422  0.08182798  0.58841508  1
  Al  Al90  1  0.42719037  0.57976831  0.08286998  1
  Al  Al91  1  0.41667552  0.57841437  0.57830245  1
  Al  Al92  1  0.91207507  0.09500824  0.08580417  1
  Al  Al93  1  0.91223637  0.07378393  0.58971434  1
  Al  Al94  1  0.90095129  0.57945199  0.08594491  1
  Al  Al95  1  0.92283383  0.57917125  0.58576113  1
  Al  Al96  1  0.25696614  0.13935385  0.13482789  1
  Al  Al97  1  0.25080843  0.13649596  0.63623091  1
  Al  Al98  1  0.25067258  0.63918801  0.13881542  1
  Al  Al99  1  0.25122360  0.63552095  0.62787359  1
  Al  Al100  1  0.75009752  0.13844466  0.13441518  1
  Al  Al101  1  0.75034826  0.12879363  0.63887632  1
  Al  Al102  1  0.74753736  0.62791766  0.13697685  1
  Al  Al103  1  0.75071290  0.63658429  0.63654316  1
  Al  Al104  1  0.24934164  0.35997364  0.12914785  1
  Al  Al105  1  0.24949821  0.36532894  0.63268966  1
  Al  Al106  1  0.25103258  0.86566491  0.13754021  1
  Al  Al107  1  0.25152733  0.86537924  0.63413210  1
  Al  Al108  1  0.74978269  0.36562689  0.13242306  1
  Al  Al109  1  0.75017881  0.36420039  0.63692064  1
  Al  Al110  1  0.74797264  0.86522994  0.13510052  1
  Al  Al111  1  0.75004182  0.87305583  0.64066625  1
  Al  Al112  1  0.25332602  0.13742396  0.36190494  1
  Al  Al113  1  0.25214228  0.13355329  0.86607818  1
  Al  Al114  1  0.24975437  0.63576450  0.37033265  1
  Al  Al115  1  0.24715743  0.62908252  0.86100936  1
  Al  Al116  1  0.74829300  0.13753068  0.36017883  1
  Al  Al117  1  0.75511554  0.13710683  0.86977675  1
  Al  Al118  1  0.74584686  0.63125521  0.36348996  1
  Al  Al119  1  0.75169755  0.63696523  0.87095026  1
  Al  Al120  1  0.25037595  0.36287004  0.36657223  1
  Al  Al121  1  0.24878776  0.36800547  0.86815299  1
  Al  Al122  1  0.25675035  0.86599171  0.36751396  1
  Al  Al123  1  0.24614777  0.86754410  0.86396483  1
  Al  Al124  1  0.74423767  0.36632591  0.36138880  1
  Al  Al125  1  0.75410061  0.36133422  0.87274143  1
  Al  Al126  1  0.74407094  0.86315761  0.36233502  1
  Al  Al127  1  0.75247500  0.86466973  0.86663827  1
  Al  Al128  1  0.12770326  0.25233489  0.13604834  1
  Al  Al129  1  0.13578540  0.25442036  0.63564473  1
  Al  Al130  1  0.13437645  0.75353901  0.13624410  1
  Al  Al131  1  0.13723504  0.74804766  0.63322987  1
  Al  Al132  1  0.63005005  0.25203153  0.13347375  1
  Al  Al133  1  0.63851693  0.24927191  0.63718556  1
  Al  Al134  1  0.63342209  0.74238880  0.13019318  1
  Al  Al135  1  0.63758375  0.75408154  0.63574610  1
  Al  Al136  1  0.13496353  0.25322230  0.36545536  1
  Al  Al137  1  0.12961867  0.25370286  0.86486434  1
  Al  Al138  1  0.13662741  0.74770620  0.36961179  1
  Al  Al139  1  0.13386120  0.75469690  0.86532523  1
  Al  Al140  1  0.62775836  0.25191996  0.35870615  1
  Al  Al141  1  0.63597060  0.24836781  0.86802896  1
  Al  Al142  1  0.63224021  0.74636412  0.36055790  1
  Al  Al143  1  0.63697964  0.74706320  0.86910150  1
  Al  Al144  1  0.37190898  0.25208813  0.13342012  1
  Al  Al145  1  0.36166062  0.25439887  0.63484918  1
  Al  Al146  1  0.37361980  0.75114351  0.14012713  1
  Al  Al147  1  0.36351882  0.74870488  0.62926427  1
  Al  Al148  1  0.86420854  0.25328368  0.13141169  1
  Al  Al149  1  0.86724574  0.24949021  0.63640143  1
  Al  Al150  1  0.85944768  0.74308660  0.12671451  1
  Al  Al151  1  0.86357712  0.75421444  0.63557935  1
  Al  Al152  1  0.37062806  0.25345010  0.36511815  1
  Al  Al153  1  0.36150959  0.25000569  0.86937486  1
  Al  Al154  1  0.36590146  0.74537300  0.37004796  1
  Al  Al155  1  0.36172030  0.75220632  0.86093856  1
  Al  Al156  1  0.86549711  0.25384906  0.36054082  1
  Al  Al157  1  0.86915134  0.24950983  0.86767887  1
  Al  Al158  1  0.86107843  0.75001832  0.36134420  1
  Al  Al159  1  0.86502526  0.75093994  0.86882950  1
  Al  Al160  1  0.13552715  0.13789003  0.24830244  1
  Al  Al161  1  0.13416662  0.13687887  0.75277510  1
  Al  Al162  1  0.13553764  0.63479417  0.25107408  1
  Al  Al163  1  0.13523685  0.63585673  0.75205406  1
  Al  Al164  1  0.62999384  0.13767130  0.24624579  1
  Al  Al165  1  0.63646508  0.13669249  0.75169789  1
  Al  Al166  1  0.63323352  0.63041866  0.24941868  1
  Al  Al167  1  0.63705990  0.63649289  0.75278532  1
  Al  Al168  1  0.37091982  0.13827824  0.25067913  1
  Al  Al169  1  0.36298846  0.13852555  0.74911985  1
  Al  Al170  1  0.37131861  0.63639874  0.25201322  1
  Al  Al171  1  0.36209579  0.63027085  0.74934810  1
  Al  Al172  1  0.86694852  0.13977459  0.24405752  1
  Al  Al173  1  0.86806539  0.13610268  0.75018405  1
  Al  Al174  1  0.86147753  0.63217591  0.24489575  1
  Al  Al175  1  0.86407646  0.63676184  0.75403502  1
  Al  Al176  1  0.13160039  0.36484003  0.24986235  1
  Al  Al177  1  0.13272974  0.36657220  0.75188372  1
  Al  Al178  1  0.13474681  0.86148953  0.25737134  1
  Al  Al179  1  0.12837239  0.86122760  0.74962370  1
  Al  Al180  1  0.63282979  0.36929268  0.24535883  1
  Al  Al181  1  0.63819408  0.36392012  0.75485104  1
  Al  Al182  1  0.63326439  0.86220498  0.24482042  1
  Al  Al183  1  0.63577269  0.86447528  0.75258802  1
  Al  Al184  1  0.36938617  0.36384476  0.25026107  1
  Al  Al185  1  0.36015199  0.37141926  0.75356996  1
  Al  Al186  1  0.36459931  0.86627140  0.25262026  1
  Al  Al187  1  0.36198269  0.86662159  0.74740319  1
  Al  Al188  1  0.86652432  0.36582647  0.24397881  1
  Al  Al189  1  0.86952282  0.36354312  0.75613303  1
  Al  Al190  1  0.86522908  0.86193180  0.24218348  1
  Al  Al191  1  0.87052267  0.86219689  0.75071353  1
  Al  Al192  1  0.18675643  0.00011832  0.32917777  1
  Al  Al193  1  0.82660533  -0.00087185  0.32729128  1
  Al  Al194  1  0.17841449  0.49971969  0.17475136  1
  Al  Al195  1  0.67735260  0.82185356  0.00323907  1
  Al  Al196  1  0.49999213  0.67996846  0.82500860  1
  Al  Al197  1  0.81249145  0.49882378  0.30985350  1
  Al  Al198  1  0.68014064  0.50021022  0.82643518  1
  Al  Al199  1  0.32184809  0.00364641  0.81498640  1
  Al  Al200  1  0.49956388  0.31288337  0.82837662  1
  Al  Al201  1  0.81464761  0.82720448  0.50057189  1
  Al  Al202  1  0.82576670  0.32595288  0.49978015  1
  Al  Al203  1  0.17995906  0.18098340  0.00106365  1
  Al  Al204  1  0.17532026  0.18635547  0.50054816  1
  Al  Al205  1  0.32251614  0.50017883  0.32546378  1
  Al  Al206  1  0.00018628  0.68083854  0.82783899  1
  Al  Al207  1  0.81604569  0.00198487  0.17166216  1
  Al  Al208  1  0.67159725  0.68095094  0.49880305  1
  Al  Al209  1  0.50041559  0.67071017  0.67114498  1
  Al  Al210  1  0.17194108  0.00186382  0.17357209  1
  Al  Al211  1  0.67582227  0.00162018  0.81857322  1
  Al  Al212  1  0.17451599  0.68692783  -0.00068859  1
  Al  Al213  1  0.33051023  0.00263505  0.18515980  1
  Al  Al214  1  0.32178974  0.67124397  -0.00236648  1
  Al  Al215  1  0.19104303  0.00020266  0.68458346  1
  Al  Al216  1  0.67012771  0.18090177  0.49820536  1
  Al  Al217  1  0.67490930  0.00051518  0.31090434  1
  Al  Al218  1  0.50037199  0.32334447  0.67930705  1
  Al  Al219  1  0.82646204  0.67371507  0.49964239  1
  Al  Al220  1  -0.00075873  0.17533630  0.67515822  1
  Al  Al221  1  0.17935317  0.50146475  0.68541650  1
  Al  Al222  1  -0.00190328  0.67434948  0.17142815  1
  Al  Al223  1  -0.00243108  0.82974595  0.32473177  1
  Al  Al224  1  0.17931878  0.82402834  0.50213487  1
  Al  Al225  1  -0.00004937  0.67254885  0.32794566  1
  Al  Al226  1  0.32497277  0.18115635  0.49991462  1
  Al  Al227  1  0.49952516  0.17266280  0.68657101  1
  Al  Al228  1  0.82436051  0.49975696  0.68502955  1
  Al  Al229  1  0.00072812  0.68312533  0.67442711  1
  Al  Al230  1  0.00048375  0.17777856  0.31803507  1
  Al  Al231  1  0.83371825  -0.00095781  0.81535029  1
  Al  Al232  1  0.82323612  0.16986125  0.50094409  1
  Al  Al233  1  0.67024517  0.50114559  0.67121441  1
  Al  Al234  1  0.31241277  0.82554608  0.00047168  1
  Al  Al235  1  0.32917334  0.50007026  0.17257570  1
  Al  Al236  1  0.49839989  0.82375886  0.68225878  1
  Al  Al237  1  0.67468470  0.17653954  0.00080600  1
  Al  Al238  1  0.49848568  0.81442031  0.31856567  1
  Au  Au239  1  0.82355413  0.33828153  0.49998420  1
  Au  Au240  1  0.33516167  0.00241663  0.17341895  1
  Au  Au241  1  0.67558493  0.16419097  -0.00138295  1
  Au  Au242  1  0.49946851  0.33384508  0.66660998  1
  Au  Au243  1  0.32533247  0.50006975  0.83338969  1
  Au  Au244  1  0.82837900  -0.00122771  0.83162981  1
  Au  Au245  1  0.49919874  0.33449467  0.33157211  1
  Au  Au246  1  0.83382194  0.82002030  -0.00085583  1
  Au  Au247  1  0.32553233  0.49992405  0.66570673  1
  Au  Au248  1  0.83682146  0.66363947  0.49951614  1
  Au  Au249  1  0.50447520  0.66212981  0.17736206  1
  Au  Au250  1  0.66966744  0.00172079  0.66782682  1
  Au  Au251  1  0.82797489  0.00360985  0.17624989  1
  Au  Au252  1  0.00351643  0.33242022  0.66393488  1
  Au  Au253  1  0.50160742  0.83387116  0.17109443  1
  Au  Au254  1  0.66449409  0.83132534  0.49841632  1
  Au  Au255  1  0.82814221  0.49982502  0.83572731  1
  Au  Au256  1  0.33359995  0.16971413  0.49987883  1
  Au  Au257  1  0.33746890  0.67488041  0.00289598  1
  Au  Au258  1  0.16684126  0.82369265  0.50449753  1
  Au  Au259  1  -0.00278953  0.66170184  0.16606460  1
  Au  Au260  1  0.33705997  0.83627940  0.49983977  1
  Au  Au261  1  0.49943273  0.82922666  0.83179041  1
  Au  Au262  1  0.16218234  0.00565645  0.15903682  1
  Au  Au263  1  -0.00101811  0.82685478  0.33713949  1
  Au  Au264  1  0.33131376  0.00062604  0.82313142  1
  Au  Au265  1  0.33094049  0.16438525  0.00050941  1
  Au  Au266  1  0.00148946  0.16641159  0.66656569  1
  Au  Au267  1  0.66822780  0.83014841  0.00089717  1
  Au  Au268  1  0.50241294  0.32745943  0.16419245  1
  Au  Au269  1  0.00255365  0.33787901  0.33131002  1
  Au  Au270  1  0.00018170  0.66968233  0.83681576  1
  Au  Au271  1  0.17372296  0.50245697  0.34043319  1
  Au  Au272  1  0.50072993  0.16186137  0.32340553  1
  Au  Au273  1  0.16480312  0.32833472  -0.00271233  1
  Au  Au274  1  0.16895381  0.49928794  0.16437901  1
  Au  Au275  1  0.67853173  0.33893246  0.00104353  1
  Au  Au276  1  0.33300161  0.33334714  0.00067586  1
  Au  Au277  1  -0.00582325  0.32676309  0.16249847  1
  Au  Au278  1  0.66259607  0.33152875  0.49567805  1
  Au  Au279  1  -0.00138965  0.33747605  0.83510608  1
  Au  Au280  1  0.00100954  0.16194516  0.32457189  1
  Au  Au281  1  0.83179009  0.15921674  0.50055613  1
  Au  Au282  1  0.17518961  0.00004507  0.33422676  1
  Au  Au283  1  0.15860001  -0.00250082  0.82848426  1
  Au  Au284  1  -0.00192933  0.83424987  0.67291884  1
  Au  Au285  1  0.00090027  0.83676853  0.16179050  1
  Au  Au286  1  -0.00031995  0.16961929  0.84051962  1
  Au  Au287  1  0.32770302  0.66333135  0.49739259  1
