# generated using pymatgen
data_Ca24Ti8Al207Au49
_symmetry_space_group_name_H-M   'P 1'
_cell_length_a   17.32141025
_cell_length_b   17.32223891
_cell_length_c   17.32474686
_cell_angle_alpha   89.99533020
_cell_angle_beta   89.99351700
_cell_angle_gamma   90.00337436
_symmetry_Int_Tables_number   1
_chemical_formula_structural   Ca24Ti8Al207Au49
_chemical_formula_sum   'Ca24 Ti8 Al207 Au49'
_cell_volume   5198.21412095
_cell_formula_units_Z   1
loop_
 _symmetry_equiv_pos_site_id
 _symmetry_equiv_pos_as_xyz
  1  'x, y, z'
loop_
 _atom_site_type_symbol
 _atom_site_label
 _atom_site_symmetry_multiplicity
 _atom_site_fract_x
 _atom_site_fract_y
 _atom_site_fract_z
 _atom_site_occupancy
  Ca  Ca0  1  0.24762404  -0.00195138  0.00171050  1
  Ca  Ca1  1  0.24787504  0.00225306  0.49867363  1
  Ca  Ca2  1  0.24974460  0.50213224  0.00208824  1
  Ca  Ca3  1  0.25247594  0.49804309  0.49564503  1
  Ca  Ca4  1  0.75131838  0.00291113  0.00297917  1
  Ca  Ca5  1  0.75345597  -0.00422609  0.49829144  1
  Ca  Ca6  1  0.74989937  0.49359885  -0.00110564  1
  Ca  Ca7  1  0.74751518  0.50202374  0.49956551  1
  Ca  Ca8  1  -0.00250769  0.24971616  -0.00108321  1
  Ca  Ca9  1  -0.00120644  0.25194250  0.50086802  1
  Ca  Ca10  1  0.00161983  0.75380860  -0.00026228  1
  Ca  Ca11  1  -0.00375454  0.74947026  0.49818242  1
  Ca  Ca12  1  0.50088059  0.24942353  0.00303717  1
  Ca  Ca13  1  0.49969710  0.25380429  0.49444621  1
  Ca  Ca14  1  0.49558232  0.75134655  0.00050756  1
  Ca  Ca15  1  0.50423113  0.75075276  0.49638365  1
  Ca  Ca16  1  0.00289053  -0.00000150  0.24676109  1
  Ca  Ca17  1  0.00054892  0.00175962  0.75035425  1
  Ca  Ca18  1  -0.00298242  0.50295384  0.25134315  1
  Ca  Ca19  1  -0.00107632  0.49778868  0.74782777  1
  Ca  Ca20  1  0.49804576  -0.00012536  0.24851855  1
  Ca  Ca21  1  0.50125059  0.00579439  0.74876430  1
  Ca  Ca22  1  0.50243276  0.49605861  0.25298539  1
  Ca  Ca23  1  0.50411390  0.49314729  0.74749176  1
  Ti  Ti24  1  0.25279533  0.25084336  0.24859838  1
  Ti  Ti25  1  0.24842196  0.25030698  0.75181291  1
  Ti  Ti26  1  0.24803156  0.74984999  0.25037430  1
  Ti  Ti27  1  0.24606192  0.74982604  0.75001568  1
  Ti  Ti28  1  0.74768090  0.24883051  0.24705703  1
  Ti  Ti29  1  0.75126099  0.25050157  0.75061913  1
  Ti  Ti30  1  0.75186726  0.75170094  0.25151907  1
  Ti  Ti31  1  0.75343927  0.74865477  0.74767667  1
  Al  Al32  1  0.09124749  0.07970290  0.08709294  1
  Al  Al33  1  0.08168421  0.08437852  0.58036195  1
  Al  Al34  1  0.09041785  0.58934592  0.07853561  1
  Al  Al35  1  0.07410824  0.57903295  0.57950278  1
  Al  Al36  1  0.59447536  0.08517845  0.08857683  1
  Al  Al37  1  0.58090274  0.08878854  0.57236603  1
  Al  Al38  1  0.57813776  0.57494477  0.08328983  1
  Al  Al39  1  0.58614017  0.57993557  0.58053200  1
  Al  Al40  1  0.41052522  0.41046401  0.08275846  1
  Al  Al41  1  0.42598855  0.41845241  0.57139723  1
  Al  Al42  1  0.41943774  0.90819113  0.09132694  1
  Al  Al43  1  0.40401064  0.91523213  0.57394507  1
  Al  Al44  1  0.91212524  0.41617159  0.08643087  1
  Al  Al45  1  0.91362952  0.42153518  0.59732287  1
  Al  Al46  1  0.92390723  0.92025831  0.08131513  1
  Al  Al47  1  0.91525262  0.90034790  0.58690936  1
  Al  Al48  1  0.42307148  0.08780510  0.40974714  1
  Al  Al49  1  0.41283668  0.09381335  0.92492615  1
  Al  Al50  1  0.40789908  0.57250347  0.41209927  1
  Al  Al51  1  0.40975772  0.58714741  0.92718922  1
  Al  Al52  1  0.92723503  0.07533889  0.41928733  1
  Al  Al53  1  0.90511725  0.08603959  0.91210962  1
  Al  Al54  1  0.90146974  0.59034027  0.42072265  1
  Al  Al55  1  0.92342718  0.57206148  0.91524820  1
  Al  Al56  1  0.08472985  0.42097508  0.42397141  1
  Al  Al57  1  0.07768462  0.40631876  0.91356566  1
  Al  Al58  1  0.08441379  0.92297123  0.41439709  1
  Al  Al59  1  0.07797990  0.91433409  0.92201378  1
  Al  Al60  1  0.58990875  0.40673959  0.41190641  1
  Al  Al61  1  0.59006244  0.40763392  0.92047863  1
  Al  Al62  1  0.58079066  0.91396878  0.41312506  1
  Al  Al63  1  0.57622691  0.93431238  0.93069176  1
  Al  Al64  1  0.08816292  0.08331977  0.41257114  1
  Al  Al65  1  0.07606703  0.08555841  0.92119037  1
  Al  Al66  1  0.07849111  0.57865150  0.41854339  1
  Al  Al67  1  0.09030426  0.59082835  0.92212551  1
  Al  Al68  1  0.58104357  0.09587851  0.41103873  1
  Al  Al69  1  0.59031234  0.09602893  0.92860543  1
  Al  Al70  1  0.58901187  0.57180005  0.41827884  1
  Al  Al71  1  0.58163013  0.56756673  0.92562759  1
  Al  Al72  1  0.41764471  0.40962057  0.40559136  1
  Al  Al73  1  0.41581997  0.40893185  0.92527776  1
  Al  Al74  1  0.41562502  0.90966342  0.41612069  1
  Al  Al75  1  0.41290671  0.92335526  0.93420580  1
  Al  Al76  1  0.91118636  0.43117981  0.41784333  1
  Al  Al77  1  0.91625629  0.40866951  0.90881832  1
  Al  Al78  1  0.91214129  0.90897860  0.42489423  1
  Al  Al79  1  0.91181001  0.92385223  0.90984842  1
  Al  Al80  1  0.07794736  0.41872924  0.07934241  1
  Al  Al81  1  0.07476537  0.40713876  0.58860619  1
  Al  Al82  1  0.08759831  0.91695342  0.08863125  1
  Al  Al83  1  0.07685616  0.90859763  0.58940972  1
  Al  Al84  1  0.58888024  0.40928133  0.08034871  1
  Al  Al85  1  0.59261305  0.41038945  0.57692918  1
  Al  Al86  1  0.58233636  0.92229487  0.09801057  1
  Al  Al87  1  0.57889084  0.92214655  0.56796286  1
  Al  Al88  1  0.41471656  0.08601263  0.08318301  1
  Al  Al89  1  0.42009138  0.07604432  0.58004687  1
  Al  Al90  1  0.40849236  0.58466704  0.08413334  1
  Al  Al91  1  0.42359978  0.58258746  0.57042181  1
  Al  Al92  1  0.91302176  0.08709668  0.07629177  1
  Al  Al93  1  0.92253279  0.07730617  0.58508746  1
  Al  Al94  1  0.91878512  0.57478503  0.08941813  1
  Al  Al95  1  0.90433560  0.58520740  0.58367176  1
  Al  Al96  1  0.25390603  0.13619801  0.13302456  1
  Al  Al97  1  0.24463962  0.13721538  0.63862722  1
  Al  Al98  1  0.24878068  0.63527323  0.13277791  1
  Al  Al99  1  0.24834564  0.63379027  0.63697944  1
  Al  Al100  1  0.74477591  0.12993981  0.13402045  1
  Al  Al101  1  0.75446082  0.13708006  0.63877556  1
  Al  Al102  1  0.75059038  0.63605620  0.13734778  1
  Al  Al103  1  0.75523037  0.62912990  0.63312233  1
  Al  Al104  1  0.25379960  0.36224166  0.12935144  1
  Al  Al105  1  0.24329515  0.36567679  0.63789775  1
  Al  Al106  1  0.24405215  0.86729910  0.13394449  1
  Al  Al107  1  0.24351546  0.86348355  0.63160287  1
  Al  Al108  1  0.74697332  0.36166095  0.12957873  1
  Al  Al109  1  0.75088407  0.37139907  0.63918573  1
  Al  Al110  1  0.75102355  0.87198441  0.13895800  1
  Al  Al111  1  0.75770024  0.86551985  0.63319216  1
  Al  Al112  1  0.25389168  0.13656936  0.36156946  1
  Al  Al113  1  0.25078263  0.13845342  0.86700702  1
  Al  Al114  1  0.24848948  0.63244375  0.36268080  1
  Al  Al115  1  0.24723883  0.63359857  0.86736195  1
  Al  Al116  1  0.74595681  0.13518555  0.36097218  1
  Al  Al117  1  0.75364592  0.13763018  0.86248946  1
  Al  Al118  1  0.75576202  0.63470187  0.36545516  1
  Al  Al119  1  0.75306474  0.63442230  0.86126786  1
  Al  Al120  1  0.25169371  0.36918680  0.36233460  1
  Al  Al121  1  0.24778936  0.36141355  0.87168718  1
  Al  Al122  1  0.25009531  0.86317866  0.36887830  1
  Al  Al123  1  0.24308661  0.86525588  0.86681048  1
  Al  Al124  1  0.74672978  0.36058886  0.36866520  1
  Al  Al125  1  0.75242816  0.36190700  0.86986697  1
  Al  Al126  1  0.75485396  0.86777456  0.36463107  1
  Al  Al127  1  0.75694663  0.86940113  0.86056973  1
  Al  Al128  1  0.13591501  0.24968424  0.13231089  1
  Al  Al129  1  0.12718863  0.25285174  0.64091008  1
  Al  Al130  1  0.13700083  0.74807778  0.12999752  1
  Al  Al131  1  0.12596254  0.75322952  0.63645774  1
  Al  Al132  1  0.63299349  0.24840276  0.13042108  1
  Al  Al133  1  0.63831756  0.25068048  0.63413302  1
  Al  Al134  1  0.63777105  0.75329663  0.14021891  1
  Al  Al135  1  0.64090300  0.75087617  0.63451577  1
  Al  Al136  1  0.13950978  0.25020281  0.36299160  1
  Al  Al137  1  0.12597036  0.24980825  0.86571144  1
  Al  Al138  1  0.12856950  0.75368057  0.36426658  1
  Al  Al139  1  0.13489466  0.75003191  0.86949840  1
  Al  Al140  1  0.63043006  0.25166757  0.36188515  1
  Al  Al141  1  0.63914441  0.25016963  0.87216386  1
  Al  Al142  1  0.63938749  0.75089127  0.36230502  1
  Al  Al143  1  0.64088536  0.75188895  0.86341982  1
  Al  Al144  1  0.36619225  0.24998347  0.13155742  1
  Al  Al145  1  0.36272751  0.24846973  0.63560148  1
  Al  Al146  1  0.36010238  0.74986707  0.13531488  1
  Al  Al147  1  0.36009522  0.75369436  0.63456099  1
  Al  Al148  1  0.86151424  0.24792329  0.13541218  1
  Al  Al149  1  0.87322170  0.25547699  0.63888110  1
  Al  Al150  1  0.86401897  0.75077529  0.13847160  1
  Al  Al151  1  0.86671806  0.74882761  0.63093632  1
  Al  Al152  1  0.36914149  0.25050376  0.36387584  1
  Al  Al153  1  0.36441194  0.24995442  0.86990153  1
  Al  Al154  1  0.36304815  0.75202903  0.36349723  1
  Al  Al155  1  0.36235117  0.74746631  0.86670550  1
  Al  Al156  1  0.86159494  0.24606932  0.36158638  1
  Al  Al157  1  0.87099995  0.25223458  0.86301079  1
  Al  Al158  1  0.86863372  0.75084203  0.36717978  1
  Al  Al159  1  0.86683160  0.75352354  0.85994740  1
  Al  Al160  1  0.13733307  0.13679884  0.24554257  1
  Al  Al161  1  0.12980852  0.13362044  0.75269838  1
  Al  Al162  1  0.12900347  0.63773281  0.25242894  1
  Al  Al163  1  0.13334879  0.63125062  0.74966810  1
  Al  Al164  1  0.62977867  0.13516163  0.24859357  1
  Al  Al165  1  0.62899875  0.13917708  0.75327033  1
  Al  Al166  1  0.63760799  0.63319953  0.25089956  1
  Al  Al167  1  0.63983979  0.63465124  0.74429028  1
  Al  Al168  1  0.37221762  0.13561998  0.24964262  1
  Al  Al169  1  0.37053785  0.13937846  0.75123450  1
  Al  Al170  1  0.36310052  0.63396726  0.25051186  1
  Al  Al171  1  0.36105459  0.63566355  0.75173793  1
  Al  Al172  1  0.86126532  0.12825086  0.24470052  1
  Al  Al173  1  0.86978731  0.13295311  0.75034550  1
  Al  Al174  1  0.86954377  0.63652605  0.25276144  1
  Al  Al175  1  0.86985640  0.63340004  0.74406987  1
  Al  Al176  1  0.13765993  0.36453234  0.24801849  1
  Al  Al177  1  0.13322899  0.36723359  0.75506322  1
  Al  Al178  1  0.13603696  0.86473922  0.24983152  1
  Al  Al179  1  0.13117027  0.86718987  0.74982107  1
  Al  Al180  1  0.63255755  0.36326657  0.25218357  1
  Al  Al181  1  0.63647691  0.36110227  0.74970222  1
  Al  Al182  1  0.63507121  0.86957008  0.24693402  1
  Al  Al183  1  0.63825919  0.86618078  0.75041332  1
  Al  Al184  1  0.37012924  0.36362092  0.25487664  1
  Al  Al185  1  0.36221306  0.36457890  0.75334818  1
  Al  Al186  1  0.36274053  0.86632548  0.24681089  1
  Al  Al187  1  0.35984298  0.86205505  0.75232234  1
  Al  Al188  1  0.85817531  0.36347817  0.25132058  1
  Al  Al189  1  0.86720750  0.36489378  0.75006287  1
  Al  Al190  1  0.86654467  0.86974234  0.25142985  1
  Al  Al191  1  0.87055092  0.86492060  0.74618910  1
  Al  Al192  1  0.17263520  0.68101750  0.49996706  1
  Al  Al193  1  0.81028208  0.18368643  -0.00090315  1
  Al  Al194  1  -0.00137971  0.31785095  0.17451332  1
  Al  Al195  1  0.32946651  0.17093216  0.50014218  1
  Al  Al196  1  0.49920287  0.69155866  0.16886433  1
  Al  Al197  1  -0.00271319  0.32635122  0.33453826  1
  Al  Al198  1  0.17613102  0.18080350  0.50033108  1
  Al  Al199  1  0.32885862  0.68271833  0.49844837  1
  Al  Al200  1  0.49938363  0.67335846  0.67306451  1
  Al  Al201  1  0.83232221  0.67156351  -0.00095103  1
  Al  Al202  1  0.31936063  0.32497833  0.49955513  1
  Al  Al203  1  0.31811440  0.81530513  0.00134394  1
  Al  Al204  1  0.32480701  0.49717059  0.82724857  1
  Al  Al205  1  0.32597770  0.50091123  0.66577675  1
  Al  Al206  1  0.82788432  0.82641694  -0.00007021  1
  Al  Al207  1  0.49900753  0.82735638  0.66855791  1
  Al  Al208  1  0.67579890  0.18879559  0.49754986  1
  Al  Al209  1  0.69086361  0.49779461  0.31723652  1
  Al  Al210  1  0.83021461  0.17284300  0.49873483  1
  Al  Al211  1  0.81835124  0.49972509  0.19059855  1
  Al  Al212  1  0.17198016  0.50087230  0.17993373  1
  Al  Al213  1  0.31857078  -0.00007862  0.67447023  1
  Al  Al214  1  0.67836408  0.00110862  0.67024851  1
  Al  Al215  1  0.50376973  0.66912534  0.83054788  1
  Al  Al216  1  0.68441180  0.67341025  0.49916018  1
  Al  Al217  1  0.82700815  0.49885976  0.81566255  1
  Al  Al218  1  0.18136984  0.17686458  0.00117889  1
  Al  Al219  1  0.50077909  0.32252365  0.82683485  1
  Al  Al220  1  0.00420795  0.67806916  0.82385417  1
  Al  Al221  1  0.67458266  0.83430129  0.00124684  1
  Al  Al222  1  0.18360193  0.00094620  0.30853558  1
  Al  Al223  1  0.67566746  0.49745680  0.82032097  1
  Al  Al224  1  0.68462286  0.82511040  0.49824430  1
  Al  Al225  1  0.67398046  0.00173917  0.32455216  1
  Al  Al226  1  0.49987948  0.82375933  0.31219018  1
  Al  Al227  1  0.00092251  0.82135762  0.18043830  1
  Al  Al228  1  0.50041489  0.66792038  0.32870450  1
  Al  Al229  1  0.82015810  0.33077391  0.50375039  1
  Al  Al230  1  -0.00025699  0.17415024  0.31722119  1
  Al  Al231  1  0.67230529  0.67282912  -0.00021679  1
  Al  Al232  1  0.50007907  0.32181941  0.67062991  1
  Al  Al233  1  0.49938530  0.83060759  0.83305443  1
  Al  Al234  1  0.32074356  0.00016396  0.17815721  1
  Al  Al235  1  0.32744307  0.49725018  0.18355011  1
  Al  Al236  1  0.32103038  0.00087441  0.82989823  1
  Al  Al237  1  0.68395899  0.00277813  0.82908515  1
  Al  Al238  1  0.50268530  0.32045399  0.17742987  1
  Au  Au239  1  0.50164792  0.16417862  0.17395032  1
  Au  Au240  1  0.67600448  0.00613592  0.84365818  1
  Au  Au241  1  0.17793375  0.66497423  0.50010544  1
  Au  Au242  1  0.16903938  0.32832152  0.50311260  1
  Au  Au243  1  0.16848718  -0.00050434  0.66274639  1
  Au  Au244  1  0.82438580  0.15642170  0.49763953  1
  Au  Au245  1  0.50006620  0.66993419  0.34129340  1
  Au  Au246  1  0.00161758  0.67385448  0.16116754  1
  Au  Au247  1  -0.00223896  0.83563165  0.82409129  1
  Au  Au248  1  0.16079056  0.49783910  0.83481258  1
  Au  Au249  1  0.66154526  0.00385564  0.32378892  1
  Au  Au250  1  0.17293930  0.84017840  0.49927091  1
  Au  Au251  1  0.67266001  0.49890127  0.66966602  1
  Au  Au252  1  0.33119702  0.49733181  0.83805014  1
  Au  Au253  1  0.17747777  0.16597675  -0.00397606  1
  Au  Au254  1  0.49797965  0.84636947  0.83703085  1
  Au  Au255  1  0.17431090  0.33254776  0.00140494  1
  Au  Au256  1  0.49895361  0.67578519  0.16374103  1
  Au  Au257  1  0.49781087  0.82949823  0.65247992  1
  Au  Au258  1  0.33829958  0.50201196  0.66799192  1
  Au  Au259  1  0.66900640  0.00139443  0.65659523  1
  Au  Au260  1  0.82676458  0.00037764  0.16147980  1
  Au  Au261  1  0.83759080  -0.00129962  0.33046723  1
  Au  Au262  1  0.15949639  0.00006916  0.83236089  1
  Au  Au263  1  0.17013952  0.82457994  0.00157910  1
  Au  Au264  1  0.82625484  0.33066851  0.00033587  1
  Au  Au265  1  -0.00028448  0.83572109  0.33024813  1
  Au  Au266  1  0.00031732  0.16572892  0.16655890  1
  Au  Au267  1  -0.00381571  0.17503676  0.83409465  1
  Au  Au268  1  0.82538492  0.65611028  -0.00051164  1
  Au  Au269  1  -0.00401546  0.67495083  0.66019715  1
  Au  Au270  1  0.00037840  0.17790056  0.66538057  1
  Au  Au271  1  0.50015611  0.32951615  0.16916782  1
  Au  Au272  1  0.84262701  -0.00417677  0.67622282  1
  Au  Au273  1  -0.00614264  0.34050564  0.32578696  1
  Au  Au274  1  0.67334651  0.49825399  0.16762894  1
  Au  Au275  1  0.32827119  -0.00102110  0.34064335  1
  Au  Au276  1  0.31880612  -0.00129630  0.16560910  1
  Au  Au277  1  0.17647447  0.50035963  0.33322587  1
  Au  Au278  1  0.50642211  0.65268843  0.82789492  1
  Au  Au279  1  0.17514497  0.49959934  0.16778065  1
  Au  Au280  1  0.00154751  0.66944026  0.83237161  1
  Au  Au281  1  0.50216729  0.17498250  0.84068114  1
  Au  Au282  1  0.66087522  0.82705987  0.00857652  1
  Au  Au283  1  0.16090844  0.49722644  0.66721204  1
  Au  Au284  1  0.49804257  0.17289816  0.66209710  1
  Au  Au285  1  -0.00476623  0.66346312  0.33418381  1
  Au  Au286  1  0.33742123  0.00508625  0.82926949  1
  Au  Au287  1  0.82413228  0.34662119  0.50483466  1
