# generated using pymatgen
data_Ca24Ti8Al207Au49
_symmetry_space_group_name_H-M   'P 1'
_cell_length_a   17.32239701
_cell_length_b   17.32080264
_cell_length_c   17.32105954
_cell_angle_alpha   89.99473407
_cell_angle_beta   89.99709218
_cell_angle_gamma   89.99995634
_symmetry_Int_Tables_number   1
_chemical_formula_structural   Ca24Ti8Al207Au49
_chemical_formula_sum   'Ca24 Ti8 Al207 Au49'
_cell_volume   5196.97291245
_cell_formula_units_Z   1
loop_
 _symmetry_equiv_pos_site_id
 _symmetry_equiv_pos_as_xyz
  1  'x, y, z'
loop_
 _atom_site_type_symbol
 _atom_site_label
 _atom_site_symmetry_multiplicity
 _atom_site_fract_x
 _atom_site_fract_y
 _atom_site_fract_z
 _atom_site_occupancy
  Ca  Ca0  1  0.25931467  0.00127730  0.00064454  1
  Ca  Ca1  1  0.24314632  -0.00357914  0.49500704  1
  Ca  Ca2  1  0.25341632  0.49677920  -0.00049885  1
  Ca  Ca3  1  0.25286705  0.50223862  0.49955744  1
  Ca  Ca4  1  0.74840580  0.00173740  0.00191085  1
  Ca  Ca5  1  0.75546042  -0.00760463  0.50041995  1
  Ca  Ca6  1  0.74879560  0.49981115  -0.00035944  1
  Ca  Ca7  1  0.74447063  0.50319318  0.50030778  1
  Ca  Ca8  1  0.00010839  0.25437292  -0.00022000  1
  Ca  Ca9  1  -0.00204965  0.24782095  0.49385544  1
  Ca  Ca10  1  -0.00256668  0.74641122  -0.00274207  1
  Ca  Ca11  1  -0.00350587  0.75567284  0.49919828  1
  Ca  Ca12  1  0.50051618  0.25310552  0.00007115  1
  Ca  Ca13  1  0.50166277  0.25665799  0.50081521  1
  Ca  Ca14  1  0.50303648  0.75090467  -0.00567586  1
  Ca  Ca15  1  0.50378120  0.74917081  0.50289169  1
  Ca  Ca16  1  -0.00335432  -0.00310505  0.25425240  1
  Ca  Ca17  1  -0.00283504  -0.00591493  0.74788904  1
  Ca  Ca18  1  -0.00203487  0.50038786  0.24951976  1
  Ca  Ca19  1  -0.00156351  0.50303540  0.75530330  1
  Ca  Ca20  1  0.49995457  -0.00282024  0.24718750  1
  Ca  Ca21  1  0.50436885  -0.00293443  0.75211943  1
  Ca  Ca22  1  0.50133097  0.49995137  0.24886366  1
  Ca  Ca23  1  0.50097522  0.50040815  0.75569784  1
  Ti  Ti24  1  0.25058329  0.25137491  0.24845418  1
  Ti  Ti25  1  0.25024831  0.25113409  0.75154443  1
  Ti  Ti26  1  0.24995286  0.75032920  0.24936026  1
  Ti  Ti27  1  0.25009949  0.75016040  0.75194758  1
  Ti  Ti28  1  0.74914544  0.25085796  0.24807742  1
  Ti  Ti29  1  0.74917515  0.25191978  0.75138773  1
  Ti  Ti30  1  0.75006761  0.74909962  0.25033715  1
  Ti  Ti31  1  0.75094069  0.74888983  0.74966127  1
  Al  Al32  1  0.08534249  0.08209048  0.08472963  1
  Al  Al33  1  0.07486854  0.07996996  0.57254082  1
  Al  Al34  1  0.07552579  0.57878114  0.07860921  1
  Al  Al35  1  0.07907004  0.58716508  0.58141112  1
  Al  Al36  1  0.57920661  0.08805379  0.08449020  1
  Al  Al37  1  0.57765194  0.08041465  0.58697859  1
  Al  Al38  1  0.58238183  0.57531883  0.08103237  1
  Al  Al39  1  0.58701881  0.58319722  0.59019029  1
  Al  Al40  1  0.41866632  0.40331642  0.08449443  1
  Al  Al41  1  0.42382045  0.41784809  0.60961233  1
  Al  Al42  1  0.42559754  0.91371640  0.08525035  1
  Al  Al43  1  0.42356822  0.91075944  0.57928002  1
  Al  Al44  1  0.92103509  0.42099230  0.08205110  1
  Al  Al45  1  0.91821005  0.42560001  0.58377702  1
  Al  Al46  1  0.91275816  0.91633466  0.08690585  1
  Al  Al47  1  0.90843548  0.90650002  0.58035745  1
  Al  Al48  1  0.41964854  0.07560501  0.40717954  1
  Al  Al49  1  0.42664051  0.09116977  0.91339754  1
  Al  Al50  1  0.42828867  0.57865390  0.41806777  1
  Al  Al51  1  0.41755283  0.59305489  0.91148276  1
  Al  Al52  1  0.91535874  0.07601086  0.40892205  1
  Al  Al53  1  0.91511791  0.07961535  0.91964919  1
  Al  Al54  1  0.90963000  0.58223102  0.41775761  1
  Al  Al55  1  0.91151316  0.59204192  0.91235263  1
  Al  Al56  1  0.07800007  0.41653231  0.40696408  1
  Al  Al57  1  0.09180104  0.41934703  0.92292029  1
  Al  Al58  1  0.07722524  0.91444766  0.40840853  1
  Al  Al59  1  0.07365098  0.90990082  0.91775902  1
  Al  Al60  1  0.58663017  0.42302302  0.40973931  1
  Al  Al61  1  0.57887895  0.41012049  0.90882580  1
  Al  Al62  1  0.59328541  0.90959228  0.41893790  1
  Al  Al63  1  0.58426298  0.91390255  0.91433938  1
  Al  Al64  1  0.07936784  0.07550219  0.40405587  1
  Al  Al65  1  0.07758352  0.08491862  0.92473902  1
  Al  Al66  1  0.08370984  0.57886808  0.42016985  1
  Al  Al67  1  0.07523000  0.58162914  0.91093996  1
  Al  Al68  1  0.58123783  0.07582825  0.41329284  1
  Al  Al69  1  0.58291532  0.08515521  0.91244214  1
  Al  Al70  1  0.59026255  0.58407483  0.41500945  1
  Al  Al71  1  0.57841812  0.58804981  0.90845418  1
  Al  Al72  1  0.42638229  0.42036523  0.41491775  1
  Al  Al73  1  0.41679401  0.40501474  0.91149865  1
  Al  Al74  1  0.41285292  0.91673337  0.41601263  1
  Al  Al75  1  0.42677030  0.91081945  0.91340121  1
  Al  Al76  1  0.91863488  0.42021226  0.40448603  1
  Al  Al77  1  0.91651935  0.42770218  0.92035080  1
  Al  Al78  1  0.91188123  0.91204237  0.41301928  1
  Al  Al79  1  0.91438907  0.91183640  0.91326227  1
  Al  Al80  1  0.08971077  0.40831799  0.08177650  1
  Al  Al81  1  0.07795824  0.42369688  0.57903456  1
  Al  Al82  1  0.08001661  0.91853133  0.08562192  1
  Al  Al83  1  0.07063066  0.90953600  0.58136374  1
  Al  Al84  1  0.57999230  0.40994470  0.09062996  1
  Al  Al85  1  0.58512652  0.42023094  0.59885998  1
  Al  Al86  1  0.58052575  0.91298927  0.07952728  1
  Al  Al87  1  0.59031666  0.90477831  0.58058273  1
  Al  Al88  1  0.42439291  0.08828039  0.08745794  1
  Al  Al89  1  0.42212766  0.08321574  0.58928574  1
  Al  Al90  1  0.41808689  0.58213087  0.07436219  1
  Al  Al91  1  0.42105504  0.57713252  0.59814980  1
  Al  Al92  1  0.91344018  0.07802076  0.08578963  1
  Al  Al93  1  0.91736135  0.07052078  0.57702088  1
  Al  Al94  1  0.91223238  0.58984952  0.07519678  1
  Al  Al95  1  0.91262562  0.58959537  0.58446829  1
  Al  Al96  1  0.25053216  0.13732804  0.13218807  1
  Al  Al97  1  0.25453039  0.13601792  0.63763714  1
  Al  Al98  1  0.25020724  0.63037611  0.13622256  1
  Al  Al99  1  0.25304814  0.63890255  0.64021321  1
  Al  Al100  1  0.74855802  0.13674043  0.13046832  1
  Al  Al101  1  0.74722531  0.13703193  0.63874754  1
  Al  Al102  1  0.75080873  0.63102828  0.13356240  1
  Al  Al103  1  0.75112763  0.63081996  0.63700936  1
  Al  Al104  1  0.25007435  0.36875457  0.13543054  1
  Al  Al105  1  0.25429612  0.36645819  0.64015522  1
  Al  Al106  1  0.24940911  0.86316100  0.13470108  1
  Al  Al107  1  0.25161628  0.86428866  0.64045792  1
  Al  Al108  1  0.74839076  0.37041240  0.13567948  1
  Al  Al109  1  0.74559890  0.37501109  0.64119375  1
  Al  Al110  1  0.75193263  0.86417429  0.13917643  1
  Al  Al111  1  0.75067660  0.86214463  0.63369516  1
  Al  Al112  1  0.24592190  0.13571091  0.36233234  1
  Al  Al113  1  0.25402454  0.13799555  0.86726002  1
  Al  Al114  1  0.25103657  0.63736306  0.36311217  1
  Al  Al115  1  0.25069494  0.63744462  0.86426934  1
  Al  Al116  1  0.75103549  0.13543861  0.36386301  1
  Al  Al117  1  0.74902016  0.14135815  0.87223452  1
  Al  Al118  1  0.74843684  0.63691980  0.36681789  1
  Al  Al119  1  0.75380429  0.63689718  0.86739960  1
  Al  Al120  1  0.25171002  0.36530695  0.36312744  1
  Al  Al121  1  0.25242571  0.36380961  0.86388834  1
  Al  Al122  1  0.24349670  0.86460841  0.36120190  1
  Al  Al123  1  0.25386382  0.86229570  0.86491111  1
  Al  Al124  1  0.74498578  0.36747258  0.36331431  1
  Al  Al125  1  0.74494258  0.36468837  0.86365138  1
  Al  Al126  1  0.75566273  0.86300240  0.36627354  1
  Al  Al127  1  0.75571846  0.86119137  0.86165831  1
  Al  Al128  1  0.13578711  0.25392276  0.13483031  1
  Al  Al129  1  0.13557486  0.25072670  0.63248411  1
  Al  Al130  1  0.13510922  0.74962243  0.13383792  1
  Al  Al131  1  0.13483109  0.75371933  0.63570415  1
  Al  Al132  1  0.63017911  0.25071487  0.13664902  1
  Al  Al133  1  0.63143853  0.25815242  0.64010569  1
  Al  Al134  1  0.63605445  0.75063416  0.13506192  1
  Al  Al135  1  0.63579552  0.75056490  0.63671825  1
  Al  Al136  1  0.13461812  0.25341272  0.36290523  1
  Al  Al137  1  0.13140853  0.25597315  0.86505199  1
  Al  Al138  1  0.13140806  0.75384212  0.36466852  1
  Al  Al139  1  0.12864252  0.75009785  0.86540410  1
  Al  Al140  1  0.63483060  0.25054075  0.36159546  1
  Al  Al141  1  0.62740661  0.25121358  0.86114010  1
  Al  Al142  1  0.63747115  0.75351628  0.36711782  1
  Al  Al143  1  0.63352789  0.74597878  0.86376085  1
  Al  Al144  1  0.36980530  0.25122508  0.13706180  1
  Al  Al145  1  0.37031226  0.25593334  0.64212562  1
  Al  Al146  1  0.36574653  0.75407351  0.13659718  1
  Al  Al147  1  0.36945519  0.75158995  0.64062364  1
  Al  Al148  1  0.86426821  0.24894313  0.13597612  1
  Al  Al149  1  0.86242385  0.25235276  0.63668297  1
  Al  Al150  1  0.86194923  0.75150786  0.12994294  1
  Al  Al151  1  0.86333091  0.75004720  0.62725562  1
  Al  Al152  1  0.36432898  0.24741588  0.36255511  1
  Al  Al153  1  0.37267584  0.25155248  0.86050266  1
  Al  Al154  1  0.36461146  0.75301755  0.36393394  1
  Al  Al155  1  0.37179708  0.74876907  0.86112092  1
  Al  Al156  1  0.86200302  0.25282056  0.36167691  1
  Al  Al157  1  0.86964104  0.25262222  0.86339406  1
  Al  Al158  1  0.86696585  0.75030697  0.37178242  1
  Al  Al159  1  0.87038268  0.74766029  0.86747307  1
  Al  Al160  1  0.13394348  0.13661317  0.24918728  1
  Al  Al161  1  0.13264142  0.13694523  0.75242170  1
  Al  Al162  1  0.13434355  0.63589641  0.24938272  1
  Al  Al163  1  0.13192455  0.63548941  0.75159394  1
  Al  Al164  1  0.63375352  0.13481911  0.24576276  1
  Al  Al165  1  0.63389061  0.13518239  0.75298427  1
  Al  Al166  1  0.63754687  0.63011398  0.24934935  1
  Al  Al167  1  0.63930079  0.62898818  0.75112134  1
  Al  Al168  1  0.36503984  0.13490645  0.24690579  1
  Al  Al169  1  0.36652230  0.13078010  0.75264355  1
  Al  Al170  1  0.36479631  0.62978144  0.24776592  1
  Al  Al171  1  0.36573420  0.62978676  0.75350844  1
  Al  Al172  1  0.86309005  0.13391062  0.25201188  1
  Al  Al173  1  0.86585694  0.13601948  0.75278906  1
  Al  Al174  1  0.86314483  0.63816790  0.25027522  1
  Al  Al175  1  0.86792331  0.63680446  0.75006550  1
  Al  Al176  1  0.13310725  0.36669686  0.24912453  1
  Al  Al177  1  0.13069371  0.36548274  0.74951450  1
  Al  Al178  1  0.12677825  0.86345063  0.24981286  1
  Al  Al179  1  0.13003398  0.86453917  0.75219199  1
  Al  Al180  1  0.63506277  0.36872621  0.24752938  1
  Al  Al181  1  0.63029081  0.36994911  0.75133619  1
  Al  Al182  1  0.62966779  0.86169053  0.25266773  1
  Al  Al183  1  0.63107071  0.86117381  0.75190898  1
  Al  Al184  1  0.36539009  0.37010701  0.24514922  1
  Al  Al185  1  0.36765541  0.37009235  0.75440375  1
  Al  Al186  1  0.37033665  0.86395389  0.25239924  1
  Al  Al187  1  0.37062158  0.86654118  0.75224179  1
  Al  Al188  1  0.86504286  0.36655156  0.25032388  1
  Al  Al189  1  0.86866666  0.36622586  0.74969873  1
  Al  Al190  1  0.87068587  0.86000790  0.25441572  1
  Al  Al191  1  0.87199002  0.85750984  0.74679348  1
  Al  Al192  1  0.49959444  0.68535768  0.16615757  1
  Al  Al193  1  0.68053549  -0.00081826  0.82580913  1
  Al  Al194  1  0.50018364  0.32666635  0.31309166  1
  Al  Al195  1  0.33196301  -0.00134493  0.17070622  1
  Al  Al196  1  -0.00359881  0.31870693  0.18122918  1
  Al  Al197  1  0.33196361  0.33358455  0.50404247  1
  Al  Al198  1  0.67836113  0.67110021  -0.00051432  1
  Al  Al199  1  0.18381359  0.50007437  0.82389252  1
  Al  Al200  1  0.18654722  0.50276448  0.66538465  1
  Al  Al201  1  0.17756156  0.82202038  0.00226305  1
  Al  Al202  1  0.68300576  0.82587332  -0.00081266  1
  Al  Al203  1  0.82162364  -0.00166619  0.19014612  1
  Al  Al204  1  0.32412052  0.17054887  0.49798082  1
  Al  Al205  1  0.18072694  -0.00005762  0.83241423  1
  Al  Al206  1  0.31061379  -0.00131719  0.32163362  1
  Al  Al207  1  0.67724662  0.68299296  0.50273341  1
  Al  Al208  1  -0.00079215  0.67974643  0.32786792  1
  Al  Al209  1  0.67294562  -0.00255458  0.67228362  1
  Al  Al210  1  -0.00209060  0.18571540  0.32084807  1
  Al  Al211  1  0.18122076  0.50117716  0.32029684  1
  Al  Al212  1  -0.00213523  0.68195425  0.17304826  1
  Al  Al213  1  0.31458358  0.82517309  0.50032140  1
  Al  Al214  1  0.50256609  0.68071450  0.32392640  1
  Al  Al215  1  0.32703566  0.67105835  0.50211597  1
  Al  Al216  1  0.50019632  0.17454553  0.31570476  1
  Al  Al217  1  0.17507080  -0.00077064  0.19182752  1
  Al  Al218  1  0.81075771  0.50186275  0.31666652  1
  Al  Al219  1  0.69461788  -0.00231349  0.32333932  1
  Al  Al220  1  0.50270450  0.67698393  0.69082798  1
  Al  Al221  1  0.67011137  0.33097009  0.50237725  1
  Al  Al222  1  0.50036098  0.18816699  0.69073293  1
  Al  Al223  1  0.31803020  0.68143732  0.00021102  1
  Al  Al224  1  0.82753115  0.17094916  0.49952773  1
  Al  Al225  1  0.31381920  0.31853062  -0.00035815  1
  Al  Al226  1  -0.00582552  0.17671289  0.67318978  1
  Al  Al227  1  0.17572797  0.00024875  0.66926433  1
  Al  Al228  1  0.66805040  0.17619317  0.50175060  1
  Al  Al229  1  0.82514244  -0.00264469  0.68053933  1
  Al  Al230  1  0.66954237  -0.00185526  0.16975577  1
  Al  Al231  1  0.18058969  0.18940394  -0.00090511  1
  Al  Al232  1  -0.00060905  0.68949849  0.68442098  1
  Al  Al233  1  0.17043477  0.32264602  0.49824993  1
  Al  Al234  1  0.81588461  0.50061610  0.81895237  1
  Al  Al235  1  0.67130472  0.32332130  -0.00004453  1
  Al  Al236  1  0.82520511  0.32515743  -0.00064844  1
  Al  Al237  1  0.17620685  0.68039315  0.50081474  1
  Al  Al238  1  0.82316283  0.33151962  0.49963756  1
  Au  Au239  1  0.16082052  0.16384935  0.49010866  1
  Au  Au240  1  0.82800351  -0.00008611  0.82953676  1
  Au  Au241  1  0.16061452  -0.00145778  0.66274544  1
  Au  Au242  1  0.66110548  0.17466573  -0.00064303  1
  Au  Au243  1  -0.00064951  0.32752575  0.17242437  1
  Au  Au244  1  0.67781096  -0.00388971  0.32457072  1
  Au  Au245  1  0.83865250  0.33024809  0.49427330  1
  Au  Au246  1  0.82391376  0.67578387  0.49929864  1
  Au  Au247  1  0.33071355  0.50134386  0.33352805  1
  Au  Au248  1  0.34220431  0.82759273  0.00002626  1
  Au  Au249  1  0.16205473  0.83075678  0.49659362  1
  Au  Au250  1  0.33484949  0.50013370  0.83159323  1
  Au  Au251  1  -0.00029378  0.66748566  0.33154987  1
  Au  Au252  1  0.16731428  -0.00040964  0.84270361  1
  Au  Au253  1  0.49854620  0.66933429  0.17194616  1
  Au  Au254  1  0.16899990  0.83097957  -0.00002066  1
  Au  Au255  1  0.16495626  0.18258163  0.00037383  1
  Au  Au256  1  0.34437365  0.00071174  0.83276066  1
  Au  Au257  1  0.16963885  0.65811025  -0.00345181  1
  Au  Au258  1  0.66640280  0.49795329  0.17760555  1
  Au  Au259  1  -0.00027129  0.33358542  0.66904808  1
  Au  Au260  1  0.16505516  0.33404650  0.49842272  1
  Au  Au261  1  0.17033895  0.50314109  0.67174155  1
  Au  Au262  1  0.33756296  -0.00650542  0.66586585  1
  Au  Au263  1  0.83104328  0.82676463  0.00045601  1
  Au  Au264  1  -0.00401051  0.16798851  0.66444652  1
  Au  Au265  1  0.50262629  0.82489740  0.67408317  1
  Au  Au266  1  -0.00129970  0.16510260  0.82862940  1
  Au  Au267  1  0.50203681  0.17519419  0.67943966  1
  Au  Au268  1  0.83687027  0.17518342  0.00176887  1
  Au  Au269  1  0.50226787  0.17426556  0.32862843  1
  Au  Au270  1  -0.00255047  0.83087571  0.17379025  1
  Au  Au271  1  0.82571949  0.50180460  0.67081297  1
  Au  Au272  1  0.00094593  0.67930403  0.67082382  1
  Au  Au273  1  0.33284307  0.15595937  0.49735033  1
  Au  Au274  1  -0.00097427  0.82248177  0.82301233  1
  Au  Au275  1  0.16184417  0.50172599  0.17150618  1
  Au  Au276  1  0.67448598  0.16027232  0.50265881  1
  Au  Au277  1  0.00154009  0.33967826  0.83942687  1
  Au  Au278  1  0.49964738  0.83093462  0.33375667  1
  Au  Au279  1  0.66595559  0.49906030  0.82748986  1
  Au  Au280  1  0.34241285  0.66595125  0.50514085  1
  Au  Au281  1  0.34330116  0.17416904  0.00054988  1
  Au  Au282  1  0.83500164  0.50498543  0.16961917  1
  Au  Au283  1  -0.00246728  0.16216774  0.17520347  1
  Au  Au284  1  0.33495296  0.49739458  0.16151123  1
  Au  Au285  1  0.34330520  0.34395997  0.51235329  1
  Au  Au286  1  0.17956608  -0.00045903  0.17523731  1
  Au  Au287  1  0.66560899  0.67138589  -0.00282671  1
