# generated using pymatgen
data_Ca24Ti8Al207Au49
_symmetry_space_group_name_H-M   'P 1'
_cell_length_a   17.32115577
_cell_length_b   17.32209686
_cell_length_c   17.32194782
_cell_angle_alpha   90.00211608
_cell_angle_beta   89.99925892
_cell_angle_gamma   90.00142839
_symmetry_Int_Tables_number   1
_chemical_formula_structural   Ca24Ti8Al207Au49
_chemical_formula_sum   'Ca24 Ti8 Al207 Au49'
_cell_volume   5197.25535552
_cell_formula_units_Z   1
loop_
 _symmetry_equiv_pos_site_id
 _symmetry_equiv_pos_as_xyz
  1  'x, y, z'
loop_
 _atom_site_type_symbol
 _atom_site_label
 _atom_site_symmetry_multiplicity
 _atom_site_fract_x
 _atom_site_fract_y
 _atom_site_fract_z
 _atom_site_occupancy
  Ca  Ca0  1  0.24822364  -0.00427176  -0.00774933  1
  Ca  Ca1  1  0.25224770  0.00746145  0.50289120  1
  Ca  Ca2  1  0.24813443  0.50343848  0.00244388  1
  Ca  Ca3  1  0.24987853  0.49516745  0.49912996  1
  Ca  Ca4  1  0.74616023  0.00150656  -0.00223664  1
  Ca  Ca5  1  0.74448113  0.00304148  0.49973511  1
  Ca  Ca6  1  0.74592039  0.49596435  0.00404746  1
  Ca  Ca7  1  0.74462389  0.49748662  0.49681954  1
  Ca  Ca8  1  -0.00035634  0.25028090  0.00028097  1
  Ca  Ca9  1  -0.00274089  0.24684819  0.49664530  1
  Ca  Ca10  1  0.00380825  0.75304433  -0.00336492  1
  Ca  Ca11  1  0.00049302  0.74434261  0.50044977  1
  Ca  Ca12  1  0.50254759  0.25445034  -0.00311023  1
  Ca  Ca13  1  0.50305300  0.24818599  0.50078993  1
  Ca  Ca14  1  0.49683569  0.75354952  -0.00583406  1
  Ca  Ca15  1  0.50203536  0.74998791  0.50326126  1
  Ca  Ca16  1  -0.00315183  -0.00182664  0.25074355  1
  Ca  Ca17  1  0.00279235  -0.00022608  0.75033268  1
  Ca  Ca18  1  -0.00159799  0.49877019  0.24985987  1
  Ca  Ca19  1  0.00310616  0.50197667  0.75285732  1
  Ca  Ca20  1  0.50310142  0.00629920  0.25696046  1
  Ca  Ca21  1  0.50234742  0.00111558  0.75103516  1
  Ca  Ca22  1  0.50478863  0.49383067  0.25534834  1
  Ca  Ca23  1  0.49908456  0.49762280  0.75003803  1
  Ti  Ti24  1  0.24862996  0.25085922  0.25140439  1
  Ti  Ti25  1  0.25013307  0.24865043  0.75129115  1
  Ti  Ti26  1  0.24822279  0.75079400  0.24916356  1
  Ti  Ti27  1  0.25124277  0.75137141  0.75068037  1
  Ti  Ti28  1  0.75110098  0.24935498  0.25125051  1
  Ti  Ti29  1  0.74826239  0.24976652  0.74937679  1
  Ti  Ti30  1  0.75213164  0.75043198  0.25037367  1
  Ti  Ti31  1  0.74825945  0.75054814  0.75106957  1
  Al  Al32  1  0.07538175  0.07512959  0.07773908  1
  Al  Al33  1  0.09731448  0.08060030  0.58491128  1
  Al  Al34  1  0.09046518  0.58726891  0.08802732  1
  Al  Al35  1  0.07445495  0.58143329  0.58835288  1
  Al  Al36  1  0.58779575  0.08358391  0.08441934  1
  Al  Al37  1  0.58622638  0.08317598  0.58850382  1
  Al  Al38  1  0.58228024  0.56906109  0.07895607  1
  Al  Al39  1  0.58821727  0.59029665  0.57809718  1
  Al  Al40  1  0.41847145  0.42470723  0.08777861  1
  Al  Al41  1  0.42162590  0.40752803  0.59245731  1
  Al  Al42  1  0.41575957  0.91659313  0.06510782  1
  Al  Al43  1  0.42694032  0.91979878  0.59825140  1
  Al  Al44  1  0.90749611  0.41509959  0.08279580  1
  Al  Al45  1  0.91554029  0.41735036  0.57214567  1
  Al  Al46  1  0.91890345  0.91848437  0.08008003  1
  Al  Al47  1  0.92719464  0.91314293  0.59273700  1
  Al  Al48  1  0.41789498  0.09822009  0.41842882  1
  Al  Al49  1  0.41590813  0.07264576  0.90382130  1
  Al  Al50  1  0.42583120  0.57065159  0.42010897  1
  Al  Al51  1  0.40914609  0.57965790  0.91050474  1
  Al  Al52  1  0.92192538  0.08774188  0.41023279  1
  Al  Al53  1  0.91692170  0.07828733  0.91621792  1
  Al  Al54  1  0.90437218  0.57861964  0.41348945  1
  Al  Al55  1  0.92506710  0.58167680  0.92223335  1
  Al  Al56  1  0.08412655  0.41531254  0.41201927  1
  Al  Al57  1  0.08316647  0.42321955  0.91663890  1
  Al  Al58  1  0.07432354  0.92350112  0.42307540  1
  Al  Al59  1  0.09656974  0.91208935  0.91024342  1
  Al  Al60  1  0.59285817  0.41240355  0.41516879  1
  Al  Al61  1  0.58358111  0.40861563  0.91440351  1
  Al  Al62  1  0.59051053  0.92880006  0.41428944  1
  Al  Al63  1  0.58419151  0.91492537  0.90251185  1
  Al  Al64  1  0.08404454  0.09479818  0.42287436  1
  Al  Al65  1  0.09165204  0.07293762  0.90588850  1
  Al  Al66  1  0.07925877  0.57523040  0.41332325  1
  Al  Al67  1  0.08954221  0.58546282  0.91970028  1
  Al  Al68  1  0.58206580  0.09024495  0.41442045  1
  Al  Al69  1  0.58924866  0.07922151  0.90906190  1
  Al  Al70  1  0.59967301  0.57905113  0.41560236  1
  Al  Al71  1  0.57337425  0.57579680  0.91667149  1
  Al  Al72  1  0.42043852  0.41286529  0.41892739  1
  Al  Al73  1  0.42148988  0.41920866  0.90543606  1
  Al  Al74  1  0.43183753  0.93494957  0.42707884  1
  Al  Al75  1  0.40940367  0.91055799  0.90326528  1
  Al  Al76  1  0.90280967  0.41677746  0.41150655  1
  Al  Al77  1  0.91560270  0.41066431  0.92585686  1
  Al  Al78  1  0.91717936  0.92548954  0.41635802  1
  Al  Al79  1  0.92021099  0.91886799  0.91268739  1
  Al  Al80  1  0.09111327  0.42635236  0.09128992  1
  Al  Al81  1  0.08063140  0.41854451  0.57849013  1
  Al  Al82  1  0.08853254  0.91245280  0.07253192  1
  Al  Al83  1  0.08637457  0.91840549  0.60156670  1
  Al  Al84  1  0.59290497  0.41113292  0.07798623  1
  Al  Al85  1  0.58354813  0.40461179  0.58013009  1
  Al  Al86  1  0.58689281  0.92444614  0.07989092  1
  Al  Al87  1  0.58735496  0.92008494  0.60292603  1
  Al  Al88  1  0.42785768  0.07939879  0.07901004  1
  Al  Al89  1  0.41253821  0.08935186  0.58228436  1
  Al  Al90  1  0.40327632  0.57722370  0.08103254  1
  Al  Al91  1  0.42536179  0.57519300  0.58750532  1
  Al  Al92  1  0.91618446  0.08101597  0.08218846  1
  Al  Al93  1  0.92383155  0.07502659  0.57695124  1
  Al  Al94  1  0.92343405  0.57831543  0.08755977  1
  Al  Al95  1  0.91784445  0.59072943  0.57838398  1
  Al  Al96  1  0.24878077  0.13636433  0.13502973  1
  Al  Al97  1  0.25001411  0.13379239  0.63643355  1
  Al  Al98  1  0.24746984  0.63238615  0.13538072  1
  Al  Al99  1  0.25319877  0.63925318  0.63783913  1
  Al  Al100  1  0.75120637  0.13565425  0.13650933  1
  Al  Al101  1  0.74460081  0.13535081  0.63731655  1
  Al  Al102  1  0.75515630  0.63366619  0.13552888  1
  Al  Al103  1  0.74396790  0.63497335  0.63589479  1
  Al  Al104  1  0.24915960  0.36924313  0.13560110  1
  Al  Al105  1  0.25115551  0.35921788  0.63495791  1
  Al  Al106  1  0.24772890  0.86355917  0.13316651  1
  Al  Al107  1  0.24492973  0.87022281  0.63995301  1
  Al  Al108  1  0.75126075  0.36612698  0.13822359  1
  Al  Al109  1  0.74288213  0.36771226  0.63570546  1
  Al  Al110  1  0.75363381  0.86574416  0.13532389  1
  Al  Al111  1  0.74148960  0.86769876  0.64059845  1
  Al  Al112  1  0.24738318  0.14028865  0.37272661  1
  Al  Al113  1  0.24771945  0.13114929  0.86215007  1
  Al  Al114  1  0.24765457  0.63501338  0.36473980  1
  Al  Al115  1  0.25554933  0.63878204  0.86345051  1
  Al  Al116  1  0.74852125  0.13115085  0.36533897  1
  Al  Al117  1  0.74586496  0.13631697  0.86251481  1
  Al  Al118  1  0.74910067  0.63054330  0.36459233  1
  Al  Al119  1  0.74916474  0.63921744  0.86381322  1
  Al  Al120  1  0.24914855  0.36045277  0.36551057  1
  Al  Al121  1  0.25355547  0.36261159  0.86527995  1
  Al  Al122  1  0.24382759  0.86441183  0.36355929  1
  Al  Al123  1  0.24825305  0.86951604  0.85935858  1
  Al  Al124  1  0.74765736  0.36777501  0.36371790  1
  Al  Al125  1  0.74339135  0.36192344  0.86422280  1
  Al  Al126  1  0.74929437  0.87266794  0.36400737  1
  Al  Al127  1  0.74750120  0.86428123  0.86010581  1
  Al  Al128  1  0.13619197  0.25245276  0.12970656  1
  Al  Al129  1  0.13303445  0.24363490  0.63323344  1
  Al  Al130  1  0.13497508  0.75255254  0.13469125  1
  Al  Al131  1  0.13537069  0.75312464  0.63705003  1
  Al  Al132  1  0.63844843  0.25167325  0.13324944  1
  Al  Al133  1  0.63102028  0.25417570  0.63521424  1
  Al  Al134  1  0.63793664  0.75306934  0.13721261  1
  Al  Al135  1  0.62804032  0.75310970  0.64058782  1
  Al  Al136  1  0.12743971  0.25184561  0.36648375  1
  Al  Al137  1  0.13458095  0.24691883  0.86711708  1
  Al  Al138  1  0.12929523  0.74832202  0.36517803  1
  Al  Al139  1  0.13222455  0.75478586  0.86358588  1
  Al  Al140  1  0.63713275  0.25078375  0.36673819  1
  Al  Al141  1  0.62628943  0.25073951  0.86385957  1
  Al  Al142  1  0.63948386  0.74749384  0.36689313  1
  Al  Al143  1  0.62527300  0.75285140  0.86034539  1
  Al  Al144  1  0.36214392  0.24956905  0.13369003  1
  Al  Al145  1  0.36499053  0.24641185  0.63814337  1
  Al  Al146  1  0.36312147  0.75222378  0.13228264  1
  Al  Al147  1  0.37106513  0.75650379  0.63980733  1
  Al  Al148  1  0.86822172  0.25092285  0.13975713  1
  Al  Al149  1  0.86509140  0.24894278  0.63469365  1
  Al  Al150  1  0.86518668  0.75288254  0.13253898  1
  Al  Al151  1  0.86084298  0.75238155  0.63808020  1
  Al  Al152  1  0.36638874  0.24583865  0.36674931  1
  Al  Al153  1  0.37205746  0.25126193  0.86382727  1
  Al  Al154  1  0.36677076  0.74742458  0.36319550  1
  Al  Al155  1  0.37162839  0.75379302  0.86074749  1
  Al  Al156  1  0.86638540  0.25140819  0.36299483  1
  Al  Al157  1  0.86804591  0.24880687  0.86336638  1
  Al  Al158  1  0.86723652  0.74846519  0.36161817  1
  Al  Al159  1  0.86768137  0.75266683  0.86841845  1
  Al  Al160  1  0.13557494  0.13813714  0.25443389  1
  Al  Al161  1  0.13417334  0.13145057  0.74892246  1
  Al  Al162  1  0.13487697  0.63407308  0.24780378  1
  Al  Al163  1  0.13697073  0.63698951  0.75370408  1
  Al  Al164  1  0.63472706  0.13689267  0.25549119  1
  Al  Al165  1  0.63315744  0.13366652  0.74973119  1
  Al  Al166  1  0.63740958  0.63240105  0.25402749  1
  Al  Al167  1  0.62778799  0.63649099  0.74837729  1
  Al  Al168  1  0.36418549  0.13799894  0.25541787  1
  Al  Al169  1  0.36632741  0.13281087  0.75508507  1
  Al  Al170  1  0.36217814  0.63301126  0.24543771  1
  Al  Al171  1  0.37260395  0.63667513  0.75041419  1
  Al  Al172  1  0.86615225  0.13051640  0.25545192  1
  Al  Al173  1  0.86987539  0.13606427  0.74968348  1
  Al  Al174  1  0.86208563  0.62737238  0.25413731  1
  Al  Al175  1  0.86465436  0.63790001  0.74902282  1
  Al  Al176  1  0.12933992  0.36088486  0.24878192  1
  Al  Al177  1  0.13460606  0.36195099  0.75199676  1
  Al  Al178  1  0.12944533  0.86537926  0.25151108  1
  Al  Al179  1  0.13155079  0.86760980  0.75062467  1
  Al  Al180  1  0.63614182  0.36550380  0.25372859  1
  Al  Al181  1  0.62806148  0.36260298  0.75000816  1
  Al  Al182  1  0.63471432  0.86471189  0.25425067  1
  Al  Al183  1  0.63038598  0.86863991  0.75252990  1
  Al  Al184  1  0.36483511  0.36158712  0.24906404  1
  Al  Al185  1  0.36898771  0.36152295  0.75007155  1
  Al  Al186  1  0.36749947  0.86190335  0.25021421  1
  Al  Al187  1  0.36663479  0.87004712  0.75226356  1
  Al  Al188  1  0.86534767  0.37034415  0.25308150  1
  Al  Al189  1  0.86337101  0.36251678  0.74763665  1
  Al  Al190  1  0.86814040  0.86835008  0.25241409  1
  Al  Al191  1  0.86977629  0.86403144  0.75016635  1
  Al  Al192  1  0.17157359  0.00562768  0.32836250  1
  Al  Al193  1  0.17829643  0.31753147  0.50347227  1
  Al  Al194  1  0.82924564  0.82941352  0.50150003  1
  Al  Al195  1  0.81169918  0.67366327  0.49974175  1
  Al  Al196  1  0.17233580  -0.00055823  0.17191775  1
  Al  Al197  1  0.00225171  0.17682194  0.18449061  1
  Al  Al198  1  0.67984784  0.49884555  0.18498735  1
  Al  Al199  1  0.33247219  -0.00150942  0.17649320  1
  Al  Al200  1  0.32838748  0.00175868  0.33084307  1
  Al  Al201  1  0.32214862  0.16918813  -0.00406235  1
  Al  Al202  1  0.82781301  0.17084859  0.50000932  1
  Al  Al203  1  0.82186272  0.50266318  0.66907217  1
  Al  Al204  1  0.32694698  0.49887682  0.69134281  1
  Al  Al205  1  0.31568397  0.00152195  0.68627819  1
  Al  Al206  1  0.50077747  0.17428184  0.19049304  1
  Al  Al207  1  0.18944671  0.50079652  0.82679431  1
  Al  Al208  1  0.81418621  0.00041275  0.82490908  1
  Al  Al209  1  0.67839312  0.66909564  0.00054632  1
  Al  Al210  1  0.32968561  0.83470221  0.50049465  1
  Al  Al211  1  0.67908831  0.00047332  0.18763321  1
  Al  Al212  1  0.67058058  0.50002413  0.82015906  1
  Al  Al213  1  0.16743186  0.82518643  0.50216626  1
  Al  Al214  1  0.68082868  0.17920700  -0.00216845  1
  Al  Al215  1  0.66945403  0.81963812  0.50272847  1
  Al  Al216  1  0.67522449  0.18512831  0.50162504  1
  Al  Al217  1  0.50347267  0.67807179  0.33360972  1
  Al  Al218  1  0.17448204  0.49729684  0.31172404  1
  Al  Al219  1  0.50015458  0.83262992  0.17252516  1
  Al  Al220  1  -0.00376118  0.32344621  0.67532167  1
  Al  Al221  1  -0.00073163  0.68839200  0.68082397  1
  Al  Al222  1  0.33402348  0.31335242  0.50159246  1
  Al  Al223  1  0.32680545  0.33239582  -0.00038370  1
  Al  Al224  1  0.82805269  0.49884015  0.82855102  1
  Al  Al225  1  0.18035479  0.68924655  -0.00089095  1
  Al  Al226  1  0.80625403  0.31573507  0.00056865  1
  Al  Al227  1  0.50065656  0.31496479  0.32715185  1
  Al  Al228  1  0.32869156  0.49839652  0.31121936  1
  Al  Al229  1  -0.00110760  0.67995868  0.18091129  1
  Al  Al230  1  0.50200289  0.32864707  0.17269396  1
  Al  Al231  1  0.32349130  0.67129720  0.50085364  1
  Al  Al232  1  0.67671707  0.82637602  -0.00264965  1
  Al  Al233  1  0.81421322  0.00044594  0.66876706  1
  Al  Al234  1  0.80786234  0.32170995  0.49986334  1
  Al  Al235  1  0.17300302  0.49987158  0.67424703  1
  Al  Al236  1  0.30930411  0.81775940  -0.00548348  1
  Al  Al237  1  0.50084697  0.66796299  0.17133220  1
  Al  Al238  1  0.49938342  0.18236784  0.67817195  1
  Au  Au239  1  -0.00181944  0.83275694  0.33047167  1
  Au  Au240  1  0.66207051  0.67038551  -0.00317406  1
  Au  Au241  1  0.00152337  0.83586071  0.82247319  1
  Au  Au242  1  0.00322135  0.82805989  0.15987811  1
  Au  Au243  1  0.83016203  -0.00032515  0.67471865  1
  Au  Au244  1  0.32630197  0.49516040  0.32784792  1
  Au  Au245  1  0.33561573  0.16046728  -0.00549928  1
  Au  Au246  1  0.32613821  0.49550273  0.67475473  1
  Au  Au247  1  0.17007836  0.32724206  0.50069153  1
  Au  Au248  1  0.49779674  0.67145710  0.83150160  1
  Au  Au249  1  0.00020049  0.33838794  0.16724291  1
  Au  Au250  1  0.00257554  0.66560502  0.82647348  1
  Au  Au251  1  -0.00467795  0.66036027  0.32840026  1
  Au  Au252  1  0.16290917  0.00380051  0.33724449  1
  Au  Au253  1  0.82130772  0.49887885  0.84474423  1
  Au  Au254  1  0.83361465  0.50038750  0.66529972  1
  Au  Au255  1  0.84433981  0.82175405  0.50253942  1
  Au  Au256  1  0.00205751  0.16031013  0.82972497  1
  Au  Au257  1  0.82422857  -0.00079261  0.16572424  1
  Au  Au258  1  0.33710489  0.33945218  -0.00026946  1
  Au  Au259  1  0.50090508  0.67790907  0.66439975  1
  Au  Au260  1  0.82763574  0.50076103  0.17574398  1
  Au  Au261  1  0.50083560  0.16809331  0.82580330  1
  Au  Au262  1  0.84283647  0.67124157  0.00503739  1
  Au  Au263  1  0.00136546  0.16098199  0.17854903  1
  Au  Au264  1  0.83704508  0.17313153  -0.00162388  1
  Au  Au265  1  0.50334801  0.66717799  0.33978218  1
  Au  Au266  1  0.32946439  0.00304234  0.67654611  1
  Au  Au267  1  0.82623410  0.83955778  -0.00466405  1
  Au  Au268  1  0.66823904  0.18110599  -0.00312818  1
  Au  Au269  1  -0.00509880  0.32805781  0.33633763  1
  Au  Au270  1  0.32697778  0.67031244  -0.00229998  1
  Au  Au271  1  0.49748698  0.83368476  0.16022582  1
  Au  Au272  1  0.00377958  0.16684480  0.66090294  1
  Au  Au273  1  0.65808116  0.49720575  0.66795591  1
  Au  Au274  1  0.16161042  0.16261946  -0.00089331  1
  Au  Au275  1  0.32514178  -0.00324300  0.16112241  1
  Au  Au276  1  0.33432667  0.65833971  0.50094778  1
  Au  Au277  1  0.50055689  0.84376056  0.32877371  1
  Au  Au278  1  -0.00158349  0.33230177  0.66668020  1
  Au  Au279  1  0.16985034  0.83749693  0.50347573  1
  Au  Au280  1  0.16322505  0.33543884  0.00130088  1
  Au  Au281  1  0.34711588  0.83668611  0.50159140  1
  Au  Au282  1  0.00025003  0.33348044  0.83221172  1
  Au  Au283  1  0.82193091  0.00334825  0.33429690  1
  Au  Au284  1  0.16092392  0.66085308  0.50093750  1
  Au  Au285  1  0.50069156  0.17567954  0.17327870  1
  Au  Au286  1  0.65740769  0.83109658  0.50401478  1
  Au  Au287  1  0.49651762  0.65063546  0.17135150  1
