# generated using pymatgen
data_Ca24Ti8Al207Au49
_symmetry_space_group_name_H-M   'P 1'
_cell_length_a   17.32046994
_cell_length_b   17.32095624
_cell_length_c   17.32079757
_cell_angle_alpha   90.00121545
_cell_angle_beta   90.00139590
_cell_angle_gamma   90.00327458
_symmetry_Int_Tables_number   1
_chemical_formula_structural   Ca24Ti8Al207Au49
_chemical_formula_sum   'Ca24 Ti8 Al207 Au49'
_cell_volume   5196.36227164
_cell_formula_units_Z   1
loop_
 _symmetry_equiv_pos_site_id
 _symmetry_equiv_pos_as_xyz
  1  'x, y, z'
loop_
 _atom_site_type_symbol
 _atom_site_label
 _atom_site_symmetry_multiplicity
 _atom_site_fract_x
 _atom_site_fract_y
 _atom_site_fract_z
 _atom_site_occupancy
  Ca  Ca0  1  0.24885541  -0.00133946  0.00043284  1
  Ca  Ca1  1  0.25245157  -0.00105124  0.50068738  1
  Ca  Ca2  1  0.25244976  0.50124852  0.00405697  1
  Ca  Ca3  1  0.24903337  0.50095787  0.49914168  1
  Ca  Ca4  1  0.74952965  0.00071477  -0.00184309  1
  Ca  Ca5  1  0.75242925  0.00035129  0.50013949  1
  Ca  Ca6  1  0.74858592  0.49491809  0.00060911  1
  Ca  Ca7  1  0.74721868  0.50168070  0.49910448  1
  Ca  Ca8  1  0.00001535  0.24578994  0.00398388  1
  Ca  Ca9  1  -0.00327342  0.24465541  0.49547120  1
  Ca  Ca10  1  0.00557552  0.75277662  -0.00285186  1
  Ca  Ca11  1  -0.00176121  0.75010991  0.50357641  1
  Ca  Ca12  1  0.50019711  0.25115666  0.00495686  1
  Ca  Ca13  1  0.50377060  0.24850327  0.49747303  1
  Ca  Ca14  1  0.49527417  0.75046444  0.00050294  1
  Ca  Ca15  1  0.49961810  0.74885104  0.49744383  1
  Ca  Ca16  1  -0.00278058  0.00456981  0.25510249  1
  Ca  Ca17  1  0.00073559  -0.00629152  0.74629170  1
  Ca  Ca18  1  -0.00188058  0.49715917  0.25613451  1
  Ca  Ca19  1  0.00279475  0.50460384  0.74856646  1
  Ca  Ca20  1  0.50176205  0.00334248  0.25388918  1
  Ca  Ca21  1  0.49968614  0.00569371  0.74535471  1
  Ca  Ca22  1  0.49996592  0.49333178  0.25124860  1
  Ca  Ca23  1  0.49974657  0.49258301  0.74588501  1
  Ti  Ti24  1  0.25114362  0.25104917  0.25200201  1
  Ti  Ti25  1  0.25095516  0.24878602  0.74824624  1
  Ti  Ti26  1  0.25028338  0.74906288  0.25053276  1
  Ti  Ti27  1  0.24715712  0.75054739  0.74982243  1
  Ti  Ti28  1  0.75000745  0.25013010  0.25134233  1
  Ti  Ti29  1  0.74859837  0.25143374  0.74907070  1
  Ti  Ti30  1  0.74956621  0.75156561  0.25324564  1
  Ti  Ti31  1  0.75295237  0.74903524  0.74743791  1
  Al  Al32  1  0.07742027  0.08332833  0.07981198  1
  Al  Al33  1  0.07994274  0.07340055  0.57849544  1
  Al  Al34  1  0.10164071  0.58829559  0.07733044  1
  Al  Al35  1  0.08205901  0.59782038  0.58745121  1
  Al  Al36  1  0.58140537  0.08803572  0.08623122  1
  Al  Al37  1  0.58601493  0.09120460  0.58500580  1
  Al  Al38  1  0.58011781  0.57645499  0.08033263  1
  Al  Al39  1  0.58103683  0.57935193  0.57822017  1
  Al  Al40  1  0.41534703  0.41493635  0.09314734  1
  Al  Al41  1  0.41326368  0.41196578  0.57741379  1
  Al  Al42  1  0.40579575  0.91838372  0.08105265  1
  Al  Al43  1  0.40967626  0.92089669  0.57675452  1
  Al  Al44  1  0.91242103  0.41123119  0.07976962  1
  Al  Al45  1  0.90618766  0.42883184  0.58297812  1
  Al  Al46  1  0.91552354  0.92513629  0.08080267  1
  Al  Al47  1  0.91638085  0.91230549  0.59241835  1
  Al  Al48  1  0.41591497  0.07963545  0.41481850  1
  Al  Al49  1  0.41727679  0.08665775  0.91017506  1
  Al  Al50  1  0.41510993  0.58157000  0.41932067  1
  Al  Al51  1  0.41321387  0.57920031  0.92663046  1
  Al  Al52  1  0.91375386  0.08463491  0.40955991  1
  Al  Al53  1  0.90884888  0.07721760  0.91685021  1
  Al  Al54  1  0.91734983  0.57754654  0.42134641  1
  Al  Al55  1  0.92520818  0.58925434  0.90576657  1
  Al  Al56  1  0.08402091  0.41748288  0.41466704  1
  Al  Al57  1  0.08098303  0.43190157  0.92497837  1
  Al  Al58  1  0.08454109  0.91784439  0.42335094  1
  Al  Al59  1  0.09283278  0.90981729  0.90895267  1
  Al  Al60  1  0.58877245  0.40943273  0.41161685  1
  Al  Al61  1  0.58979048  0.40996465  0.92593143  1
  Al  Al62  1  0.58763140  0.91816183  0.41841523  1
  Al  Al63  1  0.58183635  0.92745548  0.92588459  1
  Al  Al64  1  0.07729933  0.08719714  0.41116546  1
  Al  Al65  1  0.09103756  0.07099027  0.91739946  1
  Al  Al66  1  0.08872103  0.58626373  0.42506727  1
  Al  Al67  1  0.08653531  0.60068992  0.91454680  1
  Al  Al68  1  0.58956413  0.08833160  0.42162602  1
  Al  Al69  1  0.57957535  0.09000846  0.91571480  1
  Al  Al70  1  0.59129638  0.57352647  0.41396360  1
  Al  Al71  1  0.58370360  0.57468688  0.92411395  1
  Al  Al72  1  0.41520770  0.40796043  0.41592614  1
  Al  Al73  1  0.41870164  0.42073947  0.92298581  1
  Al  Al74  1  0.40705342  0.91868143  0.41691860  1
  Al  Al75  1  0.40464527  0.92015404  0.92369332  1
  Al  Al76  1  0.91587826  0.41743148  0.41737792  1
  Al  Al77  1  0.90458666  0.41702157  0.92528735  1
  Al  Al78  1  0.91080323  0.92320652  0.41630039  1
  Al  Al79  1  0.92108006  0.91704350  0.90756463  1
  Al  Al80  1  0.08688416  0.42764002  0.09317050  1
  Al  Al81  1  0.08477401  0.42538159  0.57524273  1
  Al  Al82  1  0.08984051  0.91513460  0.06966062  1
  Al  Al83  1  0.08123544  0.90560997  0.58893028  1
  Al  Al84  1  0.58063540  0.40752738  0.08923950  1
  Al  Al85  1  0.58779280  0.40982557  0.57548501  1
  Al  Al86  1  0.58297441  0.92357159  0.08368862  1
  Al  Al87  1  0.59093238  0.91949011  0.57433573  1
  Al  Al88  1  0.41886641  0.08491623  0.08957199  1
  Al  Al89  1  0.42159037  0.08362655  0.58799589  1
  Al  Al90  1  0.40543473  0.57789935  0.09017514  1
  Al  Al91  1  0.41649787  0.57984667  0.57920022  1
  Al  Al92  1  0.91630298  0.08469892  0.08771280  1
  Al  Al93  1  0.91339613  0.07404127  0.58273250  1
  Al  Al94  1  0.92522370  0.57167118  0.07048719  1
  Al  Al95  1  0.91851873  0.58882104  0.59646681  1
  Al  Al96  1  0.25363507  0.13599014  0.13805441  1
  Al  Al97  1  0.24985231  0.13388547  0.63006052  1
  Al  Al98  1  0.24920268  0.63626586  0.12952732  1
  Al  Al99  1  0.24238898  0.63666028  0.63286150  1
  Al  Al100  1  0.75242355  0.13606976  0.13317216  1
  Al  Al101  1  0.74915652  0.13780381  0.62835161  1
  Al  Al102  1  0.74767178  0.63608609  0.13692435  1
  Al  Al103  1  0.75343057  0.63033726  0.63101752  1
  Al  Al104  1  0.25220946  0.36969043  0.13749551  1
  Al  Al105  1  0.25200748  0.36315366  0.62975649  1
  Al  Al106  1  0.24828750  0.86513468  0.13644355  1
  Al  Al107  1  0.24551213  0.86485167  0.63331776  1
  Al  Al108  1  0.74624024  0.36424220  0.13298103  1
  Al  Al109  1  0.74383514  0.36833451  0.63110578  1
  Al  Al110  1  0.75224100  0.86551404  0.13069480  1
  Al  Al111  1  0.75451333  0.86561849  0.63209882  1
  Al  Al112  1  0.25506609  0.13530638  0.36955780  1
  Al  Al113  1  0.25283874  0.12906093  0.86214643  1
  Al  Al114  1  0.24860222  0.63037031  0.36788168  1
  Al  Al115  1  0.24416433  0.63932246  0.87167595  1
  Al  Al116  1  0.75142655  0.13728160  0.37108290  1
  Al  Al117  1  0.74948074  0.13609117  0.86441269  1
  Al  Al118  1  0.74815117  0.63778055  0.37384752  1
  Al  Al119  1  0.75210029  0.63617221  0.86283452  1
  Al  Al120  1  0.25257116  0.36366431  0.37007000  1
  Al  Al121  1  0.24856282  0.36432278  0.86565844  1
  Al  Al122  1  0.25500381  0.86412733  0.37128038  1
  Al  Al123  1  0.24323525  0.86860390  0.86405806  1
  Al  Al124  1  0.74176963  0.36430376  0.36995968  1
  Al  Al125  1  0.75158049  0.36925415  0.86502002  1
  Al  Al126  1  0.75213655  0.86502545  0.37166234  1
  Al  Al127  1  0.75686578  0.86185003  0.86572036  1
  Al  Al128  1  0.13742955  0.24897872  0.13919778  1
  Al  Al129  1  0.13739704  0.25104404  0.63542284  1
  Al  Al130  1  0.13669693  0.74885347  0.12891799  1
  Al  Al131  1  0.12899319  0.74821551  0.63556471  1
  Al  Al132  1  0.63717306  0.25051266  0.13164775  1
  Al  Al133  1  0.63540772  0.25028587  0.63072963  1
  Al  Al134  1  0.63416587  0.75324733  0.13859783  1
  Al  Al135  1  0.63880876  0.74893101  0.63026309  1
  Al  Al136  1  0.13127885  0.25151984  0.36352164  1
  Al  Al137  1  0.13791472  0.24709388  0.85994236  1
  Al  Al138  1  0.13674581  0.74648640  0.36686889  1
  Al  Al139  1  0.12908834  0.75078687  0.86216739  1
  Al  Al140  1  0.63611652  0.24811407  0.37113206  1
  Al  Al141  1  0.63822859  0.25401313  0.86925691  1
  Al  Al142  1  0.63619851  0.75364252  0.37274568  1
  Al  Al143  1  0.63732003  0.75393069  0.86281327  1
  Al  Al144  1  0.36541904  0.25127427  0.13818367  1
  Al  Al145  1  0.36484424  0.24781671  0.62927747  1
  Al  Al146  1  0.36416840  0.74987306  0.13496911  1
  Al  Al147  1  0.36203263  0.75392606  0.63528054  1
  Al  Al148  1  0.86260591  0.25517551  0.13340758  1
  Al  Al149  1  0.86030015  0.24924228  0.63190536  1
  Al  Al150  1  0.86184156  0.75011797  0.13415310  1
  Al  Al151  1  0.86689370  0.74913382  0.62993944  1
  Al  Al152  1  0.36483142  0.25119221  0.37131948  1
  Al  Al153  1  0.36349967  0.24817249  0.86334525  1
  Al  Al154  1  0.36644431  0.74861146  0.36517314  1
  Al  Al155  1  0.36032755  0.74944454  0.86565638  1
  Al  Al156  1  0.86834347  0.24709073  0.36607118  1
  Al  Al157  1  0.86147990  0.25526698  0.86458661  1
  Al  Al158  1  0.86355943  0.75101151  0.37182332  1
  Al  Al159  1  0.87541129  0.74754679  0.85889095  1
  Al  Al160  1  0.13666053  0.13587574  0.25482680  1
  Al  Al161  1  0.13798930  0.12746043  0.74911746  1
  Al  Al162  1  0.14049962  0.63135187  0.24651878  1
  Al  Al163  1  0.13130942  0.63444646  0.75116068  1
  Al  Al164  1  0.63744752  0.13755686  0.25331938  1
  Al  Al165  1  0.63553433  0.13798872  0.74338419  1
  Al  Al166  1  0.63609954  0.63372106  0.25618137  1
  Al  Al167  1  0.63999180  0.63040393  0.74484359  1
  Al  Al168  1  0.36669701  0.13692622  0.25545907  1
  Al  Al169  1  0.36623786  0.13564980  0.74656896  1
  Al  Al170  1  0.36089752  0.63140824  0.24588336  1
  Al  Al171  1  0.35860515  0.63690452  0.74890469  1
  Al  Al172  1  0.86073034  0.12959335  0.25411936  1
  Al  Al173  1  0.86367253  0.13750441  0.74862367  1
  Al  Al174  1  0.86151359  0.63832069  0.25446901  1
  Al  Al175  1  0.86834560  0.63367933  0.74476105  1
  Al  Al176  1  0.13818911  0.37156126  0.25063783  1
  Al  Al177  1  0.14102735  0.37349968  0.74784617  1
  Al  Al178  1  0.13973778  0.86060034  0.25476625  1
  Al  Al179  1  0.13062099  0.86480673  0.74817791  1
  Al  Al180  1  0.63474172  0.36261991  0.25012750  1
  Al  Al181  1  0.63477814  0.36849885  0.74906397  1
  Al  Al182  1  0.63575914  0.86549152  0.25402532  1
  Al  Al183  1  0.63776647  0.86193735  0.74423663  1
  Al  Al184  1  0.36670925  0.36720486  0.24622423  1
  Al  Al185  1  0.36609440  0.36345417  0.74815169  1
  Al  Al186  1  0.36572231  0.86475472  0.25376640  1
  Al  Al187  1  0.36128114  0.86592003  0.75351071  1
  Al  Al188  1  0.86333576  0.36390448  0.25451510  1
  Al  Al189  1  0.86097281  0.36855219  0.74073282  1
  Al  Al190  1  0.86023353  0.87180140  0.25267776  1
  Al  Al191  1  0.87356370  0.86031674  0.74407813  1
  Al  Al192  1  0.00050352  0.33044399  0.66966868  1
  Al  Al193  1  0.67463092  0.67951706  -0.00000472  1
  Al  Al194  1  0.18725685  -0.00072834  0.32886185  1
  Al  Al195  1  0.50072236  0.67307143  0.17569896  1
  Al  Al196  1  0.68675623  0.00071850  0.67168999  1
  Al  Al197  1  0.67920658  0.00157175  0.17670480  1
  Al  Al198  1  0.32540103  0.00076113  0.18786231  1
  Al  Al199  1  0.67282226  0.49886055  0.18381975  1
  Al  Al200  1  0.32077280  0.50051214  0.82648758  1
  Al  Al201  1  0.82500431  0.49899952  0.81824763  1
  Al  Al202  1  0.50182738  0.18992226  0.18337302  1
  Al  Al203  1  0.31625396  -0.00004685  0.67985808  1
  Al  Al204  1  0.17346385  0.17901056  0.50165372  1
  Al  Al205  1  0.49956015  0.83118071  0.82952151  1
  Al  Al206  1  0.50204319  0.82793406  0.66602909  1
  Al  Al207  1  0.00055248  0.67316656  0.32978386  1
  Al  Al208  1  0.81955740  0.32338338  0.49987628  1
  Al  Al209  1  0.00309670  0.83161858  0.17204550  1
  Al  Al210  1  0.31293286  0.68676726  0.50090803  1
  Al  Al211  1  0.32833904  0.31986974  0.00167200  1
  Al  Al212  1  0.50011224  0.31299661  0.67656802  1
  Al  Al213  1  -0.00065672  0.17360416  0.18806856  1
  Al  Al214  1  0.17194270  0.00103185  0.17069941  1
  Al  Al215  1  0.83256549  0.67816840  -0.00143341  1
  Al  Al216  1  0.00028487  0.32681308  0.18007705  1
  Al  Al217  1  0.50030402  0.66716188  0.82957061  1
  Al  Al218  1  0.49744527  0.82491134  0.32764621  1
  Al  Al219  1  0.82302707  0.18172547  0.00162928  1
  Al  Al220  1  0.82300919  -0.00288240  0.80538200  1
  Al  Al221  1  0.32210802  0.49940869  0.67212379  1
  Al  Al222  1  0.18082747  0.81316366  0.50061449  1
  Al  Al223  1  0.50206183  0.18300339  0.81065157  1
  Al  Al224  1  -0.00091749  0.17242892  0.67001873  1
  Al  Al225  1  0.18243533  0.17260606  -0.00088009  1
  Al  Al226  1  0.17485693  0.32681099  0.00340926  1
  Al  Al227  1  0.67253884  0.00094073  0.82700344  1
  Al  Al228  1  0.49908159  0.67214857  0.67302302  1
  Al  Al229  1  0.49975844  0.31673701  0.31512375  1
  Al  Al230  1  0.00219457  0.16588888  0.82597779  1
  Al  Al231  1  -0.00035656  0.66651613  0.17285176  1
  Al  Al232  1  0.81181020  0.50084731  0.32537543  1
  Al  Al233  1  -0.00151095  0.82778978  0.32900683  1
  Al  Al234  1  0.30672912  0.81731912  -0.00002084  1
  Al  Al235  1  0.68532214  0.00126356  0.32963450  1
  Al  Al236  1  0.00143736  0.33037886  0.83053982  1
  Al  Al237  1  0.32083004  0.50029866  0.32021150  1
  Al  Al238  1  0.82855554  0.50023390  0.17372711  1
  Au  Au239  1  0.32164069  0.67037943  0.00076476  1
  Au  Au240  1  0.82681631  0.00164054  0.17667153  1
  Au  Au241  1  0.16553776  -0.00265441  0.67371693  1
  Au  Au242  1  0.17151108  0.50489066  0.66390392  1
  Au  Au243  1  0.49709751  0.83640001  0.16356602  1
  Au  Au244  1  0.67417542  -0.00063340  0.67419775  1
  Au  Au245  1  0.00236144  0.82595159  0.82368223  1
  Au  Au246  1  0.67542052  0.49766979  0.17116925  1
  Au  Au247  1  -0.00238157  0.32946959  0.84689128  1
  Au  Au248  1  0.83244517  0.17368686  -0.00083820  1
  Au  Au249  1  0.82829329  0.66636839  0.00021775  1
  Au  Au250  1  -0.00430512  0.33007397  0.65338583  1
  Au  Au251  1  0.49955351  0.84663847  0.83309051  1
  Au  Au252  1  0.17890850  0.33541200  0.49860459  1
  Au  Au253  1  0.83440284  0.66713235  0.50331636  1
  Au  Au254  1  0.82657165  0.83861850  0.50166106  1
  Au  Au255  1  0.49953133  0.83340831  0.33658767  1
  Au  Au256  1  0.49758940  0.83129786  0.65458372  1
  Au  Au257  1  0.66327315  0.82879984  0.00077103  1
  Au  Au258  1  0.49994167  0.32652637  0.84385124  1
  Au  Au259  1  0.17073218  -0.00101873  0.32386391  1
  Au  Au260  1  0.16455625  0.17050453  0.49944010  1
  Au  Au261  1  0.33422096  0.16791270  0.00152299  1
  Au  Au262  1  0.16480067  0.33728326  0.00414172  1
  Au  Au263  1  0.00593954  0.15403401  0.82867158  1
  Au  Au264  1  0.00680026  0.84746666  0.17602036  1
  Au  Au265  1  0.33916516  0.17211454  0.50128966  1
  Au  Au266  1  0.17036450  0.82310337  0.50078365  1
  Au  Au267  1  0.66972051  0.49689642  0.83346859  1
  Au  Au268  1  0.32626050  0.67610935  0.50313133  1
  Au  Au269  1  0.32420960  0.00025134  0.82866928  1
  Au  Au270  1  0.66285570  0.67483324  0.49994036  1
  Au  Au271  1  -0.00072200  0.32265744  0.33618382  1
  Au  Au272  1  0.83726285  0.83228265  -0.00389478  1
  Au  Au273  1  0.50213771  0.16764957  0.33003455  1
  Au  Au274  1  0.33013166  0.49762401  0.32854214  1
  Au  Au275  1  0.00406325  0.65092047  0.17336906  1
  Au  Au276  1  0.49970680  0.32107161  0.66218361  1
  Au  Au277  1  0.49996553  0.66438860  0.16689893  1
  Au  Au278  1  0.17171899  0.50712137  0.83600825  1
  Au  Au279  1  -0.00216410  0.32843037  0.16762163  1
  Au  Au280  1  0.81612258  0.33596853  0.49972521  1
  Au  Au281  1  0.16435321  0.50315364  0.32338254  1
  Au  Au282  1  0.67297755  0.49980487  0.66043384  1
  Au  Au283  1  0.66498438  0.17836997  -0.00018791  1
  Au  Au284  1  0.49973052  0.65174657  0.82426326  1
  Au  Au285  1  0.50367656  0.65945596  0.33098274  1
  Au  Au286  1  0.83441327  0.50131345  0.82636051  1
  Au  Au287  1  0.82602005  0.16183862  0.50031137  1
