# generated using pymatgen
data_Ca24Ti8Al207Au49
_symmetry_space_group_name_H-M   'P 1'
_cell_length_a   17.32121268
_cell_length_b   17.32212405
_cell_length_c   17.32138723
_cell_angle_alpha   90.00207829
_cell_angle_beta   89.99944009
_cell_angle_gamma   89.99828266
_symmetry_Int_Tables_number   1
_chemical_formula_structural   Ca24Ti8Al207Au49
_chemical_formula_sum   'Ca24 Ti8 Al207 Au49'
_cell_volume   5197.11239189
_cell_formula_units_Z   1
loop_
 _symmetry_equiv_pos_site_id
 _symmetry_equiv_pos_as_xyz
  1  'x, y, z'
loop_
 _atom_site_type_symbol
 _atom_site_label
 _atom_site_symmetry_multiplicity
 _atom_site_fract_x
 _atom_site_fract_y
 _atom_site_fract_z
 _atom_site_occupancy
  Ca  Ca0  1  0.25659468  0.00225139  0.00004519  1
  Ca  Ca1  1  0.25291468  0.00514764  0.49803927  1
  Ca  Ca2  1  0.25028967  0.49789924  0.00200032  1
  Ca  Ca3  1  0.25048038  0.50000632  0.49781660  1
  Ca  Ca4  1  0.74296902  0.01013523  -0.00060055  1
  Ca  Ca5  1  0.74207225  0.00352274  0.49740093  1
  Ca  Ca6  1  0.74707439  0.49075711  -0.00335540  1
  Ca  Ca7  1  0.74501790  0.49823852  0.50483498  1
  Ca  Ca8  1  -0.00043915  0.24501452  -0.00120106  1
  Ca  Ca9  1  0.00204770  0.24744082  0.50233337  1
  Ca  Ca10  1  0.00283230  0.74824903  -0.00042832  1
  Ca  Ca11  1  0.00257137  0.75071184  0.49974128  1
  Ca  Ca12  1  0.50029809  0.24704602  0.00114794  1
  Ca  Ca13  1  0.50109717  0.24718972  0.49954793  1
  Ca  Ca14  1  0.49473328  0.74850590  -0.00322361  1
  Ca  Ca15  1  0.50271291  0.75417706  0.50338289  1
  Ca  Ca16  1  0.00447195  0.00115357  0.25478743  1
  Ca  Ca17  1  0.00490505  0.00602908  0.75502177  1
  Ca  Ca18  1  0.00212818  0.49590476  0.25074103  1
  Ca  Ca19  1  -0.00294209  0.49255216  0.75377723  1
  Ca  Ca20  1  0.49835853  0.00748054  0.24796836  1
  Ca  Ca21  1  0.49784260  0.00460293  0.75294819  1
  Ca  Ca22  1  0.49881903  0.49490480  0.24793119  1
  Ca  Ca23  1  0.50308397  0.49619223  0.75086689  1
  Ti  Ti24  1  0.25150902  0.25022373  0.24772979  1
  Ti  Ti25  1  0.25281104  0.24856712  0.75432133  1
  Ti  Ti26  1  0.25218604  0.75094061  0.24811787  1
  Ti  Ti27  1  0.25334061  0.75149209  0.75148020  1
  Ti  Ti28  1  0.74785496  0.24808722  0.25027987  1
  Ti  Ti29  1  0.74752589  0.24983477  0.75047127  1
  Ti  Ti30  1  0.74804825  0.75236195  0.24993780  1
  Ti  Ti31  1  0.74605679  0.74903689  0.75051289  1
  Al  Al32  1  0.09435802  0.07937882  0.08467489  1
  Al  Al33  1  0.09100135  0.09365469  0.57878811  1
  Al  Al34  1  0.09014169  0.57979636  0.08154516  1
  Al  Al35  1  0.07587249  0.57255396  0.57936615  1
  Al  Al36  1  0.58715830  0.09910585  0.08550607  1
  Al  Al37  1  0.58303399  0.09474036  0.57911559  1
  Al  Al38  1  0.57560165  0.56965888  0.07781501  1
  Al  Al39  1  0.58716542  0.57760268  0.59377807  1
  Al  Al40  1  0.42239993  0.40644014  0.08833676  1
  Al  Al41  1  0.42788437  0.41025695  0.58927902  1
  Al  Al42  1  0.41399199  0.92962946  0.07736464  1
  Al  Al43  1  0.41015472  0.91405048  0.58119156  1
  Al  Al44  1  0.90755072  0.41017182  0.07441790  1
  Al  Al45  1  0.91376544  0.41612325  0.58156258  1
  Al  Al46  1  0.91619490  0.93651956  0.09125936  1
  Al  Al47  1  0.92155030  0.92354049  0.57789759  1
  Al  Al48  1  0.42095776  0.08235333  0.40238069  1
  Al  Al49  1  0.41505696  0.08735129  0.91421574  1
  Al  Al50  1  0.41691607  0.57815673  0.41595012  1
  Al  Al51  1  0.41332045  0.59148207  0.92045570  1
  Al  Al52  1  0.91909915  0.08392848  0.41225921  1
  Al  Al53  1  0.91346027  0.09938018  0.91584942  1
  Al  Al54  1  0.91280153  0.57242198  0.42227891  1
  Al  Al55  1  0.92490482  0.56735642  0.91534371  1
  Al  Al56  1  0.09348012  0.41079480  0.41342421  1
  Al  Al57  1  0.08032579  0.40458781  0.91978929  1
  Al  Al58  1  0.09806965  0.93524643  0.41124797  1
  Al  Al59  1  0.08806696  0.92510427  0.92541675  1
  Al  Al60  1  0.58066593  0.40984393  0.41569895  1
  Al  Al61  1  0.58742602  0.40398286  0.91741121  1
  Al  Al62  1  0.58249128  0.93458742  0.41617054  1
  Al  Al63  1  0.56917132  0.91784322  0.91314004  1
  Al  Al64  1  0.09928397  0.09420055  0.41377189  1
  Al  Al65  1  0.08000125  0.09072068  0.91377278  1
  Al  Al66  1  0.08767393  0.56631711  0.40837859  1
  Al  Al67  1  0.08345397  0.58230208  0.92256250  1
  Al  Al68  1  0.58575843  0.09427377  0.40981192  1
  Al  Al69  1  0.58158973  0.09758508  0.91839684  1
  Al  Al70  1  0.57821409  0.57692776  0.42350102  1
  Al  Al71  1  0.57686602  0.57395682  0.91362941  1
  Al  Al72  1  0.42013605  0.41515670  0.40960977  1
  Al  Al73  1  0.42168035  0.40926062  0.91656809  1
  Al  Al74  1  0.40283488  0.92076999  0.41769795  1
  Al  Al75  1  0.41057182  0.91854447  0.90579988  1
  Al  Al76  1  0.91511346  0.41579466  0.41971777  1
  Al  Al77  1  0.91104647  0.40350319  0.91562979  1
  Al  Al78  1  0.91276947  0.92708872  0.41689255  1
  Al  Al79  1  0.92724633  0.93667665  0.92639210  1
  Al  Al80  1  0.09200142  0.41344742  0.07774198  1
  Al  Al81  1  0.08293375  0.41245452  0.57531076  1
  Al  Al82  1  0.09663767  0.92239498  0.08720298  1
  Al  Al83  1  0.08327655  0.93231772  0.57644824  1
  Al  Al84  1  0.58606548  0.39749807  0.08375151  1
  Al  Al85  1  0.58703447  0.41366358  0.59533081  1
  Al  Al86  1  0.57994157  0.93216797  0.07788310  1
  Al  Al87  1  0.57371457  0.92438077  0.57904972  1
  Al  Al88  1  0.41122410  0.09651394  0.08707540  1
  Al  Al89  1  0.42164717  0.08471459  0.59007658  1
  Al  Al90  1  0.40792956  0.58609271  0.07720714  1
  Al  Al91  1  0.42791496  0.57964044  0.58186742  1
  Al  Al92  1  0.89739690  0.09142447  0.07812888  1
  Al  Al93  1  0.92698866  0.08584248  0.58074756  1
  Al  Al94  1  0.92325384  0.57124560  0.08043570  1
  Al  Al95  1  0.91199597  0.57494271  0.58217985  1
  Al  Al96  1  0.25049417  0.13295522  0.12990025  1
  Al  Al97  1  0.25455605  0.13715264  0.63437936  1
  Al  Al98  1  0.25060235  0.62936047  0.13136410  1
  Al  Al99  1  0.25136405  0.63307391  0.63592430  1
  Al  Al100  1  0.74880046  0.13701231  0.13070009  1
  Al  Al101  1  0.74215090  0.13939656  0.63382756  1
  Al  Al102  1  0.74703667  0.63364359  0.13336912  1
  Al  Al103  1  0.74756555  0.62928409  0.63793376  1
  Al  Al104  1  0.25191763  0.36854263  0.13610518  1
  Al  Al105  1  0.25388225  0.36309046  0.64136028  1
  Al  Al106  1  0.25412327  0.87157131  0.13549244  1
  Al  Al107  1  0.25792130  0.86836828  0.63543043  1
  Al  Al108  1  0.74608007  0.35947554  0.13075153  1
  Al  Al109  1  0.74354055  0.36981343  0.63900766  1
  Al  Al110  1  0.74876019  0.86891163  0.13541336  1
  Al  Al111  1  0.74415488  0.86480756  0.64003412  1
  Al  Al112  1  0.25037870  0.13218747  0.36193590  1
  Al  Al113  1  0.25647044  0.13680785  0.87556929  1
  Al  Al114  1  0.25186000  0.62950823  0.36314081  1
  Al  Al115  1  0.25508045  0.63438106  0.87122796  1
  Al  Al116  1  0.74265419  0.12880299  0.36312109  1
  Al  Al117  1  0.74645599  0.13987127  0.87165114  1
  Al  Al118  1  0.74724286  0.63505010  0.36277353  1
  Al  Al119  1  0.74442479  0.63336817  0.86462588  1
  Al  Al120  1  0.25375648  0.36659496  0.36116385  1
  Al  Al121  1  0.25144559  0.36304887  0.86840389  1
  Al  Al122  1  0.25170427  0.86961130  0.36313480  1
  Al  Al123  1  0.25507813  0.86649991  0.86494323  1
  Al  Al124  1  0.74021176  0.36071470  0.36369151  1
  Al  Al125  1  0.74571953  0.35864145  0.86836696  1
  Al  Al126  1  0.74979887  0.87498352  0.36103165  1
  Al  Al127  1  0.74628377  0.86397693  0.86159422  1
  Al  Al128  1  0.14042241  0.25126399  0.12880808  1
  Al  Al129  1  0.13801906  0.24612775  0.63722413  1
  Al  Al130  1  0.13663876  0.74759975  0.13878779  1
  Al  Al131  1  0.14034196  0.75537997  0.63414481  1
  Al  Al132  1  0.63452424  0.24715681  0.13134263  1
  Al  Al133  1  0.63260934  0.25214404  0.63061451  1
  Al  Al134  1  0.63553474  0.75289291  0.13371605  1
  Al  Al135  1  0.63432575  0.75054745  0.63663746  1
  Al  Al136  1  0.14016156  0.24939357  0.36219930  1
  Al  Al137  1  0.13879225  0.24752351  0.87375987  1
  Al  Al138  1  0.14022054  0.74930399  0.36079212  1
  Al  Al139  1  0.13921742  0.74915683  0.86405791  1
  Al  Al140  1  0.62859145  0.24612764  0.36782793  1
  Al  Al141  1  0.62891409  0.24812146  0.86880904  1
  Al  Al142  1  0.63390680  0.74863865  0.36259592  1
  Al  Al143  1  0.62772260  0.75147936  0.86315504  1
  Al  Al144  1  0.36763465  0.24630762  0.13578247  1
  Al  Al145  1  0.36815674  0.24912626  0.63742348  1
  Al  Al146  1  0.36277033  0.74658994  0.13581008  1
  Al  Al147  1  0.36706992  0.75672076  0.63736722  1
  Al  Al148  1  0.86173661  0.24932773  0.12871024  1
  Al  Al149  1  0.86329128  0.24706934  0.63531973  1
  Al  Al150  1  0.86830500  0.75033018  0.14088063  1
  Al  Al151  1  0.86278523  0.75044947  0.63849311  1
  Al  Al152  1  0.37534830  0.24148173  0.35600664  1
  Al  Al153  1  0.37396630  0.24509574  0.86736002  1
  Al  Al154  1  0.36296465  0.75317702  0.36398257  1
  Al  Al155  1  0.37140280  0.75244493  0.86118137  1
  Al  Al156  1  0.86032980  0.24654825  0.36227952  1
  Al  Al157  1  0.86042726  0.24897635  0.87347481  1
  Al  Al158  1  0.86204718  0.75181248  0.35931473  1
  Al  Al159  1  0.86203553  0.74771404  0.86253144  1
  Al  Al160  1  0.13957502  0.13314211  0.24676567  1
  Al  Al161  1  0.13945031  0.13766448  0.75706393  1
  Al  Al162  1  0.13806348  0.62877007  0.24906940  1
  Al  Al163  1  0.13844881  0.63402126  0.75024462  1
  Al  Al164  1  0.62944947  0.13744207  0.24909288  1
  Al  Al165  1  0.63309657  0.13760539  0.75448589  1
  Al  Al166  1  0.63015604  0.63348737  0.24713652  1
  Al  Al167  1  0.63305360  0.63172405  0.74994563  1
  Al  Al168  1  0.36009353  0.12822865  0.24633240  1
  Al  Al169  1  0.36320964  0.12812323  0.75524396  1
  Al  Al170  1  0.36699709  0.63224661  0.25017120  1
  Al  Al171  1  0.36527658  0.63379830  0.75287228  1
  Al  Al172  1  0.85909941  0.12958501  0.24712497  1
  Al  Al173  1  0.86312079  0.13969825  0.75524060  1
  Al  Al174  1  0.86257659  0.63326325  0.24798456  1
  Al  Al175  1  0.86203124  0.63277970  0.74826429  1
  Al  Al176  1  0.13564986  0.36651388  0.25079183  1
  Al  Al177  1  0.13692036  0.36319767  0.75334997  1
  Al  Al178  1  0.13908574  0.87014946  0.24667252  1
  Al  Al179  1  0.13858154  0.86674339  0.74996256  1
  Al  Al180  1  0.62423491  0.35657157  0.24622276  1
  Al  Al181  1  0.62636990  0.35839853  0.74952768  1
  Al  Al182  1  0.63296009  0.87100759  0.25412918  1
  Al  Al183  1  0.62570943  0.86555876  0.75102802  1
  Al  Al184  1  0.36995026  0.36435264  0.24844577  1
  Al  Al185  1  0.37199745  0.36240989  0.75597373  1
  Al  Al186  1  0.36389421  0.87646189  0.25133166  1
  Al  Al187  1  0.37106484  0.87162289  0.75266093  1
  Al  Al188  1  0.86478628  0.35908688  0.24699663  1
  Al  Al189  1  0.86193336  0.35961491  0.75044176  1
  Al  Al190  1  0.86419510  0.87442044  0.24831256  1
  Al  Al191  1  0.86669531  0.86430089  0.74875266  1
  Al  Al192  1  0.00026324  0.67435743  0.82629400  1
  Al  Al193  1  0.82275106  0.66597997  -0.00321155  1
  Al  Al194  1  0.00209229  0.18025717  0.32432064  1
  Al  Al195  1  0.49764953  0.82995046  0.33247578  1
  Al  Al196  1  0.66997914  0.67264463  0.50213838  1
  Al  Al197  1  0.17075042  0.67264300  0.49766011  1
  Al  Al198  1  0.18135266  0.00405960  0.67555623  1
  Al  Al199  1  0.66810491  0.00219430  0.82996916  1
  Al  Al200  1  0.49774352  0.82330096  0.17240958  1
  Al  Al201  1  0.32005743  0.16977029  0.49473049  1
  Al  Al202  1  0.17800383  0.82069613  0.00151075  1
  Al  Al203  1  0.81883293  0.83007643  0.50028955  1
  Al  Al204  1  0.66884602  0.00250840  0.67415578  1
  Al  Al205  1  0.67238106  0.49408252  0.81804032  1
  Al  Al206  1  0.00009796  0.32619951  0.67206994  1
  Al  Al207  1  0.82873290  0.83580877  0.00033625  1
  Al  Al208  1  0.00222581  0.17532011  0.68843541  1
  Al  Al209  1  0.81865741  0.49580179  0.32031167  1
  Al  Al210  1  -0.00192328  0.16742808  0.17047239  1
  Al  Al211  1  0.66640299  0.82226303  -0.00298336  1
  Al  Al212  1  0.18406357  0.00229821  0.82952108  1
  Al  Al213  1  -0.00025528  0.30559326  0.82422020  1
  Al  Al214  1  0.32990647  0.82074666  -0.00065929  1
  Al  Al215  1  0.31769929  0.31243015  0.00184156  1
  Al  Al216  1  0.81452222  0.32470781  0.50044732  1
  Al  Al217  1  0.81609856  0.16713852  0.49877072  1
  Al  Al218  1  0.00051016  0.67780888  0.66936476  1
  Al  Al219  1  0.82326404  0.67197188  0.49996045  1
  Al  Al220  1  0.67678599  0.49202509  0.17548425  1
  Al  Al221  1  0.00031647  0.82951449  0.16865565  1
  Al  Al222  1  0.82113371  0.00323322  0.67031154  1
  Al  Al223  1  0.32959952  0.32474061  0.50071260  1
  Al  Al224  1  0.33048912  0.68514759  0.50299064  1
  Al  Al225  1  0.32469215  0.50183624  0.82625366  1
  Al  Al226  1  0.00076232  0.83424368  0.82657281  1
  Al  Al227  1  -0.00027250  0.32756087  0.17242627  1
  Al  Al228  1  0.68322922  0.00350435  0.18372301  1
  Al  Al229  1  0.17715933  0.31129662  0.50045125  1
  Al  Al230  1  -0.00158485  0.66589938  0.32121045  1
  Al  Al231  1  0.82407041  0.49593673  0.82093549  1
  Al  Al232  1  0.17637085  0.49375623  0.67700693  1
  Al  Al233  1  0.00514039  0.82926896  0.32902003  1
  Al  Al234  1  0.82353291  0.00265981  0.82964108  1
  Al  Al235  1  0.50028366  0.18845204  0.69079392  1
  Al  Al236  1  0.66907826  0.82967266  0.49737279  1
  Al  Al237  1  0.18559883  0.83164309  0.49893118  1
  Al  Al238  1  0.49995204  0.68183653  0.68286684  1
  Au  Au239  1  0.50131717  0.31744338  0.82344635  1
  Au  Au240  1  0.83452127  0.82328524  0.49958567  1
  Au  Au241  1  0.32507411  0.00350519  0.17063133  1
  Au  Au242  1  0.17730226  0.67191611  -0.00129263  1
  Au  Au243  1  0.16687087  0.49658034  0.17580803  1
  Au  Au244  1  0.17223618  0.17086970  0.00045199  1
  Au  Au245  1  -0.00322380  0.65848259  0.33625973  1
  Au  Au246  1  0.66101960  0.83360622  -0.00289707  1
  Au  Au247  1  -0.00133730  0.32883071  0.33774645  1
  Au  Au248  1  -0.00395316  0.14986393  0.17376035  1
  Au  Au249  1  0.49923249  0.32184393  0.32346016  1
  Au  Au250  1  -0.00243881  0.84130628  0.16591158  1
  Au  Au251  1  0.49828678  0.66187794  0.16423538  1
  Au  Au252  1  0.33110426  0.32290013  0.00296783  1
  Au  Au253  1  0.33503173  0.49754545  0.16718585  1
  Au  Au254  1  0.16502568  0.65773378  0.49619680  1
  Au  Au255  1  0.82115586  0.49604533  0.67137009  1
  Au  Au256  1  0.00798477  0.84417698  0.33765336  1
  Au  Au257  1  0.67219387  0.50019640  0.33975345  1
  Au  Au258  1  0.32365270  0.49887210  0.33201761  1
  Au  Au259  1  0.00199437  0.66781264  0.16014438  1
  Au  Au260  1  0.33351653  0.49922779  0.83474960  1
  Au  Au261  1  0.66467465  0.32768554  0.50340906  1
  Au  Au262  1  0.50222837  0.66568726  0.33194032  1
  Au  Au263  1  0.33353339  0.16064917  0.49423257  1
  Au  Au264  1  0.00036359  0.82992472  0.84294956  1
  Au  Au265  1  0.16771652  0.49560961  0.66797596  1
  Au  Au266  1  0.83177169  0.17365412  0.49864861  1
  Au  Au267  1  0.00815915  0.83981801  0.66329265  1
  Au  Au268  1  0.50113085  0.84158087  0.33532378  1
  Au  Au269  1  0.49984737  0.67381225  0.83134597  1
  Au  Au270  1  0.49690987  0.83589104  0.16082504  1
  Au  Au271  1  0.82766534  0.85261431  0.00407215  1
  Au  Au272  1  0.49980232  0.83203564  0.67009138  1
  Au  Au273  1  0.67128849  0.00632543  0.17180366  1
  Au  Au274  1  0.83662674  0.00280599  0.67760072  1
  Au  Au275  1  0.15982661  0.49592147  0.83346361  1
  Au  Au276  1  0.65953526  0.66387036  -0.00125101  1
  Au  Au277  1  0.34182669  0.49971358  0.67153570  1
  Au  Au278  1  0.82638103  0.00357023  0.32406361  1
  Au  Au279  1  -0.00013767  0.32520911  0.15988937  1
  Au  Au280  1  -0.00372411  0.66139570  0.67257547  1
  Au  Au281  1  0.32522402  0.34166699  0.50408084  1
  Au  Au282  1  0.34516609  0.67666076  0.50292737  1
  Au  Au283  1  0.67132882  0.49682262  0.16535384  1
  Au  Au284  1  0.33072591  0.00024445  0.67463594  1
  Au  Au285  1  0.18051423  0.84753633  0.50099792  1
  Au  Au286  1  0.83298976  0.49536652  0.17145826  1
  Au  Au287  1  0.83797360  0.65917225  -0.00579253  1
