# generated using pymatgen
data_Ca24Ti8Al207Au49
_symmetry_space_group_name_H-M   'P 1'
_cell_length_a   17.32125799
_cell_length_b   17.32083577
_cell_length_c   17.31888121
_cell_angle_alpha   89.99976708
_cell_angle_beta   89.99886481
_cell_angle_gamma   89.99766379
_symmetry_Int_Tables_number   1
_chemical_formula_structural   Ca24Ti8Al207Au49
_chemical_formula_sum   'Ca24 Ti8 Al207 Au49'
_cell_volume   5195.98761465
_cell_formula_units_Z   1
loop_
 _symmetry_equiv_pos_site_id
 _symmetry_equiv_pos_as_xyz
  1  'x, y, z'
loop_
 _atom_site_type_symbol
 _atom_site_label
 _atom_site_symmetry_multiplicity
 _atom_site_fract_x
 _atom_site_fract_y
 _atom_site_fract_z
 _atom_site_occupancy
  Ca  Ca0  1  0.24827473  -0.00023233  -0.00131870  1
  Ca  Ca1  1  0.25409622  -0.00417466  0.49958742  1
  Ca  Ca2  1  0.24707293  0.50125980  0.00043647  1
  Ca  Ca3  1  0.25672472  0.50357522  0.49846346  1
  Ca  Ca4  1  0.74688387  0.00085950  -0.00402721  1
  Ca  Ca5  1  0.74024177  -0.00221819  0.50166677  1
  Ca  Ca6  1  0.75412903  0.49891952  -0.00105000  1
  Ca  Ca7  1  0.73931977  0.50035546  0.49814267  1
  Ca  Ca8  1  0.00083954  0.25290017  -0.00509728  1
  Ca  Ca9  1  0.00024512  0.25264705  0.50637476  1
  Ca  Ca10  1  0.00420876  0.73974325  0.00038342  1
  Ca  Ca11  1  0.00355242  0.74667301  0.50031626  1
  Ca  Ca12  1  0.49809565  0.25391030  0.00293728  1
  Ca  Ca13  1  0.49865422  0.25756621  0.49779016  1
  Ca  Ca14  1  0.49830110  0.74409899  0.00232399  1
  Ca  Ca15  1  0.49655431  0.74786216  0.49650433  1
  Ca  Ca16  1  0.00259330  -0.00388455  0.25024928  1
  Ca  Ca17  1  0.00273010  -0.00027915  0.74694074  1
  Ca  Ca18  1  0.00382092  0.50367353  0.24721051  1
  Ca  Ca19  1  0.00102467  0.49881152  0.75510655  1
  Ca  Ca20  1  0.49759295  -0.00163163  0.25393320  1
  Ca  Ca21  1  0.49775987  -0.00428747  0.74263151  1
  Ca  Ca22  1  0.49637794  0.50160429  0.25874523  1
  Ca  Ca23  1  0.50103719  0.50579446  0.74071919  1
  Ti  Ti24  1  0.25157327  0.25379242  0.25047165  1
  Ti  Ti25  1  0.24976606  0.25258492  0.75023969  1
  Ti  Ti26  1  0.24978443  0.74815784  0.25146798  1
  Ti  Ti27  1  0.25009116  0.74797739  0.74765980  1
  Ti  Ti28  1  0.74847227  0.25069438  0.24975409  1
  Ti  Ti29  1  0.75031017  0.25218177  0.74924383  1
  Ti  Ti30  1  0.74986751  0.74828876  0.25132695  1
  Ti  Ti31  1  0.74926004  0.74793729  0.74895277  1
  Al  Al32  1  0.08051605  0.08150815  0.07776553  1
  Al  Al33  1  0.08025931  0.07551960  0.58850115  1
  Al  Al34  1  0.09246313  0.58276358  0.08742149  1
  Al  Al35  1  0.08567552  0.58177529  0.57907418  1
  Al  Al36  1  0.59031271  0.08490641  0.08481426  1
  Al  Al37  1  0.58844286  0.07399331  0.58376801  1
  Al  Al38  1  0.57886102  0.58370816  0.08712797  1
  Al  Al39  1  0.58275853  0.59085037  0.57881219  1
  Al  Al40  1  0.40989726  0.42153355  0.08503625  1
  Al  Al41  1  0.41637097  0.41403273  0.57852452  1
  Al  Al42  1  0.41438261  0.91614307  0.08902723  1
  Al  Al43  1  0.42189962  0.90515021  0.58219598  1
  Al  Al44  1  0.92271064  0.42802201  0.07555234  1
  Al  Al45  1  0.91503463  0.41855687  0.59494238  1
  Al  Al46  1  0.92632498  0.91268958  0.08360912  1
  Al  Al47  1  0.92142225  0.92356553  0.58713876  1
  Al  Al48  1  0.41122935  0.07249140  0.41269326  1
  Al  Al49  1  0.41739227  0.07219651  0.92558158  1
  Al  Al50  1  0.41074851  0.58980898  0.41124191  1
  Al  Al51  1  0.40828804  0.58268242  0.91001010  1
  Al  Al52  1  0.92137673  0.08219768  0.41972772  1
  Al  Al53  1  0.91790913  0.10230519  0.91357456  1
  Al  Al54  1  0.93050994  0.58831675  0.41077595  1
  Al  Al55  1  0.91311362  0.58425533  0.92015330  1
  Al  Al56  1  0.09546777  0.43038017  0.41252418  1
  Al  Al57  1  0.08840618  0.40897094  0.91508702  1
  Al  Al58  1  0.09134908  0.90815997  0.41986987  1
  Al  Al59  1  0.08431833  0.91388836  0.91888468  1
  Al  Al60  1  0.57461498  0.41791613  0.41812223  1
  Al  Al61  1  0.58392711  0.42286894  0.92024397  1
  Al  Al62  1  0.57887271  0.91009911  0.40513745  1
  Al  Al63  1  0.57239074  0.91619852  0.91137687  1
  Al  Al64  1  0.08011528  0.07619615  0.41476002  1
  Al  Al65  1  0.07713516  0.09170466  0.91051617  1
  Al  Al66  1  0.09071303  0.58943554  0.40253903  1
  Al  Al67  1  0.08776806  0.58195286  0.92282683  1
  Al  Al68  1  0.58510208  0.07298959  0.41523070  1
  Al  Al69  1  0.59361523  0.08332786  0.92662281  1
  Al  Al70  1  0.57906584  0.59192305  0.41531933  1
  Al  Al71  1  0.58084355  0.58155288  0.91441793  1
  Al  Al72  1  0.41000814  0.41667033  0.41446578  1
  Al  Al73  1  0.40534082  0.42437973  0.91153559  1
  Al  Al74  1  0.41540529  0.90803702  0.40724421  1
  Al  Al75  1  0.41769519  0.91031685  0.91320585  1
  Al  Al76  1  0.92198887  0.42733722  0.42853637  1
  Al  Al77  1  0.92493413  0.41392035  0.90705418  1
  Al  Al78  1  0.92573244  0.91865951  0.41706261  1
  Al  Al79  1  0.92754853  0.91871261  0.92184924  1
  Al  Al80  1  0.09550859  0.41959889  0.07814788  1
  Al  Al81  1  0.08045128  0.41931518  0.58313113  1
  Al  Al82  1  0.08242773  0.90933200  0.08543533  1
  Al  Al83  1  0.09319658  0.91320964  0.58090874  1
  Al  Al84  1  0.58313053  0.41930263  0.08301304  1
  Al  Al85  1  0.57691921  0.41522772  0.58379830  1
  Al  Al86  1  0.57511113  0.92359860  0.09049411  1
  Al  Al87  1  0.58319925  0.91134769  0.59256313  1
  Al  Al88  1  0.41811250  0.07313980  0.08818711  1
  Al  Al89  1  0.42043647  0.07796189  0.57471256  1
  Al  Al90  1  0.41245133  0.58340811  0.08809165  1
  Al  Al91  1  0.41702368  0.58903553  0.57658013  1
  Al  Al92  1  0.91640176  0.08854845  0.07310813  1
  Al  Al93  1  0.91615122  0.08128961  0.58719153  1
  Al  Al94  1  0.91521610  0.58809845  0.08132592  1
  Al  Al95  1  0.91436716  0.57537611  0.59024701  1
  Al  Al96  1  0.25157587  0.13595132  0.13430292  1
  Al  Al97  1  0.25163742  0.13813101  0.63264859  1
  Al  Al98  1  0.24943736  0.62788310  0.13717348  1
  Al  Al99  1  0.25039380  0.63617052  0.62651161  1
  Al  Al100  1  0.74547166  0.13593584  0.13384718  1
  Al  Al101  1  0.74734311  0.13597314  0.63441683  1
  Al  Al102  1  0.74729819  0.63771677  0.13214953  1
  Al  Al103  1  0.74825011  0.63685761  0.63217619  1
  Al  Al104  1  0.25226951  0.37321114  0.13348163  1
  Al  Al105  1  0.25404507  0.36730893  0.63191858  1
  Al  Al106  1  0.24799912  0.86196861  0.13755309  1
  Al  Al107  1  0.25101417  0.85984856  0.62557449  1
  Al  Al108  1  0.74566687  0.36495648  0.13336644  1
  Al  Al109  1  0.75383697  0.36847252  0.63659788  1
  Al  Al110  1  0.74744606  0.86041276  0.13866274  1
  Al  Al111  1  0.74465390  0.86387083  0.63359733  1
  Al  Al112  1  0.25542671  0.13521316  0.36510015  1
  Al  Al113  1  0.25128190  0.13612819  0.86690327  1
  Al  Al114  1  0.24940759  0.63530536  0.37034475  1
  Al  Al115  1  0.24847560  0.63029352  0.86678663  1
  Al  Al116  1  0.74325618  0.13489160  0.36595205  1
  Al  Al117  1  0.74655427  0.13533432  0.86478091  1
  Al  Al118  1  0.74475840  0.63807583  0.36622455  1
  Al  Al119  1  0.75280582  0.63605081  0.87024372  1
  Al  Al120  1  0.25353079  0.37138246  0.36792047  1
  Al  Al121  1  0.24890839  0.36932916  0.86816812  1
  Al  Al122  1  0.25187225  0.85937932  0.37287885  1
  Al  Al123  1  0.24851010  0.86392358  0.86573610  1
  Al  Al124  1  0.75080201  0.36568349  0.36440588  1
  Al  Al125  1  0.75177275  0.36489899  0.86598231  1
  Al  Al126  1  0.74311162  0.86294134  0.36745164  1
  Al  Al127  1  0.74542107  0.86219772  0.86401446  1
  Al  Al128  1  0.13964978  0.25704709  0.13422484  1
  Al  Al129  1  0.13649598  0.25118989  0.63549411  1
  Al  Al130  1  0.13687222  0.74220325  0.13166077  1
  Al  Al131  1  0.13311019  0.74815284  0.62795765  1
  Al  Al132  1  0.63275950  0.24775731  0.13486638  1
  Al  Al133  1  0.63486084  0.25463091  0.63522002  1
  Al  Al134  1  0.63122785  0.74807892  0.13690913  1
  Al  Al135  1  0.63503879  0.74967363  0.62780268  1
  Al  Al136  1  0.14272157  0.25259689  0.36705007  1
  Al  Al137  1  0.13298007  0.25608056  0.86577420  1
  Al  Al138  1  0.13399807  0.74742955  0.36850734  1
  Al  Al139  1  0.13708708  0.74682642  0.86824301  1
  Al  Al140  1  0.63157142  0.25356239  0.36393894  1
  Al  Al141  1  0.63444280  0.24815505  0.86257712  1
  Al  Al142  1  0.62949472  0.74872751  0.36770609  1
  Al  Al143  1  0.63458265  0.74607484  0.86586355  1
  Al  Al144  1  0.36073393  0.25639805  0.13312271  1
  Al  Al145  1  0.36704088  0.25755460  0.63224063  1
  Al  Al146  1  0.36255934  0.74511278  0.13940939  1
  Al  Al147  1  0.36317895  0.74796423  0.62626895  1
  Al  Al148  1  0.86547927  0.24842606  0.13536857  1
  Al  Al149  1  0.86490043  0.25043576  0.63360522  1
  Al  Al150  1  0.86512548  0.74530466  0.13377967  1
  Al  Al151  1  0.87168899  0.74741148  0.63634621  1
  Al  Al152  1  0.36764169  0.26132233  0.36625853  1
  Al  Al153  1  0.36195717  0.25391392  0.87099441  1
  Al  Al154  1  0.36591176  0.74542889  0.36938247  1
  Al  Al155  1  0.36339997  0.74570482  0.86527539  1
  Al  Al156  1  0.86200866  0.25058541  0.36640035  1
  Al  Al157  1  0.86889972  0.25289180  0.86171290  1
  Al  Al158  1  0.87116767  0.74692572  0.36661527  1
  Al  Al159  1  0.86542260  0.74632102  0.86252909  1
  Al  Al160  1  0.13767417  0.13499529  0.24762707  1
  Al  Al161  1  0.13541918  0.13792322  0.75572863  1
  Al  Al162  1  0.13455484  0.63440927  0.25115690  1
  Al  Al163  1  0.13726308  0.63656914  0.74838142  1
  Al  Al164  1  0.63444431  0.13480085  0.25196692  1
  Al  Al165  1  0.63550347  0.13411085  0.74273199  1
  Al  Al166  1  0.63239087  0.63634712  0.25282000  1
  Al  Al167  1  0.63621540  0.63588408  0.74847645  1
  Al  Al168  1  0.36352228  0.13867799  0.25295624  1
  Al  Al169  1  0.36394559  0.13719293  0.74519147  1
  Al  Al170  1  0.35995819  0.62662591  0.25765312  1
  Al  Al171  1  0.36237070  0.63503936  0.74995446  1
  Al  Al172  1  0.86282918  0.13611006  0.25218572  1
  Al  Al173  1  0.86351396  0.13863933  0.75141423  1
  Al  Al174  1  0.86960085  0.63673392  0.24911119  1
  Al  Al175  1  0.86099508  0.62754935  0.74816405  1
  Al  Al176  1  0.14029304  0.37199696  0.24936479  1
  Al  Al177  1  0.13623651  0.36756784  0.75629631  1
  Al  Al178  1  0.13539258  0.86266151  0.25588974  1
  Al  Al179  1  0.13762692  0.86031481  0.74629090  1
  Al  Al180  1  0.63321524  0.36467623  0.25080275  1
  Al  Al181  1  0.63457755  0.36591255  0.74747024  1
  Al  Al182  1  0.63154329  0.86220901  0.25618157  1
  Al  Al183  1  0.63182606  0.86286380  0.74277302  1
  Al  Al184  1  0.36185713  0.37517678  0.25269724  1
  Al  Al185  1  0.36250330  0.36684394  0.75071511  1
  Al  Al186  1  0.36417883  0.86182335  0.25828861  1
  Al  Al187  1  0.36348976  0.86225463  0.74374604  1
  Al  Al188  1  0.86406957  0.36583825  0.24507095  1
  Al  Al189  1  0.86393154  0.37165814  0.75259014  1
  Al  Al190  1  0.86580089  0.86299921  0.25731613  1
  Al  Al191  1  0.86309084  0.86184017  0.74679960  1
  Al  Al192  1  0.00109202  0.32712754  0.68877081  1
  Al  Al193  1  0.00087062  0.81405191  0.18454323  1
  Al  Al194  1  0.49868030  0.33329379  0.81768504  1
  Al  Al195  1  0.81976656  0.50243779  0.17350482  1
  Al  Al196  1  0.83164430  0.00012163  0.83019095  1
  Al  Al197  1  0.00199439  0.17539080  0.32088440  1
  Al  Al198  1  0.32395850  0.82048600  0.00219271  1
  Al  Al199  1  0.49760233  0.82497627  0.18716813  1
  Al  Al200  1  0.68197263  0.50063836  0.82237856  1
  Al  Al201  1  0.33081725  0.50183860  0.67508914  1
  Al  Al202  1  0.00346975  0.32626567  0.16636063  1
  Al  Al203  1  0.82968472  0.50248416  0.32753597  1
  Al  Al204  1  0.49899070  0.68915977  0.67777279  1
  Al  Al205  1  0.67190496  -0.00087726  0.81012958  1
  Al  Al206  1  0.67870974  0.31012715  -0.00043149  1
  Al  Al207  1  0.49784139  0.18010064  0.33129585  1
  Al  Al208  1  0.81170318  0.18454514  -0.00140248  1
  Al  Al209  1  0.49547040  0.67316838  0.18848907  1
  Al  Al210  1  0.31943517  -0.00152388  0.19236263  1
  Al  Al211  1  0.17797768  0.32777167  0.49966419  1
  Al  Al212  1  0.49781673  0.16983256  0.83104547  1
  Al  Al213  1  0.82460291  0.17919657  0.50020525  1
  Al  Al214  1  0.18519078  -0.00070413  0.68086117  1
  Al  Al215  1  0.50011053  0.18444896  0.66734865  1
  Al  Al216  1  0.49864075  0.81449061  0.80916327  1
  Al  Al217  1  0.00167374  0.33244587  0.32944642  1
  Al  Al218  1  0.81164865  -0.00012396  0.67589663  1
  Al  Al219  1  0.82196197  0.66727236  0.49832218  1
  Al  Al220  1  0.49821779  0.17338273  0.17345984  1
  Al  Al221  1  0.81109344  0.00005854  0.32896484  1
  Al  Al222  1  0.00093582  0.82286361  0.82053819  1
  Al  Al223  1  0.67601396  0.32147271  0.49977240  1
  Al  Al224  1  0.67236101  0.50016171  0.32389236  1
  Al  Al225  1  0.00055342  0.67012818  0.82413647  1
  Al  Al226  1  0.32403013  0.18735664  0.49875259  1
  Al  Al227  1  0.67646645  0.50126271  0.66865997  1
  Al  Al228  1  0.00064857  0.17547281  0.68670979  1
  Al  Al229  1  0.83005762  0.81753158  -0.00056806  1
  Al  Al230  1  0.82753325  -0.00106634  0.16872705  1
  Al  Al231  1  0.67024051  0.82400268  0.00198367  1
  Al  Al232  1  0.17754382  0.50029851  0.68053253  1
  Al  Al233  1  0.67220560  -0.00196578  0.18889550  1
  Al  Al234  1  0.17769777  0.18639960  -0.00169389  1
  Al  Al235  1  0.82061950  0.82917769  0.50152185  1
  Al  Al236  1  0.49720250  0.32957711  0.18768104  1
  Al  Al237  1  0.18876130  -0.00180158  0.32071628  1
  Al  Al238  1  0.32299454  -0.00018111  0.81982131  1
  Au  Au239  1  0.83103470  0.50100868  0.82847908  1
  Au  Au240  1  0.84794989  0.00236062  0.82572155  1
  Au  Au241  1  0.83095112  0.16830009  0.50017739  1
  Au  Au242  1  0.67413898  0.65812413  -0.00009018  1
  Au  Au243  1  0.65551777  0.82578270  0.49782160  1
  Au  Au244  1  0.33236626  -0.00466746  0.66290457  1
  Au  Au245  1  0.66759410  0.32295097  -0.00251725  1
  Au  Au246  1  0.18138023  -0.00180727  0.33576718  1
  Au  Au247  1  -0.00160526  0.16145934  0.17285681  1
  Au  Au248  1  0.17319345  0.50071639  0.83204524  1
  Au  Au249  1  0.49858787  0.34952393  0.82217809  1
  Au  Au250  1  0.00082876  0.65965265  0.67458005  1
  Au  Au251  1  0.49832799  0.66774148  0.82633630  1
  Au  Au252  1  0.33150772  0.82524186  0.49735413  1
  Au  Au253  1  0.84276974  0.32914617  -0.00202275  1
  Au  Au254  1  0.32225563  0.33933407  -0.00153349  1
  Au  Au255  1  0.00186192  0.32719325  0.34544104  1
  Au  Au256  1  0.00434818  0.83614232  0.67165020  1
  Au  Au257  1  0.00366001  0.82345675  0.33301048  1
  Au  Au258  1  0.16135959  0.81755962  0.00076762  1
  Au  Au259  1  0.17120166  0.67015676  0.49817852  1
  Au  Au260  1  0.82612418  0.00023302  0.33690329  1
  Au  Au261  1  0.50156903  0.17032314  0.84812386  1
  Au  Au262  1  0.50261579  0.16765781  0.66467974  1
  Au  Au263  1  0.33027469  0.17138460  0.49659400  1
  Au  Au264  1  0.82790508  0.65206278  0.49754978  1
  Au  Au265  1  0.00277791  0.66612602  0.17086499  1
  Au  Au266  1  0.32265421  0.50234305  0.17858388  1
  Au  Au267  1  0.84660981  0.81775265  -0.00429093  1
  Au  Au268  1  0.83556265  0.83543721  0.50331344  1
  Au  Au269  1  0.00084777  0.17187650  0.67436131  1
  Au  Au270  1  0.50015440  0.16385229  0.32935550  1
  Au  Au271  1  0.66888787  0.16738438  0.49879760  1
  Au  Au272  1  0.65979193  -0.00224919  0.82190738  1
  Au  Au273  1  0.17476300  -0.00159232  0.15871506  1
  Au  Au274  1  0.15882723  0.00076468  0.82735233  1
  Au  Au275  1  0.33210883  -0.00111520  0.82844509  1
  Au  Au276  1  0.32251677  0.66343140  0.00056841  1
  Au  Au277  1  0.33814377  0.16893245  0.00716585  1
  Au  Au278  1  0.67014685  0.50256960  0.17372903  1
  Au  Au279  1  0.33342909  0.82838836  0.00212162  1
  Au  Au280  1  0.65787151  0.83538407  0.00259811  1
  Au  Au281  1  0.15760296  0.16610504  0.50133517  1
  Au  Au282  1  0.82069436  -0.00106209  0.15335531  1
  Au  Au283  1  0.00452065  0.33843545  0.16854569  1
  Au  Au284  1  0.16238659  0.17954273  -0.00202424  1
  Au  Au285  1  0.82469834  0.34438011  0.50293959  1
  Au  Au286  1  0.49653590  0.33102013  0.17068306  1
  Au  Au287  1  0.17917624  0.34042436  0.49797149  1
