# generated using pymatgen
data_Ca24Ti8Al207Au49
_symmetry_space_group_name_H-M   'P 1'
_cell_length_a   17.32628849
_cell_length_b   17.32781451
_cell_length_c   17.32585145
_cell_angle_alpha   90.00221416
_cell_angle_beta   89.99958299
_cell_angle_gamma   89.99948493
_symmetry_Int_Tables_number   1
_chemical_formula_structural   Ca24Ti8Al207Au49
_chemical_formula_sum   'Ca24 Ti8 Al207 Au49'
_cell_volume   5201.68342850
_cell_formula_units_Z   1
loop_
 _symmetry_equiv_pos_site_id
 _symmetry_equiv_pos_as_xyz
  1  'x, y, z'
loop_
 _atom_site_type_symbol
 _atom_site_label
 _atom_site_symmetry_multiplicity
 _atom_site_fract_x
 _atom_site_fract_y
 _atom_site_fract_z
 _atom_site_occupancy
  Ca  Ca0  1  0.24810570  0.00070471  -0.00110537  1
  Ca  Ca1  1  0.24700672  -0.00062125  0.49885519  1
  Ca  Ca2  1  0.25070873  0.49987002  -0.00338922  1
  Ca  Ca3  1  0.25246248  0.49986767  0.50479872  1
  Ca  Ca4  1  0.74936800  0.00244379  -0.00012426  1
  Ca  Ca5  1  0.75049948  -0.00167101  0.49907230  1
  Ca  Ca6  1  0.75071971  0.49878062  -0.00161393  1
  Ca  Ca7  1  0.74979401  0.50123939  0.50590906  1
  Ca  Ca8  1  0.00228769  0.25168669  0.00005518  1
  Ca  Ca9  1  0.00306386  0.25388953  0.49889819  1
  Ca  Ca10  1  0.00202926  0.75297861  -0.00413545  1
  Ca  Ca11  1  0.00165042  0.75447956  0.50498538  1
  Ca  Ca12  1  0.49877736  0.24890633  -0.00027245  1
  Ca  Ca13  1  0.49883869  0.25173563  0.50154163  1
  Ca  Ca14  1  0.49760041  0.74641966  -0.00019253  1
  Ca  Ca15  1  0.50097757  0.74611462  0.49956950  1
  Ca  Ca16  1  0.00229058  0.00066796  0.24696825  1
  Ca  Ca17  1  0.00012775  -0.00253916  0.75515190  1
  Ca  Ca18  1  0.00001836  0.49582112  0.24327847  1
  Ca  Ca19  1  0.00363851  0.50126960  0.75413456  1
  Ca  Ca20  1  0.49953686  0.00191347  0.24636151  1
  Ca  Ca21  1  0.49877284  0.00393143  0.75540009  1
  Ca  Ca22  1  0.49772831  0.49852983  0.24432134  1
  Ca  Ca23  1  0.49636749  0.49705245  0.75178058  1
  Ti  Ti24  1  0.25043121  0.24983380  0.24820836  1
  Ti  Ti25  1  0.25022261  0.25010870  0.75166398  1
  Ti  Ti26  1  0.25176865  0.74935575  0.24767054  1
  Ti  Ti27  1  0.25003388  0.75010346  0.75146235  1
  Ti  Ti28  1  0.74956749  0.24868632  0.24923523  1
  Ti  Ti29  1  0.74984847  0.25077484  0.75163464  1
  Ti  Ti30  1  0.74629990  0.75057779  0.24980941  1
  Ti  Ti31  1  0.75051620  0.74877594  0.75105387  1
  Al  Al32  1  0.09090450  0.08807959  0.07597285  1
  Al  Al33  1  0.08352232  0.07525270  0.58439436  1
  Al  Al34  1  0.08560570  0.57705523  0.07601757  1
  Al  Al35  1  0.08878040  0.58160241  0.59632166  1
  Al  Al36  1  0.58197337  0.08581842  0.09123820  1
  Al  Al37  1  0.57643665  0.08180322  0.59581878  1
  Al  Al38  1  0.57844385  0.58436744  0.08878976  1
  Al  Al39  1  0.57674044  0.57824421  0.58560265  1
  Al  Al40  1  0.41431403  0.41799302  0.08959022  1
  Al  Al41  1  0.41383301  0.41623168  0.59533652  1
  Al  Al42  1  0.41684603  0.92236118  0.08216958  1
  Al  Al43  1  0.41925786  0.92398825  0.58351700  1
  Al  Al44  1  0.91298430  0.42109427  0.08469102  1
  Al  Al45  1  0.92167817  0.42425298  0.58707583  1
  Al  Al46  1  0.92267432  0.92208514  0.07811293  1
  Al  Al47  1  0.91993572  0.90988971  0.58901356  1
  Al  Al48  1  0.41929171  0.08615737  0.41117265  1
  Al  Al49  1  0.41566230  0.08603001  0.91367565  1
  Al  Al50  1  0.41555593  0.57918739  0.41726267  1
  Al  Al51  1  0.41059859  0.57840633  0.90960494  1
  Al  Al52  1  0.92149753  0.07932707  0.41787004  1
  Al  Al53  1  0.91195927  0.07976989  0.91570325  1
  Al  Al54  1  0.91679701  0.57767432  0.41997618  1
  Al  Al55  1  0.91588817  0.57944048  0.91065192  1
  Al  Al56  1  0.08189530  0.42012971  0.41820094  1
  Al  Al57  1  0.09366300  0.41472405  0.91283967  1
  Al  Al58  1  0.08314327  0.92322815  0.41575794  1
  Al  Al59  1  0.08887030  0.91711314  0.91305773  1
  Al  Al60  1  0.57631071  0.41903826  0.40749677  1
  Al  Al61  1  0.57964264  0.41204314  0.91288435  1
  Al  Al62  1  0.58314154  0.91929741  0.41534415  1
  Al  Al63  1  0.57421628  0.91355449  0.91318077  1
  Al  Al64  1  0.08532721  0.07964474  0.41523550  1
  Al  Al65  1  0.09267692  0.08157073  0.91524428  1
  Al  Al66  1  0.08333219  0.57945093  0.42263655  1
  Al  Al67  1  0.08964660  0.57835387  0.90865155  1
  Al  Al68  1  0.57744873  0.08260964  0.40734572  1
  Al  Al69  1  0.57681382  0.08827355  0.91634915  1
  Al  Al70  1  0.57884395  0.58105854  0.41650487  1
  Al  Al71  1  0.58010813  0.57937705  0.91629857  1
  Al  Al72  1  0.41945103  0.41576197  0.40890063  1
  Al  Al73  1  0.41358914  0.41561349  0.90737425  1
  Al  Al74  1  0.41808497  0.91969682  0.41661688  1
  Al  Al75  1  0.41644648  0.91421408  0.91188372  1
  Al  Al76  1  0.91864751  0.41947792  0.41542848  1
  Al  Al77  1  0.91818862  0.42195778  0.91238023  1
  Al  Al78  1  0.92041707  0.91820060  0.42390132  1
  Al  Al79  1  0.91659616  0.92023820  0.91092292  1
  Al  Al80  1  0.09032792  0.41088478  0.07486913  1
  Al  Al81  1  0.08836054  0.42536009  0.59481137  1
  Al  Al82  1  0.08755020  0.91478873  0.07486808  1
  Al  Al83  1  0.07980899  0.91443276  0.59430517  1
  Al  Al84  1  0.58041472  0.41435860  0.08547202  1
  Al  Al85  1  0.57380802  0.41634287  0.59119775  1
  Al  Al86  1  0.58679212  0.92348170  0.08837172  1
  Al  Al87  1  0.58272900  0.91972170  0.58391559  1
  Al  Al88  1  0.41871150  0.08517822  0.08692430  1
  Al  Al89  1  0.42071132  0.08651127  0.58899105  1
  Al  Al90  1  0.41685977  0.58153375  0.09238718  1
  Al  Al91  1  0.41149190  0.57806790  0.59111873  1
  Al  Al92  1  0.91833022  0.08247430  0.07730233  1
  Al  Al93  1  0.91989770  0.07642685  0.58364359  1
  Al  Al94  1  0.91069062  0.57572001  0.08403519  1
  Al  Al95  1  0.92186751  0.58134369  0.58747073  1
  Al  Al96  1  0.24796977  0.13789977  0.13039735  1
  Al  Al97  1  0.24996445  0.13917103  0.63566685  1
  Al  Al98  1  0.25392529  0.63101920  0.13127407  1
  Al  Al99  1  0.24875703  0.62987602  0.64037926  1
  Al  Al100  1  0.74341908  0.13103261  0.13825688  1
  Al  Al101  1  0.75170354  0.13557704  0.63873702  1
  Al  Al102  1  0.74751334  0.63714097  0.13575060  1
  Al  Al103  1  0.74944256  0.63572656  0.63672282  1
  Al  Al104  1  0.24886511  0.36643221  0.13328570  1
  Al  Al105  1  0.25154480  0.37167317  0.63764283  1
  Al  Al106  1  0.24828207  0.86318894  0.13024304  1
  Al  Al107  1  0.24918852  0.86309871  0.63318432  1
  Al  Al108  1  0.75079565  0.36216541  0.13578665  1
  Al  Al109  1  0.75121115  0.36504490  0.63801285  1
  Al  Al110  1  0.74381223  0.86763576  0.13809624  1
  Al  Al111  1  0.75191130  0.86441469  0.63892492  1
  Al  Al112  1  0.25320491  0.13809589  0.36137995  1
  Al  Al113  1  0.24832378  0.13726127  0.87132554  1
  Al  Al114  1  0.25129323  0.63588264  0.36296026  1
  Al  Al115  1  0.24917163  0.63326231  0.86797272  1
  Al  Al116  1  0.74836344  0.13098240  0.36040196  1
  Al  Al117  1  0.75075005  0.13487254  0.86468244  1
  Al  Al118  1  0.74555016  0.63829830  0.36585382  1
  Al  Al119  1  0.75076719  0.62902769  0.86307920  1
  Al  Al120  1  0.25144620  0.36260374  0.36613594  1
  Al  Al121  1  0.24910604  0.36789399  0.86711232  1
  Al  Al122  1  0.25192775  0.86402810  0.36296232  1
  Al  Al123  1  0.24520312  0.86510359  0.86762607  1
  Al  Al124  1  0.74991046  0.35754581  0.36660055  1
  Al  Al125  1  0.74848729  0.36964035  0.86365000  1
  Al  Al126  1  0.74387347  0.86932748  0.36205246  1
  Al  Al127  1  0.75421171  0.86516173  0.86326725  1
  Al  Al128  1  0.13362355  0.25039601  0.13044318  1
  Al  Al129  1  0.13891659  0.25308163  0.63705443  1
  Al  Al130  1  0.13905971  0.74704515  0.12693161  1
  Al  Al131  1  0.13671735  0.75010551  0.63428476  1
  Al  Al132  1  0.63237435  0.24525444  0.13650270  1
  Al  Al133  1  0.63305320  0.25473593  0.63715765  1
  Al  Al134  1  0.62700172  0.75078750  0.13713973  1
  Al  Al135  1  0.63523246  0.75226107  0.63256784  1
  Al  Al136  1  0.13271412  0.24909516  0.36352819  1
  Al  Al137  1  0.13845008  0.25100628  0.87015554  1
  Al  Al138  1  0.13912999  0.75014891  0.36931743  1
  Al  Al139  1  0.13745756  0.75096626  0.87007149  1
  Al  Al140  1  0.62705505  0.25061787  0.36029945  1
  Al  Al141  1  0.63368142  0.24675307  0.86435049  1
  Al  Al142  1  0.62991990  0.75146522  0.36602552  1
  Al  Al143  1  0.63040909  0.74956893  0.86351496  1
  Al  Al144  1  0.36543751  0.24792620  0.13144024  1
  Al  Al145  1  0.36647795  0.25574322  0.63838152  1
  Al  Al146  1  0.37065979  0.74874848  0.13306093  1
  Al  Al147  1  0.36462410  0.74971724  0.63788591  1
  Al  Al148  1  0.86904536  0.24980404  0.13555421  1
  Al  Al149  1  0.86385807  0.24722475  0.63711604  1
  Al  Al150  1  0.86044654  0.75125712  0.13597419  1
  Al  Al151  1  0.86666330  0.75188757  0.63751268  1
  Al  Al152  1  0.37274943  0.25258794  0.36272144  1
  Al  Al153  1  0.36469448  0.24962856  0.86798526  1
  Al  Al154  1  0.37032772  0.74961715  0.36337883  1
  Al  Al155  1  0.36792668  0.74719900  0.86512650  1
  Al  Al156  1  0.86887392  0.24770778  0.36361859  1
  Al  Al157  1  0.86458661  0.24702536  0.86409299  1
  Al  Al158  1  0.86128121  0.75021919  0.36421898  1
  Al  Al159  1  0.86510730  0.75251385  0.86299087  1
  Al  Al160  1  0.13148465  0.13772271  0.24522225  1
  Al  Al161  1  0.13317276  0.13561663  0.75558819  1
  Al  Al162  1  0.13741559  0.63455192  0.24768248  1
  Al  Al163  1  0.13756777  0.63260473  0.75251021  1
  Al  Al164  1  0.62879129  0.13227802  0.25052116  1
  Al  Al165  1  0.63321486  0.13551023  0.75245862  1
  Al  Al166  1  0.62627934  0.63647743  0.24926177  1
  Al  Al167  1  0.63323787  0.63390822  0.75614470  1
  Al  Al168  1  0.37141655  0.13825769  0.24856740  1
  Al  Al169  1  0.36502155  0.13651408  0.75509875  1
  Al  Al170  1  0.36941416  0.63580802  0.24605092  1
  Al  Al171  1  0.36096826  0.62837241  0.75319893  1
  Al  Al172  1  0.86969253  0.13548545  0.24825368  1
  Al  Al173  1  0.86503860  0.12659482  0.75244485  1
  Al  Al174  1  0.86333014  0.63438679  0.24758148  1
  Al  Al175  1  0.86647966  0.63523680  0.75312776  1
  Al  Al176  1  0.13022346  0.36216225  0.24518291  1
  Al  Al177  1  0.13899234  0.37005537  0.75397242  1
  Al  Al178  1  0.13744075  0.86221931  0.24621503  1
  Al  Al179  1  0.12956252  0.86091225  0.75295053  1
  Al  Al180  1  0.63374232  0.36397140  0.24875104  1
  Al  Al181  1  0.63204137  0.36494913  0.75297666  1
  Al  Al182  1  0.62875598  0.86856857  0.24949926  1
  Al  Al183  1  0.63435339  0.86361141  0.75458353  1
  Al  Al184  1  0.36412693  0.36330637  0.24715652  1
  Al  Al185  1  0.36157341  0.36852507  0.75207535  1
  Al  Al186  1  0.37032028  0.86288550  0.24757459  1
  Al  Al187  1  0.36476447  0.86422499  0.75422454  1
  Al  Al188  1  0.86878521  0.36496571  0.24699284  1
  Al  Al189  1  0.86564879  0.36582979  0.75600957  1
  Al  Al190  1  0.86223487  0.86688599  0.24871669  1
  Al  Al191  1  0.86938128  0.86802972  0.75003752  1
  Al  Al192  1  0.32174112  0.00071546  0.67871379  1
  Al  Al193  1  0.68363999  0.49993171  0.17011791  1
  Al  Al194  1  0.82855780  0.32927339  -0.00201572  1
  Al  Al195  1  0.81978775  0.82872568  0.49953739  1
  Al  Al196  1  0.82719595  0.67185868  -0.00183185  1
  Al  Al197  1  0.32411077  0.32339028  0.00024658  1
  Al  Al198  1  0.67557511  0.82433049  -0.00137398  1
  Al  Al199  1  0.67285220  0.67046689  0.00019901  1
  Al  Al200  1  0.00099567  0.82788590  0.17148422  1
  Al  Al201  1  0.82704951  0.50074459  0.68698158  1
  Al  Al202  1  0.68146194  0.00003463  0.83262104  1
  Al  Al203  1  0.82156113  0.67277612  0.50323805  1
  Al  Al204  1  0.00127283  0.17192264  0.68014155  1
  Al  Al205  1  0.67464844  0.31933038  0.00004451  1
  Al  Al206  1  0.00235980  0.32097196  0.82834934  1
  Al  Al207  1  0.67646844  0.49909449  0.31930830  1
  Al  Al208  1  0.82453168  0.00016934  0.17668130  1
  Al  Al209  1  0.49807821  0.67321982  0.68373421  1
  Al  Al210  1  0.00043172  0.82944280  0.32579289  1
  Al  Al211  1  0.17870573  0.17395480  0.50118883  1
  Al  Al212  1  0.00187786  0.68064656  0.82656032  1
  Al  Al213  1  0.32434911  0.82320403  -0.00149494  1
  Al  Al214  1  0.49774720  0.31181543  0.81155507  1
  Al  Al215  1  0.49953625  0.18981967  0.69066247  1
  Al  Al216  1  -0.00056649  0.67064924  0.17157772  1
  Al  Al217  1  0.00037169  0.67298370  0.32499939  1
  Al  Al218  1  0.18194998  0.00075646  0.31412833  1
  Al  Al219  1  0.31869452  0.00143910  0.18119575  1
  Al  Al220  1  0.82965708  0.82701703  0.00041874  1
  Al  Al221  1  0.32129741  0.67050116  0.50187646  1
  Al  Al222  1  0.82860826  0.18167057  0.49935882  1
  Al  Al223  1  0.67130679  0.17280658  0.50160775  1
  Al  Al224  1  0.32230829  0.82558329  0.50011776  1
  Al  Al225  1  0.31360048  0.00046672  0.82701572  1
  Al  Al226  1  0.32643559  0.32579534  0.49818931  1
  Al  Al227  1  0.68298826  0.00005005  0.67551422  1
  Al  Al228  1  0.50044058  0.82863234  0.68295176  1
  Al  Al229  1  0.82420669  0.49874602  0.31377146  1
  Al  Al230  1  0.81710763  0.17673977  0.00149933  1
  Al  Al231  1  0.67274433  0.33495934  0.50074724  1
  Al  Al232  1  0.49911351  0.31412153  0.18578567  1
  Al  Al233  1  0.17436607  -0.00144883  0.68952336  1
  Al  Al234  1  0.32811173  0.49954021  0.31372186  1
  Al  Al235  1  0.00120596  0.32853752  0.67620229  1
  Al  Al236  1  0.17412531  0.49932644  0.31668960  1
  Al  Al237  1  0.00156688  0.68246198  0.67559619  1
  Al  Al238  1  0.67282543  0.49971611  0.68218303  1
  Au  Au239  1  0.17751868  0.49725048  0.16208036  1
  Au  Au240  1  0.17279153  0.66120408  0.50551410  1
  Au  Au241  1  0.00060980  0.67594535  0.33753764  1
  Au  Au242  1  0.67347348  0.49827289  0.83165001  1
  Au  Au243  1  0.66591019  0.16949852  0.00258227  1
  Au  Au244  1  0.67191766  0.83840705  0.50036132  1
  Au  Au245  1  0.49768839  0.67085533  0.83297392  1
  Au  Au246  1  0.16345586  0.33679576  0.50599759  1
  Au  Au247  1  -0.00139770  0.67349074  0.15916200  1
  Au  Au248  1  0.33497606  0.82537201  0.50260534  1
  Au  Au249  1  0.83128935  -0.00290357  0.33371095  1
  Au  Au250  1  0.83357106  -0.00391662  0.67330454  1
  Au  Au251  1  0.49631150  0.66370160  0.32489696  1
  Au  Au252  1  0.50025998  0.83073596  0.33095971  1
  Au  Au253  1  0.32553053  0.16354719  0.00127628  1
  Au  Au254  1  0.83367303  0.66936794  0.50414471  1
  Au  Au255  1  0.33101838  -0.00253864  0.66991663  1
  Au  Au256  1  0.32099584  0.33602536  0.00016178  1
  Au  Au257  1  0.00042138  0.33529985  0.16381370  1
  Au  Au258  1  0.83719657  0.33723451  0.50485168  1
  Au  Au259  1  0.16520308  0.67253993  -0.00413576  1
  Au  Au260  1  0.49912180  0.82954183  0.16387378  1
  Au  Au261  1  0.83280331  0.16984139  0.49937151  1
  Au  Au262  1  0.66049553  0.33210407  0.49944119  1
  Au  Au263  1  0.00187902  0.16835405  0.16107964  1
  Au  Au264  1  0.16978133  -0.00100410  0.16415285  1
  Au  Au265  1  0.00044485  0.16987560  0.84282258  1
  Au  Au266  1  0.00341806  0.17543754  0.66805860  1
  Au  Au267  1  0.33453840  0.33488850  0.50060433  1
  Au  Au268  1  0.17004456  0.16508365  0.49911137  1
  Au  Au269  1  0.49943383  0.18024088  0.31975557  1
  Au  Au270  1  0.66434487  0.00050419  0.31967552  1
  Au  Au271  1  0.32988861  0.00137043  0.32909837  1
  Au  Au272  1  0.00211222  0.16344733  0.32855761  1
  Au  Au273  1  0.82855386  0.49885812  0.32555298  1
  Au  Au274  1  0.66556656  0.00036472  0.82623612  1
  Au  Au275  1  0.82141489  -0.00154883  0.16444151  1
  Au  Au276  1  0.00066815  0.33020017  0.33248262  1
  Au  Au277  1  0.66761051  0.49532623  0.32751681  1
  Au  Au278  1  0.50277638  0.82858213  0.67012369  1
  Au  Au279  1  0.33654651  0.16972539  0.50043412  1
  Au  Au280  1  0.16200560  0.83553742  0.50086842  1
  Au  Au281  1  0.66267075  0.66558213  0.50340724  1
  Au  Au282  1  0.17770974  0.50085406  0.32864814  1
  Au  Au283  1  0.66482845  0.15596969  0.50305378  1
  Au  Au284  1  0.33177557  0.66062747  0.00249382  1
  Au  Au285  1  0.66527726  0.83436253  -0.00113725  1
  Au  Au286  1  0.32325143  0.83581665  0.00033867  1
  Au  Au287  1  0.00076174  0.83134806  0.82732882  1
