# generated using pymatgen
data_Ca24Ti8Al207Au49
_symmetry_space_group_name_H-M   'P 1'
_cell_length_a   17.32558270
_cell_length_b   17.32660165
_cell_length_c   17.32465359
_cell_angle_alpha   90.00354429
_cell_angle_beta   90.00145170
_cell_angle_gamma   89.99715806
_symmetry_Int_Tables_number   1
_chemical_formula_structural   Ca24Ti8Al207Au49
_chemical_formula_sum   'Ca24 Ti8 Al207 Au49'
_cell_volume   5200.74785484
_cell_formula_units_Z   1
loop_
 _symmetry_equiv_pos_site_id
 _symmetry_equiv_pos_as_xyz
  1  'x, y, z'
loop_
 _atom_site_type_symbol
 _atom_site_label
 _atom_site_symmetry_multiplicity
 _atom_site_fract_x
 _atom_site_fract_y
 _atom_site_fract_z
 _atom_site_occupancy
  Ca  Ca0  1  0.24826197  0.00072502  -0.00317679  1
  Ca  Ca1  1  0.24577567  0.00163729  0.49954851  1
  Ca  Ca2  1  0.24315018  0.50199095  -0.00033128  1
  Ca  Ca3  1  0.24363209  0.49711524  0.49892205  1
  Ca  Ca4  1  0.74352184  -0.00166766  0.00020199  1
  Ca  Ca5  1  0.74599424  0.00062379  0.49882729  1
  Ca  Ca6  1  0.75319692  0.50286309  0.00347073  1
  Ca  Ca7  1  0.75194605  0.49789147  0.49717094  1
  Ca  Ca8  1  0.00202980  0.25625849  -0.00138811  1
  Ca  Ca9  1  0.00001633  0.25011133  0.50004803  1
  Ca  Ca10  1  0.00288356  0.74568354  -0.00222002  1
  Ca  Ca11  1  0.00070894  0.74823707  0.50632327  1
  Ca  Ca12  1  0.49824268  0.24549900  0.00074083  1
  Ca  Ca13  1  0.50476826  0.24645296  0.49934145  1
  Ca  Ca14  1  0.50227528  0.75024569  0.00647971  1
  Ca  Ca15  1  0.50344205  0.75310304  0.49523826  1
  Ca  Ca16  1  -0.00081373  0.00323462  0.25756859  1
  Ca  Ca17  1  0.00261551  0.00010082  0.74702733  1
  Ca  Ca18  1  -0.00321353  0.49808689  0.25546473  1
  Ca  Ca19  1  0.00188830  0.49891095  0.75019944  1
  Ca  Ca20  1  0.50244366  -0.00114749  0.25553217  1
  Ca  Ca21  1  0.50028332  0.00097693  0.74780804  1
  Ca  Ca22  1  0.50399801  0.50247446  0.25289030  1
  Ca  Ca23  1  0.49790708  0.49778622  0.74671382  1
  Ti  Ti24  1  0.24974643  0.24954035  0.25163640  1
  Ti  Ti25  1  0.24816807  0.24980312  0.74767515  1
  Ti  Ti26  1  0.25214868  0.74879146  0.24936881  1
  Ti  Ti27  1  0.24927967  0.75100382  0.75008617  1
  Ti  Ti28  1  0.74902476  0.24891648  0.25307266  1
  Ti  Ti29  1  0.75131428  0.24927598  0.74768115  1
  Ti  Ti30  1  0.74880804  0.75052939  0.25060373  1
  Ti  Ti31  1  0.74989355  0.75093639  0.74909891  1
  Al  Al32  1  0.07957944  0.08443814  0.08395048  1
  Al  Al33  1  0.09316635  0.08117626  0.58106160  1
  Al  Al34  1  0.08551615  0.58653207  0.07539528  1
  Al  Al35  1  0.07936737  0.58640689  0.59070150  1
  Al  Al36  1  0.58107110  0.07663433  0.09021465  1
  Al  Al37  1  0.59838659  0.08806347  0.57913326  1
  Al  Al38  1  0.58351542  0.58787928  0.10124901  1
  Al  Al39  1  0.58167403  0.57576225  0.57512341  1
  Al  Al40  1  0.42207416  0.42465087  0.07852629  1
  Al  Al41  1  0.41886060  0.41680271  0.57714721  1
  Al  Al42  1  0.42251842  0.90939877  0.09035530  1
  Al  Al43  1  0.41930260  0.92227656  0.58100997  1
  Al  Al44  1  0.91245969  0.42258559  0.08828149  1
  Al  Al45  1  0.91593925  0.41652943  0.57738234  1
  Al  Al46  1  0.91809338  0.91818504  0.07971233  1
  Al  Al47  1  0.92267543  0.91157340  0.58985287  1
  Al  Al48  1  0.42488401  0.08885228  0.41384121  1
  Al  Al49  1  0.42116497  0.07876302  0.91384631  1
  Al  Al50  1  0.42323688  0.58387755  0.41379076  1
  Al  Al51  1  0.40984044  0.58056095  0.92044608  1
  Al  Al52  1  0.92045299  0.09149038  0.41463841  1
  Al  Al53  1  0.92286149  0.07668544  0.91541334  1
  Al  Al54  1  0.91297920  0.57959758  0.41452600  1
  Al  Al55  1  0.92186437  0.57786356  0.91888033  1
  Al  Al56  1  0.08362121  0.40462532  0.41793099  1
  Al  Al57  1  0.08682033  0.41832379  0.90752654  1
  Al  Al58  1  0.07526711  0.92782533  0.42937446  1
  Al  Al59  1  0.08770728  0.91674319  0.90752433  1
  Al  Al60  1  0.59566186  0.41376465  0.41306759  1
  Al  Al61  1  0.58042368  0.42179907  0.91646451  1
  Al  Al62  1  0.58547445  0.92294739  0.40675517  1
  Al  Al63  1  0.58637586  0.91841358  0.90955828  1
  Al  Al64  1  0.08381247  0.09734317  0.41963762  1
  Al  Al65  1  0.08885926  0.07877108  0.90644616  1
  Al  Al66  1  0.07500980  0.58125628  0.42127764  1
  Al  Al67  1  0.09263271  0.58226565  0.91249878  1
  Al  Al68  1  0.58913731  0.08796418  0.41367029  1
  Al  Al69  1  0.58338057  0.07352437  0.90086367  1
  Al  Al70  1  0.58839023  0.57866629  0.40574517  1
  Al  Al71  1  0.58350939  0.57957359  0.92324845  1
  Al  Al72  1  0.42026538  0.41684164  0.41922815  1
  Al  Al73  1  0.41536444  0.42481180  0.91572389  1
  Al  Al74  1  0.42532154  0.91349417  0.41055435  1
  Al  Al75  1  0.42186243  0.92021246  0.91926639  1
  Al  Al76  1  0.91320031  0.41349236  0.41194968  1
  Al  Al77  1  0.92698032  0.41384604  0.91230401  1
  Al  Al78  1  0.91718084  0.92044151  0.42397132  1
  Al  Al79  1  0.92319700  0.91595389  0.91383318  1
  Al  Al80  1  0.07655526  0.42339573  0.07483501  1
  Al  Al81  1  0.08808147  0.41094392  0.58022107  1
  Al  Al82  1  0.08275227  0.91988727  0.07487805  1
  Al  Al83  1  0.08494803  0.91746168  0.59768416  1
  Al  Al84  1  0.58863009  0.42833390  0.09085380  1
  Al  Al85  1  0.59328299  0.41097560  0.57382985  1
  Al  Al86  1  0.58089021  0.90873504  0.09462063  1
  Al  Al87  1  0.59028886  0.92674713  0.58562458  1
  Al  Al88  1  0.41989418  0.08062455  0.08528142  1
  Al  Al89  1  0.41987470  0.07996705  0.58020844  1
  Al  Al90  1  0.42153251  0.59136524  0.08889927  1
  Al  Al91  1  0.41969834  0.57856280  0.57456023  1
  Al  Al92  1  0.92248216  0.08125255  0.08518018  1
  Al  Al93  1  0.91709885  0.08214299  0.57762368  1
  Al  Al94  1  0.91255766  0.57778310  0.09008034  1
  Al  Al95  1  0.91898871  0.58976673  0.58655298  1
  Al  Al96  1  0.25007795  0.13529647  0.13245159  1
  Al  Al97  1  0.24104703  0.13645022  0.62872263  1
  Al  Al98  1  0.25078208  0.63778498  0.13251911  1
  Al  Al99  1  0.24832595  0.63758876  0.63456837  1
  Al  Al100  1  0.74755334  0.12879182  0.14309542  1
  Al  Al101  1  0.74807622  0.13672842  0.62558374  1
  Al  Al102  1  0.74785782  0.63703769  0.13299261  1
  Al  Al103  1  0.75013925  0.63651057  0.63366087  1
  Al  Al104  1  0.25077855  0.36294831  0.13713248  1
  Al  Al105  1  0.24422991  0.36004246  0.62922073  1
  Al  Al106  1  0.24954793  0.86390001  0.13687959  1
  Al  Al107  1  0.24648951  0.86588304  0.63421110  1
  Al  Al108  1  0.75198678  0.36742966  0.13701753  1
  Al  Al109  1  0.74934800  0.36249927  0.63427288  1
  Al  Al110  1  0.74661367  0.86747560  0.13526054  1
  Al  Al111  1  0.74860731  0.86502877  0.62802121  1
  Al  Al112  1  0.24638692  0.13672870  0.37018623  1
  Al  Al113  1  0.24512150  0.13580198  0.86643756  1
  Al  Al114  1  0.25477823  0.63824159  0.36261110  1
  Al  Al115  1  0.24520022  0.63683103  0.87155298  1
  Al  Al116  1  0.74487715  0.13437306  0.37372601  1
  Al  Al117  1  0.74831920  0.12865264  0.85979942  1
  Al  Al118  1  0.74345718  0.63524432  0.36203919  1
  Al  Al119  1  0.75014568  0.63125197  0.86771836  1
  Al  Al120  1  0.24741725  0.36042466  0.37050622  1
  Al  Al121  1  0.24406533  0.36513910  0.86325166  1
  Al  Al122  1  0.25488619  0.86210649  0.36179490  1
  Al  Al123  1  0.24453637  0.86762950  0.86315568  1
  Al  Al124  1  0.74550041  0.36378872  0.36724098  1
  Al  Al125  1  0.75052369  0.36857146  0.86243474  1
  Al  Al126  1  0.74336973  0.86561474  0.36861913  1
  Al  Al127  1  0.74772695  0.87058987  0.86228373  1
  Al  Al128  1  0.13416520  0.24555779  0.13578256  1
  Al  Al129  1  0.12899052  0.24947799  0.63483566  1
  Al  Al130  1  0.13227696  0.74625133  0.13413963  1
  Al  Al131  1  0.12965897  0.75224970  0.63834272  1
  Al  Al132  1  0.63750411  0.25031510  0.14111780  1
  Al  Al133  1  0.63306106  0.24810781  0.63225436  1
  Al  Al134  1  0.63308299  0.75150316  0.13552004  1
  Al  Al135  1  0.63652036  0.75406284  0.62805176  1
  Al  Al136  1  0.13422764  0.24817995  0.37154340  1
  Al  Al137  1  0.13198631  0.25171830  0.86079132  1
  Al  Al138  1  0.13591276  0.74949059  0.36496040  1
  Al  Al139  1  0.13503001  0.74855176  0.86281351  1
  Al  Al140  1  0.63375464  0.24630755  0.36887784  1
  Al  Al141  1  0.63772771  0.24970583  0.86087156  1
  Al  Al142  1  0.62822754  0.75225860  0.36564021  1
  Al  Al143  1  0.63950461  0.75177656  0.86896224  1
  Al  Al144  1  0.36665950  0.24688196  0.13520830  1
  Al  Al145  1  0.36945889  0.24817486  0.63442413  1
  Al  Al146  1  0.37119464  0.74853286  0.13573247  1
  Al  Al147  1  0.36669174  0.75074420  0.63502843  1
  Al  Al148  1  0.86320413  0.24793010  0.13822401  1
  Al  Al149  1  0.86945331  0.24847675  0.63405582  1
  Al  Al150  1  0.86468359  0.74889738  0.13492281  1
  Al  Al151  1  0.86682633  0.75111825  0.63624670  1
  Al  Al152  1  0.36844886  0.24663652  0.36558628  1
  Al  Al153  1  0.36090870  0.24812987  0.86583300  1
  Al  Al154  1  0.37624612  0.75134234  0.36236594  1
  Al  Al155  1  0.36125410  0.75107024  0.86430770  1
  Al  Al156  1  0.86172946  0.24823708  0.36703434  1
  Al  Al157  1  0.86648456  0.25048883  0.86209956  1
  Al  Al158  1  0.86104328  0.75315471  0.36421984  1
  Al  Al159  1  0.86187313  0.74911830  0.86383766  1
  Al  Al160  1  0.13264002  0.13563617  0.25549368  1
  Al  Al161  1  0.13609834  0.12958698  0.74821932  1
  Al  Al162  1  0.13617875  0.63560227  0.24941493  1
  Al  Al163  1  0.13719505  0.63392957  0.74894676  1
  Al  Al164  1  0.63217031  0.12916232  0.25820012  1
  Al  Al165  1  0.63833489  0.13058787  0.74283029  1
  Al  Al166  1  0.62783036  0.64025107  0.24989736  1
  Al  Al167  1  0.63731795  0.63847851  0.75049537  1
  Al  Al168  1  0.36537371  0.13500389  0.25323292  1
  Al  Al169  1  0.36031868  0.13457650  0.74607944  1
  Al  Al170  1  0.37312704  0.63747704  0.24909239  1
  Al  Al171  1  0.35990250  0.63458884  0.75315987  1
  Al  Al172  1  0.86552425  0.13386985  0.25585766  1
  Al  Al173  1  0.86395737  0.13230589  0.74753667  1
  Al  Al174  1  0.86088572  0.63344210  0.24806002  1
  Al  Al175  1  0.86543343  0.63636232  0.74856593  1
  Al  Al176  1  0.13525604  0.36191791  0.25196296  1
  Al  Al177  1  0.12750057  0.36491669  0.74794763  1
  Al  Al178  1  0.13454772  0.86227326  0.25078352  1
  Al  Al179  1  0.13500224  0.86953065  0.74769811  1
  Al  Al180  1  0.63716400  0.36780001  0.25454642  1
  Al  Al181  1  0.63406210  0.36306048  0.74708391  1
  Al  Al182  1  0.63278804  0.86524888  0.25123475  1
  Al  Al183  1  0.63811348  0.86817464  0.74651203  1
  Al  Al184  1  0.36630527  0.36363253  0.25503432  1
  Al  Al185  1  0.36463048  0.36254700  0.74968959  1
  Al  Al186  1  0.37125989  0.86197264  0.24820180  1
  Al  Al187  1  0.36191986  0.86700616  0.74795775  1
  Al  Al188  1  0.86233924  0.36554235  0.25056426  1
  Al  Al189  1  0.87045729  0.36242288  0.74870199  1
  Al  Al190  1  0.86482121  0.86666105  0.25038876  1
  Al  Al191  1  0.86384876  0.86694141  0.74711468  1
  Al  Al192  1  0.32888138  0.49830880  0.67165940  1
  Al  Al193  1  0.32632675  0.82364072  0.49947144  1
  Al  Al194  1  0.81044558  0.49956334  0.31386858  1
  Al  Al195  1  -0.00175268  0.30871210  0.31955946  1
  Al  Al196  1  0.81504323  0.32132826  0.50003316  1
  Al  Al197  1  0.00000655  0.82478556  0.81164337  1
  Al  Al198  1  0.31437842  0.00189530  0.67249217  1
  Al  Al199  1  0.82753765  0.49953341  0.67663241  1
  Al  Al200  1  0.49961978  0.17242334  0.81586054  1
  Al  Al201  1  0.32808027  0.82045302  0.00027450  1
  Al  Al202  1  0.50090065  0.67790131  0.66766173  1
  Al  Al203  1  0.32503949  0.49936547  0.32690102  1
  Al  Al204  1  0.82241527  0.82173480  -0.00373636  1
  Al  Al205  1  0.17218056  0.81716032  -0.00130454  1
  Al  Al206  1  0.30672688  0.50041185  0.82253303  1
  Al  Al207  1  0.31794306  0.00064950  0.82519186  1
  Al  Al208  1  0.81378248  0.00077386  0.67754302  1
  Al  Al209  1  -0.00281836  0.68044588  0.32184738  1
  Al  Al210  1  0.50029937  0.82774236  0.81925565  1
  Al  Al211  1  0.67172322  0.16793465  -0.00069493  1
  Al  Al212  1  0.67451920  0.49964451  0.67561554  1
  Al  Al213  1  0.17139418  -0.00028328  0.33157084  1
  Al  Al214  1  0.83072197  0.33002317  -0.00130135  1
  Al  Al215  1  0.18127922  -0.00038702  0.17349127  1
  Al  Al216  1  0.49909877  0.67159275  0.82684923  1
  Al  Al217  1  0.67455174  0.32851996  0.00016514  1
  Al  Al218  1  0.82184655  0.67704713  0.49827000  1
  Al  Al219  1  0.17393949  0.49940298  0.17278314  1
  Al  Al220  1  0.32642724  0.32589314  0.00015793  1
  Al  Al221  1  0.49973370  0.31904127  0.32293128  1
  Al  Al222  1  0.69114880  0.50370565  0.19498761  1
  Al  Al223  1  0.00098196  0.67063106  0.81770933  1
  Al  Al224  1  0.32801248  0.50140802  0.17457861  1
  Al  Al225  1  0.17458570  0.67387271  0.50030335  1
  Al  Al226  1  -0.00140785  0.18515985  0.18396869  1
  Al  Al227  1  0.32736685  0.00041765  0.32415470  1
  Al  Al228  1  0.49752890  0.32626188  0.82302558  1
  Al  Al229  1  0.17697767  0.49812747  0.68353314  1
  Al  Al230  1  0.00303096  0.82280797  0.17665845  1
  Al  Al231  1  0.32502154  0.18074856  0.50067536  1
  Al  Al232  1  0.17021907  0.82859034  0.50101014  1
  Al  Al233  1  0.81470325  0.00031460  0.32488594  1
  Al  Al234  1  0.82915797  0.17442119  -0.00051591  1
  Al  Al235  1  0.49843939  0.18025896  0.18594732  1
  Al  Al236  1  0.17030089  0.32041051  -0.00011733  1
  Al  Al237  1  0.17079812  0.49943182  0.32831423  1
  Al  Al238  1  -0.00058844  0.18038315  0.82015883  1
  Au  Au239  1  0.32306768  0.33835573  0.00004760  1
  Au  Au240  1  0.16887613  -0.00172054  0.17619189  1
  Au  Au241  1  0.66330569  -0.00356595  0.18050383  1
  Au  Au242  1  0.82733992  0.17518345  0.49923720  1
  Au  Au243  1  0.33518167  0.16329223  -0.00256760  1
  Au  Au244  1  0.50479452  0.15907363  0.66825129  1
  Au  Au245  1  0.00350063  0.82817329  0.34151067  1
  Au  Au246  1  0.50252848  0.32751999  0.33205760  1
  Au  Au247  1  -0.00221117  0.33516578  0.66966535  1
  Au  Au248  1  0.66568750  0.50226369  0.82436864  1
  Au  Au249  1  0.83323003  0.66466143  0.00133620  1
  Au  Au250  1  0.00089724  0.83168909  0.16798958  1
  Au  Au251  1  -0.00095901  0.67620701  0.82912022  1
  Au  Au252  1  0.82317711  -0.00211569  0.83733986  1
  Au  Au253  1  0.50038764  0.33542203  0.16731840  1
  Au  Au254  1  0.83736186  0.49535936  0.82678351  1
  Au  Au255  1  0.67117854  0.33976716  0.00486072  1
  Au  Au256  1  0.50345213  0.33193127  0.65922505  1
  Au  Au257  1  0.50168045  0.67319929  0.32515486  1
  Au  Au258  1  0.32366256  0.65937780  0.49809208  1
  Au  Au259  1  0.82423209  -0.00052097  0.66437137  1
  Au  Au260  1  0.00488125  0.16440191  0.66525606  1
  Au  Au261  1  0.66577031  0.83418149  -0.00068020  1
  Au  Au262  1  0.49914530  0.66583626  0.67077431  1
  Au  Au263  1  0.32456410  0.83247969  -0.00114160  1
  Au  Au264  1  0.65713498  0.16460338  -0.00926283  1
  Au  Au265  1  0.82700017  0.00118437  0.33653103  1
  Au  Au266  1  0.33022341  0.83466507  0.49438554  1
  Au  Au267  1  0.50159841  0.17121432  0.17754309  1
  Au  Au268  1  0.83099502  0.83064008  -0.00181022  1
  Au  Au269  1  0.32263646  0.16825879  0.50172751  1
  Au  Au270  1  0.83771070  0.82444958  0.50320514  1
  Au  Au271  1  0.17342335  0.49803847  0.67114227  1
  Au  Au272  1  -0.00150506  0.17263872  0.18154321  1
  Au  Au273  1  0.33821464  -0.00325767  0.17546297  1
  Au  Au274  1  0.32250003  0.66495043  0.00348358  1
  Au  Au275  1  0.50381743  0.84251980  0.67104824  1
  Au  Au276  1  0.00107379  0.65754710  0.17403955  1
  Au  Au277  1  0.32025021  0.33516853  0.50035809  1
  Au  Au278  1  0.66437186  0.83695606  0.49565380  1
  Au  Au279  1  0.16235713  0.16962111  -0.00275246  1
  Au  Au280  1  0.67346711  0.65978089  0.49648727  1
  Au  Au281  1  0.49510784  0.32603039  0.83561444  1
  Au  Au282  1  0.49874544  0.67519598  0.83908459  1
  Au  Au283  1  0.82773238  -0.00050238  0.16286951  1
  Au  Au284  1  -0.00055032  0.16877071  0.82539546  1
  Au  Au285  1  0.00002034  0.33988606  0.17348943  1
  Au  Au286  1  0.66539094  0.66512744  0.00634504  1
  Au  Au287  1  0.84150832  0.17068220  -0.00158361  1
