# generated using pymatgen
data_Ca24Ti8Al207Au49
_symmetry_space_group_name_H-M   'P 1'
_cell_length_a   17.32391104
_cell_length_b   17.32472723
_cell_length_c   17.32466072
_cell_angle_alpha   89.99575012
_cell_angle_beta   90.00368376
_cell_angle_gamma   90.00020598
_symmetry_Int_Tables_number   1
_chemical_formula_structural   Ca24Ti8Al207Au49
_chemical_formula_sum   'Ca24 Ti8 Al207 Au49'
_cell_volume   5199.68562211
_cell_formula_units_Z   1
loop_
 _symmetry_equiv_pos_site_id
 _symmetry_equiv_pos_as_xyz
  1  'x, y, z'
loop_
 _atom_site_type_symbol
 _atom_site_label
 _atom_site_symmetry_multiplicity
 _atom_site_fract_x
 _atom_site_fract_y
 _atom_site_fract_z
 _atom_site_occupancy
  Ca  Ca0  1  0.24977978  0.00242371  0.00265453  1
  Ca  Ca1  1  0.24786275  -0.00206844  0.49651262  1
  Ca  Ca2  1  0.24552286  0.49916564  0.00295498  1
  Ca  Ca3  1  0.24569162  0.50056120  0.49795746  1
  Ca  Ca4  1  0.74839203  -0.00323324  -0.00221730  1
  Ca  Ca5  1  0.74995996  0.00253178  0.50223070  1
  Ca  Ca6  1  0.75504054  0.50077931  0.00240188  1
  Ca  Ca7  1  0.75679290  0.49760047  0.49666379  1
  Ca  Ca8  1  -0.00131266  0.25554052  0.00046811  1
  Ca  Ca9  1  -0.00774925  0.25495447  0.49951775  1
  Ca  Ca10  1  -0.00497791  0.74439756  -0.00155214  1
  Ca  Ca11  1  -0.00085865  0.74380592  0.49868643  1
  Ca  Ca12  1  0.50041504  0.25032841  0.00043118  1
  Ca  Ca13  1  0.50406184  0.25251655  0.49759829  1
  Ca  Ca14  1  0.50721747  0.75270570  -0.00177355  1
  Ca  Ca15  1  0.49987728  0.74840424  0.50068979  1
  Ca  Ca16  1  -0.00035929  0.00069716  0.25100439  1
  Ca  Ca17  1  -0.00526893  -0.00167401  0.75103574  1
  Ca  Ca18  1  -0.00443926  0.49599874  0.25222293  1
  Ca  Ca19  1  -0.00296234  0.50255844  0.75268858  1
  Ca  Ca20  1  0.49899122  0.00032929  0.24854727  1
  Ca  Ca21  1  0.50764121  -0.00074065  0.75418316  1
  Ca  Ca22  1  0.50365806  0.49972284  0.25372017  1
  Ca  Ca23  1  0.50077086  0.50049268  0.75229247  1
  Ti  Ti24  1  0.24933344  0.25210494  0.25154774  1
  Ti  Ti25  1  0.24973760  0.25099647  0.75089787  1
  Ti  Ti26  1  0.24904232  0.74805279  0.25234284  1
  Ti  Ti27  1  0.24997204  0.74871390  0.74866280  1
  Ti  Ti28  1  0.74960995  0.25012172  0.25174686  1
  Ti  Ti29  1  0.75002570  0.25092412  0.75042420  1
  Ti  Ti30  1  0.75119664  0.74870198  0.24900811  1
  Ti  Ti31  1  0.75037148  0.74996333  0.75173912  1
  Al  Al32  1  0.08312952  0.08110973  0.08458065  1
  Al  Al33  1  0.07333610  0.08455481  0.57290975  1
  Al  Al34  1  0.08545632  0.57334587  0.09000416  1
  Al  Al35  1  0.07821657  0.58823498  0.58103700  1
  Al  Al36  1  0.57857048  0.07499818  0.07453807  1
  Al  Al37  1  0.59388337  0.08228216  0.58834633  1
  Al  Al38  1  0.59765672  0.58463164  0.08055653  1
  Al  Al39  1  0.58501405  0.58128555  0.57842301  1
  Al  Al40  1  0.41659897  0.42125049  0.08329804  1
  Al  Al41  1  0.42266285  0.42239451  0.57588311  1
  Al  Al42  1  0.42358971  0.91716311  0.07710912  1
  Al  Al43  1  0.41906325  0.90281313  0.57565119  1
  Al  Al44  1  0.91667646  0.41363251  0.09538880  1
  Al  Al45  1  0.91195066  0.41312750  0.57885199  1
  Al  Al46  1  0.91852157  0.91505794  0.07961156  1
  Al  Al47  1  0.91836264  0.91581211  0.58254736  1
  Al  Al48  1  0.41849855  0.08215060  0.41619548  1
  Al  Al49  1  0.42960734  0.08901556  0.91543229  1
  Al  Al50  1  0.40911356  0.58760695  0.42176175  1
  Al  Al51  1  0.41838144  0.58228380  0.91624737  1
  Al  Al52  1  0.91183971  0.09195977  0.42119679  1
  Al  Al53  1  0.91840993  0.08643447  0.91095764  1
  Al  Al54  1  0.91378395  0.58389135  0.41329947  1
  Al  Al55  1  0.91120175  0.58600373  0.90625991  1
  Al  Al56  1  0.07432347  0.41376164  0.40901681  1
  Al  Al57  1  0.07562090  0.42116774  0.92206495  1
  Al  Al58  1  0.08962647  0.90522519  0.41775977  1
  Al  Al59  1  0.07145594  0.91274933  0.91705743  1
  Al  Al60  1  0.58878053  0.40577518  0.41470492  1
  Al  Al61  1  0.58422708  0.42073823  0.91762483  1
  Al  Al62  1  0.57663823  0.92202118  0.42093492  1
  Al  Al63  1  0.59303788  0.90968658  0.90885391  1
  Al  Al64  1  0.07858400  0.08210419  0.41695058  1
  Al  Al65  1  0.07391644  0.09355522  0.91509733  1
  Al  Al66  1  0.07790381  0.58922430  0.41134033  1
  Al  Al67  1  0.07281612  0.58746701  0.91162948  1
  Al  Al68  1  0.58512207  0.08922394  0.42122556  1
  Al  Al69  1  0.58828086  0.07835778  0.90436964  1
  Al  Al70  1  0.58808169  0.57982808  0.42030007  1
  Al  Al71  1  0.59131965  0.59222464  0.92074051  1
  Al  Al72  1  0.42447165  0.41346468  0.41084256  1
  Al  Al73  1  0.41775113  0.42127508  0.91841838  1
  Al  Al74  1  0.40878641  0.90860461  0.41982123  1
  Al  Al75  1  0.43164266  0.91173218  0.91658430  1
  Al  Al76  1  0.91092962  0.41124763  0.40992144  1
  Al  Al77  1  0.91109501  0.42311106  0.91366408  1
  Al  Al78  1  0.92079532  0.91385891  0.42022685  1
  Al  Al79  1  0.91327857  0.91215039  0.91203970  1
  Al  Al80  1  0.08085029  0.41263573  0.09892905  1
  Al  Al81  1  0.07447337  0.42053648  0.57943881  1
  Al  Al82  1  0.07972581  0.92181229  0.08539529  1
  Al  Al83  1  0.08399368  0.90047779  0.57475971  1
  Al  Al84  1  0.58654213  0.42444312  0.08617209  1
  Al  Al85  1  0.58978044  0.41325601  0.57513300  1
  Al  Al86  1  0.58722554  0.91004540  0.07272280  1
  Al  Al87  1  0.58596874  0.92227716  0.59162799  1
  Al  Al88  1  0.41834607  0.08000884  0.07783201  1
  Al  Al89  1  0.42812683  0.08564950  0.57370999  1
  Al  Al90  1  0.41574248  0.57866035  0.08229867  1
  Al  Al91  1  0.40869033  0.58645602  0.57675655  1
  Al  Al92  1  0.92128442  0.08077024  0.07997062  1
  Al  Al93  1  0.90711495  0.08828677  0.57861089  1
  Al  Al94  1  0.91142848  0.57640036  0.08656530  1
  Al  Al95  1  0.91568785  0.58776857  0.58149283  1
  Al  Al96  1  0.25071479  0.13833715  0.13838774  1
  Al  Al97  1  0.24860607  0.13646010  0.63692049  1
  Al  Al98  1  0.24605056  0.63499774  0.13350104  1
  Al  Al99  1  0.24875465  0.63868086  0.62579260  1
  Al  Al100  1  0.74985623  0.13794079  0.13720413  1
  Al  Al101  1  0.74991975  0.13508409  0.63348021  1
  Al  Al102  1  0.75219186  0.63602140  0.13056012  1
  Al  Al103  1  0.75562159  0.63226111  0.63643540  1
  Al  Al104  1  0.24614818  0.36493925  0.13842758  1
  Al  Al105  1  0.24798924  0.36370737  0.62875663  1
  Al  Al106  1  0.25085957  0.86225071  0.13813104  1
  Al  Al107  1  0.25266239  0.86247203  0.63244253  1
  Al  Al108  1  0.75322873  0.36519191  0.13913095  1
  Al  Al109  1  0.75312087  0.36463856  0.63099283  1
  Al  Al110  1  0.74986116  0.86121995  0.12931099  1
  Al  Al111  1  0.74440337  0.86782373  0.63939555  1
  Al  Al112  1  0.25007687  0.13948795  0.36382606  1
  Al  Al113  1  0.25160433  0.13735663  0.86321200  1
  Al  Al114  1  0.24803649  0.63616226  0.37332872  1
  Al  Al115  1  0.24954947  0.63853412  0.86947507  1
  Al  Al116  1  0.75059619  0.14167086  0.37324812  1
  Al  Al117  1  0.74662081  0.13022299  0.86207747  1
  Al  Al118  1  0.75475116  0.63516295  0.36589579  1
  Al  Al119  1  0.74963077  0.63453513  0.86974206  1
  Al  Al120  1  0.24668671  0.36592694  0.37088410  1
  Al  Al121  1  0.24742168  0.36129751  0.86471102  1
  Al  Al122  1  0.24952452  0.86056644  0.37254705  1
  Al  Al123  1  0.24812463  0.86297391  0.86359763  1
  Al  Al124  1  0.75005110  0.36297114  0.37002036  1
  Al  Al125  1  0.74910782  0.36775541  0.86522421  1
  Al  Al126  1  0.75170298  0.86067767  0.36340871  1
  Al  Al127  1  0.74964478  0.86662785  0.86975769  1
  Al  Al128  1  0.12809672  0.25357092  0.13965611  1
  Al  Al129  1  0.13315543  0.25202344  0.63468372  1
  Al  Al130  1  0.13396813  0.74723568  0.13595578  1
  Al  Al131  1  0.13639102  0.75049772  0.62674706  1
  Al  Al132  1  0.63457018  0.25336494  0.13495405  1
  Al  Al133  1  0.64022814  0.25054203  0.62785518  1
  Al  Al134  1  0.63766287  0.74795644  0.12997388  1
  Al  Al135  1  0.63486112  0.74884303  0.63828941  1
  Al  Al136  1  0.12795500  0.25940934  0.36192584  1
  Al  Al137  1  0.12628819  0.25259759  0.86472632  1
  Al  Al138  1  0.13117448  0.74687929  0.36830578  1
  Al  Al139  1  0.13218333  0.74498552  0.86704813  1
  Al  Al140  1  0.63335080  0.25195832  0.37201355  1
  Al  Al141  1  0.63116238  0.24883471  0.86347036  1
  Al  Al142  1  0.63196182  0.74739888  0.36499928  1
  Al  Al143  1  0.63613167  0.75398066  0.86790018  1
  Al  Al144  1  0.36672298  0.25094655  0.13685708  1
  Al  Al145  1  0.36386399  0.25068845  0.63477663  1
  Al  Al146  1  0.36428738  0.74535897  0.13553203  1
  Al  Al147  1  0.36637822  0.74999650  0.63140356  1
  Al  Al148  1  0.87042566  0.25303202  0.13741168  1
  Al  Al149  1  0.86291428  0.25003416  0.63462773  1
  Al  Al150  1  0.86534531  0.74790402  0.12817851  1
  Al  Al151  1  0.86333731  0.74913463  0.63640538  1
  Al  Al152  1  0.36982584  0.25332162  0.36374481  1
  Al  Al153  1  0.36989831  0.25164118  0.86423542  1
  Al  Al154  1  0.36571867  0.74980290  0.36868436  1
  Al  Al155  1  0.36805470  0.74875547  0.86446440  1
  Al  Al156  1  0.86697967  0.25687446  0.36681980  1
  Al  Al157  1  0.86749110  0.25378549  0.86304400  1
  Al  Al158  1  0.87264939  0.74486344  0.36468676  1
  Al  Al159  1  0.86052968  0.74765814  0.87215105  1
  Al  Al160  1  0.13272832  0.13775542  0.25149775  1
  Al  Al161  1  0.13335870  0.13879691  0.75534183  1
  Al  Al162  1  0.13591022  0.63060596  0.25373097  1
  Al  Al163  1  0.13730575  0.63506406  0.74916661  1
  Al  Al164  1  0.63117301  0.14064425  0.25417888  1
  Al  Al165  1  0.63599166  0.13528516  0.74907570  1
  Al  Al166  1  0.63709254  0.63563374  0.25069784  1
  Al  Al167  1  0.63748526  0.63321101  0.75435907  1
  Al  Al168  1  0.37055965  0.13674097  0.25219815  1
  Al  Al169  1  0.36994402  0.13637371  0.75488605  1
  Al  Al170  1  0.36537738  0.63784713  0.25296910  1
  Al  Al171  1  0.36546505  0.63728081  0.74857436  1
  Al  Al172  1  0.86379967  0.13835495  0.25242873  1
  Al  Al173  1  0.86411968  0.13551484  0.75496923  1
  Al  Al174  1  0.86454822  0.63356691  0.24870589  1
  Al  Al175  1  0.86421808  0.63224550  0.75575965  1
  Al  Al176  1  0.13385590  0.37177596  0.24918500  1
  Al  Al177  1  0.13402325  0.36632292  0.75183714  1
  Al  Al178  1  0.13568563  0.86195965  0.25751924  1
  Al  Al179  1  0.13585274  0.86061359  0.74808958  1
  Al  Al180  1  0.63476130  0.36416164  0.25678523  1
  Al  Al181  1  0.63628270  0.36692991  0.75351264  1
  Al  Al182  1  0.63723557  0.86145303  0.25039845  1
  Al  Al183  1  0.63423900  0.86673321  0.75599048  1
  Al  Al184  1  0.36508706  0.36453753  0.25254481  1
  Al  Al185  1  0.36585483  0.36529098  0.75210799  1
  Al  Al186  1  0.36328149  0.86480410  0.25544824  1
  Al  Al187  1  0.36702288  0.86252762  0.75311005  1
  Al  Al188  1  0.86787456  0.36447276  0.25006367  1
  Al  Al189  1  0.86167791  0.36992496  0.75103885  1
  Al  Al190  1  0.86337558  0.86179413  0.25063074  1
  Al  Al191  1  0.86088375  0.86838549  0.75043459  1
  Al  Al192  1  0.17028465  0.32797766  0.00265911  1
  Al  Al193  1  0.33306242  -0.00022678  0.66977558  1
  Al  Al194  1  0.82716708  -0.00044529  0.17294160  1
  Al  Al195  1  -0.00059921  0.68035217  0.68820971  1
  Al  Al196  1  0.16975167  0.00254089  0.83028070  1
  Al  Al197  1  0.83057249  0.00109468  0.32819515  1
  Al  Al198  1  0.67884115  0.00067995  0.32354168  1
  Al  Al199  1  0.17267146  0.17939835  0.49817434  1
  Al  Al200  1  0.50349545  0.66898635  0.17567780  1
  Al  Al201  1  0.32793865  0.81943599  -0.00078552  1
  Al  Al202  1  0.17316115  0.17549462  0.00090916  1
  Al  Al203  1  0.18018380  -0.00013978  0.18319886  1
  Al  Al204  1  0.16961845  0.82442499  0.00260893  1
  Al  Al205  1  0.82385315  0.32841586  0.00126186  1
  Al  Al206  1  0.32453145  0.32810269  0.00145355  1
  Al  Al207  1  0.82537566  0.81224187  0.49897602  1
  Al  Al208  1  0.69207221  0.50087336  0.18314213  1
  Al  Al209  1  0.69031420  0.67709468  0.50122807  1
  Al  Al210  1  0.50313524  0.17842373  0.67587189  1
  Al  Al211  1  0.81927367  0.49899819  0.31262638  1
  Al  Al212  1  0.31855994  0.50077457  0.82582897  1
  Al  Al213  1  0.50169922  0.32287038  0.67544908  1
  Al  Al214  1  0.67357993  -0.00188814  0.16928770  1
  Al  Al215  1  -0.00012512  0.82529408  0.18155900  1
  Al  Al216  1  0.50049974  0.32417134  0.18294523  1
  Al  Al217  1  0.82141269  0.00134910  0.67856166  1
  Al  Al218  1  0.67434100  0.17605158  -0.00203112  1
  Al  Al219  1  0.32060958  -0.00052021  0.32220874  1
  Al  Al220  1  -0.00223348  0.17953228  0.32146539  1
  Al  Al221  1  0.16740123  -0.00075736  0.67106460  1
  Al  Al222  1  0.32687300  0.17536330  -0.00119117  1
  Al  Al223  1  0.50266950  0.82152412  0.68268412  1
  Al  Al224  1  0.32198683  0.50009250  0.32338490  1
  Al  Al225  1  0.31393016  0.50018865  0.17436249  1
  Al  Al226  1  -0.00060064  0.67019753  0.18269760  1
  Al  Al227  1  0.32658839  0.49983274  0.67198948  1
  Al  Al228  1  -0.00174307  0.16824099  0.68294928  1
  Al  Al229  1  -0.00358334  0.80772739  0.81719971  1
  Al  Al230  1  0.50564048  0.68236835  0.82185065  1
  Al  Al231  1  0.68109994  0.50048087  0.67463007  1
  Al  Al232  1  0.67035897  0.82886322  0.50141511  1
  Al  Al233  1  -0.00269700  0.32666248  0.68271995  1
  Al  Al234  1  0.17044348  0.50011263  0.67738051  1
  Al  Al235  1  0.50077353  0.82667550  0.17928737  1
  Al  Al236  1  0.32831750  -0.00119551  0.83169909  1
  Al  Al237  1  0.32534716  0.17910376  0.49917337  1
  Al  Al238  1  0.83031938  0.17463711  -0.00063325  1
  Au  Au239  1  0.15649974  0.32733140  0.49892714  1
  Au  Au240  1  -0.00349385  0.33149400  0.83326694  1
  Au  Au241  1  0.32643665  0.00021735  0.33323797  1
  Au  Au242  1  -0.00051931  0.17657304  0.16486452  1
  Au  Au243  1  0.50275266  0.67407480  0.83124465  1
  Au  Au244  1  0.17038065  0.50108739  0.84033270  1
  Au  Au245  1  0.82366354  0.00172235  0.83389072  1
  Au  Au246  1  0.50298637  0.16610292  0.67927229  1
  Au  Au247  1  0.16257284  -0.00266656  0.65438235  1
  Au  Au248  1  0.33438937  0.66975612  0.00048839  1
  Au  Au249  1  0.67491836  0.33931592  0.00279010  1
  Au  Au250  1  0.33255566  0.50068248  0.33210483  1
  Au  Au251  1  0.33694016  -0.00066203  0.65334778  1
  Au  Au252  1  0.50042274  0.33910696  0.17520580  1
  Au  Au253  1  0.66903703  0.16345846  -0.00253720  1
  Au  Au254  1  -0.00242348  0.17491217  0.66719836  1
  Au  Au255  1  0.00019174  0.82440599  0.33154638  1
  Au  Au256  1  0.49973793  0.32587191  0.84034515  1
  Au  Au257  1  0.50229178  0.83370797  0.67644181  1
  Au  Au258  1  0.82207004  0.82477313  0.50027167  1
  Au  Au259  1  0.50273755  0.33224869  0.66747705  1
  Au  Au260  1  0.15865489  -0.00183440  0.83398844  1
  Au  Au261  1  0.66830711  0.00127552  0.33352037  1
  Au  Au262  1  0.33728753  0.32796118  0.49796512  1
  Au  Au263  1  0.17262711  0.83692647  0.00180884  1
  Au  Au264  1  0.81884756  -0.00049570  0.66612460  1
  Au  Au265  1  0.16481973  -0.00076062  0.33185596  1
  Au  Au266  1  0.50000986  0.17873508  0.33780990  1
  Au  Au267  1  0.33814320  -0.00108462  0.83943016  1
  Au  Au268  1  0.67683331  0.49539524  0.66422065  1
  Au  Au269  1  0.67078044  0.49710480  0.33041402  1
  Au  Au270  1  0.17317398  0.50097412  0.66487208  1
  Au  Au271  1  0.82448763  0.83139151  0.00059369  1
  Au  Au272  1  0.49959806  0.83474115  0.32992730  1
  Au  Au273  1  -0.00017288  0.82650472  0.67126220  1
  Au  Au274  1  0.50386730  0.67176765  0.16315913  1
  Au  Au275  1  0.16350869  0.66163490  0.00093169  1
  Au  Au276  1  0.49770371  0.66125566  0.66608107  1
  Au  Au277  1  0.15832234  0.50040614  0.32371815  1
  Au  Au278  1  0.67808707  0.17467934  0.50257177  1
  Au  Au279  1  0.67813212  0.50329122  0.83867425  1
  Au  Au280  1  0.16876572  0.67448029  0.49801600  1
  Au  Au281  1  0.82435664  0.66186713  -0.00051868  1
  Au  Au282  1  0.50027051  0.66840350  0.34016691  1
  Au  Au283  1  -0.00348975  0.18260342  0.33393215  1
  Au  Au284  1  0.50127330  0.16080194  0.17015431  1
  Au  Au285  1  -0.00059852  0.66155898  0.17124987  1
  Au  Au286  1  0.32710231  -0.00336578  0.15837357  1
  Au  Au287  1  0.83666589  0.50100503  0.67138495  1
