# generated using pymatgen
data_Ca24Ti8Al207Au49
_symmetry_space_group_name_H-M   'P 1'
_cell_length_a   17.32126811
_cell_length_b   17.32177701
_cell_length_c   17.32178171
_cell_angle_alpha   90.00025910
_cell_angle_beta   90.00184234
_cell_angle_gamma   89.99810673
_symmetry_Int_Tables_number   1
_chemical_formula_structural   Ca24Ti8Al207Au49
_chemical_formula_sum   'Ca24 Ti8 Al207 Au49'
_cell_volume   5197.14325926
_cell_formula_units_Z   1
loop_
 _symmetry_equiv_pos_site_id
 _symmetry_equiv_pos_as_xyz
  1  'x, y, z'
loop_
 _atom_site_type_symbol
 _atom_site_label
 _atom_site_symmetry_multiplicity
 _atom_site_fract_x
 _atom_site_fract_y
 _atom_site_fract_z
 _atom_site_occupancy
  Ca  Ca0  1  0.25000610  0.00718123  -0.00159467  1
  Ca  Ca1  1  0.25067815  0.00099393  0.50248049  1
  Ca  Ca2  1  0.24859074  0.49498411  0.00383552  1
  Ca  Ca3  1  0.25139738  0.49749668  0.49635470  1
  Ca  Ca4  1  0.74782173  0.00236195  0.00469593  1
  Ca  Ca5  1  0.75003833  -0.00635338  0.49664734  1
  Ca  Ca6  1  0.75134306  0.49732160  0.00066383  1
  Ca  Ca7  1  0.75072558  0.50410574  0.49955235  1
  Ca  Ca8  1  0.00071967  0.24796814  0.00091920  1
  Ca  Ca9  1  0.00571078  0.24899742  0.49938604  1
  Ca  Ca10  1  0.00162468  0.75196351  0.00073215  1
  Ca  Ca11  1  -0.00139093  0.75287939  0.49954031  1
  Ca  Ca12  1  0.49920711  0.24852819  0.00248049  1
  Ca  Ca13  1  0.49590792  0.24506887  0.49567953  1
  Ca  Ca14  1  0.49905752  0.75254999  -0.00146192  1
  Ca  Ca15  1  0.50134514  0.74836990  0.49981078  1
  Ca  Ca16  1  -0.00373898  -0.00031734  0.24812958  1
  Ca  Ca17  1  0.00160901  -0.00044716  0.74715815  1
  Ca  Ca18  1  0.00194195  0.50192267  0.24681256  1
  Ca  Ca19  1  0.00256376  0.50052588  0.74768307  1
  Ca  Ca20  1  0.50343971  0.00479536  0.24864838  1
  Ca  Ca21  1  0.49884837  0.00132902  0.74944356  1
  Ca  Ca22  1  0.49750303  0.49840582  0.25049707  1
  Ca  Ca23  1  0.49912647  0.50395446  0.74933586  1
  Ti  Ti24  1  0.25078989  0.24966126  0.24924552  1
  Ti  Ti25  1  0.25116861  0.24955534  0.75023526  1
  Ti  Ti26  1  0.25158255  0.74923148  0.25139066  1
  Ti  Ti27  1  0.24836840  0.75088113  0.74817536  1
  Ti  Ti28  1  0.74944109  0.25051815  0.24905461  1
  Ti  Ti29  1  0.74830847  0.25171514  0.75220379  1
  Ti  Ti30  1  0.74846421  0.75114225  0.25216067  1
  Ti  Ti31  1  0.75048332  0.74959999  0.74761338  1
  Al  Al32  1  0.08213730  0.08934590  0.08027878  1
  Al  Al33  1  0.10228608  0.08273864  0.58554202  1
  Al  Al34  1  0.10058327  0.58459907  0.08722278  1
  Al  Al35  1  0.09164824  0.57571574  0.58533888  1
  Al  Al36  1  0.58953346  0.09146498  0.09168844  1
  Al  Al37  1  0.57305172  0.07571714  0.58021896  1
  Al  Al38  1  0.57574847  0.57562212  0.08316871  1
  Al  Al39  1  0.58954370  0.58422899  0.57789070  1
  Al  Al40  1  0.40404215  0.40989099  0.08831960  1
  Al  Al41  1  0.41764346  0.41571579  0.57733691  1
  Al  Al42  1  0.42596302  0.92571209  0.08181198  1
  Al  Al43  1  0.41165033  0.92215963  0.58976563  1
  Al  Al44  1  0.91709018  0.41790276  0.08387928  1
  Al  Al45  1  0.91679694  0.42745145  0.58707603  1
  Al  Al46  1  0.91252953  0.92269091  0.09146842  1
  Al  Al47  1  0.92178400  0.91017089  0.58796167  1
  Al  Al48  1  0.41587645  0.09172232  0.41890655  1
  Al  Al49  1  0.41489628  0.08070556  0.92034631  1
  Al  Al50  1  0.40767625  0.58414536  0.41403454  1
  Al  Al51  1  0.41977205  0.57997003  0.91593300  1
  Al  Al52  1  0.91603483  0.07689397  0.41407565  1
  Al  Al53  1  0.92227775  0.08583240  0.92978864  1
  Al  Al54  1  0.90054110  0.58688835  0.41844366  1
  Al  Al55  1  0.91465586  0.57680765  0.92346415  1
  Al  Al56  1  0.08693968  0.41504386  0.41910533  1
  Al  Al57  1  0.08539896  0.41975733  0.92143062  1
  Al  Al58  1  0.07321067  0.92674522  0.42590008  1
  Al  Al59  1  0.08622163  0.91673285  0.91909526  1
  Al  Al60  1  0.57667442  0.42137781  0.40601651  1
  Al  Al61  1  0.58505544  0.41973257  0.92354304  1
  Al  Al62  1  0.58651898  0.91707733  0.40387804  1
  Al  Al63  1  0.58140611  0.91494651  0.91513792  1
  Al  Al64  1  0.08927714  0.08972404  0.42450708  1
  Al  Al65  1  0.08974587  0.08671813  0.92180308  1
  Al  Al66  1  0.08369860  0.57634633  0.41918528  1
  Al  Al67  1  0.09322228  0.58456859  0.92601442  1
  Al  Al68  1  0.57766303  0.07936508  0.40156451  1
  Al  Al69  1  0.58868988  0.08169165  0.92842698  1
  Al  Al70  1  0.59003058  0.58410843  0.41593611  1
  Al  Al71  1  0.57631086  0.57962865  0.91111456  1
  Al  Al72  1  0.41442726  0.41427829  0.41100063  1
  Al  Al73  1  0.40858282  0.41652778  0.92808192  1
  Al  Al74  1  0.42665737  0.91263069  0.41460715  1
  Al  Al75  1  0.42271775  0.91697083  0.90588010  1
  Al  Al76  1  0.91464731  0.42694059  0.41131103  1
  Al  Al77  1  0.91824157  0.41877645  0.91776553  1
  Al  Al78  1  0.91101804  0.91859745  0.41743238  1
  Al  Al79  1  0.92264063  0.91601638  0.92399494  1
  Al  Al80  1  0.09335267  0.42142829  0.08828523  1
  Al  Al81  1  0.09262383  0.41614537  0.58280253  1
  Al  Al82  1  0.07787009  0.91687018  0.07758671  1
  Al  Al83  1  0.08364018  0.92160081  0.59707489  1
  Al  Al84  1  0.57874784  0.41166120  0.08539588  1
  Al  Al85  1  0.57816612  0.42313127  0.58681136  1
  Al  Al86  1  0.58818951  0.92474193  0.08674187  1
  Al  Al87  1  0.57829989  0.91533022  0.58070853  1
  Al  Al88  1  0.42503853  0.09458718  0.08690535  1
  Al  Al89  1  0.39932566  0.08567079  0.58205970  1
  Al  Al90  1  0.40944975  0.57215774  0.08949833  1
  Al  Al91  1  0.41096827  0.58655331  0.57303495  1
  Al  Al92  1  0.90922481  0.08440954  0.09001394  1
  Al  Al93  1  0.92326441  0.07105498  0.57486659  1
  Al  Al94  1  0.91862466  0.58063537  0.08192204  1
  Al  Al95  1  0.90066481  0.58642933  0.58138229  1
  Al  Al96  1  0.25222155  0.13680881  0.12970682  1
  Al  Al97  1  0.25155859  0.13216258  0.63191401  1
  Al  Al98  1  0.25116317  0.63036229  0.13626716  1
  Al  Al99  1  0.25010645  0.63519890  0.63353407  1
  Al  Al100  1  0.74781358  0.13603905  0.13514935  1
  Al  Al101  1  0.74499623  0.13512480  0.63723235  1
  Al  Al102  1  0.74970425  0.62800405  0.13960943  1
  Al  Al103  1  0.75184173  0.62997573  0.63422708  1
  Al  Al104  1  0.25284171  0.36516702  0.13262635  1
  Al  Al105  1  0.24865858  0.36784705  0.63340920  1
  Al  Al106  1  0.25026013  0.86682780  0.13915202  1
  Al  Al107  1  0.24891756  0.86849349  0.63228856  1
  Al  Al108  1  0.74680939  0.36702603  0.13041011  1
  Al  Al109  1  0.75040888  0.37481203  0.63663687  1
  Al  Al110  1  0.75332095  0.86646921  0.13844697  1
  Al  Al111  1  0.75082687  0.86223458  0.62816550  1
  Al  Al112  1  0.25212426  0.13548610  0.36861358  1
  Al  Al113  1  0.25178749  0.13509215  0.87088777  1
  Al  Al114  1  0.25400164  0.63453523  0.36719079  1
  Al  Al115  1  0.24372132  0.63639489  0.86572138  1
  Al  Al116  1  0.74513654  0.12458142  0.35619352  1
  Al  Al117  1  0.74605217  0.13616868  0.86746218  1
  Al  Al118  1  0.75093247  0.63547271  0.36492980  1
  Al  Al119  1  0.75203177  0.63640447  0.86220911  1
  Al  Al120  1  0.25080575  0.36415204  0.36344508  1
  Al  Al121  1  0.25139615  0.36396448  0.86795726  1
  Al  Al122  1  0.25261116  0.86765196  0.36557018  1
  Al  Al123  1  0.24664746  0.86545313  0.86189146  1
  Al  Al124  1  0.75070630  0.36277623  0.36386336  1
  Al  Al125  1  0.74783250  0.36414457  0.87041322  1
  Al  Al126  1  0.74799371  0.86918426  0.36775162  1
  Al  Al127  1  0.75232485  0.86421209  0.86311621  1
  Al  Al128  1  0.13678191  0.24977687  0.13498777  1
  Al  Al129  1  0.14005962  0.24702033  0.63392437  1
  Al  Al130  1  0.13903304  0.74413426  0.13718066  1
  Al  Al131  1  0.13423850  0.75441795  0.63381215  1
  Al  Al132  1  0.63115538  0.24766727  0.13123449  1
  Al  Al133  1  0.63481681  0.25067056  0.63514999  1
  Al  Al134  1  0.63670430  0.75235749  0.13774111  1
  Al  Al135  1  0.63568147  0.75163823  0.63401428  1
  Al  Al136  1  0.13458572  0.24848208  0.36393235  1
  Al  Al137  1  0.13768408  0.24867016  0.86474047  1
  Al  Al138  1  0.13832233  0.74682568  0.36688725  1
  Al  Al139  1  0.13397147  0.75147315  0.86029326  1
  Al  Al140  1  0.63367672  0.24723315  0.36219715  1
  Al  Al141  1  0.63439077  0.24723946  0.87293122  1
  Al  Al142  1  0.62944459  0.75132392  0.36334000  1
  Al  Al143  1  0.63453935  0.75406398  0.86333109  1
  Al  Al144  1  0.36633184  0.24943210  0.13071796  1
  Al  Al145  1  0.35914799  0.24663941  0.62651120  1
  Al  Al146  1  0.36794340  0.74992270  0.13883074  1
  Al  Al147  1  0.36246510  0.75060239  0.63451600  1
  Al  Al148  1  0.86309918  0.25289340  0.13740565  1
  Al  Al149  1  0.85799269  0.25335638  0.63540521  1
  Al  Al150  1  0.86312870  0.74804847  0.14145467  1
  Al  Al151  1  0.86341702  0.74872094  0.62888844  1
  Al  Al152  1  0.36326755  0.24840937  0.36769247  1
  Al  Al153  1  0.36536607  0.24594010  0.86998754  1
  Al  Al154  1  0.36962533  0.74780999  0.36462247  1
  Al  Al155  1  0.36327840  0.75266866  0.86392449  1
  Al  Al156  1  0.86691402  0.24942810  0.35988458  1
  Al  Al157  1  0.86439849  0.25105114  0.86468160  1
  Al  Al158  1  0.85925367  0.75083010  0.37095661  1
  Al  Al159  1  0.86589293  0.75298055  0.86281850  1
  Al  Al160  1  0.13871197  0.13415227  0.25144818  1
  Al  Al161  1  0.14132470  0.13224042  0.74551079  1
  Al  Al162  1  0.13857059  0.62704668  0.24864942  1
  Al  Al163  1  0.13459769  0.62967100  0.74616020  1
  Al  Al164  1  0.62929756  0.13750001  0.24743903  1
  Al  Al165  1  0.62840968  0.13893586  0.75028582  1
  Al  Al166  1  0.62942550  0.63630938  0.25174412  1
  Al  Al167  1  0.63660897  0.63649480  0.74756438  1
  Al  Al168  1  0.36785683  0.13843566  0.25041311  1
  Al  Al169  1  0.36612593  0.13489920  0.74802684  1
  Al  Al170  1  0.36789894  0.63400951  0.25017250  1
  Al  Al171  1  0.36163923  0.63595504  0.75172312  1
  Al  Al172  1  0.86094852  0.12729634  0.24835219  1
  Al  Al173  1  0.86098104  0.13791076  0.74984706  1
  Al  Al174  1  0.86317379  0.62977355  0.25311756  1
  Al  Al175  1  0.86768440  0.63430532  0.74373540  1
  Al  Al176  1  0.13812885  0.36895638  0.24820125  1
  Al  Al177  1  0.13997913  0.36939697  0.75116058  1
  Al  Al178  1  0.13566212  0.86490707  0.24970784  1
  Al  Al179  1  0.13159921  0.86985237  0.74532396  1
  Al  Al180  1  0.63234322  0.36321970  0.24478830  1
  Al  Al181  1  0.63464521  0.36301322  0.75048767  1
  Al  Al182  1  0.63100602  0.86931362  0.25515329  1
  Al  Al183  1  0.63636100  0.86555649  0.74763724  1
  Al  Al184  1  0.36475592  0.36308667  0.24565783  1
  Al  Al185  1  0.36069821  0.36276669  0.74778153  1
  Al  Al186  1  0.36957509  0.86646517  0.25502560  1
  Al  Al187  1  0.35952927  0.87007350  0.74790801  1
  Al  Al188  1  0.86334343  0.37226562  0.24902556  1
  Al  Al189  1  0.86486027  0.36450447  0.74978091  1
  Al  Al190  1  0.86255405  0.86905510  0.25326183  1
  Al  Al191  1  0.87106892  0.86118770  0.74509822  1
  Al  Al192  1  0.67552194  0.67454454  -0.00115559  1
  Al  Al193  1  -0.00186812  0.32467264  0.32069068  1
  Al  Al194  1  0.17532368  -0.00026636  0.17189762  1
  Al  Al195  1  0.68124303  0.82881216  0.00105275  1
  Al  Al196  1  0.68657161  0.49983153  0.31919701  1
  Al  Al197  1  0.49794739  0.32641300  0.82979370  1
  Al  Al198  1  0.18329605  0.31332584  0.49882607  1
  Al  Al199  1  -0.00121734  0.17964802  0.18084467  1
  Al  Al200  1  -0.00012981  0.82809910  0.32733337  1
  Al  Al201  1  0.32073718  0.50106341  0.67095315  1
  Al  Al202  1  0.81459974  0.18021792  0.00156255  1
  Al  Al203  1  0.49660334  0.31845265  0.67388919  1
  Al  Al204  1  0.32284627  0.81736078  0.49818683  1
  Al  Al205  1  0.82781385  0.49987618  0.81746239  1
  Al  Al206  1  0.82442871  0.00034795  0.82569782  1
  Al  Al207  1  0.67528325  0.49980684  0.82110098  1
  Al  Al208  1  0.00271099  0.32857713  0.67323787  1
  Al  Al209  1  0.00013052  0.82161056  0.17438872  1
  Al  Al210  1  0.32927294  0.83037767  0.00020231  1
  Al  Al211  1  0.49754081  0.82609108  0.68821513  1
  Al  Al212  1  0.66732586  0.32875776  0.49745121  1
  Al  Al213  1  0.00151651  0.17321704  0.82694946  1
  Al  Al214  1  0.49865906  0.67060274  0.66903243  1
  Al  Al215  1  0.18157040  0.00224137  0.82415851  1
  Al  Al216  1  0.00252051  0.32742830  0.82709328  1
  Al  Al217  1  0.31942644  0.49880164  0.31210405  1
  Al  Al218  1  0.50210442  0.82103016  0.17644227  1
  Al  Al219  1  0.81970133  -0.00160570  0.67149518  1
  Al  Al220  1  -0.00213918  0.17642043  0.67122997  1
  Al  Al221  1  0.17465171  0.81355712  0.00104962  1
  Al  Al222  1  0.67189397  0.00111179  0.82005233  1
  Al  Al223  1  0.31669385  0.66938821  0.00004198  1
  Al  Al224  1  0.00036373  0.67845515  0.66710339  1
  Al  Al225  1  0.49898366  0.68775407  0.82152850  1
  Al  Al226  1  -0.00128684  0.67208678  0.32413278  1
  Al  Al227  1  0.82581686  0.68163013  0.00170428  1
  Al  Al228  1  0.82797634  0.17342450  0.49905438  1
  Al  Al229  1  0.49803513  0.31243267  0.31750522  1
  Al  Al230  1  0.32740325  -0.00077206  0.32566760  1
  Al  Al231  1  0.18513349  0.31348012  0.00015158  1
  Al  Al232  1  0.67017409  0.16834816  0.49494394  1
  Al  Al233  1  0.82819605  0.32965077  0.50237645  1
  Al  Al234  1  0.31811410  0.49952948  0.82686959  1
  Al  Al235  1  0.17879364  0.67553042  0.49968902  1
  Al  Al236  1  0.00002448  0.67428299  0.83146392  1
  Al  Al237  1  0.68945522  0.00127634  0.19027696  1
  Al  Al238  1  0.68865933  0.68287219  0.49928717  1
  Au  Au239  1  0.00210440  0.83873304  0.82299391  1
  Au  Au240  1  0.32455717  0.84640106  -0.00227745  1
  Au  Au241  1  0.33090215  0.17320573  0.00152561  1
  Au  Au242  1  0.32100554  0.65360308  -0.00043336  1
  Au  Au243  1  0.49292208  0.17031847  0.65943445  1
  Au  Au244  1  0.66541045  0.49790858  0.17399679  1
  Au  Au245  1  0.33710670  0.82638846  0.49895460  1
  Au  Au246  1  0.67319556  0.50261925  0.67289429  1
  Au  Au247  1  0.66256337  0.82883818  0.49410002  1
  Au  Au248  1  0.49629444  0.66544626  0.16985900  1
  Au  Au249  1  0.00076377  0.16044933  0.66828751  1
  Au  Au250  1  0.16857799  0.50093994  0.82789342  1
  Au  Au251  1  0.49363981  0.34236860  0.82926310  1
  Au  Au252  1  0.00464232  0.67259469  0.15644575  1
  Au  Au253  1  0.49578643  0.32275909  0.17024802  1
  Au  Au254  1  0.83758431  0.00465593  0.83502968  1
  Au  Au255  1  0.00089881  0.16026097  0.32900369  1
  Au  Au256  1  0.17253201  0.49784712  0.32372303  1
  Au  Au257  1  0.83486670  0.32639900  -0.00118403  1
  Au  Au258  1  0.82044697  -0.00149442  0.32245493  1
  Au  Au259  1  0.50469541  0.16200653  0.83661182  1
  Au  Au260  1  0.00007487  0.66952145  0.84653284  1
  Au  Au261  1  0.17952707  0.66287787  0.49735119  1
  Au  Au262  1  0.33979584  0.00697343  0.17053221  1
  Au  Au263  1  0.33597244  0.00166144  0.33438631  1
  Au  Au264  1  -0.00558072  0.67335626  0.34029749  1
  Au  Au265  1  0.83281407  0.83213142  0.00614788  1
  Au  Au266  1  0.83479952  0.50121650  0.17675834  1
  Au  Au267  1  0.67400191  0.15306745  0.49205906  1
  Au  Au268  1  -0.00002584  0.66928060  0.65370425  1
  Au  Au269  1  0.15776296  0.83500272  0.50358646  1
  Au  Au270  1  0.16642199  0.00132640  0.16318354  1
  Au  Au271  1  0.50288898  0.83351908  0.17414290  1
  Au  Au272  1  0.00033541  0.33325942  0.32950443  1
  Au  Au273  1  0.49921421  0.67279532  0.34054624  1
  Au  Au274  1  0.83532147  0.82382949  0.50177603  1
  Au  Au275  1  0.66669063  0.32219665  0.00157735  1
  Au  Au276  1  0.66249705  0.66445510  -0.00161348  1
  Au  Au277  1  0.33534269  0.00178547  0.81768586  1
  Au  Au278  1  0.33298114  0.50073403  0.66729261  1
  Au  Au279  1  0.66372479  0.34013193  0.50159383  1
  Au  Au280  1  0.83917283  0.33349252  0.49781012  1
  Au  Au281  1  0.33051388  0.32280388  0.49697253  1
  Au  Au282  1  0.66783616  -0.00050065  0.66863139  1
  Au  Au283  1  0.00324806  0.32949558  0.16473554  1
  Au  Au284  1  0.17546632  0.32724379  0.00127375  1
  Au  Au285  1  0.17004007  -0.00143375  0.33806444  1
  Au  Au286  1  0.16905823  0.00113494  0.82208273  1
  Au  Au287  1  0.49821209  0.82267107  0.67560608  1
