# generated using pymatgen
data_Ca24Ti8Al207Au49
_symmetry_space_group_name_H-M   'P 1'
_cell_length_a   17.31921210
_cell_length_b   17.32057184
_cell_length_c   17.32071273
_cell_angle_alpha   89.99784132
_cell_angle_beta   89.99758906
_cell_angle_gamma   90.00493877
_symmetry_Int_Tables_number   1
_chemical_formula_structural   Ca24Ti8Al207Au49
_chemical_formula_sum   'Ca24 Ti8 Al207 Au49'
_cell_volume   5195.84412414
_cell_formula_units_Z   1
loop_
 _symmetry_equiv_pos_site_id
 _symmetry_equiv_pos_as_xyz
  1  'x, y, z'
loop_
 _atom_site_type_symbol
 _atom_site_label
 _atom_site_symmetry_multiplicity
 _atom_site_fract_x
 _atom_site_fract_y
 _atom_site_fract_z
 _atom_site_occupancy
  Ca  Ca0  1  0.25291380  -0.00463672  -0.00415773  1
  Ca  Ca1  1  0.25760468  -0.00538247  0.50378949  1
  Ca  Ca2  1  0.25106491  0.50141063  -0.00056740  1
  Ca  Ca3  1  0.25423771  0.50166529  0.50349257  1
  Ca  Ca4  1  0.74947174  -0.00459387  0.00316788  1
  Ca  Ca5  1  0.74677257  -0.00399071  0.49602102  1
  Ca  Ca6  1  0.74413618  0.50432254  0.00117014  1
  Ca  Ca7  1  0.73972335  0.50225591  0.49823827  1
  Ca  Ca8  1  0.00543070  0.25829406  -0.00117859  1
  Ca  Ca9  1  0.00277850  0.25363825  0.49858187  1
  Ca  Ca10  1  0.00083077  0.75026635  -0.00163446  1
  Ca  Ca11  1  0.00397300  0.75307664  0.50351166  1
  Ca  Ca12  1  0.49422633  0.25463134  0.00006779  1
  Ca  Ca13  1  0.49550834  0.24850287  0.50480026  1
  Ca  Ca14  1  0.50067160  0.74944812  0.00272552  1
  Ca  Ca15  1  0.49783446  0.74969259  0.49767832  1
  Ca  Ca16  1  -0.00381352  0.00033010  0.24849580  1
  Ca  Ca17  1  0.00429436  -0.00461328  0.75123468  1
  Ca  Ca18  1  0.00260416  0.50205247  0.24659851  1
  Ca  Ca19  1  0.00545508  0.50178065  0.75122935  1
  Ca  Ca20  1  0.50556891  -0.00434979  0.25409730  1
  Ca  Ca21  1  0.49647532  -0.00058193  0.74437962  1
  Ca  Ca22  1  0.49964535  0.50387380  0.24658047  1
  Ca  Ca23  1  0.49674469  0.49934695  0.74501903  1
  Ti  Ti24  1  0.25175882  0.25284485  0.24944679  1
  Ti  Ti25  1  0.25326512  0.25023807  0.74969162  1
  Ti  Ti26  1  0.25154315  0.74977963  0.25191243  1
  Ti  Ti27  1  0.25264741  0.74986387  0.74929128  1
  Ti  Ti28  1  0.74729097  0.25123871  0.25112022  1
  Ti  Ti29  1  0.74670613  0.24981365  0.74870143  1
  Ti  Ti30  1  0.74831987  0.74954261  0.24950108  1
  Ti  Ti31  1  0.74837660  0.75058404  0.74932690  1
  Al  Al32  1  0.07767908  0.08461477  0.07120680  1
  Al  Al33  1  0.08782399  0.07644520  0.58236114  1
  Al  Al34  1  0.09057725  0.57932138  0.08118747  1
  Al  Al35  1  0.09872046  0.58888061  0.58987421  1
  Al  Al36  1  0.58673886  0.07250460  0.09025574  1
  Al  Al37  1  0.57905918  0.09128138  0.57376838  1
  Al  Al38  1  0.58883626  0.59038894  0.08946172  1
  Al  Al39  1  0.58189416  0.59120674  0.57489251  1
  Al  Al40  1  0.40405102  0.41930755  0.08201927  1
  Al  Al41  1  0.40923958  0.40981311  0.59105351  1
  Al  Al42  1  0.41788142  0.90742213  0.07900749  1
  Al  Al43  1  0.40877287  0.90983317  0.58819852  1
  Al  Al44  1  0.92443214  0.41671236  0.09322301  1
  Al  Al45  1  0.92542104  0.42095552  0.57741142  1
  Al  Al46  1  0.91741516  0.91704630  0.08149003  1
  Al  Al47  1  0.92528014  0.91327828  0.59014180  1
  Al  Al48  1  0.41849883  0.08089077  0.42994896  1
  Al  Al49  1  0.41377396  0.08743784  0.90842076  1
  Al  Al50  1  0.42164586  0.59207568  0.41044228  1
  Al  Al51  1  0.41609703  0.58105980  0.91499470  1
  Al  Al52  1  0.90718903  0.07787291  0.41975834  1
  Al  Al53  1  0.92619654  0.07227588  0.91897970  1
  Al  Al54  1  0.91983715  0.57857917  0.42337530  1
  Al  Al55  1  0.91485170  0.58952122  0.91973374  1
  Al  Al56  1  0.08398006  0.42240256  0.41785895  1
  Al  Al57  1  0.08765124  0.42170474  0.91583756  1
  Al  Al58  1  0.08099255  0.91374522  0.42383899  1
  Al  Al59  1  0.08870801  0.90285766  0.90852034  1
  Al  Al60  1  0.58259734  0.42599427  0.42185955  1
  Al  Al61  1  0.57301866  0.42222073  0.92170788  1
  Al  Al62  1  0.58312028  0.91210323  0.40447339  1
  Al  Al63  1  0.57481046  0.91413825  0.92524666  1
  Al  Al64  1  0.08293183  0.07908862  0.42610040  1
  Al  Al65  1  0.08716206  0.07692462  0.91633168  1
  Al  Al66  1  0.09318655  0.58667445  0.42761431  1
  Al  Al67  1  0.08674101  0.58473640  0.91452832  1
  Al  Al68  1  0.59708662  0.07570516  0.41393910  1
  Al  Al69  1  0.56930621  0.08694164  0.91440110  1
  Al  Al70  1  0.58520701  0.59669596  0.41116473  1
  Al  Al71  1  0.58445583  0.59094140  0.92557514  1
  Al  Al72  1  0.41214834  0.41958647  0.42566059  1
  Al  Al73  1  0.40910795  0.41322865  0.91862836  1
  Al  Al74  1  0.42146749  0.90513870  0.42423177  1
  Al  Al75  1  0.40941426  0.91287648  0.91594440  1
  Al  Al76  1  0.92011179  0.41928632  0.41728270  1
  Al  Al77  1  0.92675509  0.42625505  0.91964477  1
  Al  Al78  1  0.91845127  0.91991148  0.41673116  1
  Al  Al79  1  0.92620818  0.90916694  0.90885730  1
  Al  Al80  1  0.08657970  0.41487159  0.08988308  1
  Al  Al81  1  0.09059181  0.42746774  0.59120605  1
  Al  Al82  1  0.08781023  0.90455278  0.07019681  1
  Al  Al83  1  0.08628919  0.90994260  0.59324545  1
  Al  Al84  1  0.58293528  0.42904481  0.08433556  1
  Al  Al85  1  0.57164129  0.41128940  0.58768039  1
  Al  Al86  1  0.58815706  0.91343522  0.09341345  1
  Al  Al87  1  0.57046215  0.90852906  0.58067980  1
  Al  Al88  1  0.42142981  0.08045116  0.07100696  1
  Al  Al89  1  0.40786257  0.08270232  0.59028855  1
  Al  Al90  1  0.41526007  0.58137974  0.09078280  1
  Al  Al91  1  0.41309571  0.58119325  0.58795205  1
  Al  Al92  1  0.91721193  0.07778372  0.08377470  1
  Al  Al93  1  0.91589643  0.07730636  0.57612209  1
  Al  Al94  1  0.90992480  0.58269639  0.07839030  1
  Al  Al95  1  0.92325325  0.58520321  0.58116652  1
  Al  Al96  1  0.25463080  0.13815693  0.13297309  1
  Al  Al97  1  0.25923526  0.13395986  0.63422452  1
  Al  Al98  1  0.25406347  0.63507315  0.13498704  1
  Al  Al99  1  0.25119882  0.63573173  0.63345137  1
  Al  Al100  1  0.74804115  0.13873032  0.13417651  1
  Al  Al101  1  0.74257516  0.13724010  0.63653278  1
  Al  Al102  1  0.74263830  0.63189892  0.13520416  1
  Al  Al103  1  0.74493866  0.63997638  0.63084576  1
  Al  Al104  1  0.25485851  0.36695757  0.13296304  1
  Al  Al105  1  0.25254185  0.36904680  0.63704075  1
  Al  Al106  1  0.25233972  0.86348292  0.13401999  1
  Al  Al107  1  0.25185287  0.86284058  0.62904455  1
  Al  Al108  1  0.74566358  0.36590384  0.13727342  1
  Al  Al109  1  0.74267683  0.36096583  0.63200736  1
  Al  Al110  1  0.74398732  0.86163073  0.13129133  1
  Al  Al111  1  0.74842282  0.86084160  0.62944015  1
  Al  Al112  1  0.25602767  0.13181151  0.36543828  1
  Al  Al113  1  0.25767033  0.13313758  0.86342655  1
  Al  Al114  1  0.25011556  0.63083616  0.36650028  1
  Al  Al115  1  0.25124807  0.63715590  0.86702714  1
  Al  Al116  1  0.74386901  0.13237740  0.36423648  1
  Al  Al117  1  0.74986722  0.13659823  0.86249048  1
  Al  Al118  1  0.74268419  0.63789480  0.36898879  1
  Al  Al119  1  0.74884044  0.63775491  0.86340728  1
  Al  Al120  1  0.25100293  0.37303168  0.36213223  1
  Al  Al121  1  0.25583228  0.36612309  0.86299731  1
  Al  Al122  1  0.25447050  0.86208382  0.37372940  1
  Al  Al123  1  0.25121071  0.86269912  0.86565314  1
  Al  Al124  1  0.74728740  0.36608779  0.36553093  1
  Al  Al125  1  0.74764415  0.36228498  0.86202242  1
  Al  Al126  1  0.74141501  0.86247128  0.36845283  1
  Al  Al127  1  0.74898017  0.86019966  0.86785550  1
  Al  Al128  1  0.13691228  0.25417603  0.13466433  1
  Al  Al129  1  0.14098951  0.24905965  0.63341088  1
  Al  Al130  1  0.13535047  0.74929472  0.13109091  1
  Al  Al131  1  0.13769609  0.75086116  0.63022673  1
  Al  Al132  1  0.62700895  0.24851318  0.13980414  1
  Al  Al133  1  0.62613148  0.24989684  0.63367502  1
  Al  Al134  1  0.63241196  0.74961807  0.13103672  1
  Al  Al135  1  0.63330366  0.75093598  0.62778832  1
  Al  Al136  1  0.13741562  0.25468164  0.36779766  1
  Al  Al137  1  0.13963794  0.24946569  0.86249421  1
  Al  Al138  1  0.13985143  0.74835665  0.37284571  1
  Al  Al139  1  0.13347704  0.75105681  0.86586569  1
  Al  Al140  1  0.63714890  0.24886275  0.37269854  1
  Al  Al141  1  0.63184219  0.24731091  0.86380404  1
  Al  Al142  1  0.62819967  0.74971479  0.36678551  1
  Al  Al143  1  0.63270627  0.74988646  0.87190623  1
  Al  Al144  1  0.36820599  0.25362268  0.13224191  1
  Al  Al145  1  0.37109683  0.25056512  0.63886879  1
  Al  Al146  1  0.36589126  0.75446541  0.13558245  1
  Al  Al147  1  0.36700598  0.75607481  0.63227893  1
  Al  Al148  1  0.86279120  0.25122642  0.13413000  1
  Al  Al149  1  0.86108970  0.24922272  0.63511794  1
  Al  Al150  1  0.86749255  0.75223689  0.13456894  1
  Al  Al151  1  0.87028064  0.75486030  0.63360242  1
  Al  Al152  1  0.36336404  0.25176553  0.36297996  1
  Al  Al153  1  0.36656628  0.24927220  0.86594739  1
  Al  Al154  1  0.36784981  0.74783372  0.36697354  1
  Al  Al155  1  0.36715864  0.75504882  0.86666386  1
  Al  Al156  1  0.86177530  0.25036350  0.36321357  1
  Al  Al157  1  0.86544022  0.24677509  0.86376386  1
  Al  Al158  1  0.86106937  0.75241642  0.36739064  1
  Al  Al159  1  0.87072567  0.75178017  0.86269078  1
  Al  Al160  1  0.13812976  0.13710965  0.25537411  1
  Al  Al161  1  0.13872394  0.13422916  0.74914806  1
  Al  Al162  1  0.13556277  0.63802810  0.24819843  1
  Al  Al163  1  0.13747105  0.63692797  0.74763387  1
  Al  Al164  1  0.63482866  0.13125355  0.25012876  1
  Al  Al165  1  0.62466148  0.13628155  0.74829881  1
  Al  Al166  1  0.63200812  0.63860476  0.25112404  1
  Al  Al167  1  0.63554465  0.63762725  0.74973136  1
  Al  Al168  1  0.36554219  0.13433510  0.24718939  1
  Al  Al169  1  0.37165231  0.13389702  0.74960464  1
  Al  Al170  1  0.36362175  0.63347770  0.25281158  1
  Al  Al171  1  0.36278505  0.63043900  0.75002664  1
  Al  Al172  1  0.86239437  0.13466742  0.25091886  1
  Al  Al173  1  0.86483267  0.13384041  0.74866059  1
  Al  Al174  1  0.86338449  0.63817997  0.24560742  1
  Al  Al175  1  0.86797845  0.63902726  0.74666738  1
  Al  Al176  1  0.13270051  0.36470156  0.24917401  1
  Al  Al177  1  0.13858544  0.36518503  0.74841359  1
  Al  Al178  1  0.13971429  0.86011915  0.25206227  1
  Al  Al179  1  0.13593903  0.86183339  0.74846187  1
  Al  Al180  1  0.63043773  0.36496018  0.24836065  1
  Al  Al181  1  0.63051247  0.36393470  0.74782912  1
  Al  Al182  1  0.62991809  0.85989383  0.25142319  1
  Al  Al183  1  0.62740744  0.86016076  0.74737076  1
  Al  Al184  1  0.36467185  0.37277392  0.24615278  1
  Al  Al185  1  0.36827562  0.36960210  0.74666130  1
  Al  Al186  1  0.37063599  0.86327359  0.25631153  1
  Al  Al187  1  0.36515768  0.87000532  0.74719454  1
  Al  Al188  1  0.86857681  0.36353786  0.24723086  1
  Al  Al189  1  0.86402192  0.36204082  0.74986926  1
  Al  Al190  1  0.86155059  0.86380332  0.24754928  1
  Al  Al191  1  0.86622143  0.86404245  0.74942349  1
  Al  Al192  1  0.18271329  0.17570888  -0.00181473  1
  Al  Al193  1  0.67259834  0.32960508  0.00067346  1
  Al  Al194  1  0.82481882  0.50092353  0.82778429  1
  Al  Al195  1  0.49939048  0.31790011  0.81741273  1
  Al  Al196  1  0.00058939  0.67178887  0.32654095  1
  Al  Al197  1  0.31822359  0.68283333  0.50119687  1
  Al  Al198  1  0.00192109  0.32381907  0.82645166  1
  Al  Al199  1  0.67173034  0.50195272  0.31427105  1
  Al  Al200  1  0.67200232  0.17068894  0.00083974  1
  Al  Al201  1  0.18713013  0.49990938  0.18129259  1
  Al  Al202  1  0.49773227  0.68007463  0.18666977  1
  Al  Al203  1  0.00177757  0.18401505  0.17260993  1
  Al  Al204  1  0.17580444  -0.00452206  0.32836829  1
  Al  Al205  1  0.19096995  0.17928190  0.49988059  1
  Al  Al206  1  0.31840505  0.31172363  0.50114232  1
  Al  Al207  1  0.66821590  0.50176716  0.67187907  1
  Al  Al208  1  0.82043900  0.49862716  0.66958139  1
  Al  Al209  1  0.50142965  0.67794846  0.81938630  1
  Al  Al210  1  0.81158765  0.17168795  0.50020728  1
  Al  Al211  1  0.49921171  0.68311600  0.67262216  1
  Al  Al212  1  0.82062190  0.32808588  0.49937928  1
  Al  Al213  1  0.66910088  -0.00047272  0.82966727  1
  Al  Al214  1  0.49847712  0.33159473  0.32534297  1
  Al  Al215  1  0.82279097  0.67798205  0.49923084  1
  Al  Al216  1  0.00049195  0.17014837  0.67563862  1
  Al  Al217  1  0.80730833  -0.00068923  0.17105788  1
  Al  Al218  1  0.66956844  0.49998953  0.82897413  1
  Al  Al219  1  0.80995392  0.68261099  0.00016550  1
  Al  Al220  1  0.18062677  -0.00245691  0.82530845  1
  Al  Al221  1  0.82525405  0.50217839  0.32854682  1
  Al  Al222  1  0.18310073  0.32960242  -0.00149025  1
  Al  Al223  1  0.17266333  0.00034103  0.17076646  1
  Al  Al224  1  0.82486787  -0.00106788  0.67233018  1
  Al  Al225  1  0.00323983  0.67929651  0.67931180  1
  Al  Al226  1  -0.00016505  0.82673565  0.31973672  1
  Al  Al227  1  0.32622112  0.68042512  0.00422667  1
  Al  Al228  1  0.00242016  0.32742259  0.67324742  1
  Al  Al229  1  0.81452119  0.50001682  0.17746393  1
  Al  Al230  1  0.66919080  -0.00232557  0.66700464  1
  Al  Al231  1  0.83002241  0.32441090  -0.00176193  1
  Al  Al232  1  0.18159938  0.50137244  0.81376234  1
  Al  Al233  1  0.81114312  -0.00326309  0.32633145  1
  Al  Al234  1  0.50083812  0.16837875  0.32628713  1
  Al  Al235  1  0.33245286  -0.00111344  0.17695461  1
  Al  Al236  1  0.82737026  -0.00271208  0.82616229  1
  Al  Al237  1  0.18633225  -0.00143649  0.67456967  1
  Al  Al238  1  -0.00110716  0.17915998  0.32972228  1
  Au  Au239  1  0.00405662  0.67455162  0.34293151  1
  Au  Au240  1  -0.00250309  0.16456744  0.33861301  1
  Au  Au241  1  0.49738812  0.83448744  0.82359204  1
  Au  Au242  1  0.49936168  0.32934213  0.33755892  1
  Au  Au243  1  0.83291067  0.32435045  0.49920752  1
  Au  Au244  1  0.49778096  0.17031438  0.66891054  1
  Au  Au245  1  0.18426649  0.16370315  0.50085277  1
  Au  Au246  1  0.67324136  0.00008161  0.84515284  1
  Au  Au247  1  0.82650781  0.50002225  0.17280183  1
  Au  Au248  1  0.65858359  0.82418909  0.49645085  1
  Au  Au249  1  0.00043360  0.66617126  0.15940290  1
  Au  Au250  1  0.83625531  0.82755035  -0.00416604  1
  Au  Au251  1  0.16980046  0.82651158  0.50138182  1
  Au  Au252  1  0.49748307  0.33860497  0.16088465  1
  Au  Au253  1  0.00097247  0.67550030  0.83238235  1
  Au  Au254  1  0.83302782  0.34081457  -0.00074233  1
  Au  Au255  1  0.17075037  0.50369587  0.32854294  1
  Au  Au256  1  0.00074845  0.34188870  0.32208487  1
  Au  Au257  1  0.00359982  0.17377376  0.84224863  1
  Au  Au258  1  0.33882419  0.50184783  0.32498200  1
  Au  Au259  1  0.49906546  0.16375241  0.16610303  1
  Au  Au260  1  0.50160261  0.66807558  0.82633337  1
  Au  Au261  1  0.17001079  0.67736023  -0.00100436  1
  Au  Au262  1  0.32991459  -0.00088262  0.82313168  1
  Au  Au263  1  -0.00217222  0.17394999  0.65929723  1
  Au  Au264  1  0.00143333  0.67851674  0.66683242  1
  Au  Au265  1  0.83525965  0.83439450  0.50140269  1
  Au  Au266  1  0.16364999  -0.00024538  0.15575002  1
  Au  Au267  1  0.66926464  0.00012668  0.65152980  1
  Au  Au268  1  0.82354936  -0.00023874  0.17707902  1
  Au  Au269  1  0.50525440  0.16833667  0.34347872  1
  Au  Au270  1  0.83614876  0.49754711  0.67636327  1
  Au  Au271  1  0.65957498  0.32618079  0.50353330  1
  Au  Au272  1  0.16476712  0.00018260  0.33209338  1
  Au  Au273  1  0.49943107  0.82784525  0.17784319  1
  Au  Au274  1  0.00326140  0.83522381  0.17031813  1
  Au  Au275  1  0.00026862  0.18120369  0.15563954  1
  Au  Au276  1  0.82307177  0.66531749  0.49688797  1
  Au  Au277  1  0.32867811  0.66976586  0.50082217  1
  Au  Au278  1  0.33532060  0.67212458  0.00175430  1
  Au  Au279  1  0.32766357  0.49884056  0.82471368  1
  Au  Au280  1  0.33860469  -0.00597552  0.34090010  1
  Au  Au281  1  0.33139170  0.17661631  -0.00204316  1
  Au  Au282  1  0.66577579  0.82166024  0.00198138  1
  Au  Au283  1  0.33605919  0.00025839  0.16505764  1
  Au  Au284  1  0.17338706  0.34268670  0.50357444  1
  Au  Au285  1  0.65565061  0.17604555  0.00184760  1
  Au  Au286  1  0.83314800  0.15871005  -0.00583636  1
  Au  Au287  1  0.49944664  0.32531216  0.83276879  1
