# generated using pymatgen
data_Ca24Ti8Al207Au49
_symmetry_space_group_name_H-M   'P 1'
_cell_length_a   17.31780076
_cell_length_b   17.31804884
_cell_length_c   17.31793965
_cell_angle_alpha   90.00029874
_cell_angle_beta   89.99695098
_cell_angle_gamma   89.99942785
_symmetry_Int_Tables_number   1
_chemical_formula_structural   Ca24Ti8Al207Au49
_chemical_formula_sum   'Ca24 Ti8 Al207 Au49'
_cell_volume   5193.83226422
_cell_formula_units_Z   1
loop_
 _symmetry_equiv_pos_site_id
 _symmetry_equiv_pos_as_xyz
  1  'x, y, z'
loop_
 _atom_site_type_symbol
 _atom_site_label
 _atom_site_symmetry_multiplicity
 _atom_site_fract_x
 _atom_site_fract_y
 _atom_site_fract_z
 _atom_site_occupancy
  Ca  Ca0  1  0.24271146  -0.00153685  0.00606379  1
  Ca  Ca1  1  0.24852608  0.00038595  0.49737606  1
  Ca  Ca2  1  0.24816864  0.49875992  0.00446436  1
  Ca  Ca3  1  0.25215066  0.49991446  0.49684248  1
  Ca  Ca4  1  0.74974678  0.00137138  0.00671261  1
  Ca  Ca5  1  0.74900210  0.00034202  0.49755170  1
  Ca  Ca6  1  0.75083047  0.49729881  0.00810431  1
  Ca  Ca7  1  0.74849876  0.50029537  0.48886911  1
  Ca  Ca8  1  0.00401609  0.25089271  0.00546849  1
  Ca  Ca9  1  0.00162549  0.25211673  0.49523533  1
  Ca  Ca10  1  0.00521472  0.75236703  0.00116024  1
  Ca  Ca11  1  0.00170672  0.75102837  0.49811200  1
  Ca  Ca12  1  0.49417221  0.25235543  0.00513814  1
  Ca  Ca13  1  0.50059735  0.25289914  0.49223787  1
  Ca  Ca14  1  0.49257823  0.75137271  0.00492359  1
  Ca  Ca15  1  0.49722190  0.74593208  0.49231664  1
  Ca  Ca16  1  0.00153747  -0.00200287  0.24949841  1
  Ca  Ca17  1  0.00384656  -0.00477823  0.75586939  1
  Ca  Ca18  1  0.00302489  0.50109626  0.24953765  1
  Ca  Ca19  1  0.00650713  0.50375342  0.74685838  1
  Ca  Ca20  1  0.50066909  0.00011378  0.25552631  1
  Ca  Ca21  1  0.49318681  -0.00037967  0.75024248  1
  Ca  Ca22  1  0.49596451  0.49562565  0.25102791  1
  Ca  Ca23  1  0.49916495  0.50047353  0.74935983  1
  Ti  Ti24  1  0.24853592  0.25049180  0.24971742  1
  Ti  Ti25  1  0.24795215  0.24999177  0.75032304  1
  Ti  Ti26  1  0.24924786  0.74853718  0.24897967  1
  Ti  Ti27  1  0.24832274  0.74874199  0.75069845  1
  Ti  Ti28  1  0.75134374  0.24956503  0.25220568  1
  Ti  Ti29  1  0.75248312  0.25029382  0.74630656  1
  Ti  Ti30  1  0.75146259  0.75122361  0.25323797  1
  Ti  Ti31  1  0.75159422  0.75007900  0.74608638  1
  Al  Al32  1  0.09013772  0.08632852  0.09651191  1
  Al  Al33  1  0.07948561  0.08555612  0.57434549  1
  Al  Al34  1  0.09142204  0.58631220  0.09010537  1
  Al  Al35  1  0.08228518  0.59108983  0.58261504  1
  Al  Al36  1  0.58518345  0.07927084  0.09416195  1
  Al  Al37  1  0.57775429  0.08167866  0.56576151  1
  Al  Al38  1  0.57920660  0.57975613  0.08819579  1
  Al  Al39  1  0.57569518  0.57982423  0.56611462  1
  Al  Al40  1  0.41127016  0.40408807  0.09179977  1
  Al  Al41  1  0.41778164  0.42175305  0.57070467  1
  Al  Al42  1  0.41238089  0.91576906  0.07798001  1
  Al  Al43  1  0.40772674  0.91818793  0.57541637  1
  Al  Al44  1  0.92246363  0.41907343  0.08680142  1
  Al  Al45  1  0.92287756  0.41367172  0.57313725  1
  Al  Al46  1  0.92801018  0.91429405  0.09134413  1
  Al  Al47  1  0.92364604  0.90631153  0.58100242  1
  Al  Al48  1  0.41779119  0.09048078  0.41774068  1
  Al  Al49  1  0.39880406  0.08343691  0.91873055  1
  Al  Al50  1  0.41781394  0.58547397  0.40597695  1
  Al  Al51  1  0.40755253  0.58358397  0.92529547  1
  Al  Al52  1  0.91367745  0.08948906  0.41509693  1
  Al  Al53  1  0.92376913  0.08039609  0.92284254  1
  Al  Al54  1  0.91231297  0.58080430  0.40704818  1
  Al  Al55  1  0.93000369  0.58847668  0.91413013  1
  Al  Al56  1  0.08742273  0.41182803  0.41814317  1
  Al  Al57  1  0.08978672  0.40162734  0.92267316  1
  Al  Al58  1  0.08433523  0.91355226  0.40182766  1
  Al  Al59  1  0.08881489  0.90620034  0.92172842  1
  Al  Al60  1  0.59024380  0.41408078  0.40274742  1
  Al  Al61  1  0.57247673  0.41937628  0.93471531  1
  Al  Al62  1  0.59187437  0.91576391  0.40527173  1
  Al  Al63  1  0.57986129  0.92069093  0.93028903  1
  Al  Al64  1  0.08921983  0.07963842  0.40991188  1
  Al  Al65  1  0.08509129  0.08685286  0.92571864  1
  Al  Al66  1  0.07822229  0.58207680  0.41775690  1
  Al  Al67  1  0.08659891  0.59298589  0.92103142  1
  Al  Al68  1  0.59152765  0.08188726  0.40433368  1
  Al  Al69  1  0.57284320  0.07768943  0.93104859  1
  Al  Al70  1  0.58311156  0.57991071  0.40388872  1
  Al  Al71  1  0.57457715  0.58069735  0.93397699  1
  Al  Al72  1  0.41528665  0.41273506  0.40337278  1
  Al  Al73  1  0.40505672  0.41459962  0.92969791  1
  Al  Al74  1  0.41861560  0.91224887  0.41723654  1
  Al  Al75  1  0.39560030  0.92073030  0.92041714  1
  Al  Al76  1  0.90713427  0.41796731  0.40696490  1
  Al  Al77  1  0.92866159  0.40755033  0.91608225  1
  Al  Al78  1  0.92032905  0.91270747  0.40864059  1
  Al  Al79  1  0.93000680  0.91580639  0.91553880  1
  Al  Al80  1  0.09576178  0.41243703  0.08645259  1
  Al  Al81  1  0.08709859  0.40991254  0.57749719  1
  Al  Al82  1  0.08920623  0.91264374  0.09294168  1
  Al  Al83  1  0.07830817  0.90831446  0.58364390  1
  Al  Al84  1  0.57571414  0.40785805  0.09651892  1
  Al  Al85  1  0.58403413  0.40857586  0.56156600  1
  Al  Al86  1  0.58913648  0.92263140  0.09635627  1
  Al  Al87  1  0.58189842  0.90840018  0.56231118  1
  Al  Al88  1  0.41081948  0.08853192  0.07979798  1
  Al  Al89  1  0.40617407  0.08146473  0.57446784  1
  Al  Al90  1  0.40986140  0.58466506  0.08616225  1
  Al  Al91  1  0.41383726  0.58242049  0.57377113  1
  Al  Al92  1  0.92757808  0.08721969  0.09027474  1
  Al  Al93  1  0.91462057  0.09449014  0.57217173  1
  Al  Al94  1  0.92744730  0.57960037  0.09095326  1
  Al  Al95  1  0.92610616  0.59185382  0.58093970  1
  Al  Al96  1  0.25037784  0.13700267  0.13024408  1
  Al  Al97  1  0.24702761  0.13713457  0.62675658  1
  Al  Al98  1  0.24841888  0.63027208  0.13368233  1
  Al  Al99  1  0.25037270  0.62980153  0.63360218  1
  Al  Al100  1  0.74789939  0.13552854  0.13985782  1
  Al  Al101  1  0.75106123  0.13641476  0.62606970  1
  Al  Al102  1  0.75143332  0.63723089  0.14338725  1
  Al  Al103  1  0.74949768  0.63613202  0.62598096  1
  Al  Al104  1  0.24971853  0.36911807  0.13425585  1
  Al  Al105  1  0.24556292  0.36936350  0.63374540  1
  Al  Al106  1  0.24207305  0.86969818  0.13530715  1
  Al  Al107  1  0.24986250  0.86279574  0.63318349  1
  Al  Al108  1  0.75418953  0.36259957  0.13974630  1
  Al  Al109  1  0.75254449  0.36423826  0.62539852  1
  Al  Al110  1  0.74668085  0.86588778  0.13586751  1
  Al  Al111  1  0.75040773  0.86323709  0.62635720  1
  Al  Al112  1  0.25073382  0.13819982  0.36911839  1
  Al  Al113  1  0.25001594  0.13575132  0.87672517  1
  Al  Al114  1  0.25515494  0.63080584  0.36312473  1
  Al  Al115  1  0.24670050  0.63428012  0.87336435  1
  Al  Al116  1  0.74969660  0.13352789  0.36768375  1
  Al  Al117  1  0.75306666  0.13858794  0.86381150  1
  Al  Al118  1  0.74989122  0.63691956  0.36903044  1
  Al  Al119  1  0.75484398  0.63674707  0.86077275  1
  Al  Al120  1  0.24949440  0.36663995  0.36369990  1
  Al  Al121  1  0.24805527  0.36262189  0.87091095  1
  Al  Al122  1  0.25115865  0.86270587  0.36235316  1
  Al  Al123  1  0.25032978  0.86569246  0.86759606  1
  Al  Al124  1  0.74859084  0.36500630  0.36856938  1
  Al  Al125  1  0.75623549  0.36234803  0.86426650  1
  Al  Al126  1  0.75081226  0.86832889  0.36818280  1
  Al  Al127  1  0.74856330  0.86298571  0.86718455  1
  Al  Al128  1  0.13571651  0.25223193  0.13061571  1
  Al  Al129  1  0.13618257  0.25124630  0.62546440  1
  Al  Al130  1  0.13710042  0.75133316  0.12884316  1
  Al  Al131  1  0.13557865  0.74765871  0.63311869  1
  Al  Al132  1  0.63448780  0.25486225  0.14109574  1
  Al  Al133  1  0.63515895  0.24830735  0.62367347  1
  Al  Al134  1  0.63576838  0.74833045  0.14309474  1
  Al  Al135  1  0.63468600  0.75013606  0.62409894  1
  Al  Al136  1  0.13713888  0.24982499  0.36622796  1
  Al  Al137  1  0.13496869  0.25026081  0.87317909  1
  Al  Al138  1  0.12848973  0.75136000  0.35965005  1
  Al  Al139  1  0.13865734  0.75106849  0.87420669  1
  Al  Al140  1  0.63800099  0.25102367  0.37075497  1
  Al  Al141  1  0.63458994  0.25151407  0.86602732  1
  Al  Al142  1  0.63837474  0.75347324  0.36881608  1
  Al  Al143  1  0.63555110  0.74910634  0.86599693  1
  Al  Al144  1  0.36200626  0.25462032  0.13654154  1
  Al  Al145  1  0.36333907  0.24868577  0.63236762  1
  Al  Al146  1  0.36073360  0.74588152  0.13802477  1
  Al  Al147  1  0.36296248  0.75019195  0.62693006  1
  Al  Al148  1  0.87361014  0.24876630  0.13945801  1
  Al  Al149  1  0.86563325  0.25091094  0.62437275  1
  Al  Al150  1  0.86801368  0.75861024  0.13885427  1
  Al  Al151  1  0.86545597  0.74976914  0.62573028  1
  Al  Al152  1  0.36490262  0.25382358  0.36292012  1
  Al  Al153  1  0.36114518  0.25048730  0.87093959  1
  Al  Al154  1  0.36307634  0.74636594  0.36509214  1
  Al  Al155  1  0.36282105  0.74385660  0.86789829  1
  Al  Al156  1  0.86348238  0.24923230  0.37103237  1
  Al  Al157  1  0.87398286  0.25194372  0.86747849  1
  Al  Al158  1  0.86764016  0.75263048  0.36953823  1
  Al  Al159  1  0.87042126  0.75637381  0.86344760  1
  Al  Al160  1  0.13616274  0.13701293  0.24569059  1
  Al  Al161  1  0.13712405  0.13794535  0.75335332  1
  Al  Al162  1  0.13572254  0.63383618  0.24812747  1
  Al  Al163  1  0.13681687  0.63453951  0.74884170  1
  Al  Al164  1  0.63545443  0.13431381  0.25310516  1
  Al  Al165  1  0.63483283  0.13948172  0.74868249  1
  Al  Al166  1  0.63129065  0.63403006  0.25949874  1
  Al  Al167  1  0.63243615  0.64163859  0.74632933  1
  Al  Al168  1  0.36179286  0.13492687  0.25046778  1
  Al  Al169  1  0.36002054  0.13685780  0.75331786  1
  Al  Al170  1  0.36323085  0.62610849  0.24880329  1
  Al  Al171  1  0.36368804  0.63773486  0.74642746  1
  Al  Al172  1  0.86505566  0.13357882  0.25251409  1
  Al  Al173  1  0.86720096  0.14045687  0.74971731  1
  Al  Al174  1  0.86656386  0.63751573  0.25631491  1
  Al  Al175  1  0.86764663  0.63843127  0.74364443  1
  Al  Al176  1  0.13552033  0.36739742  0.24351219  1
  Al  Al177  1  0.13040185  0.36091433  0.75242841  1
  Al  Al178  1  0.12958049  0.86219275  0.24688859  1
  Al  Al179  1  0.13337971  0.86282787  0.75439322  1
  Al  Al180  1  0.63308432  0.36435173  0.25599559  1
  Al  Al181  1  0.63925796  0.35990542  0.74672113  1
  Al  Al182  1  0.63696906  0.86874322  0.25360559  1
  Al  Al183  1  0.63475510  0.85919433  0.74529560  1
  Al  Al184  1  0.36242011  0.36921357  0.25033149  1
  Al  Al185  1  0.36132480  0.36186661  0.74707284  1
  Al  Al186  1  0.36208599  0.86730622  0.24800492  1
  Al  Al187  1  0.36115234  0.86186835  0.75003794  1
  Al  Al188  1  0.86469251  0.36469691  0.25469660  1
  Al  Al189  1  0.86950559  0.36304118  0.74593285  1
  Al  Al190  1  0.86619565  0.86812535  0.25466319  1
  Al  Al191  1  0.86339023  0.86231008  0.74656936  1
  Al  Al192  1  0.49958752  0.81290018  0.32563141  1
  Al  Al193  1  0.67095669  0.17402600  0.00394912  1
  Al  Al194  1  0.30637279  0.80857532  0.00334605  1
  Al  Al195  1  0.49811992  0.67362456  0.18590889  1
  Al  Al196  1  0.67780614  0.32581667  0.00340431  1
  Al  Al197  1  0.82661552  0.83127166  -0.00100378  1
  Al  Al198  1  0.67249018  0.49887322  0.18973024  1
  Al  Al199  1  0.66759958  0.49832808  0.66642371  1
  Al  Al200  1  0.00165548  0.17267339  0.31761755  1
  Al  Al201  1  0.32752859  0.49945581  0.82224425  1
  Al  Al202  1  0.49967271  0.66742309  0.82651485  1
  Al  Al203  1  0.83043817  -0.00054469  0.82628484  1
  Al  Al204  1  0.17718756  0.00019568  0.82808843  1
  Al  Al205  1  0.49808381  0.82945525  0.17520829  1
  Al  Al206  1  0.82689403  0.17765583  0.00351575  1
  Al  Al207  1  0.49691750  0.32852354  0.82949261  1
  Al  Al208  1  0.00074398  0.17861457  0.67819253  1
  Al  Al209  1  0.81816612  -0.00023414  0.17851772  1
  Al  Al210  1  0.50024752  0.32755542  0.67079812  1
  Al  Al211  1  0.50079077  0.18598364  0.32583106  1
  Al  Al212  1  0.83182653  0.67114502  0.00410425  1
  Al  Al213  1  0.00137696  0.32536685  0.32073416  1
  Al  Al214  1  0.83121676  0.49908397  0.66860249  1
  Al  Al215  1  0.49747226  0.17073489  0.82911900  1
  Al  Al216  1  0.31461269  0.31651887  0.49917312  1
  Al  Al217  1  0.49554332  0.83125955  0.82736708  1
  Al  Al218  1  0.67578129  0.67891383  0.00397671  1
  Al  Al219  1  0.16870152  -0.00033533  0.67501346  1
  Al  Al220  1  0.49485971  0.17088014  0.66972689  1
  Al  Al221  1  0.32424299  0.00096250  0.68275646  1
  Al  Al222  1  0.17230516  0.49735014  0.82563478  1
  Al  Al223  1  0.00382226  0.69259179  0.81080796  1
  Al  Al224  1  0.66926899  0.49845082  0.83425118  1
  Al  Al225  1  0.67485167  0.00188661  0.83180747  1
  Al  Al226  1  0.66725252  -0.00194308  0.67207126  1
  Al  Al227  1  -0.00011787  0.80601078  0.68843417  1
  Al  Al228  1  0.83539997  0.49809532  0.82527860  1
  Al  Al229  1  0.82827508  0.50133338  0.18919784  1
  Al  Al230  1  0.49687569  0.82084370  0.66524924  1
  Al  Al231  1  0.17991827  0.67636975  0.49571673  1
  Al  Al232  1  0.17795210  0.82839466  0.49575755  1
  Al  Al233  1  0.18452067  -0.00012773  0.30549667  1
  Al  Al234  1  0.83284467  0.00284471  0.67069631  1
  Al  Al235  1  0.49813075  0.18899075  0.17239482  1
  Al  Al236  1  0.32091949  0.00110721  0.17891364  1
  Al  Al237  1  0.17985031  0.49958708  0.31707393  1
  Al  Al238  1  0.00165009  0.68704670  0.18072450  1
  Au  Au239  1  0.65920059  -0.00565841  0.65868356  1
  Au  Au240  1  0.17133745  0.17328192  0.49512346  1
  Au  Au241  1  0.84197553  0.50369085  0.66433452  1
  Au  Au242  1  0.18032956  0.00008525  0.84055270  1
  Au  Au243  1  0.66834205  0.49469796  0.65076305  1
  Au  Au244  1  0.66172866  0.67432937  0.49288985  1
  Au  Au245  1  0.49793472  0.33911486  0.83595053  1
  Au  Au246  1  0.67402852  0.17039693  0.49561819  1
  Au  Au247  1  -0.00062680  0.67624057  0.32851118  1
  Au  Au248  1  0.32569999  0.32919755  0.49580843  1
  Au  Au249  1  0.82761834  0.83458786  0.49638770  1
  Au  Au250  1  0.67208121  0.00693015  0.84337259  1
  Au  Au251  1  0.17202121  -0.00065607  0.66273355  1
  Au  Au252  1  0.50257588  0.66669592  0.83886462  1
  Au  Au253  1  0.16873160  0.50043217  0.65919660  1
  Au  Au254  1  0.00307894  0.32731312  0.17061006  1
  Au  Au255  1  0.16424213  0.49738534  0.83683161  1
  Au  Au256  1  0.82311614  0.00177227  0.33899746  1
  Au  Au257  1  0.82696426  0.65485816  0.00731793  1
  Au  Au258  1  0.33814825  0.49945185  0.67289730  1
  Au  Au259  1  0.82849676  0.33949029  0.00280567  1
  Au  Au260  1  0.00269628  0.33461537  0.67357368  1
  Au  Au261  1  0.00081958  0.17283204  0.66713485  1
  Au  Au262  1  0.32888056  0.00183525  0.34200208  1
  Au  Au263  1  0.82785201  0.32867547  0.49587615  1
  Au  Au264  1  0.31951714  -0.00062948  0.16658985  1
  Au  Au265  1  0.17359930  0.17521855  0.00517298  1
  Au  Au266  1  0.67132029  0.50175896  0.85017643  1
  Au  Au267  1  0.84519838  0.50015409  0.83285810  1
  Au  Au268  1  0.67539959  0.49786980  0.17302481  1
  Au  Au269  1  0.83177501  0.66601322  0.49694421  1
  Au  Au270  1  0.83048938  0.16550776  0.00488595  1
  Au  Au271  1  0.32601371  0.49749392  0.16976440  1
  Au  Au272  1  0.83139357  -0.00017148  0.16831715  1
  Au  Au273  1  0.49665275  0.16239867  0.66065446  1
  Au  Au274  1  0.49972120  0.66133496  0.66621256  1
  Au  Au275  1  0.49964722  0.17258863  0.17363110  1
  Au  Au276  1  0.49706696  0.67637923  0.17320961  1
  Au  Au277  1  0.49688817  0.83220972  0.65978065  1
  Au  Au278  1  0.84873234  -0.00032223  0.67008680  1
  Au  Au279  1  0.50073788  0.33546975  0.66101703  1
  Au  Au280  1  0.32932986  0.67270284  0.49403575  1
  Au  Au281  1  0.49252823  0.84685844  0.83537865  1
  Au  Au282  1  0.18121309  0.67848367  0.00427892  1
  Au  Au283  1  0.66194890  0.82664623  0.00840006  1
  Au  Au284  1  0.17242765  0.49946248  0.33238623  1
  Au  Au285  1  0.83825322  0.83429688  -0.00344006  1
  Au  Au286  1  0.49759291  0.16375049  0.83944633  1
  Au  Au287  1  0.00222262  0.17471516  0.83619099  1
