# generated using pymatgen
data_Ca24Ti8Al207Au49
_symmetry_space_group_name_H-M   'P 1'
_cell_length_a   17.32197178
_cell_length_b   17.32023343
_cell_length_c   17.32339256
_cell_angle_alpha   89.99735825
_cell_angle_beta   90.00436169
_cell_angle_gamma   89.99841731
_symmetry_Int_Tables_number   1
_chemical_formula_structural   Ca24Ti8Al207Au49
_chemical_formula_sum   'Ca24 Ti8 Al207 Au49'
_cell_volume   5197.37451546
_cell_formula_units_Z   1
loop_
 _symmetry_equiv_pos_site_id
 _symmetry_equiv_pos_as_xyz
  1  'x, y, z'
loop_
 _atom_site_type_symbol
 _atom_site_label
 _atom_site_symmetry_multiplicity
 _atom_site_fract_x
 _atom_site_fract_y
 _atom_site_fract_z
 _atom_site_occupancy
  Ca  Ca0  1  0.24305063  0.00283812  -0.00100403  1
  Ca  Ca1  1  0.24803294  -0.00127180  0.50096582  1
  Ca  Ca2  1  0.24266804  0.50022742  0.00136323  1
  Ca  Ca3  1  0.24588485  0.49872785  0.50146727  1
  Ca  Ca4  1  0.75433263  -0.00099591  -0.00296507  1
  Ca  Ca5  1  0.75290831  -0.00376473  0.50037085  1
  Ca  Ca6  1  0.75617814  0.50289180  -0.00122916  1
  Ca  Ca7  1  0.75376422  0.50225759  0.49864153  1
  Ca  Ca8  1  0.00040386  0.24618133  -0.00049609  1
  Ca  Ca9  1  0.00180835  0.24826166  0.49981668  1
  Ca  Ca10  1  -0.00178719  0.75124690  0.00074956  1
  Ca  Ca11  1  -0.00318785  0.75353297  0.49757246  1
  Ca  Ca12  1  0.49862656  0.24632719  0.00114059  1
  Ca  Ca13  1  0.49994123  0.24779482  0.49830918  1
  Ca  Ca14  1  0.50029811  0.75052986  0.00259247  1
  Ca  Ca15  1  0.50343993  0.75199099  0.49764456  1
  Ca  Ca16  1  -0.00143031  -0.00053645  0.25248159  1
  Ca  Ca17  1  -0.00021674  0.00146412  0.75056914  1
  Ca  Ca18  1  -0.00156850  0.50209071  0.25038174  1
  Ca  Ca19  1  -0.00011125  0.50109431  0.74934265  1
  Ca  Ca20  1  0.50089998  -0.00100255  0.25274308  1
  Ca  Ca21  1  0.49973091  -0.00291298  0.74373633  1
  Ca  Ca22  1  0.50133653  0.49983601  0.25375346  1
  Ca  Ca23  1  0.50140094  0.49952915  0.74739469  1
  Ti  Ti24  1  0.24844372  0.24963760  0.25026828  1
  Ti  Ti25  1  0.24719681  0.24973473  0.74960709  1
  Ti  Ti26  1  0.24899778  0.75074701  0.25005457  1
  Ti  Ti27  1  0.24698561  0.75041089  0.75062188  1
  Ti  Ti28  1  0.75159174  0.24757395  0.25130031  1
  Ti  Ti29  1  0.75194170  0.24763328  0.74909921  1
  Ti  Ti30  1  0.75155388  0.75220108  0.25096689  1
  Ti  Ti31  1  0.75249312  0.75127569  0.74903208  1
  Al  Al32  1  0.08509749  0.08580263  0.07649001  1
  Al  Al33  1  0.08473231  0.09388454  0.59043603  1
  Al  Al34  1  0.07272910  0.59029503  0.08530407  1
  Al  Al35  1  0.07569729  0.59055859  0.58923102  1
  Al  Al36  1  0.58912700  0.07524733  0.08980226  1
  Al  Al37  1  0.58065225  0.08850942  0.58563555  1
  Al  Al38  1  0.58376454  0.58207396  0.07911017  1
  Al  Al39  1  0.59473245  0.58273491  0.58440663  1
  Al  Al40  1  0.41972715  0.41659642  0.07841398  1
  Al  Al41  1  0.41623922  0.41426360  0.57476921  1
  Al  Al42  1  0.41854875  0.91912736  0.08365365  1
  Al  Al43  1  0.41142357  0.91068415  0.57058751  1
  Al  Al44  1  0.91526429  0.42050519  0.09606872  1
  Al  Al45  1  0.92062122  0.41449908  0.57652366  1
  Al  Al46  1  0.92216418  0.91552912  0.08265786  1
  Al  Al47  1  0.91436291  0.91331106  0.58005952  1
  Al  Al48  1  0.41072136  0.08561722  0.42591989  1
  Al  Al49  1  0.40886305  0.08238242  0.92098503  1
  Al  Al50  1  0.42109268  0.58349283  0.41149739  1
  Al  Al51  1  0.41991797  0.58067153  0.91276399  1
  Al  Al52  1  0.91455781  0.08580186  0.42808420  1
  Al  Al53  1  0.91323937  0.08823446  0.90770948  1
  Al  Al54  1  0.91624099  0.58996053  0.41162848  1
  Al  Al55  1  0.92201081  0.59404496  0.92135934  1
  Al  Al56  1  0.08322081  0.40497891  0.41626135  1
  Al  Al57  1  0.08369697  0.41558394  0.92055844  1
  Al  Al58  1  0.08074837  0.90620602  0.42005958  1
  Al  Al59  1  0.08406436  0.91258513  0.91992069  1
  Al  Al60  1  0.57370002  0.42172774  0.42721571  1
  Al  Al61  1  0.58621933  0.42485256  0.92352794  1
  Al  Al62  1  0.58412848  0.90498735  0.41311842  1
  Al  Al63  1  0.58840687  0.91812924  0.92336491  1
  Al  Al64  1  0.08598844  0.08852203  0.42911014  1
  Al  Al65  1  0.07758862  0.09051724  0.91362776  1
  Al  Al66  1  0.07580164  0.58782632  0.41176967  1
  Al  Al67  1  0.07884440  0.59289182  0.91022394  1
  Al  Al68  1  0.58559169  0.07715825  0.42403829  1
  Al  Al69  1  0.58349307  0.07667354  0.91695899  1
  Al  Al70  1  0.57819927  0.59196214  0.42135615  1
  Al  Al71  1  0.58150745  0.58468972  0.91594707  1
  Al  Al72  1  0.41074290  0.41465068  0.41879703  1
  Al  Al73  1  0.41154352  0.42398311  0.92097064  1
  Al  Al74  1  0.41999610  0.90249663  0.41285158  1
  Al  Al75  1  0.41568694  0.92388992  0.92061072  1
  Al  Al76  1  0.91711158  0.41236903  0.41338922  1
  Al  Al77  1  0.92498451  0.41931158  0.92156143  1
  Al  Al78  1  0.91756755  0.90424315  0.41790514  1
  Al  Al79  1  0.91465870  0.92345847  0.90838520  1
  Al  Al80  1  0.07540038  0.40916550  0.08654953  1
  Al  Al81  1  0.08833221  0.40580868  0.57638496  1
  Al  Al82  1  0.08599886  0.90989538  0.08195320  1
  Al  Al83  1  0.08673863  0.91492635  0.58077751  1
  Al  Al84  1  0.57946819  0.41700252  0.07964434  1
  Al  Al85  1  0.59130601  0.42449429  0.58854410  1
  Al  Al86  1  0.59290288  0.91712151  0.08694934  1
  Al  Al87  1  0.59018342  0.91641161  0.57434256  1
  Al  Al88  1  0.41497369  0.08528107  0.07826357  1
  Al  Al89  1  0.41748067  0.09889656  0.58442499  1
  Al  Al90  1  0.42113550  0.58045553  0.07815314  1
  Al  Al91  1  0.42337519  0.58219464  0.57851866  1
  Al  Al92  1  0.91432877  0.08826346  0.07228541  1
  Al  Al93  1  0.91977713  0.09377883  0.59003526  1
  Al  Al94  1  0.91159684  0.58590481  0.09056859  1
  Al  Al95  1  0.91948441  0.59486318  0.58629518  1
  Al  Al96  1  0.24759451  0.13646356  0.13419992  1
  Al  Al97  1  0.24540112  0.13769386  0.62903895  1
  Al  Al98  1  0.24495209  0.63738538  0.12909189  1
  Al  Al99  1  0.24337541  0.63649319  0.63521641  1
  Al  Al100  1  0.75185630  0.13594230  0.13482492  1
  Al  Al101  1  0.75883876  0.13185663  0.63383812  1
  Al  Al102  1  0.75403435  0.63437474  0.13639949  1
  Al  Al103  1  0.75137300  0.63795593  0.63521638  1
  Al  Al104  1  0.24426407  0.36507360  0.13002455  1
  Al  Al105  1  0.24226856  0.36075073  0.63096589  1
  Al  Al106  1  0.24902638  0.86443236  0.13617495  1
  Al  Al107  1  0.24707670  0.86244973  0.63249376  1
  Al  Al108  1  0.75673385  0.36355549  0.13713936  1
  Al  Al109  1  0.75201051  0.36174907  0.63537479  1
  Al  Al110  1  0.75157544  0.86575134  0.13737110  1
  Al  Al111  1  0.75370470  0.86437362  0.63089476  1
  Al  Al112  1  0.24894267  0.13312370  0.37125478  1
  Al  Al113  1  0.24330865  0.13466572  0.86287564  1
  Al  Al114  1  0.24627337  0.63781447  0.36490014  1
  Al  Al115  1  0.24314466  0.63762882  0.86931925  1
  Al  Al116  1  0.75311675  0.12711983  0.36428259  1
  Al  Al117  1  0.75539470  0.12768128  0.86300668  1
  Al  Al118  1  0.75304516  0.64045291  0.36438476  1
  Al  Al119  1  0.74948942  0.63687403  0.86249304  1
  Al  Al120  1  0.24321757  0.36416800  0.36708264  1
  Al  Al121  1  0.24472870  0.36307874  0.86963207  1
  Al  Al122  1  0.25110987  0.86472520  0.37027558  1
  Al  Al123  1  0.24182442  0.86354267  0.86531207  1
  Al  Al124  1  0.75411465  0.36306380  0.36339759  1
  Al  Al125  1  0.75263679  0.36351822  0.86341287  1
  Al  Al126  1  0.74982812  0.86846660  0.36824523  1
  Al  Al127  1  0.75607634  0.86773572  0.86214675  1
  Al  Al128  1  0.13228010  0.25138631  0.13204297  1
  Al  Al129  1  0.12993182  0.24641674  0.63479993  1
  Al  Al130  1  0.13455588  0.75005042  0.13120041  1
  Al  Al131  1  0.12819799  0.75159897  0.63836345  1
  Al  Al132  1  0.63765522  0.24769289  0.13751561  1
  Al  Al133  1  0.63684949  0.24533781  0.63686283  1
  Al  Al134  1  0.63594361  0.75027571  0.13617236  1
  Al  Al135  1  0.63287974  0.75206480  0.63625951  1
  Al  Al136  1  0.13744768  0.24816825  0.37021641  1
  Al  Al137  1  0.13376897  0.24792728  0.87027078  1
  Al  Al138  1  0.13345423  0.75496450  0.36517023  1
  Al  Al139  1  0.12878139  0.74899772  0.86681484  1
  Al  Al140  1  0.63990980  0.24575151  0.36366701  1
  Al  Al141  1  0.63838223  0.24716133  0.86207270  1
  Al  Al142  1  0.63570303  0.75694558  0.36587596  1
  Al  Al143  1  0.63754525  0.75041701  0.86271121  1
  Al  Al144  1  0.36258210  0.25043637  0.13614393  1
  Al  Al145  1  0.36442168  0.24636983  0.63191466  1
  Al  Al146  1  0.36608334  0.75075955  0.13396106  1
  Al  Al147  1  0.36732906  0.75260749  0.63471397  1
  Al  Al148  1  0.86791386  0.24855818  0.13624120  1
  Al  Al149  1  0.87150407  0.24450443  0.63721906  1
  Al  Al150  1  0.86684778  0.75142853  0.13550501  1
  Al  Al151  1  0.87036958  0.75215126  0.63680649  1
  Al  Al152  1  0.36077918  0.24565088  0.36668999  1
  Al  Al153  1  0.36294325  0.24844590  0.86452734  1
  Al  Al154  1  0.36577589  0.75633564  0.36525823  1
  Al  Al155  1  0.36133811  0.74820604  0.86671384  1
  Al  Al156  1  0.86488516  0.24535121  0.36496798  1
  Al  Al157  1  0.86711212  0.24121484  0.86665887  1
  Al  Al158  1  0.86652981  0.75601263  0.36536630  1
  Al  Al159  1  0.87157093  0.75177266  0.86102096  1
  Al  Al160  1  0.13432769  0.13779625  0.25036703  1
  Al  Al161  1  0.12915231  0.13757854  0.75087349  1
  Al  Al162  1  0.13511281  0.63355136  0.24775860  1
  Al  Al163  1  0.13233887  0.63380914  0.75179193  1
  Al  Al164  1  0.63999379  0.12662513  0.24998566  1
  Al  Al165  1  0.63664890  0.13323859  0.74966025  1
  Al  Al166  1  0.63650868  0.63823774  0.25216590  1
  Al  Al167  1  0.63842351  0.63189879  0.74665386  1
  Al  Al168  1  0.35803685  0.12882068  0.25105320  1
  Al  Al169  1  0.36119988  0.13794520  0.74637850  1
  Al  Al170  1  0.36250172  0.63848755  0.25070152  1
  Al  Al171  1  0.36270945  0.63770639  0.74576304  1
  Al  Al172  1  0.86894194  0.13201599  0.25047244  1
  Al  Al173  1  0.86900967  0.13083873  0.75080589  1
  Al  Al174  1  0.86656346  0.63706725  0.24701780  1
  Al  Al175  1  0.87011637  0.63603907  0.74831798  1
  Al  Al176  1  0.13537833  0.36813920  0.24831300  1
  Al  Al177  1  0.13453170  0.36754835  0.74943754  1
  Al  Al178  1  0.13521671  0.86340021  0.25200684  1
  Al  Al179  1  0.12634908  0.86258735  0.75156081  1
  Al  Al180  1  0.63699180  0.36353774  0.24869726  1
  Al  Al181  1  0.63802713  0.36968015  0.74619805  1
  Al  Al182  1  0.63812625  0.87045766  0.25164087  1
  Al  Al183  1  0.63694917  0.86475995  0.74853689  1
  Al  Al184  1  0.36074196  0.36133303  0.25231156  1
  Al  Al185  1  0.36073084  0.36076286  0.74783596  1
  Al  Al186  1  0.36268110  0.87003504  0.25140217  1
  Al  Al187  1  0.36181496  0.86297440  0.74992981  1
  Al  Al188  1  0.86711114  0.36445276  0.24800620  1
  Al  Al189  1  0.86737660  0.36230674  0.74956274  1
  Al  Al190  1  0.86718332  0.86921440  0.25483562  1
  Al  Al191  1  0.87063793  0.86873948  0.74756616  1
  Al  Al192  1  0.17495428  -0.00131591  0.32934429  1
  Al  Al193  1  0.67268354  0.50002453  0.32985332  1
  Al  Al194  1  0.17026291  0.68771539  0.50101837  1
  Al  Al195  1  0.17128653  -0.00025409  0.68197131  1
  Al  Al196  1  0.50045013  0.17194719  0.17285371  1
  Al  Al197  1  0.50018154  0.69009735  0.31990162  1
  Al  Al198  1  0.68401135  0.82026600  0.00031497  1
  Al  Al199  1  0.83311625  0.31679356  0.00049246  1
  Al  Al200  1  0.32735042  0.68722949  0.49886977  1
  Al  Al201  1  0.00108792  0.81065536  0.18830067  1
  Al  Al202  1  0.49764430  0.16876919  0.81729477  1
  Al  Al203  1  0.50189738  0.31710722  0.66938731  1
  Al  Al204  1  0.32325772  0.00043910  0.67183944  1
  Al  Al205  1  0.31724124  0.50079245  0.82489938  1
  Al  Al206  1  0.68839000  0.17457540  0.50077407  1
  Al  Al207  1  0.32078148  0.49847768  0.66798927  1
  Al  Al208  1  0.50142488  0.82265845  0.18751632  1
  Al  Al209  1  0.82046597  0.49982809  0.66930902  1
  Al  Al210  1  0.68485648  0.16810631  -0.00142377  1
  Al  Al211  1  0.81884229  0.00128402  0.17598752  1
  Al  Al212  1  0.49992967  0.32810784  0.32687947  1
  Al  Al213  1  0.67803348  0.00174045  0.67639461  1
  Al  Al214  1  0.00100425  0.31752884  0.31093620  1
  Al  Al215  1  0.49962955  0.67572010  0.81879917  1
  Al  Al216  1  0.50150323  0.32714199  0.82713190  1
  Al  Al217  1  0.82673756  0.50100755  0.31603523  1
  Al  Al218  1  0.82200172  0.50265496  0.82957062  1
  Al  Al219  1  0.31348318  0.31432984  0.49929128  1
  Al  Al220  1  0.32082540  0.50076290  0.17330836  1
  Al  Al221  1  0.31654172  -0.00062447  0.82488381  1
  Al  Al222  1  -0.00002872  0.31108184  0.81889145  1
  Al  Al223  1  0.31403427  0.82285194  -0.00046710  1
  Al  Al224  1  0.17615166  0.00012177  0.17310789  1
  Al  Al225  1  0.00002653  0.69065262  0.30899289  1
  Al  Al226  1  0.50028440  0.32583413  0.17383700  1
  Al  Al227  1  0.67298086  0.32735542  0.49958000  1
  Al  Al228  1  0.31845502  0.50060170  0.32848214  1
  Al  Al229  1  0.50015523  0.17004411  0.32343484  1
  Al  Al230  1  0.67643512  0.68701853  0.49986585  1
  Al  Al231  1  0.31077505  0.17960761  -0.00126183  1
  Al  Al232  1  0.49912496  0.83304748  0.82304008  1
  Al  Al233  1  0.82773960  0.68665251  0.50029953  1
  Al  Al234  1  0.81953411  0.68332692  -0.00046607  1
  Al  Al235  1  0.67624177  0.32407245  0.00017996  1
  Al  Al236  1  0.82499762  0.31044661  0.50054479  1
  Al  Al237  1  0.00077260  0.17478946  0.17726640  1
  Al  Al238  1  0.68619092  0.49814138  0.17223361  1
  Au  Au239  1  0.66809985  0.16921493  0.00238190  1
  Au  Au240  1  0.82771528  0.50060989  0.65466284  1
  Au  Au241  1  0.33128973  0.66409685  -0.00325326  1
  Au  Au242  1  0.68037704  0.49534268  0.15665096  1
  Au  Au243  1  0.15806263  0.67690730  0.00112573  1
  Au  Au244  1  0.00086099  0.32053052  0.65980294  1
  Au  Au245  1  0.50094055  0.33607277  0.84206744  1
  Au  Au246  1  0.32111416  0.83837486  -0.00023792  1
  Au  Au247  1  0.83114036  0.33361887  0.00420877  1
  Au  Au248  1  0.50051593  0.82995366  0.65498114  1
  Au  Au249  1  0.50093291  0.66005158  0.17596057  1
  Au  Au250  1  0.67901957  -0.00357398  0.83221441  1
  Au  Au251  1  0.33821411  -0.00373788  0.33662744  1
  Au  Au252  1  0.00081622  0.17864792  0.16494120  1
  Au  Au253  1  0.15910672  -0.00139012  0.33265241  1
  Au  Au254  1  0.32668050  0.00418882  0.16378129  1
  Au  Au255  1  0.83877373  0.00077336  0.67196456  1
  Au  Au256  1  0.15572820  0.50182009  0.16797018  1
  Au  Au257  1  0.66237216  0.50051403  0.82281694  1
  Au  Au258  1  0.50081814  0.17538432  0.33871820  1
  Au  Au259  1  0.15814949  0.49859947  0.66647948  1
  Au  Au260  1  0.82567904  0.00291070  0.16022962  1
  Au  Au261  1  0.33900472  0.67513217  0.49652795  1
  Au  Au262  1  0.33614889  0.00079278  0.66201784  1
  Au  Au263  1  0.33675560  0.49652382  0.17498036  1
  Au  Au264  1  0.50570970  0.66194950  0.67113822  1
  Au  Au265  1  0.16450617  0.32152037  0.00270980  1
  Au  Au266  1  0.83240781  0.83300310  -0.00430545  1
  Au  Au267  1  0.00010202  0.82598211  0.83371774  1
  Au  Au268  1  0.00334086  0.82462453  0.17863677  1
  Au  Au269  1  0.50272015  0.83517180  0.17609591  1
  Au  Au270  1  0.83801711  0.50577556  0.83493949  1
  Au  Au271  1  0.66372432  -0.00326789  0.32899493  1
  Au  Au272  1  0.49938961  0.82790572  0.83938280  1
  Au  Au273  1  0.83542903  -0.00232704  0.34035546  1
  Au  Au274  1  0.00111238  0.32448270  0.82969779  1
  Au  Au275  1  0.33690051  0.49785533  0.67372186  1
  Au  Au276  1  0.15596378  0.67945707  0.50065860  1
  Au  Au277  1  0.67203311  0.50311940  0.34568544  1
  Au  Au278  1  0.49543167  0.15294698  0.82353877  1
  Au  Au279  1  0.00023990  0.17263455  0.34147829  1
  Au  Au280  1  0.50371717  0.32350159  0.65421075  1
  Au  Au281  1  0.16864352  0.49902175  0.34099894  1
  Au  Au282  1  0.16878151  0.50253827  0.83688439  1
  Au  Au283  1  0.66841065  0.67293750  -0.00259923  1
  Au  Au284  1  0.16552155  0.00225512  0.83511036  1
  Au  Au285  1  0.33224585  0.32547149  -0.00024386  1
  Au  Au286  1  0.00001024  0.82536333  0.66234875  1
  Au  Au287  1  0.66787785  -0.00310892  0.67156315  1
