# generated using pymatgen
data_Ca24Ti8Al207Au49
_symmetry_space_group_name_H-M   'P 1'
_cell_length_a   17.31861962
_cell_length_b   17.31993897
_cell_length_c   17.31854538
_cell_angle_alpha   90.00219456
_cell_angle_beta   90.00035470
_cell_angle_gamma   89.99822474
_symmetry_Int_Tables_number   1
_chemical_formula_structural   Ca24Ti8Al207Au49
_chemical_formula_sum   'Ca24 Ti8 Al207 Au49'
_cell_volume   5194.82643977
_cell_formula_units_Z   1
loop_
 _symmetry_equiv_pos_site_id
 _symmetry_equiv_pos_as_xyz
  1  'x, y, z'
loop_
 _atom_site_type_symbol
 _atom_site_label
 _atom_site_symmetry_multiplicity
 _atom_site_fract_x
 _atom_site_fract_y
 _atom_site_fract_z
 _atom_site_occupancy
  Ca  Ca0  1  0.24930160  0.00278309  0.00197501  1
  Ca  Ca1  1  0.25377870  -0.00318950  0.49768588  1
  Ca  Ca2  1  0.25006820  0.49503741  -0.00104254  1
  Ca  Ca3  1  0.24568563  0.50307193  0.49824762  1
  Ca  Ca4  1  0.75091596  -0.00211174  0.00715886  1
  Ca  Ca5  1  0.75311254  -0.00219857  0.49412126  1
  Ca  Ca6  1  0.74881706  0.50211135  -0.00558611  1
  Ca  Ca7  1  0.75538930  0.50221593  0.50672106  1
  Ca  Ca8  1  0.00298776  0.24859881  0.00188638  1
  Ca  Ca9  1  -0.00043462  0.25200536  0.49914091  1
  Ca  Ca10  1  -0.00165375  0.74807166  0.00061076  1
  Ca  Ca11  1  0.00152709  0.74516862  0.50145562  1
  Ca  Ca12  1  0.49601667  0.25168714  -0.00126022  1
  Ca  Ca13  1  0.50049153  0.25013433  0.49977119  1
  Ca  Ca14  1  0.50117819  0.75033941  0.00201368  1
  Ca  Ca15  1  0.49955878  0.74824417  0.49821629  1
  Ca  Ca16  1  -0.00205321  -0.00215630  0.25032471  1
  Ca  Ca17  1  0.00534584  -0.00344377  0.75167013  1
  Ca  Ca18  1  0.00274902  0.50212069  0.25488917  1
  Ca  Ca19  1  -0.00083813  0.50041928  0.74672873  1
  Ca  Ca20  1  0.49867216  -0.00169463  0.24897270  1
  Ca  Ca21  1  0.49354874  0.00087399  0.75086148  1
  Ca  Ca22  1  0.49657776  0.50587113  0.24917851  1
  Ca  Ca23  1  0.50185501  0.50011905  0.75303260  1
  Ti  Ti24  1  0.24687962  0.24741103  0.24855518  1
  Ti  Ti25  1  0.24902961  0.24944325  0.75177989  1
  Ti  Ti26  1  0.24977344  0.75235113  0.25116953  1
  Ti  Ti27  1  0.25008223  0.74937492  0.74850117  1
  Ti  Ti28  1  0.75256833  0.24818448  0.25028636  1
  Ti  Ti29  1  0.75182608  0.25301520  0.75077511  1
  Ti  Ti30  1  0.74876365  0.75130752  0.25012556  1
  Ti  Ti31  1  0.75019136  0.74842290  0.74855238  1
  Al  Al32  1  0.09370014  0.07827349  0.08286219  1
  Al  Al33  1  0.08665829  0.07201466  0.58924089  1
  Al  Al34  1  0.08544482  0.58023000  0.09439271  1
  Al  Al35  1  0.07555637  0.58930863  0.58738320  1
  Al  Al36  1  0.58233505  0.07522170  0.08413555  1
  Al  Al37  1  0.57176414  0.07850697  0.57196105  1
  Al  Al38  1  0.57526220  0.59040149  0.08463979  1
  Al  Al39  1  0.58567912  0.58010452  0.58980526  1
  Al  Al40  1  0.41354188  0.41389146  0.07325437  1
  Al  Al41  1  0.41165693  0.42704694  0.59402814  1
  Al  Al42  1  0.42248323  0.92134957  0.09517126  1
  Al  Al43  1  0.41312358  0.91016688  0.58867054  1
  Al  Al44  1  0.92457875  0.42030144  0.07491842  1
  Al  Al45  1  0.90531726  0.42419692  0.58327966  1
  Al  Al46  1  0.91585015  0.91251350  0.09820031  1
  Al  Al47  1  0.92568200  0.91397663  0.58121728  1
  Al  Al48  1  0.41231387  0.07451870  0.41182556  1
  Al  Al49  1  0.40131555  0.08733949  0.91848537  1
  Al  Al50  1  0.41770981  0.58942579  0.40895817  1
  Al  Al51  1  0.41466678  0.57468640  0.92116342  1
  Al  Al52  1  0.90792078  0.07952758  0.40915607  1
  Al  Al53  1  0.92600708  0.09255636  0.91547945  1
  Al  Al54  1  0.91919523  0.58939142  0.42865140  1
  Al  Al55  1  0.91357343  0.57798554  0.90119335  1
  Al  Al56  1  0.08199932  0.41679078  0.40753125  1
  Al  Al57  1  0.08892228  0.41173635  0.92194813  1
  Al  Al58  1  0.07747464  0.91437489  0.40076481  1
  Al  Al59  1  0.07921604  0.92575869  0.91675932  1
  Al  Al60  1  0.58374865  0.42427994  0.42420740  1
  Al  Al61  1  0.58597647  0.41243750  0.90672365  1
  Al  Al62  1  0.57932178  0.91654510  0.40683557  1
  Al  Al63  1  0.58259694  0.90780636  0.92896091  1
  Al  Al64  1  0.08223547  0.07518886  0.40984896  1
  Al  Al65  1  0.08706738  0.09283980  0.91440737  1
  Al  Al66  1  0.08446185  0.57912990  0.41415609  1
  Al  Al67  1  0.07853961  0.58058510  0.91498776  1
  Al  Al68  1  0.58383624  0.07490981  0.41143844  1
  Al  Al69  1  0.57442672  0.07995947  0.92664429  1
  Al  Al70  1  0.57773060  0.58756584  0.41175678  1
  Al  Al71  1  0.59232621  0.57516427  0.91098633  1
  Al  Al72  1  0.42006451  0.42852943  0.41998737  1
  Al  Al73  1  0.41602933  0.40885313  0.91082572  1
  Al  Al74  1  0.41352916  0.91427351  0.40884845  1
  Al  Al75  1  0.41622521  0.92785141  0.91095832  1
  Al  Al76  1  0.92092797  0.40616989  0.42202726  1
  Al  Al77  1  0.91212507  0.42014889  0.90657792  1
  Al  Al78  1  0.91364477  0.91462029  0.39886269  1
  Al  Al79  1  0.92114826  0.91802036  0.92481634  1
  Al  Al80  1  0.09474671  0.41638923  0.08389859  1
  Al  Al81  1  0.07807237  0.42919074  0.57395003  1
  Al  Al82  1  0.08076138  0.91579863  0.09989092  1
  Al  Al83  1  0.08600304  0.91690748  0.59571627  1
  Al  Al84  1  0.57640872  0.41887012  0.07027899  1
  Al  Al85  1  0.59125867  0.42240344  0.58821310  1
  Al  Al86  1  0.58554015  0.90522861  0.09021869  1
  Al  Al87  1  0.56886166  0.90787027  0.58468879  1
  Al  Al88  1  0.40446653  0.08338199  0.08196492  1
  Al  Al89  1  0.41527027  0.07561054  0.58127263  1
  Al  Al90  1  0.41865964  0.59120140  0.08592448  1
  Al  Al91  1  0.41000662  0.58421599  0.59110523  1
  Al  Al92  1  0.91252865  0.07432616  0.08545077  1
  Al  Al93  1  0.92111369  0.08116896  0.57227669  1
  Al  Al94  1  0.92852763  0.58621525  0.08339262  1
  Al  Al95  1  0.91138255  0.58835636  0.59257397  1
  Al  Al96  1  0.24725679  0.13449652  0.12935127  1
  Al  Al97  1  0.24884614  0.12736745  0.63915666  1
  Al  Al98  1  0.24793035  0.63846690  0.13780750  1
  Al  Al99  1  0.25423327  0.63180273  0.63646375  1
  Al  Al100  1  0.75461426  0.12706685  0.13926406  1
  Al  Al101  1  0.75618137  0.13818091  0.63598589  1
  Al  Al102  1  0.75228942  0.63864103  0.13383105  1
  Al  Al103  1  0.75482617  0.63541909  0.63319945  1
  Al  Al104  1  0.24631429  0.36252247  0.13399615  1
  Al  Al105  1  0.25063151  0.37167772  0.64022686  1
  Al  Al106  1  0.24701339  0.86795682  0.13503367  1
  Al  Al107  1  0.25163497  0.86921412  0.63565593  1
  Al  Al108  1  0.75679405  0.36523602  0.13631728  1
  Al  Al109  1  0.75256132  0.36893784  0.63578524  1
  Al  Al110  1  0.74914716  0.86890990  0.13752619  1
  Al  Al111  1  0.75475528  0.85971355  0.63022456  1
  Al  Al112  1  0.24539547  0.12720435  0.36114471  1
  Al  Al113  1  0.25065947  0.13569924  0.87404144  1
  Al  Al114  1  0.24919075  0.63677483  0.36413237  1
  Al  Al115  1  0.24691236  0.63423569  0.86123057  1
  Al  Al116  1  0.75617092  0.13237059  0.36192864  1
  Al  Al117  1  0.74926484  0.13734461  0.86602802  1
  Al  Al118  1  0.75399218  0.64026595  0.36477805  1
  Al  Al119  1  0.74909932  0.62989921  0.86169418  1
  Al  Al120  1  0.24533389  0.36744990  0.36309239  1
  Al  Al121  1  0.24700418  0.36384289  0.86661678  1
  Al  Al122  1  0.25111954  0.87251453  0.35943654  1
  Al  Al123  1  0.25281704  0.86729831  0.86417882  1
  Al  Al124  1  0.75568991  0.36138525  0.37157082  1
  Al  Al125  1  0.75170433  0.37014132  0.86228165  1
  Al  Al126  1  0.75161569  0.86264106  0.36384914  1
  Al  Al127  1  0.74806243  0.86181784  0.86694252  1
  Al  Al128  1  0.13398085  0.24765406  0.12991378  1
  Al  Al129  1  0.13675505  0.25306384  0.63889600  1
  Al  Al130  1  0.13315542  0.75454625  0.13720370  1
  Al  Al131  1  0.13097078  0.74800269  0.63759249  1
  Al  Al132  1  0.63792820  0.24792541  0.13711986  1
  Al  Al133  1  0.63769307  0.25709844  0.63656277  1
  Al  Al134  1  0.63486519  0.75494607  0.13245391  1
  Al  Al135  1  0.63211122  0.74559849  0.63321028  1
  Al  Al136  1  0.12848792  0.24766535  0.36029500  1
  Al  Al137  1  0.13450402  0.24980620  0.86909550  1
  Al  Al138  1  0.12828908  0.75603553  0.36007388  1
  Al  Al139  1  0.13658411  0.74989870  0.86395638  1
  Al  Al140  1  0.63955558  0.25051729  0.36583365  1
  Al  Al141  1  0.63336615  0.25393381  0.86376924  1
  Al  Al142  1  0.62935269  0.75159915  0.36429830  1
  Al  Al143  1  0.63276281  0.75064999  0.86411920  1
  Al  Al144  1  0.36208229  0.24603586  0.13461299  1
  Al  Al145  1  0.36016005  0.24778586  0.64002718  1
  Al  Al146  1  0.36452452  0.75382411  0.13720466  1
  Al  Al147  1  0.36945886  0.74945907  0.63801992  1
  Al  Al148  1  0.86978558  0.24687396  0.13611032  1
  Al  Al149  1  0.86587938  0.25561992  0.63472456  1
  Al  Al150  1  0.86673406  0.75582864  0.13661410  1
  Al  Al151  1  0.87266101  0.74463353  0.63485435  1
  Al  Al152  1  0.35697354  0.24702080  0.36229446  1
  Al  Al153  1  0.36373004  0.24940999  0.86423692  1
  Al  Al154  1  0.37028886  0.74966587  0.36183462  1
  Al  Al155  1  0.36651738  0.74880874  0.86164595  1
  Al  Al156  1  0.87102051  0.24962208  0.36256278  1
  Al  Al157  1  0.86979628  0.25400955  0.86562648  1
  Al  Al158  1  0.87288530  0.75132372  0.35988522  1
  Al  Al159  1  0.86293798  0.74684664  0.86616379  1
  Al  Al160  1  0.13204447  0.12938264  0.24687425  1
  Al  Al161  1  0.13607183  0.13689155  0.75445585  1
  Al  Al162  1  0.13363028  0.63524007  0.25561715  1
  Al  Al163  1  0.13610824  0.62754238  0.74440583  1
  Al  Al164  1  0.63623643  0.13380392  0.24919620  1
  Al  Al165  1  0.63618489  0.13775563  0.74977421  1
  Al  Al166  1  0.63644537  0.63785862  0.24957149  1
  Al  Al167  1  0.63153590  0.63632871  0.75089736  1
  Al  Al168  1  0.36243878  0.13340291  0.25031935  1
  Al  Al169  1  0.35917602  0.12703152  0.75411892  1
  Al  Al170  1  0.36606407  0.63431809  0.25148587  1
  Al  Al171  1  0.37015092  0.63383367  0.74828234  1
  Al  Al172  1  0.87140059  0.13334560  0.25120560  1
  Al  Al173  1  0.86568186  0.13588450  0.75421737  1
  Al  Al174  1  0.86583863  0.63449999  0.24933739  1
  Al  Al175  1  0.86203044  0.62796681  0.74732213  1
  Al  Al176  1  0.13258183  0.36393602  0.25301456  1
  Al  Al177  1  0.13327889  0.36975058  0.75439900  1
  Al  Al178  1  0.13334271  0.87118150  0.24835410  1
  Al  Al179  1  0.13625595  0.86721805  0.74627352  1
  Al  Al180  1  0.64152943  0.36284788  0.25120308  1
  Al  Al181  1  0.63572258  0.37001856  0.75531425  1
  Al  Al182  1  0.62654068  0.86345198  0.24851136  1
  Al  Al183  1  0.63320692  0.86227999  0.74402129  1
  Al  Al184  1  0.36097858  0.36535264  0.24911446  1
  Al  Al185  1  0.36498621  0.36353180  0.75291234  1
  Al  Al186  1  0.37048160  0.86476653  0.25124597  1
  Al  Al187  1  0.36473421  0.86919909  0.74711251  1
  Al  Al188  1  0.86810665  0.36546592  0.25315894  1
  Al  Al189  1  0.86609324  0.37144103  0.75092960  1
  Al  Al190  1  0.86450840  0.86816264  0.24984695  1
  Al  Al191  1  0.86277999  0.86394199  0.74808677  1
  Al  Al192  1  0.49789871  0.17455874  0.67222221  1
  Al  Al193  1  0.18468643  0.49963973  0.19276893  1
  Al  Al194  1  0.49977088  0.32906146  0.68565361  1
  Al  Al195  1  0.68893000  0.50324542  0.69005500  1
  Al  Al196  1  0.31187861  0.31041413  -0.00071081  1
  Al  Al197  1  0.67128155  0.18033315  0.50150246  1
  Al  Al198  1  0.17012219  0.17482693  0.49980021  1
  Al  Al199  1  0.18617868  0.00178173  0.81742484  1
  Al  Al200  1  0.33090380  0.83333017  0.00125360  1
  Al  Al201  1  0.49847988  0.32283672  0.32920161  1
  Al  Al202  1  0.49966675  0.32560439  0.17132190  1
  Al  Al203  1  0.66947718  0.00095706  0.66905399  1
  Al  Al204  1  0.17497724  0.82648993  0.49848540  1
  Al  Al205  1  0.67545065  0.50186035  0.32551908  1
  Al  Al206  1  0.68157571  0.67541483  0.49792402  1
  Al  Al207  1  0.33178333  0.32539940  0.50231625  1
  Al  Al208  1  0.00076869  0.68710864  0.18470931  1
  Al  Al209  1  0.49870039  0.18077690  0.82927113  1
  Al  Al210  1  0.49832150  0.17066842  0.17075320  1
  Al  Al211  1  0.17849709  0.67309866  0.50034968  1
  Al  Al212  1  0.50034371  0.69307028  0.19046876  1
  Al  Al213  1  0.32672528  0.81800927  0.49852228  1
  Al  Al214  1  0.31865612  0.67530831  -0.00143643  1
  Al  Al215  1  0.82685970  0.18480063  0.49852007  1
  Al  Al216  1  0.00005903  0.67341218  0.81179936  1
  Al  Al217  1  0.49894252  0.17168070  0.32597363  1
  Al  Al218  1  0.00243451  0.32224453  0.18042279  1
  Al  Al219  1  0.16400814  0.82359955  0.00042014  1
  Al  Al220  1  0.67393938  0.49854863  0.16704682  1
  Al  Al221  1  0.49902784  0.82367704  0.81698237  1
  Al  Al222  1  0.82341307  0.82426852  0.00236438  1
  Al  Al223  1  0.32752348  0.17197606  0.49958760  1
  Al  Al224  1  0.00054472  0.17185108  0.68138094  1
  Al  Al225  1  0.83238510  0.49952100  0.32970927  1
  Al  Al226  1  -0.00031599  0.82512292  0.82354904  1
  Al  Al227  1  0.67854379  0.32230357  0.00008338  1
  Al  Al228  1  0.00010033  0.33173576  0.67614632  1
  Al  Al229  1  0.67880772  0.68347822  -0.00101361  1
  Al  Al230  1  0.67651412  -0.00194554  0.83337937  1
  Al  Al231  1  0.82813329  0.81523945  0.49675543  1
  Al  Al232  1  0.68631208  -0.00221284  0.31681040  1
  Al  Al233  1  0.82174104  0.17578463  -0.00107516  1
  Al  Al234  1  0.17133492  0.32763635  0.49882762  1
  Al  Al235  1  0.31945102  0.50084510  0.31741309  1
  Al  Al236  1  0.82748481  -0.00068463  0.67314295  1
  Al  Al237  1  0.32113648  0.49911775  0.81624121  1
  Al  Al238  1  0.31062666  -0.00034907  0.18974004  1
  Au  Au239  1  0.34336513  0.83059168  0.00131114  1
  Au  Au240  1  -0.00163327  0.17145749  0.33567508  1
  Au  Au241  1  0.00131577  0.67490406  0.33346207  1
  Au  Au242  1  0.50583016  0.33776527  0.32502860  1
  Au  Au243  1  0.83088737  0.00323149  0.66178852  1
  Au  Au244  1  0.84126273  0.82564068  0.49578782  1
  Au  Au245  1  0.67351178  0.16408573  0.49719282  1
  Au  Au246  1  0.32878541  0.49918064  0.15864149  1
  Au  Au247  1  -0.00157190  0.33938500  0.66231426  1
  Au  Au248  1  0.17233314  0.15874285  0.50410883  1
  Au  Au249  1  0.32791604  -0.00092958  0.67249623  1
  Au  Au250  1  0.17051707  0.00211496  0.82448151  1
  Au  Au251  1  0.32470535  0.34087750  0.50397435  1
  Au  Au252  1  0.33141405  0.66766896  0.49946731  1
  Au  Au253  1  0.00272475  0.32437506  0.84124667  1
  Au  Au254  1  0.49844426  0.82163314  0.32087114  1
  Au  Au255  1  0.67414325  0.66040441  0.49824908  1
  Au  Au256  1  0.83751225  0.50384668  0.16258540  1
  Au  Au257  1  0.16266376  0.83701778  0.49758409  1
  Au  Au258  1  0.49506683  0.16421453  0.82853669  1
  Au  Au259  1  0.65210362  -0.00213000  0.67033713  1
  Au  Au260  1  0.31684990  0.50231095  0.32988123  1
  Au  Au261  1  0.50006831  0.83895196  0.82432079  1
  Au  Au262  1  0.50014174  0.67346288  0.66520179  1
  Au  Au263  1  0.16634369  0.83592092  0.00164324  1
  Au  Au264  1  0.67283856  -0.00259286  0.84996596  1
  Au  Au265  1  0.82567329  0.34106843  -0.00318655  1
  Au  Au266  1  0.65763667  0.49691828  0.17186252  1
  Au  Au267  1  0.67354436  -0.00308472  0.17034374  1
  Au  Au268  1  0.66276719  0.83698223  0.49840279  1
  Au  Au269  1  0.00103029  0.82273539  0.67599420  1
  Au  Au270  1  0.17506955  0.50235640  0.66183676  1
  Au  Au271  1  0.49831466  0.65857863  0.83311876  1
  Au  Au272  1  0.17267722  0.49789158  0.83338171  1
  Au  Au273  1  0.00286090  0.33656864  0.17167733  1
  Au  Au274  1  0.82690362  0.16552923  0.00366392  1
  Au  Au275  1  0.82335251  0.83703339  0.00094461  1
  Au  Au276  1  0.00127643  0.15510756  0.67876531  1
  Au  Au277  1  0.83971658  0.66249033  -0.00357983  1
  Au  Au278  1  0.16970507  0.65902768  0.00204088  1
  Au  Au279  1  0.00235639  0.15568656  0.16883594  1
  Au  Au280  1  0.17621219  0.17853416  0.00073486  1
  Au  Au281  1  0.68149340  0.34203804  0.50138643  1
  Au  Au282  1  0.66476404  0.67421542  -0.00120663  1
  Au  Au283  1  0.50111903  0.33381791  0.66959510  1
  Au  Au284  1  0.17616761  -0.00116443  0.31584520  1
  Au  Au285  1  0.84789874  0.00133656  0.82833671  1
  Au  Au286  1  0.66563029  0.17352799  0.00463999  1
  Au  Au287  1  0.82867036  0.49818833  0.34624088  1
