# generated using pymatgen
data_Ca24Ti8Al207Au49
_symmetry_space_group_name_H-M   'P 1'
_cell_length_a   17.32066010
_cell_length_b   17.32119613
_cell_length_c   17.32078307
_cell_angle_alpha   90.00369588
_cell_angle_beta   89.99626722
_cell_angle_gamma   89.99892296
_symmetry_Int_Tables_number   1
_chemical_formula_structural   Ca24Ti8Al207Au49
_chemical_formula_sum   'Ca24 Ti8 Al207 Au49'
_cell_volume   5196.48693092
_cell_formula_units_Z   1
loop_
 _symmetry_equiv_pos_site_id
 _symmetry_equiv_pos_as_xyz
  1  'x, y, z'
loop_
 _atom_site_type_symbol
 _atom_site_label
 _atom_site_symmetry_multiplicity
 _atom_site_fract_x
 _atom_site_fract_y
 _atom_site_fract_z
 _atom_site_occupancy
  Ca  Ca0  1  0.25004407  0.00042871  0.00103910  1
  Ca  Ca1  1  0.24738795  0.00086373  0.49648440  1
  Ca  Ca2  1  0.25279422  0.49563610  0.00213521  1
  Ca  Ca3  1  0.25347554  0.49939541  0.49702503  1
  Ca  Ca4  1  0.74730434  -0.00257730  0.00205418  1
  Ca  Ca5  1  0.75103496  0.00280711  0.49466277  1
  Ca  Ca6  1  0.74434104  0.50573610  0.00088208  1
  Ca  Ca7  1  0.74511484  0.49549530  0.49767393  1
  Ca  Ca8  1  0.00294899  0.25254692  -0.00207084  1
  Ca  Ca9  1  -0.00282066  0.24473209  0.50065308  1
  Ca  Ca10  1  -0.00257204  0.74948749  -0.00112077  1
  Ca  Ca11  1  -0.00119353  0.75411894  0.49991416  1
  Ca  Ca12  1  0.49423759  0.25746854  0.00389375  1
  Ca  Ca13  1  0.50129338  0.24989019  0.49566700  1
  Ca  Ca14  1  0.50255752  0.74519142  -0.00006174  1
  Ca  Ca15  1  0.50290738  0.74811353  0.49996219  1
  Ca  Ca16  1  -0.00085257  -0.00389922  0.25889310  1
  Ca  Ca17  1  -0.00315053  0.00197634  0.74556867  1
  Ca  Ca18  1  0.00356219  0.50004719  0.25185598  1
  Ca  Ca19  1  0.00217619  0.49523173  0.74674899  1
  Ca  Ca20  1  0.50067257  0.00184039  0.25495293  1
  Ca  Ca21  1  0.50390920  0.00112249  0.74301569  1
  Ca  Ca22  1  0.49809468  0.49690561  0.25234104  1
  Ca  Ca23  1  0.50105099  0.50171222  0.74802248  1
  Ti  Ti24  1  0.25033600  0.24900001  0.25172051  1
  Ti  Ti25  1  0.25023925  0.24961371  0.74956151  1
  Ti  Ti26  1  0.25174666  0.75002114  0.25186189  1
  Ti  Ti27  1  0.25085769  0.74950019  0.74683023  1
  Ti  Ti28  1  0.74744499  0.24880596  0.25387941  1
  Ti  Ti29  1  0.74821274  0.24967233  0.74546802  1
  Ti  Ti30  1  0.74916562  0.74995227  0.24939231  1
  Ti  Ti31  1  0.74868196  0.75065538  0.74955344  1
  Al  Al32  1  0.08752217  0.08198523  0.08531108  1
  Al  Al33  1  0.07669459  0.08060244  0.58021421  1
  Al  Al34  1  0.08150609  0.57597666  0.08867606  1
  Al  Al35  1  0.08212279  0.58446792  0.57881313  1
  Al  Al36  1  0.57661778  0.08004363  0.09352804  1
  Al  Al37  1  0.59069480  0.07594149  0.57832533  1
  Al  Al38  1  0.58599349  0.58201770  0.08195376  1
  Al  Al39  1  0.58300294  0.58396909  0.57635749  1
  Al  Al40  1  0.41169306  0.41688443  0.10142493  1
  Al  Al41  1  0.42731552  0.42286544  0.57469696  1
  Al  Al42  1  0.40881535  0.92733869  0.08776670  1
  Al  Al43  1  0.41723390  0.91887986  0.58822378  1
  Al  Al44  1  0.92570919  0.43048418  0.07565536  1
  Al  Al45  1  0.91173149  0.40371126  0.58712300  1
  Al  Al46  1  0.91090927  0.91416665  0.09231034  1
  Al  Al47  1  0.91644421  0.92270309  0.57743047  1
  Al  Al48  1  0.42394198  0.09162066  0.40932742  1
  Al  Al49  1  0.41976730  0.08401237  0.91966149  1
  Al  Al50  1  0.40686081  0.57660545  0.41358117  1
  Al  Al51  1  0.41136574  0.58729226  0.92672289  1
  Al  Al52  1  0.91088605  0.08981508  0.41175588  1
  Al  Al53  1  0.92540802  0.07381197  0.91358226  1
  Al  Al54  1  0.91670549  0.57800946  0.41808030  1
  Al  Al55  1  0.92199240  0.58484141  0.92237954  1
  Al  Al56  1  0.08334686  0.42211776  0.41940772  1
  Al  Al57  1  0.09453893  0.41001253  0.90906447  1
  Al  Al58  1  0.08497322  0.91740832  0.41102085  1
  Al  Al59  1  0.07327070  0.92724083  0.91005007  1
  Al  Al60  1  0.58771639  0.40858131  0.40799849  1
  Al  Al61  1  0.57690100  0.42146172  0.92377351  1
  Al  Al62  1  0.59669130  0.92463497  0.42260725  1
  Al  Al63  1  0.59047115  0.91325069  0.91744348  1
  Al  Al64  1  0.07774706  0.08154816  0.41014525  1
  Al  Al65  1  0.08694509  0.08328143  0.91760783  1
  Al  Al66  1  0.08920872  0.58271485  0.41483403  1
  Al  Al67  1  0.08574358  0.57217471  0.90926357  1
  Al  Al68  1  0.58838050  0.08786109  0.40838512  1
  Al  Al69  1  0.57735838  0.07666238  0.90892380  1
  Al  Al70  1  0.59070761  0.57428054  0.41574354  1
  Al  Al71  1  0.58585214  0.58933320  0.92374933  1
  Al  Al72  1  0.41993855  0.41310717  0.40179270  1
  Al  Al73  1  0.41799760  0.41863481  0.92229247  1
  Al  Al74  1  0.41644383  0.92982287  0.42305758  1
  Al  Al75  1  0.42334080  0.92009265  0.91927754  1
  Al  Al76  1  0.90395307  0.41144725  0.42710389  1
  Al  Al77  1  0.93281562  0.41808650  0.91406421  1
  Al  Al78  1  0.91508227  0.91719030  0.40954347  1
  Al  Al79  1  0.91574146  0.91612946  0.91570080  1
  Al  Al80  1  0.10091085  0.41859857  0.07185994  1
  Al  Al81  1  0.07391740  0.41107983  0.58430032  1
  Al  Al82  1  0.07800443  0.92195246  0.09269966  1
  Al  Al83  1  0.08310760  0.91804156  0.57664185  1
  Al  Al84  1  0.57418981  0.41429218  0.09151270  1
  Al  Al85  1  0.58724924  0.40763452  0.57238579  1
  Al  Al86  1  0.59326767  0.91897844  0.07765713  1
  Al  Al87  1  0.59175107  0.91292996  0.58378247  1
  Al  Al88  1  0.41353450  0.08453957  0.09385525  1
  Al  Al89  1  0.41352125  0.07611655  0.58159340  1
  Al  Al90  1  0.40096607  0.57827452  0.08836644  1
  Al  Al91  1  0.41359964  0.58719378  0.57328292  1
  Al  Al92  1  0.91922638  0.06895025  0.09052134  1
  Al  Al93  1  0.90862618  0.08959609  0.57580208  1
  Al  Al94  1  0.91964251  0.59066106  0.08079268  1
  Al  Al95  1  0.91926433  0.57543922  0.58066920  1
  Al  Al96  1  0.25285926  0.13335514  0.13708306  1
  Al  Al97  1  0.24993622  0.13012616  0.63545447  1
  Al  Al98  1  0.25402326  0.63323604  0.13462603  1
  Al  Al99  1  0.24844878  0.63536866  0.62862523  1
  Al  Al100  1  0.74688140  0.13402404  0.14130295  1
  Al  Al101  1  0.74899647  0.13885018  0.62481308  1
  Al  Al102  1  0.74716140  0.63565744  0.13085691  1
  Al  Al103  1  0.74580719  0.63468267  0.63618996  1
  Al  Al104  1  0.25361582  0.36493913  0.13563005  1
  Al  Al105  1  0.25078247  0.36335758  0.63547171  1
  Al  Al106  1  0.25645876  0.86646785  0.13788850  1
  Al  Al107  1  0.25411675  0.87083410  0.63544737  1
  Al  Al108  1  0.74873530  0.36497974  0.13992245  1
  Al  Al109  1  0.74854896  0.36186780  0.62718803  1
  Al  Al110  1  0.74872626  0.86571153  0.13713841  1
  Al  Al111  1  0.74243280  0.86618253  0.62876560  1
  Al  Al112  1  0.25133719  0.12970461  0.36272379  1
  Al  Al113  1  0.24942069  0.13557093  0.86636850  1
  Al  Al114  1  0.25029317  0.63105091  0.36725357  1
  Al  Al115  1  0.25131488  0.63842174  0.86536037  1
  Al  Al116  1  0.74898815  0.13627720  0.37264358  1
  Al  Al117  1  0.74750417  0.13591897  0.86377608  1
  Al  Al118  1  0.74731403  0.63244901  0.36372175  1
  Al  Al119  1  0.74495099  0.63807955  0.87036969  1
  Al  Al120  1  0.25392728  0.36951728  0.36206377  1
  Al  Al121  1  0.24724662  0.36581532  0.87133009  1
  Al  Al122  1  0.25186595  0.87177002  0.36357321  1
  Al  Al123  1  0.25352309  0.86316332  0.86333919  1
  Al  Al124  1  0.74474807  0.36340316  0.37016932  1
  Al  Al125  1  0.74806807  0.36548004  0.86198549  1
  Al  Al126  1  0.74967093  0.86970198  0.36348128  1
  Al  Al127  1  0.74815321  0.86318747  0.86484290  1
  Al  Al128  1  0.13977971  0.24977913  0.13203753  1
  Al  Al129  1  0.13256284  0.25273771  0.63613440  1
  Al  Al130  1  0.13951720  0.75433533  0.13593436  1
  Al  Al131  1  0.12962936  0.74518431  0.63570286  1
  Al  Al132  1  0.63212312  0.25201037  0.14284457  1
  Al  Al133  1  0.63610921  0.24994813  0.62560454  1
  Al  Al134  1  0.63235076  0.74685970  0.13912564  1
  Al  Al135  1  0.63420477  0.75017262  0.63549314  1
  Al  Al136  1  0.13405638  0.24682426  0.36296966  1
  Al  Al137  1  0.13671340  0.25157574  0.87031783  1
  Al  Al138  1  0.13717340  0.75116253  0.36388020  1
  Al  Al139  1  0.13509077  0.74976622  0.86275318  1
  Al  Al140  1  0.63438887  0.24932225  0.37095029  1
  Al  Al141  1  0.63547011  0.25212327  0.85911196  1
  Al  Al142  1  0.63602300  0.75202260  0.36329529  1
  Al  Al143  1  0.62845169  0.74926235  0.86118004  1
  Al  Al144  1  0.36952014  0.25542674  0.13891913  1
  Al  Al145  1  0.36471789  0.24960753  0.63476939  1
  Al  Al146  1  0.36604442  0.74209387  0.13707459  1
  Al  Al147  1  0.36425990  0.74581906  0.63254985  1
  Al  Al148  1  0.86325771  0.24379645  0.14091733  1
  Al  Al149  1  0.86376581  0.25265415  0.62784472  1
  Al  Al150  1  0.86301890  0.75196652  0.13068042  1
  Al  Al151  1  0.86814103  0.75047076  0.63426121  1
  Al  Al152  1  0.36914569  0.25099138  0.36064571  1
  Al  Al153  1  0.36255651  0.25325925  0.86669702  1
  Al  Al154  1  0.36536822  0.74482902  0.36649665  1
  Al  Al155  1  0.36846954  0.74816485  0.86439466  1
  Al  Al156  1  0.86033873  0.24815623  0.37227472  1
  Al  Al157  1  0.86316487  0.24958857  0.86228842  1
  Al  Al158  1  0.86334198  0.75351471  0.36507787  1
  Al  Al159  1  0.86341346  0.74795249  0.86911843  1
  Al  Al160  1  0.13363741  0.13178441  0.25401155  1
  Al  Al161  1  0.13442069  0.13657226  0.74787797  1
  Al  Al162  1  0.13862383  0.63357735  0.25153089  1
  Al  Al163  1  0.13857598  0.63224683  0.75047254  1
  Al  Al164  1  0.63406492  0.13085693  0.25836959  1
  Al  Al165  1  0.63845483  0.13099600  0.74462310  1
  Al  Al166  1  0.62960373  0.63323246  0.25299462  1
  Al  Al167  1  0.63140793  0.63205746  0.75103974  1
  Al  Al168  1  0.36524931  0.13109961  0.25241271  1
  Al  Al169  1  0.36454150  0.13517330  0.74615307  1
  Al  Al170  1  0.36635996  0.62994596  0.25352231  1
  Al  Al171  1  0.37055381  0.63613195  0.75023246  1
  Al  Al172  1  0.86470073  0.13298755  0.26195813  1
  Al  Al173  1  0.86218431  0.13614012  0.74312602  1
  Al  Al174  1  0.86247862  0.63482571  0.25122705  1
  Al  Al175  1  0.86200155  0.63739637  0.74893542  1
  Al  Al176  1  0.13707689  0.36471611  0.25198153  1
  Al  Al177  1  0.13832553  0.36537555  0.75326248  1
  Al  Al178  1  0.13154036  0.86637611  0.25295883  1
  Al  Al179  1  0.13564934  0.86415162  0.74248059  1
  Al  Al180  1  0.63073062  0.36574399  0.25682929  1
  Al  Al181  1  0.63851608  0.37147881  0.74589931  1
  Al  Al182  1  0.63635651  0.87247108  0.25185678  1
  Al  Al183  1  0.63691531  0.87113373  0.74930978  1
  Al  Al184  1  0.36662416  0.36792496  0.25141973  1
  Al  Al185  1  0.36296227  0.36546550  0.75368902  1
  Al  Al186  1  0.36764143  0.86793664  0.25318712  1
  Al  Al187  1  0.36692573  0.86307640  0.74950768  1
  Al  Al188  1  0.86265573  0.36214221  0.25615403  1
  Al  Al189  1  0.86390403  0.36295769  0.74463446  1
  Al  Al190  1  0.86815997  0.86266423  0.25162881  1
  Al  Al191  1  0.86004980  0.86542988  0.74467783  1
  Al  Al192  1  0.81979954  0.82240608  0.49838095  1
  Al  Al193  1  0.67778858  0.49821544  0.17911845  1
  Al  Al194  1  0.50004230  0.18689012  0.19345535  1
  Al  Al195  1  0.17204984  0.17141591  0.49801884  1
  Al  Al196  1  -0.00336204  0.18030859  0.67701504  1
  Al  Al197  1  0.49897442  0.18090965  0.82012211  1
  Al  Al198  1  0.49993031  0.82529723  0.16924470  1
  Al  Al199  1  0.83056949  0.33016629  -0.00011853  1
  Al  Al200  1  0.82669482  0.50085685  0.82869103  1
  Al  Al201  1  -0.00166170  0.17271693  0.18696028  1
  Al  Al202  1  0.17515082  0.81910008  0.49925584  1
  Al  Al203  1  0.68079410  0.80679858  0.00036776  1
  Al  Al204  1  0.00259797  0.68266209  0.17459495  1
  Al  Al205  1  0.50220915  0.82498718  0.33613258  1
  Al  Al206  1  0.32844644  0.50080613  0.67132401  1
  Al  Al207  1  0.17538469  -0.00066452  0.81429955  1
  Al  Al208  1  0.81395459  0.00209292  0.66874215  1
  Al  Al209  1  0.32266928  0.17825702  0.00485884  1
  Al  Al210  1  0.17464268  0.32494416  0.49885697  1
  Al  Al211  1  0.50111416  0.82163188  0.67697746  1
  Al  Al212  1  0.32676465  0.17439195  0.49802775  1
  Al  Al213  1  0.33119191  0.81261642  0.00171692  1
  Al  Al214  1  0.50209691  0.16905528  0.66643935  1
  Al  Al215  1  0.17218281  0.49775324  0.68151242  1
  Al  Al216  1  0.81863597  0.49806233  0.67097272  1
  Al  Al217  1  0.00368242  0.32994532  0.16913719  1
  Al  Al218  1  0.17821676  0.66743608  0.00041856  1
  Al  Al219  1  0.50074011  0.32373036  0.68018424  1
  Al  Al220  1  0.82034225  -0.00003374  0.82230132  1
  Al  Al221  1  0.67212780  0.32741546  0.00306804  1
  Al  Al222  1  0.00115653  0.31766730  0.80967157  1
  Al  Al223  1  0.18842740  0.49927909  0.18074312  1
  Al  Al224  1  0.33016222  0.82127347  0.49992696  1
  Al  Al225  1  -0.00216969  0.82550082  0.81838956  1
  Al  Al226  1  0.32992198  0.32875244  0.49808443  1
  Al  Al227  1  0.83121288  0.16805612  0.00191333  1
  Al  Al228  1  0.81861510  -0.00104907  0.19400678  1
  Al  Al229  1  0.16994945  0.83177441  -0.00336806  1
  Al  Al230  1  0.68087829  0.68660391  0.49811203  1
  Al  Al231  1  0.81856693  0.49620165  0.32277494  1
  Al  Al232  1  0.31239732  0.50125060  0.82949526  1
  Al  Al233  1  0.18635215  -0.00120213  0.19029997  1
  Al  Al234  1  -0.00290576  0.31803487  0.33250232  1
  Al  Al235  1  0.00003879  0.68585180  0.33007734  1
  Al  Al236  1  0.66500631  0.17040370  0.00065948  1
  Al  Al237  1  0.33341010  0.00070025  0.81351015  1
  Al  Al238  1  0.00133086  0.67220754  0.82179831  1
  Au  Au239  1  0.17829928  0.49784305  0.32792476  1
  Au  Au240  1  0.67310390  0.00095253  0.17727594  1
  Au  Au241  1  0.82595984  0.66202814  0.50356194  1
  Au  Au242  1  0.33077253  0.00339384  0.32645273  1
  Au  Au243  1  0.81875417  0.49443484  0.33540439  1
  Au  Au244  1  0.32707976  0.00113853  0.82959509  1
  Au  Au245  1  -0.00180157  0.66902670  0.32758494  1
  Au  Au246  1  0.17527306  0.67025646  0.49883343  1
  Au  Au247  1  0.82541504  0.83679247  -0.00080412  1
  Au  Au248  1  0.16825532  0.49581800  0.66558467  1
  Au  Au249  1  0.49836591  0.67136777  0.66102115  1
  Au  Au250  1  0.50434807  0.83953481  0.34257637  1
  Au  Au251  1  0.32932606  0.50258000  0.83137698  1
  Au  Au252  1  0.32797305  0.16825397  -0.00029427  1
  Au  Au253  1  0.17252910  0.00019303  0.66342008  1
  Au  Au254  1  0.33635794  0.82905166  0.00160595  1
  Au  Au255  1  0.50132995  0.84003516  0.16322821  1
  Au  Au256  1  0.49776759  0.66853910  0.83815313  1
  Au  Au257  1  -0.00207519  0.15759019  0.17930340  1
  Au  Au258  1  0.50269708  0.83631337  0.82549717  1
  Au  Au259  1  0.50002918  0.65756806  0.33574097  1
  Au  Au260  1  0.49800402  0.17305342  0.18348110  1
  Au  Au261  1  0.81724844  0.83485727  0.49694937  1
  Au  Au262  1  0.66524573  0.49637504  0.18001448  1
  Au  Au263  1  -0.00113130  0.83099488  0.17716087  1
  Au  Au264  1  0.82113201  0.66789262  0.00009719  1
  Au  Au265  1  0.16679441  0.17566834  0.00060042  1
  Au  Au266  1  -0.00335395  0.66372359  0.67269760  1
  Au  Au267  1  0.64950503  0.17627752  -0.00246526  1
  Au  Au268  1  0.49474035  0.66154374  0.16378014  1
  Au  Au269  1  -0.00452840  0.18340247  0.66479034  1
  Au  Au270  1  0.18058436  -0.00148882  0.17390171  1
  Au  Au271  1  0.67158298  0.17243329  0.49862315  1
  Au  Au272  1  0.84198430  0.50086085  0.82246091  1
  Au  Au273  1  -0.00138598  0.83852652  0.66985713  1
  Au  Au274  1  -0.00426285  0.32570884  0.34705752  1
  Au  Au275  1  0.15577534  0.83934829  -0.00466269  1
  Au  Au276  1  0.84066605  0.50448584  0.17244869  1
  Au  Au277  1  0.66906699  0.49648928  0.65786811  1
  Au  Au278  1  0.32681054  0.83389299  0.50100491  1
  Au  Au279  1  0.66346248  0.50169565  0.83508369  1
  Au  Au280  1  0.01285446  0.33748680  0.15639462  1
  Au  Au281  1  0.83589840  0.15257516  0.00202380  1
  Au  Au282  1  0.50215631  0.32911535  0.83100052  1
  Au  Au283  1  0.82491551  0.34614744  -0.00105624  1
  Au  Au284  1  0.00128045  0.17247508  0.83324622  1
  Au  Au285  1  0.32851586  0.33433103  0.00617591  1
  Au  Au286  1  0.17332812  0.65173188  -0.00024580  1
  Au  Au287  1  0.67237107  0.00118439  0.82284735  1
