# generated using pymatgen
data_Ca24Ti8Al207Au49
_symmetry_space_group_name_H-M   'P 1'
_cell_length_a   17.31947551
_cell_length_b   17.32036241
_cell_length_c   17.32050108
_cell_angle_alpha   89.99695529
_cell_angle_beta   89.99437635
_cell_angle_gamma   89.99581793
_symmetry_Int_Tables_number   1
_chemical_formula_structural   Ca24Ti8Al207Au49
_chemical_formula_sum   'Ca24 Ti8 Al207 Au49'
_cell_volume   5195.79680929
_cell_formula_units_Z   1
loop_
 _symmetry_equiv_pos_site_id
 _symmetry_equiv_pos_as_xyz
  1  'x, y, z'
loop_
 _atom_site_type_symbol
 _atom_site_label
 _atom_site_symmetry_multiplicity
 _atom_site_fract_x
 _atom_site_fract_y
 _atom_site_fract_z
 _atom_site_occupancy
  Ca  Ca0  1  0.25857862  0.00009348  -0.00120227  1
  Ca  Ca1  1  0.25822020  0.00378019  0.50069402  1
  Ca  Ca2  1  0.25115405  0.49785046  -0.00267491  1
  Ca  Ca3  1  0.25350541  0.49919146  0.50623473  1
  Ca  Ca4  1  0.75349987  -0.00358343  0.00049800  1
  Ca  Ca5  1  0.75194683  0.00032928  0.49861466  1
  Ca  Ca6  1  0.74468083  0.50210476  -0.00072459  1
  Ca  Ca7  1  0.74444725  0.49739940  0.50011018  1
  Ca  Ca8  1  0.00027081  0.24668567  0.00185041  1
  Ca  Ca9  1  0.00138212  0.25201082  0.50219720  1
  Ca  Ca10  1  -0.00202419  0.74986294  -0.00032559  1
  Ca  Ca11  1  0.00098568  0.74882052  0.50085544  1
  Ca  Ca12  1  0.49917301  0.24981848  -0.00320829  1
  Ca  Ca13  1  0.49984836  0.25459566  0.50247154  1
  Ca  Ca14  1  0.50054467  0.75187591  -0.00004661  1
  Ca  Ca15  1  0.50106381  0.74823576  0.50295638  1
  Ca  Ca16  1  -0.00110264  -0.00222810  0.25325348  1
  Ca  Ca17  1  -0.00241293  -0.00001664  0.75574860  1
  Ca  Ca18  1  -0.00110384  0.50264052  0.25263064  1
  Ca  Ca19  1  0.00025541  0.49876304  0.75187607  1
  Ca  Ca20  1  0.49836686  -0.00087460  0.24851830  1
  Ca  Ca21  1  0.50428944  -0.00128825  0.75936694  1
  Ca  Ca22  1  0.50155692  0.49934589  0.25143261  1
  Ca  Ca23  1  0.50108286  0.49843326  0.74992408  1
  Ti  Ti24  1  0.25142764  0.25148494  0.25213548  1
  Ti  Ti25  1  0.25033517  0.25121107  0.74939123  1
  Ti  Ti26  1  0.25137167  0.74947077  0.24860707  1
  Ti  Ti27  1  0.25200879  0.74752906  0.75212626  1
  Ti  Ti28  1  0.74915707  0.25069566  0.25011905  1
  Ti  Ti29  1  0.74928946  0.25039711  0.74901935  1
  Ti  Ti30  1  0.74890401  0.74939061  0.24967729  1
  Ti  Ti31  1  0.74930582  0.74771825  0.75027878  1
  Al  Al32  1  0.09321044  0.08646963  0.07199551  1
  Al  Al33  1  0.07556689  0.08780629  0.58090013  1
  Al  Al34  1  0.07926884  0.57723776  0.07626706  1
  Al  Al35  1  0.09180903  0.58336054  0.58487166  1
  Al  Al36  1  0.58718259  0.08701226  0.07247824  1
  Al  Al37  1  0.57342468  0.09505914  0.59069703  1
  Al  Al38  1  0.59249944  0.59008764  0.07892349  1
  Al  Al39  1  0.58022640  0.57735379  0.59311324  1
  Al  Al40  1  0.42195783  0.41608610  0.07656665  1
  Al  Al41  1  0.41626705  0.41322294  0.59701881  1
  Al  Al42  1  0.40602864  0.91342629  0.08467979  1
  Al  Al43  1  0.42470585  0.90974406  0.58590184  1
  Al  Al44  1  0.90595498  0.42965264  0.08570316  1
  Al  Al45  1  0.92176543  0.42352231  0.58092761  1
  Al  Al46  1  0.90876204  0.91678080  0.08249501  1
  Al  Al47  1  0.90870972  0.91546670  0.57923433  1
  Al  Al48  1  0.41058785  0.08765569  0.42015545  1
  Al  Al49  1  0.42027829  0.09072201  0.91686393  1
  Al  Al50  1  0.42298660  0.57877990  0.41551281  1
  Al  Al51  1  0.42159866  0.58268195  0.91017923  1
  Al  Al52  1  0.91676048  0.07492970  0.41864686  1
  Al  Al53  1  0.91495672  0.08354333  0.90949585  1
  Al  Al54  1  0.91550750  0.58377394  0.41728859  1
  Al  Al55  1  0.91479791  0.59722474  0.91910178  1
  Al  Al56  1  0.09142632  0.42591813  0.41290163  1
  Al  Al57  1  0.08740358  0.41579876  0.92033615  1
  Al  Al58  1  0.07964458  0.90641994  0.41788194  1
  Al  Al59  1  0.07528012  0.91466833  0.92199097  1
  Al  Al60  1  0.58140872  0.41485963  0.41250964  1
  Al  Al61  1  0.58187389  0.40693294  0.90731402  1
  Al  Al62  1  0.57892166  0.91608291  0.40796594  1
  Al  Al63  1  0.57562757  0.90839304  0.91575358  1
  Al  Al64  1  0.07916647  0.08027734  0.42414879  1
  Al  Al65  1  0.07765654  0.10144166  0.91359131  1
  Al  Al66  1  0.09213247  0.58243528  0.41719705  1
  Al  Al67  1  0.07829603  0.58850097  0.91079701  1
  Al  Al68  1  0.57884312  0.07877453  0.41737217  1
  Al  Al69  1  0.58236305  0.10031419  0.91189653  1
  Al  Al70  1  0.57963675  0.57648911  0.41386490  1
  Al  Al71  1  0.58682597  0.58995974  0.91460808  1
  Al  Al72  1  0.42049613  0.40999425  0.41370768  1
  Al  Al73  1  0.42043811  0.40748665  0.90448354  1
  Al  Al74  1  0.42049815  0.91571236  0.40872674  1
  Al  Al75  1  0.41572906  0.91089808  0.92083500  1
  Al  Al76  1  0.91838668  0.42339935  0.41768957  1
  Al  Al77  1  0.92312008  0.42424776  0.92505456  1
  Al  Al78  1  0.91400904  0.90856451  0.41811490  1
  Al  Al79  1  0.91133824  0.91921007  0.91347452  1
  Al  Al80  1  0.09405017  0.41887956  0.07599122  1
  Al  Al81  1  0.09034951  0.42619261  0.58766322  1
  Al  Al82  1  0.08167215  0.91862727  0.08031352  1
  Al  Al83  1  0.08140242  0.90726154  0.57163739  1
  Al  Al84  1  0.58434426  0.41723389  0.08068488  1
  Al  Al85  1  0.58112490  0.41336718  0.59554874  1
  Al  Al86  1  0.57730977  0.91664271  0.07848331  1
  Al  Al87  1  0.57718006  0.91099039  0.58777394  1
  Al  Al88  1  0.41074917  0.07769415  0.08137860  1
  Al  Al89  1  0.41496709  0.10561795  0.58221628  1
  Al  Al90  1  0.42448706  0.58078070  0.07823767  1
  Al  Al91  1  0.41801415  0.57811198  0.59520469  1
  Al  Al92  1  0.90639273  0.07364175  0.07940298  1
  Al  Al93  1  0.91619482  0.07666309  0.58970155  1
  Al  Al94  1  0.90176742  0.58830843  0.08187002  1
  Al  Al95  1  0.91776910  0.58420418  0.58253702  1
  Al  Al96  1  0.25100906  0.13804615  0.13574295  1
  Al  Al97  1  0.25514298  0.13935316  0.63599038  1
  Al  Al98  1  0.25089350  0.63765555  0.13567451  1
  Al  Al99  1  0.25125957  0.63063410  0.63907508  1
  Al  Al100  1  0.75104142  0.13551129  0.13517715  1
  Al  Al101  1  0.74869914  0.14016917  0.63390532  1
  Al  Al102  1  0.74918471  0.63361510  0.13161645  1
  Al  Al103  1  0.74948630  0.62917329  0.63603228  1
  Al  Al104  1  0.24868042  0.36304580  0.13722318  1
  Al  Al105  1  0.25474177  0.36267995  0.63113149  1
  Al  Al106  1  0.25573327  0.86401373  0.12819455  1
  Al  Al107  1  0.24723663  0.85950084  0.63765440  1
  Al  Al108  1  0.74795318  0.37004684  0.13610316  1
  Al  Al109  1  0.74454884  0.36937879  0.63920135  1
  Al  Al110  1  0.74963074  0.86197378  0.13478669  1
  Al  Al111  1  0.74970357  0.86210970  0.63613694  1
  Al  Al112  1  0.25558991  0.13754358  0.36770669  1
  Al  Al113  1  0.25178968  0.13953152  0.86050454  1
  Al  Al114  1  0.25177678  0.63039946  0.36314108  1
  Al  Al115  1  0.25477608  0.63391434  0.86281819  1
  Al  Al116  1  0.75050274  0.13922980  0.37064079  1
  Al  Al117  1  0.74688777  0.13706871  0.86328375  1
  Al  Al118  1  0.75158380  0.63557796  0.36773456  1
  Al  Al119  1  0.74803173  0.63612722  0.86690112  1
  Al  Al120  1  0.25219953  0.36563231  0.37079589  1
  Al  Al121  1  0.25106746  0.36714933  0.86064329  1
  Al  Al122  1  0.25006981  0.86110501  0.36080203  1
  Al  Al123  1  0.25152750  0.86258051  0.87162551  1
  Al  Al124  1  0.75074332  0.36361189  0.36421788  1
  Al  Al125  1  0.74767802  0.36167796  0.86171863  1
  Al  Al126  1  0.75537650  0.86494454  0.36429595  1
  Al  Al127  1  0.75157621  0.86336528  0.86589603  1
  Al  Al128  1  0.13252865  0.24934386  0.13590027  1
  Al  Al129  1  0.13141324  0.25035644  0.63546014  1
  Al  Al130  1  0.13467473  0.75304850  0.13314385  1
  Al  Al131  1  0.13400397  0.74591096  0.63685471  1
  Al  Al132  1  0.63646095  0.24807900  0.13521288  1
  Al  Al133  1  0.62863805  0.25006910  0.63809116  1
  Al  Al134  1  0.63061950  0.74799796  0.13548851  1
  Al  Al135  1  0.63418363  0.74767227  0.63439180  1
  Al  Al136  1  0.13334344  0.25114713  0.36708354  1
  Al  Al137  1  0.13324584  0.24845485  0.86435298  1
  Al  Al138  1  0.13725163  0.74914575  0.36444779  1
  Al  Al139  1  0.13580105  0.74857440  0.86468956  1
  Al  Al140  1  0.62906987  0.25016877  0.36426293  1
  Al  Al141  1  0.62848565  0.24930330  0.86058398  1
  Al  Al142  1  0.63495787  0.75398040  0.36550423  1
  Al  Al143  1  0.63457163  0.74779702  0.86571347  1
  Al  Al144  1  0.36407299  0.25317180  0.13525451  1
  Al  Al145  1  0.37052468  0.25280037  0.63489810  1
  Al  Al146  1  0.37178346  0.75284851  0.13519060  1
  Al  Al147  1  0.36694924  0.74525077  0.63763582  1
  Al  Al148  1  0.86422234  0.24943559  0.13729029  1
  Al  Al149  1  0.87100170  0.24635372  0.63790398  1
  Al  Al150  1  0.86305455  0.74647259  0.13387355  1
  Al  Al151  1  0.86211094  0.74808353  0.63099426  1
  Al  Al152  1  0.36792036  0.25006013  0.37064723  1
  Al  Al153  1  0.37120370  0.25242815  0.86062079  1
  Al  Al154  1  0.36673824  0.75120822  0.36609495  1
  Al  Al155  1  0.37013388  0.75527375  0.86518795  1
  Al  Al156  1  0.86990652  0.24967808  0.35900163  1
  Al  Al157  1  0.86691032  0.24567831  0.86310314  1
  Al  Al158  1  0.86392637  0.74800221  0.36597799  1
  Al  Al159  1  0.86419991  0.74391219  0.86638402  1
  Al  Al160  1  0.13508512  0.13872954  0.25288138  1
  Al  Al161  1  0.12967516  0.13696001  0.75061646  1
  Al  Al162  1  0.13421479  0.63607093  0.25247754  1
  Al  Al163  1  0.13287281  0.63387890  0.75025501  1
  Al  Al164  1  0.63275670  0.13581634  0.25262950  1
  Al  Al165  1  0.62752215  0.13555263  0.74997952  1
  Al  Al166  1  0.63637169  0.63306639  0.24592064  1
  Al  Al167  1  0.63428528  0.63297136  0.74723912  1
  Al  Al168  1  0.36634125  0.13726146  0.24902823  1
  Al  Al169  1  0.37273581  0.14118185  0.75006872  1
  Al  Al170  1  0.36666707  0.63555263  0.25013489  1
  Al  Al171  1  0.36771095  0.62949050  0.74937925  1
  Al  Al172  1  0.86138360  0.12763429  0.25207390  1
  Al  Al173  1  0.86640933  0.13417311  0.75199664  1
  Al  Al174  1  0.86274650  0.62989292  0.24705277  1
  Al  Al175  1  0.86978521  0.63615598  0.74908977  1
  Al  Al176  1  0.13549234  0.36520328  0.25458060  1
  Al  Al177  1  0.13775872  0.37003684  0.74343630  1
  Al  Al178  1  0.13546736  0.86407398  0.24394974  1
  Al  Al179  1  0.13663803  0.86175956  0.75331910  1
  Al  Al180  1  0.63429519  0.36430391  0.25070006  1
  Al  Al181  1  0.62701053  0.36191479  0.74862294  1
  Al  Al182  1  0.62931256  0.86412260  0.24724812  1
  Al  Al183  1  0.63492521  0.86537448  0.75524942  1
  Al  Al184  1  0.36666305  0.36458495  0.25874027  1
  Al  Al185  1  0.36850566  0.36577535  0.74679331  1
  Al  Al186  1  0.36704232  0.86457333  0.24706686  1
  Al  Al187  1  0.36360456  0.86476607  0.75203255  1
  Al  Al188  1  0.86405588  0.37072190  0.24918297  1
  Al  Al189  1  0.86702566  0.36512661  0.74530864  1
  Al  Al190  1  0.86235501  0.86779630  0.24719984  1
  Al  Al191  1  0.86176986  0.86272474  0.75386557  1
  Al  Al192  1  0.17127595  -0.00252303  0.32814635  1
  Al  Al193  1  0.17615935  0.68381618  0.50050354  1
  Al  Al194  1  0.82945240  0.31962448  0.50143351  1
  Al  Al195  1  0.50014669  0.80888838  0.69329088  1
  Al  Al196  1  0.17089860  -0.00378188  0.66885875  1
  Al  Al197  1  0.68196961  0.49934075  0.31706470  1
  Al  Al198  1  0.81548819  0.17447377  -0.00153905  1
  Al  Al199  1  0.33134460  0.68614439  0.00061947  1
  Al  Al200  1  0.49981182  0.32736785  0.18184719  1
  Al  Al201  1  0.67196617  0.49823263  0.81763299  1
  Al  Al202  1  0.31353395  0.18020588  -0.00162494  1
  Al  Al203  1  0.17973335  0.50135955  0.82431952  1
  Al  Al204  1  0.49908680  0.17091242  0.17367760  1
  Al  Al205  1  0.32814009  0.00092844  0.82877145  1
  Al  Al206  1  0.67015510  0.32276890  0.50201433  1
  Al  Al207  1  0.50219061  0.68330436  0.32043069  1
  Al  Al208  1  0.32993455  0.49825140  0.17988696  1
  Al  Al209  1  0.00067677  0.67456673  0.17304541  1
  Al  Al210  1  0.67263878  0.81561700  0.00057992  1
  Al  Al211  1  0.33573468  0.00432331  0.67182482  1
  Al  Al212  1  0.18852576  0.00175485  0.17197703  1
  Al  Al213  1  -0.00089181  0.33346326  0.17351090  1
  Al  Al214  1  0.33168784  0.67285951  0.50318398  1
  Al  Al215  1  0.68410960  0.82988671  0.49803155  1
  Al  Al216  1  0.17068160  0.00153819  0.83193977  1
  Al  Al217  1  0.31114103  0.83401499  0.50034654  1
  Al  Al218  1  0.32709282  0.00036112  0.31525537  1
  Al  Al219  1  0.67928624  -0.00073691  0.83545163  1
  Al  Al220  1  0.00136954  0.32077235  0.82503038  1
  Al  Al221  1  -0.00186671  0.81629913  0.82761470  1
  Al  Al222  1  0.67770820  0.66667547  0.50182248  1
  Al  Al223  1  0.82269338  -0.00154782  0.68675551  1
  Al  Al224  1  0.82517934  0.32835017  0.00003451  1
  Al  Al225  1  0.18457839  0.18235324  0.50107766  1
  Al  Al226  1  0.18563600  0.31028239  -0.00134494  1
  Al  Al227  1  -0.00358165  0.81866633  0.67451351  1
  Al  Al228  1  0.68519224  -0.00063789  0.16430750  1
  Al  Al229  1  0.82797203  0.50020841  0.82317952  1
  Al  Al230  1  0.68165060  0.00055664  0.32219537  1
  Al  Al231  1  0.50032599  0.68924468  0.80747942  1
  Al  Al232  1  0.17306155  0.50157583  0.18280551  1
  Al  Al233  1  -0.00242815  0.16480382  0.17515121  1
  Al  Al234  1  0.82508851  0.81589714  -0.00125778  1
  Al  Al235  1  0.67288399  0.31425309  -0.00169546  1
  Al  Al236  1  0.17511659  0.67696434  -0.00090068  1
  Al  Al237  1  0.67177929  0.00097877  0.67398679  1
  Al  Al238  1  -0.00141482  0.81791419  0.31956919  1
  Au  Au239  1  0.82368232  0.33545856  0.50130270  1
  Au  Au240  1  0.83036443  0.50128638  0.32491773  1
  Au  Au241  1  -0.00031414  0.66576619  0.16433427  1
  Au  Au242  1  0.67351118  0.50031247  0.16631608  1
  Au  Au243  1  0.33601718  0.49656749  0.81907357  1
  Au  Au244  1  0.50325385  0.67867616  0.82021362  1
  Au  Au245  1  0.32399444  0.49796719  0.16409582  1
  Au  Au246  1  0.16944694  0.82670433  -0.00124520  1
  Au  Au247  1  0.17595668  0.16770315  0.50151856  1
  Au  Au248  1  0.50283156  0.66591727  0.17308111  1
  Au  Au249  1  -0.00182596  0.15066208  0.16693633  1
  Au  Au250  1  -0.00265350  0.16427569  0.67866195  1
  Au  Au251  1  0.17607094  -0.00573385  0.34445202  1
  Au  Au252  1  0.00430004  0.33505954  0.66588229  1
  Au  Au253  1  0.16992861  0.00666066  0.84723421  1
  Au  Au254  1  0.49733772  0.17486580  0.33700502  1
  Au  Au255  1  -0.00145327  0.16880597  0.33862937  1
  Au  Au256  1  -0.00343119  0.83463398  0.67149359  1
  Au  Au257  1  0.00408575  0.33476101  0.33795208  1
  Au  Au258  1  0.32959892  0.66917474  -0.00273784  1
  Au  Au259  1  0.17387526  0.34209621  0.50110341  1
  Au  Au260  1  0.35208971  0.00707714  0.67512487  1
  Au  Au261  1  0.83055891  0.15976509  0.50314920  1
  Au  Au262  1  -0.00021970  0.34481931  0.16192031  1
  Au  Au263  1  0.00396762  0.67029864  0.33679189  1
  Au  Au264  1  0.00316464  0.65716677  0.67813461  1
  Au  Au265  1  0.82754420  0.17014599  -0.00195961  1
  Au  Au266  1  0.34112069  0.32595603  0.50348724  1
  Au  Au267  1  0.18341114  -0.00004766  0.15596592  1
  Au  Au268  1  0.32868791  0.66062071  0.50366556  1
  Au  Au269  1  0.33344848  0.32675121  -0.00387149  1
  Au  Au270  1  0.16632929  -0.00425333  0.65331997  1
  Au  Au271  1  0.32776246  0.83687336  0.49860163  1
  Au  Au272  1  0.49723822  0.17434656  0.16154520  1
  Au  Au273  1  0.82637110  0.50421991  0.83893010  1
  Au  Au274  1  0.49704745  0.83517518  0.17384773  1
  Au  Au275  1  0.66865776  0.00042395  0.16828029  1
  Au  Au276  1  -0.00327619  0.32272047  0.84150206  1
  Au  Au277  1  0.67024306  0.00442793  0.65893895  1
  Au  Au278  1  0.16727724  0.49897192  0.82372817  1
  Au  Au279  1  0.66981438  0.83758200  0.49737266  1
  Au  Au280  1  0.65858486  0.17278424  0.49910690  1
  Au  Au281  1  0.83755900  0.67873617  0.50048554  1
  Au  Au282  1  0.83182680  -0.00412711  0.32794927  1
  Au  Au283  1  -0.00431875  0.84023600  0.17256118  1
  Au  Au284  1  0.32502134  0.49752953  0.33977383  1
  Au  Au285  1  0.82164061  0.49984853  0.66241790  1
  Au  Au286  1  0.66659166  0.66084399  0.50159725  1
  Au  Au287  1  0.67146671  -0.00027991  0.84941008  1
