# generated using pymatgen
data_Ca24Ti8Al207Au49
_symmetry_space_group_name_H-M   'P 1'
_cell_length_a   17.32339878
_cell_length_b   17.32378883
_cell_length_c   17.32495033
_cell_angle_alpha   90.00063766
_cell_angle_beta   90.00265040
_cell_angle_gamma   89.99790822
_symmetry_Int_Tables_number   1
_chemical_formula_structural   Ca24Ti8Al207Au49
_chemical_formula_sum   'Ca24 Ti8 Al207 Au49'
_cell_volume   5199.33716233
_cell_formula_units_Z   1
loop_
 _symmetry_equiv_pos_site_id
 _symmetry_equiv_pos_as_xyz
  1  'x, y, z'
loop_
 _atom_site_type_symbol
 _atom_site_label
 _atom_site_symmetry_multiplicity
 _atom_site_fract_x
 _atom_site_fract_y
 _atom_site_fract_z
 _atom_site_occupancy
  Ca  Ca0  1  0.24675418  0.00172547  -0.00179843  1
  Ca  Ca1  1  0.24995123  0.00315672  0.50213844  1
  Ca  Ca2  1  0.24897467  0.49817772  -0.00073085  1
  Ca  Ca3  1  0.24794695  0.49539680  0.49995421  1
  Ca  Ca4  1  0.75108962  0.00177165  0.00097156  1
  Ca  Ca5  1  0.75042191  0.00273600  0.50182562  1
  Ca  Ca6  1  0.75165258  0.49791330  -0.00395742  1
  Ca  Ca7  1  0.75103369  0.49444625  0.49947214  1
  Ca  Ca8  1  0.00003790  0.24902396  -0.00179787  1
  Ca  Ca9  1  0.00022878  0.24867249  0.50199750  1
  Ca  Ca10  1  0.00007849  0.75133619  -0.00174150  1
  Ca  Ca11  1  0.00129780  0.74780574  0.50186468  1
  Ca  Ca12  1  0.49999525  0.24923404  -0.00227508  1
  Ca  Ca13  1  0.49780029  0.24892849  0.50041061  1
  Ca  Ca14  1  0.50301606  0.74784333  -0.00178707  1
  Ca  Ca15  1  0.50002811  0.74957462  0.50334675  1
  Ca  Ca16  1  0.00088562  0.00171667  0.24902608  1
  Ca  Ca17  1  -0.00143182  -0.00061723  0.74949006  1
  Ca  Ca18  1  0.00936046  0.49834977  0.25057994  1
  Ca  Ca19  1  0.00056156  0.50041689  0.74670588  1
  Ca  Ca20  1  0.49654129  0.00593508  0.25193377  1
  Ca  Ca21  1  0.49914205  0.00133781  0.75136109  1
  Ca  Ca22  1  0.49793494  0.49169750  0.25138121  1
  Ca  Ca23  1  0.49779275  0.49840036  0.74996405  1
  Ti  Ti24  1  0.24911284  0.25024260  0.24983139  1
  Ti  Ti25  1  0.24941946  0.24979628  0.74954951  1
  Ti  Ti26  1  0.24892473  0.75049573  0.25125569  1
  Ti  Ti27  1  0.24735242  0.75160481  0.74802663  1
  Ti  Ti28  1  0.75050501  0.24827547  0.25165812  1
  Ti  Ti29  1  0.75155571  0.24970276  0.74977782  1
  Ti  Ti30  1  0.75119002  0.75162594  0.25057924  1
  Ti  Ti31  1  0.75299297  0.75048222  0.74859579  1
  Al  Al32  1  0.07787195  0.08636166  0.08904478  1
  Al  Al33  1  0.08089559  0.09418908  0.58567548  1
  Al  Al34  1  0.09051892  0.57717105  0.08870777  1
  Al  Al35  1  0.08816017  0.57417138  0.58806507  1
  Al  Al36  1  0.58838823  0.09083373  0.07809742  1
  Al  Al37  1  0.58749186  0.08090139  0.58889267  1
  Al  Al38  1  0.58203252  0.57917166  0.07525602  1
  Al  Al39  1  0.58152611  0.57940965  0.58201144  1
  Al  Al40  1  0.41787446  0.40982151  0.09214709  1
  Al  Al41  1  0.41149769  0.42474335  0.57545443  1
  Al  Al42  1  0.41539127  0.92446198  0.07729732  1
  Al  Al43  1  0.42181426  0.92008789  0.57743728  1
  Al  Al44  1  0.91878291  0.42178856  0.08617608  1
  Al  Al45  1  0.91413120  0.40482526  0.58423783  1
  Al  Al46  1  0.91497142  0.91889303  0.07641294  1
  Al  Al47  1  0.91738810  0.92081095  0.58476429  1
  Al  Al48  1  0.40674271  0.08611105  0.41525150  1
  Al  Al49  1  0.41998805  0.09085042  0.91256907  1
  Al  Al50  1  0.40663575  0.57970689  0.42128603  1
  Al  Al51  1  0.42276654  0.57775718  0.91383754  1
  Al  Al52  1  0.91118098  0.08788003  0.42292020  1
  Al  Al53  1  0.91652124  0.08011436  0.92246940  1
  Al  Al54  1  0.92377495  0.58324365  0.41984519  1
  Al  Al55  1  0.91251427  0.58169507  0.90853400  1
  Al  Al56  1  0.09056285  0.41628308  0.41686815  1
  Al  Al57  1  0.08309510  0.41871860  0.92185929  1
  Al  Al58  1  0.07949250  0.92226240  0.41925944  1
  Al  Al59  1  0.08252750  0.91421415  0.90377713  1
  Al  Al60  1  0.58013231  0.39765438  0.41324605  1
  Al  Al61  1  0.58191917  0.41234825  0.92058339  1
  Al  Al62  1  0.58972230  0.91734642  0.42749091  1
  Al  Al63  1  0.58098712  0.92063937  0.91969489  1
  Al  Al64  1  0.08572056  0.08896181  0.42260427  1
  Al  Al65  1  0.08543275  0.07371803  0.91269776  1
  Al  Al66  1  0.08640140  0.57782085  0.40980878  1
  Al  Al67  1  0.08051451  0.58039193  0.91681085  1
  Al  Al68  1  0.58156132  0.08279504  0.42184713  1
  Al  Al69  1  0.58358835  0.09604256  0.91472947  1
  Al  Al70  1  0.58096945  0.57639027  0.42415742  1
  Al  Al71  1  0.58144358  0.58653668  0.91795455  1
  Al  Al72  1  0.41755507  0.41406889  0.40816342  1
  Al  Al73  1  0.41884073  0.41569308  0.91597688  1
  Al  Al74  1  0.40860803  0.92652437  0.41622175  1
  Al  Al75  1  0.41711773  0.92215141  0.91800327  1
  Al  Al76  1  0.91246095  0.40907529  0.42425584  1
  Al  Al77  1  0.91241618  0.42275535  0.91162501  1
  Al  Al78  1  0.91769372  0.92302706  0.41935402  1
  Al  Al79  1  0.91966284  0.91138267  0.91261356  1
  Al  Al80  1  0.08965001  0.41762644  0.08723950  1
  Al  Al81  1  0.08665542  0.41052511  0.58695227  1
  Al  Al82  1  0.08082565  0.92572341  0.07773165  1
  Al  Al83  1  0.07786928  0.92146915  0.58251477  1
  Al  Al84  1  0.58014978  0.40803493  0.08510220  1
  Al  Al85  1  0.59215222  0.41400910  0.57047149  1
  Al  Al86  1  0.58368815  0.92449694  0.07899623  1
  Al  Al87  1  0.59378889  0.91720481  0.58669557  1
  Al  Al88  1  0.41769330  0.08463920  0.07852646  1
  Al  Al89  1  0.41996473  0.09000164  0.57739586  1
  Al  Al90  1  0.41918689  0.57257344  0.08277329  1
  Al  Al91  1  0.40484736  0.58793210  0.58044178  1
  Al  Al92  1  0.91811162  0.09309814  0.08577843  1
  Al  Al93  1  0.91623612  0.09691214  0.58540331  1
  Al  Al94  1  0.91914833  0.58249570  0.08130506  1
  Al  Al95  1  0.91752631  0.57883184  0.57957474  1
  Al  Al96  1  0.25188186  0.13801770  0.13696638  1
  Al  Al97  1  0.24788251  0.13417555  0.63350489  1
  Al  Al98  1  0.24640670  0.62551393  0.13959667  1
  Al  Al99  1  0.24715601  0.63150086  0.63569212  1
  Al  Al100  1  0.74818777  0.13231713  0.13867089  1
  Al  Al101  1  0.75205250  0.13135667  0.63376408  1
  Al  Al102  1  0.75346897  0.63963583  0.13362839  1
  Al  Al103  1  0.75179590  0.63522744  0.63612082  1
  Al  Al104  1  0.24994809  0.37080505  0.13923275  1
  Al  Al105  1  0.24854064  0.36973903  0.63562997  1
  Al  Al106  1  0.24854801  0.86424272  0.13624385  1
  Al  Al107  1  0.24907125  0.86586397  0.63146921  1
  Al  Al108  1  0.74868316  0.35628464  0.13597162  1
  Al  Al109  1  0.75323996  0.36238238  0.63007854  1
  Al  Al110  1  0.75351872  0.87137864  0.13683788  1
  Al  Al111  1  0.75224414  0.87194586  0.63809879  1
  Al  Al112  1  0.25140784  0.13649648  0.36294733  1
  Al  Al113  1  0.24876393  0.13094463  0.86301683  1
  Al  Al114  1  0.24785567  0.63328339  0.36551113  1
  Al  Al115  1  0.24684384  0.63682121  0.86015616  1
  Al  Al116  1  0.75217573  0.13684493  0.36699836  1
  Al  Al117  1  0.75061795  0.13595411  0.86358590  1
  Al  Al118  1  0.74882351  0.63218854  0.36469405  1
  Al  Al119  1  0.75605208  0.63408007  0.86159605  1
  Al  Al120  1  0.24876757  0.36328438  0.36377387  1
  Al  Al121  1  0.25102119  0.36479621  0.86308261  1
  Al  Al122  1  0.25218776  0.86448001  0.37040626  1
  Al  Al123  1  0.24653692  0.87135688  0.86071562  1
  Al  Al124  1  0.75008196  0.36317096  0.36661293  1
  Al  Al125  1  0.75091585  0.36585293  0.86451916  1
  Al  Al126  1  0.74761712  0.86615686  0.36477342  1
  Al  Al127  1  0.75240777  0.86528453  0.86240979  1
  Al  Al128  1  0.13219350  0.25038671  0.13716962  1
  Al  Al129  1  0.13481118  0.24663086  0.63427778  1
  Al  Al130  1  0.13161584  0.74966963  0.13754873  1
  Al  Al131  1  0.12994487  0.75243499  0.63528449  1
  Al  Al132  1  0.63352818  0.24951235  0.13674097  1
  Al  Al133  1  0.63854641  0.25062042  0.63245835  1
  Al  Al134  1  0.63749616  0.75275322  0.13592454  1
  Al  Al135  1  0.63980237  0.75442234  0.62719416  1
  Al  Al136  1  0.13533218  0.24608760  0.36675090  1
  Al  Al137  1  0.13354339  0.25083048  0.86433821  1
  Al  Al138  1  0.13655239  0.75205838  0.36740857  1
  Al  Al139  1  0.13020142  0.75137775  0.86189710  1
  Al  Al140  1  0.63081224  0.25149882  0.36742334  1
  Al  Al141  1  0.63571693  0.24374703  0.86534190  1
  Al  Al142  1  0.63537516  0.74904586  0.37187109  1
  Al  Al143  1  0.63728804  0.75394107  0.86163093  1
  Al  Al144  1  0.36471243  0.25541686  0.13708848  1
  Al  Al145  1  0.36167695  0.24902554  0.63536349  1
  Al  Al146  1  0.35944439  0.74865462  0.13957520  1
  Al  Al147  1  0.36360698  0.75206331  0.62964717  1
  Al  Al148  1  0.87084204  0.24625620  0.13495511  1
  Al  Al149  1  0.86331603  0.24864568  0.63014846  1
  Al  Al150  1  0.87242981  0.75250528  0.13537424  1
  Al  Al151  1  0.87120853  0.75153300  0.63656673  1
  Al  Al152  1  0.36973532  0.25159178  0.36097093  1
  Al  Al153  1  0.36355689  0.24738131  0.86188874  1
  Al  Al154  1  0.36210395  0.74957433  0.37111597  1
  Al  Al155  1  0.36061845  0.75328941  0.85905940  1
  Al  Al156  1  0.86496209  0.24878959  0.37233110  1
  Al  Al157  1  0.86696950  0.24914800  0.86304623  1
  Al  Al158  1  0.86510607  0.75290545  0.36511240  1
  Al  Al159  1  0.87271275  0.74944343  0.86047848  1
  Al  Al160  1  0.12912989  0.13678084  0.25007275  1
  Al  Al161  1  0.13405599  0.13527134  0.74990889  1
  Al  Al162  1  0.13701048  0.63242241  0.25060923  1
  Al  Al163  1  0.12901015  0.63666396  0.74714369  1
  Al  Al164  1  0.63207319  0.13823731  0.25320995  1
  Al  Al165  1  0.63751105  0.13633014  0.74659630  1
  Al  Al166  1  0.63797236  0.63311250  0.25166377  1
  Al  Al167  1  0.63666898  0.63779785  0.74833349  1
  Al  Al168  1  0.36489244  0.13074389  0.25145657  1
  Al  Al169  1  0.36227717  0.13015662  0.75089783  1
  Al  Al170  1  0.36236183  0.63404125  0.25080168  1
  Al  Al171  1  0.36270270  0.63701654  0.74337709  1
  Al  Al172  1  0.86952895  0.13802209  0.24958974  1
  Al  Al173  1  0.86774617  0.13608545  0.74245764  1
  Al  Al174  1  0.86748758  0.63842661  0.24863533  1
  Al  Al175  1  0.87025747  0.63162413  0.74833035  1
  Al  Al176  1  0.13487105  0.36686026  0.25031606  1
  Al  Al177  1  0.13492912  0.36369336  0.74715526  1
  Al  Al178  1  0.13059314  0.86484031  0.25124708  1
  Al  Al179  1  0.12915234  0.86686719  0.75235052  1
  Al  Al180  1  0.63397922  0.36443413  0.25183407  1
  Al  Al181  1  0.63943571  0.36150885  0.75317210  1
  Al  Al182  1  0.63554699  0.86556088  0.24745033  1
  Al  Al183  1  0.63703803  0.86687529  0.74512906  1
  Al  Al184  1  0.36684991  0.36529738  0.25061068  1
  Al  Al185  1  0.36348340  0.36458238  0.74746343  1
  Al  Al186  1  0.36209764  0.87156736  0.25101644  1
  Al  Al187  1  0.36287485  0.87116132  0.74755804  1
  Al  Al188  1  0.86781857  0.35689443  0.25112300  1
  Al  Al189  1  0.86388283  0.36676495  0.74887629  1
  Al  Al190  1  0.87057069  0.86459376  0.24873143  1
  Al  Al191  1  0.86981083  0.86522005  0.74808127  1
  Al  Al192  1  -0.00011523  0.17591184  0.81728536  1
  Al  Al193  1  0.81255010  0.83212802  0.50111766  1
  Al  Al194  1  0.49969845  0.17245006  0.68527448  1
  Al  Al195  1  0.68154050  0.68296556  -0.00193253  1
  Al  Al196  1  0.32242068  0.18161067  -0.00071671  1
  Al  Al197  1  0.49688695  0.82906381  0.17306245  1
  Al  Al198  1  0.32572777  0.50098719  0.81869151  1
  Al  Al199  1  0.67267715  0.00161655  0.32408110  1
  Al  Al200  1  0.49942337  0.33401888  0.66472601  1
  Al  Al201  1  0.32219762  0.82649789  -0.00149281  1
  Al  Al202  1  0.31128779  0.18249611  0.49897057  1
  Al  Al203  1  0.18795647  -0.00002994  0.33088059  1
  Al  Al204  1  0.68376767  0.49624082  0.67076442  1
  Al  Al205  1  0.82822010  0.49983757  0.32489597  1
  Al  Al206  1  0.49913770  0.82738053  0.33437814  1
  Al  Al207  1  0.50082606  0.67078381  0.17265182  1
  Al  Al208  1  0.16927425  0.16965744  -0.00011642  1
  Al  Al209  1  -0.00008761  0.32133429  0.32603269  1
  Al  Al210  1  0.82893303  0.32784427  -0.00029358  1
  Al  Al211  1  0.81265209  0.17594259  0.00024800  1
  Al  Al212  1  -0.00057559  0.31146339  0.67984419  1
  Al  Al213  1  0.18081853  0.67379806  0.50091322  1
  Al  Al214  1  0.50060173  0.31182514  0.82514366  1
  Al  Al215  1  0.18111470  0.00151994  0.17468535  1
  Al  Al216  1  0.00212681  0.67970287  0.32182876  1
  Al  Al217  1  0.82646354  0.00001909  0.81884107  1
  Al  Al218  1  0.67687340  0.49956757  0.17272049  1
  Al  Al219  1  0.49840582  0.67303760  0.33093921  1
  Al  Al220  1  0.31320418  0.49882636  0.32115553  1
  Al  Al221  1  0.49753357  0.18486099  0.17836980  1
  Al  Al222  1  0.18343200  0.32339794  0.00141527  1
  Al  Al223  1  0.17274104  0.50009053  0.81699969  1
  Al  Al224  1  0.17711290  0.00089128  0.68291306  1
  Al  Al225  1  0.82204472  0.49880111  0.17863272  1
  Al  Al226  1  0.32320741  0.67034038  0.00140227  1
  Al  Al227  1  0.49952293  0.68067843  0.81802763  1
  Al  Al228  1  0.67648616  0.31005634  -0.00033233  1
  Al  Al229  1  0.81879163  0.67441986  0.49973237  1
  Al  Al230  1  0.82072127  0.81709609  -0.00189172  1
  Al  Al231  1  0.68556973  0.18457806  0.49971746  1
  Al  Al232  1  0.82578985  0.00113550  0.32132092  1
  Al  Al233  1  0.50034100  0.82276761  0.67628990  1
  Al  Al234  1  0.18161409  0.31277927  0.50097572  1
  Al  Al235  1  0.17248012  0.67484027  0.00009443  1
  Al  Al236  1  0.68157597  0.50094127  0.82822193  1
  Al  Al237  1  0.66924523  0.00168947  0.81468718  1
  Al  Al238  1  0.16974570  0.82948674  -0.00205603  1
  Au  Au239  1  0.49923339  0.18055841  0.16231560  1
  Au  Au240  1  0.67022032  0.50141776  0.83337475  1
  Au  Au241  1  0.66836801  0.67146292  0.50116573  1
  Au  Au242  1  0.33301120  0.33022341  -0.00058368  1
  Au  Au243  1  0.00047629  0.66653859  0.66449099  1
  Au  Au244  1  0.66359991  0.49146633  0.33857312  1
  Au  Au245  1  0.66408131  0.00446788  0.17404784  1
  Au  Au246  1  0.83721127  0.49766618  0.67218015  1
  Au  Au247  1  0.33811834  0.00375836  0.66621541  1
  Au  Au248  1  0.66891437  0.49902311  0.16326029  1
  Au  Au249  1  0.33062818  0.00247157  0.16925994  1
  Au  Au250  1  0.33884439  0.67253865  -0.00410479  1
  Au  Au251  1  0.67172708  0.49446026  0.67311205  1
  Au  Au252  1  0.00446934  0.66192491  0.17299914  1
  Au  Au253  1  0.33438983  0.82834853  0.49926594  1
  Au  Au254  1  0.50529912  0.32164001  0.67491009  1
  Au  Au255  1  0.00024027  0.34218675  0.82587034  1
  Au  Au256  1  -0.00283472  0.16535800  0.33026948  1
  Au  Au257  1  0.16771818  0.83493881  0.50193671  1
  Au  Au258  1  0.50252300  0.83238067  0.66821869  1
  Au  Au259  1  0.49734479  0.82669860  0.83942986  1
  Au  Au260  1  0.49683052  0.82588618  0.16048649  1
  Au  Au261  1  0.32541035  0.00238199  0.83793298  1
  Au  Au262  1  0.49720393  0.65929983  0.67092578  1
  Au  Au263  1  0.83105014  0.00510923  0.66784012  1
  Au  Au264  1  0.17527907  0.65823721  0.49951468  1
  Au  Au265  1  0.32017416  0.50093292  0.66890132  1
  Au  Au266  1  0.00219724  0.83545322  0.16381327  1
  Au  Au267  1  0.67305767  0.83244462  0.00043761  1
  Au  Au268  1  0.00153285  0.67354804  0.83401979  1
  Au  Au269  1  0.82877818  0.82711609  0.50012562  1
  Au  Au270  1  0.83002580  0.66694356  -0.00250397  1
  Au  Au271  1  0.67049487  0.00548455  0.83089675  1
  Au  Au272  1  0.49816773  0.66049634  0.32782629  1
  Au  Au273  1  0.32982528  0.32846466  0.49520609  1
  Au  Au274  1  -0.00080818  0.82821827  0.33649025  1
  Au  Au275  1  -0.00044775  0.16132585  0.82537895  1
  Au  Au276  1  0.83731600  0.49944346  0.33435534  1
  Au  Au277  1  0.83033691  0.49678993  0.17040583  1
  Au  Au278  1  0.83825065  0.00307618  0.17166827  1
  Au  Au279  1  0.49796503  0.17479755  0.33865233  1
  Au  Au280  1  0.16239984  0.00245099  0.67471264  1
  Au  Au281  1  0.17135799  0.00307571  0.32917462  1
  Au  Au282  1  0.67380600  0.17260686  0.50273822  1
  Au  Au283  1  0.49949584  0.83986496  0.33175628  1
  Au  Au284  1  0.00229824  0.33067241  0.33390117  1
  Au  Au285  1  0.00022605  0.83402348  0.67610814  1
  Au  Au286  1  0.00213625  0.32370207  0.16106930  1
  Au  Au287  1  0.32631233  0.49839813  0.17384292  1
