# generated using pymatgen
data_Ca24Ti8Al207Au49
_symmetry_space_group_name_H-M   'P 1'
_cell_length_a   17.32247968
_cell_length_b   17.32162694
_cell_length_c   17.32211449
_cell_angle_alpha   90.00038425
_cell_angle_beta   90.00048638
_cell_angle_gamma   90.00180271
_symmetry_Int_Tables_number   1
_chemical_formula_structural   Ca24Ti8Al207Au49
_chemical_formula_sum   'Ca24 Ti8 Al207 Au49'
_cell_volume   5197.56160879
_cell_formula_units_Z   1
loop_
 _symmetry_equiv_pos_site_id
 _symmetry_equiv_pos_as_xyz
  1  'x, y, z'
loop_
 _atom_site_type_symbol
 _atom_site_label
 _atom_site_symmetry_multiplicity
 _atom_site_fract_x
 _atom_site_fract_y
 _atom_site_fract_z
 _atom_site_occupancy
  Ca  Ca0  1  0.24897825  0.00508182  0.00105408  1
  Ca  Ca1  1  0.24750847  0.00401657  0.49773776  1
  Ca  Ca2  1  0.24860985  0.49887117  -0.00279239  1
  Ca  Ca3  1  0.24622182  0.49761380  0.50456357  1
  Ca  Ca4  1  0.75365676  0.00304682  0.00420536  1
  Ca  Ca5  1  0.74967025  0.00704039  0.49804402  1
  Ca  Ca6  1  0.75946211  0.49837044  0.00036854  1
  Ca  Ca7  1  0.75849431  0.49843062  0.50080683  1
  Ca  Ca8  1  0.00126867  0.24574412  0.00117560  1
  Ca  Ca9  1  0.00178919  0.24994124  0.49756395  1
  Ca  Ca10  1  0.00051755  0.75092696  0.00099306  1
  Ca  Ca11  1  -0.00344840  0.75345126  0.49551105  1
  Ca  Ca12  1  0.49521044  0.24249101  -0.00494201  1
  Ca  Ca13  1  0.49634997  0.24882704  0.50303280  1
  Ca  Ca14  1  0.49804256  0.75134579  -0.00277957  1
  Ca  Ca15  1  0.49904622  0.75458737  0.49906934  1
  Ca  Ca16  1  0.00507577  -0.00053443  0.24574371  1
  Ca  Ca17  1  0.00154781  0.00061130  0.75264171  1
  Ca  Ca18  1  -0.00209710  0.49950962  0.25125639  1
  Ca  Ca19  1  0.00236008  0.50017245  0.75297112  1
  Ca  Ca20  1  0.49655989  0.00201903  0.24531583  1
  Ca  Ca21  1  0.49842713  0.00157760  0.75134325  1
  Ca  Ca22  1  0.49960591  0.50201924  0.24989671  1
  Ca  Ca23  1  0.49837311  0.49959919  0.74922340  1
  Ti  Ti24  1  0.24800411  0.24849242  0.24864521  1
  Ti  Ti25  1  0.24873929  0.25082924  0.75017267  1
  Ti  Ti26  1  0.25057433  0.75299944  0.24842428  1
  Ti  Ti27  1  0.24892243  0.74914523  0.75240806  1
  Ti  Ti28  1  0.75246635  0.24916068  0.24962497  1
  Ti  Ti29  1  0.75093236  0.25019633  0.74893497  1
  Ti  Ti30  1  0.75103843  0.75060643  0.24914483  1
  Ti  Ti31  1  0.75275553  0.74885474  0.75011283  1
  Al  Al32  1  0.08531939  0.08739113  0.08170683  1
  Al  Al33  1  0.08338283  0.08613939  0.58155206  1
  Al  Al34  1  0.07027100  0.59350562  0.08200679  1
  Al  Al35  1  0.07615493  0.58349836  0.59325252  1
  Al  Al36  1  0.57999004  0.08982960  0.08799744  1
  Al  Al37  1  0.59070545  0.08990128  0.58429864  1
  Al  Al38  1  0.58021125  0.57889569  0.07961895  1
  Al  Al39  1  0.57700700  0.58528047  0.58922206  1
  Al  Al40  1  0.41136615  0.40657594  0.06948239  1
  Al  Al41  1  0.41524727  0.40679333  0.59000803  1
  Al  Al42  1  0.41342007  0.92605515  0.08476630  1
  Al  Al43  1  0.41693365  0.91671068  0.58534362  1
  Al  Al44  1  0.91821863  0.41474743  0.08077745  1
  Al  Al45  1  0.92393979  0.41062570  0.58281824  1
  Al  Al46  1  0.91720212  0.92029783  0.09103872  1
  Al  Al47  1  0.92038782  0.91828716  0.58333954  1
  Al  Al48  1  0.40686438  0.07364828  0.41082971  1
  Al  Al49  1  0.40148857  0.08959234  0.91655093  1
  Al  Al50  1  0.42277141  0.57862335  0.42079547  1
  Al  Al51  1  0.41493831  0.57549826  0.90300216  1
  Al  Al52  1  0.91441501  0.09269451  0.41972373  1
  Al  Al53  1  0.92473207  0.08099740  0.92374123  1
  Al  Al54  1  0.91239407  0.57882461  0.40491793  1
  Al  Al55  1  0.91429442  0.59307400  0.91449395  1
  Al  Al56  1  0.08165409  0.40778011  0.42520363  1
  Al  Al57  1  0.08329445  0.41176923  0.91530798  1
  Al  Al58  1  0.09066263  0.92382046  0.41222806  1
  Al  Al59  1  0.09732988  0.91771428  0.91618117  1
  Al  Al60  1  0.59000344  0.42375700  0.42644853  1
  Al  Al61  1  0.57999844  0.41808969  0.91786054  1
  Al  Al62  1  0.57327893  0.91152002  0.41647234  1
  Al  Al63  1  0.57066168  0.92685324  0.92133311  1
  Al  Al64  1  0.09182126  0.08412056  0.41226385  1
  Al  Al65  1  0.09833746  0.08258443  0.91697526  1
  Al  Al66  1  0.07009622  0.57868036  0.41629842  1
  Al  Al67  1  0.07702475  0.59009650  0.90979941  1
  Al  Al68  1  0.58639359  0.08631607  0.42691328  1
  Al  Al69  1  0.57656505  0.08423387  0.92542598  1
  Al  Al70  1  0.58270553  0.57922925  0.41586827  1
  Al  Al71  1  0.57612747  0.58139266  0.91235673  1
  Al  Al72  1  0.41177400  0.41773824  0.43135406  1
  Al  Al73  1  0.40194717  0.41386025  0.91075080  1
  Al  Al74  1  0.41367291  0.91598551  0.39749792  1
  Al  Al75  1  0.40796192  0.92792836  0.91145306  1
  Al  Al76  1  0.91404991  0.41741837  0.41495637  1
  Al  Al77  1  0.91968902  0.41620293  0.91572443  1
  Al  Al78  1  0.92386824  0.92407862  0.42146725  1
  Al  Al79  1  0.92516177  0.91716980  0.92325649  1
  Al  Al80  1  0.07968992  0.40862390  0.07823330  1
  Al  Al81  1  0.08450953  0.40402031  0.58647295  1
  Al  Al82  1  0.08473640  0.91490948  0.07909632  1
  Al  Al83  1  0.08293965  0.91919412  0.58157080  1
  Al  Al84  1  0.57968756  0.41626561  0.07788733  1
  Al  Al85  1  0.57706410  0.41077057  0.58679771  1
  Al  Al86  1  0.57736304  0.92742277  0.08607584  1
  Al  Al87  1  0.57954416  0.92124408  0.58084510  1
  Al  Al88  1  0.40770015  0.09171869  0.08709173  1
  Al  Al89  1  0.42151527  0.08111398  0.58435228  1
  Al  Al90  1  0.42271248  0.57816022  0.07337900  1
  Al  Al91  1  0.42228354  0.58232938  0.59500513  1
  Al  Al92  1  0.92077245  0.08359332  0.09360747  1
  Al  Al93  1  0.91341390  0.09605058  0.57870391  1
  Al  Al94  1  0.91165633  0.59667857  0.08062225  1
  Al  Al95  1  0.92166389  0.58698704  0.59053348  1
  Al  Al96  1  0.24653737  0.13624038  0.12814563  1
  Al  Al97  1  0.24693821  0.13530193  0.63758343  1
  Al  Al98  1  0.25258420  0.63878820  0.13047500  1
  Al  Al99  1  0.25067894  0.62541381  0.64018236  1
  Al  Al100  1  0.75508235  0.13570147  0.13539600  1
  Al  Al101  1  0.75319146  0.14045828  0.63084284  1
  Al  Al102  1  0.75571910  0.63535567  0.13212644  1
  Al  Al103  1  0.75650511  0.62739128  0.63867829  1
  Al  Al104  1  0.25541290  0.35988004  0.13096520  1
  Al  Al105  1  0.24664631  0.36848156  0.63679627  1
  Al  Al106  1  0.24693470  0.86749160  0.13365474  1
  Al  Al107  1  0.25012660  0.86381733  0.63676413  1
  Al  Al108  1  0.75183054  0.36320074  0.13402054  1
  Al  Al109  1  0.75025488  0.36686297  0.63619976  1
  Al  Al110  1  0.75416597  0.86404955  0.13497456  1
  Al  Al111  1  0.75639110  0.86255900  0.63652665  1
  Al  Al112  1  0.24835123  0.13050048  0.36203047  1
  Al  Al113  1  0.24999297  0.13417783  0.86772372  1
  Al  Al114  1  0.25116081  0.63199046  0.36137798  1
  Al  Al115  1  0.24865268  0.62885013  0.86388383  1
  Al  Al116  1  0.75269509  0.13290398  0.36431867  1
  Al  Al117  1  0.75294744  0.13727466  0.86341463  1
  Al  Al118  1  0.75507583  0.63534428  0.36417953  1
  Al  Al119  1  0.75617546  0.63739624  0.86394103  1
  Al  Al120  1  0.24537788  0.36739051  0.36403195  1
  Al  Al121  1  0.24986326  0.36955949  0.86560958  1
  Al  Al122  1  0.25133765  0.87217207  0.36049513  1
  Al  Al123  1  0.24592403  0.86816154  0.86785870  1
  Al  Al124  1  0.75363589  0.36315241  0.36557107  1
  Al  Al125  1  0.74906845  0.36407872  0.86141213  1
  Al  Al126  1  0.75360191  0.86367850  0.36350407  1
  Al  Al127  1  0.75627655  0.85922519  0.86712290  1
  Al  Al128  1  0.12993891  0.24650568  0.13390942  1
  Al  Al129  1  0.12925492  0.25392420  0.63888470  1
  Al  Al130  1  0.13694744  0.75190657  0.13271926  1
  Al  Al131  1  0.13642962  0.74578000  0.64066566  1
  Al  Al132  1  0.63438594  0.24869175  0.13523341  1
  Al  Al133  1  0.63123115  0.24746300  0.63527926  1
  Al  Al134  1  0.63169102  0.75154800  0.13500886  1
  Al  Al135  1  0.63883274  0.74658695  0.63759671  1
  Al  Al136  1  0.13650595  0.24988405  0.36238823  1
  Al  Al137  1  0.13763402  0.24536349  0.86736259  1
  Al  Al138  1  0.13899403  0.75244579  0.36061388  1
  Al  Al139  1  0.13424723  0.75029257  0.86505962  1
  Al  Al140  1  0.63684660  0.24120746  0.36650404  1
  Al  Al141  1  0.63284685  0.25150054  0.86449622  1
  Al  Al142  1  0.63500198  0.75211148  0.36457445  1
  Al  Al143  1  0.63506161  0.74826951  0.86458930  1
  Al  Al144  1  0.36333043  0.24311336  0.13119151  1
  Al  Al145  1  0.36859165  0.25024603  0.63927638  1
  Al  Al146  1  0.36954648  0.75666935  0.13518284  1
  Al  Al147  1  0.36321607  0.74779110  0.64113171  1
  Al  Al148  1  0.87243925  0.24935673  0.13742465  1
  Al  Al149  1  0.87114965  0.25044257  0.63513452  1
  Al  Al150  1  0.86678319  0.74688010  0.13107291  1
  Al  Al151  1  0.86632993  0.74521096  0.63010221  1
  Al  Al152  1  0.36136249  0.24716321  0.36511871  1
  Al  Al153  1  0.36090982  0.25175542  0.86959107  1
  Al  Al154  1  0.36483736  0.75561735  0.36574314  1
  Al  Al155  1  0.36193938  0.74806970  0.86503496  1
  Al  Al156  1  0.86593915  0.24701470  0.36249931  1
  Al  Al157  1  0.86743523  0.24686499  0.86335023  1
  Al  Al158  1  0.86522545  0.74832395  0.36638991  1
  Al  Al159  1  0.87190263  0.74719220  0.86842602  1
  Al  Al160  1  0.13823823  0.12913388  0.24623260  1
  Al  Al161  1  0.13324823  0.13189651  0.75287823  1
  Al  Al162  1  0.13639600  0.63631551  0.24816307  1
  Al  Al163  1  0.13375971  0.63101496  0.75287532  1
  Al  Al164  1  0.63520700  0.13578847  0.24571820  1
  Al  Al165  1  0.63814903  0.13518770  0.74602861  1
  Al  Al166  1  0.63576544  0.63674279  0.24981516  1
  Al  Al167  1  0.63646495  0.63472706  0.75024594  1
  Al  Al168  1  0.36314051  0.13583284  0.24783829  1
  Al  Al169  1  0.36161892  0.13445379  0.75476159  1
  Al  Al170  1  0.36574645  0.63591269  0.24957039  1
  Al  Al171  1  0.36264245  0.62947145  0.75071144  1
  Al  Al172  1  0.86910916  0.13372247  0.24448177  1
  Al  Al173  1  0.87335427  0.13646445  0.74472103  1
  Al  Al174  1  0.86471815  0.63214720  0.24610240  1
  Al  Al175  1  0.87373936  0.63792498  0.75116391  1
  Al  Al176  1  0.13639090  0.36453204  0.24436839  1
  Al  Al177  1  0.13566430  0.36967091  0.75143075  1
  Al  Al178  1  0.13765787  0.87283318  0.24910697  1
  Al  Al179  1  0.13491320  0.87165727  0.75381882  1
  Al  Al180  1  0.63711200  0.36072880  0.25405191  1
  Al  Al181  1  0.62974929  0.36193733  0.74670757  1
  Al  Al182  1  0.63028317  0.86392606  0.24913226  1
  Al  Al183  1  0.63850870  0.86444401  0.74834407  1
  Al  Al184  1  0.36231268  0.36137053  0.25170597  1
  Al  Al185  1  0.36162898  0.36829766  0.75012055  1
  Al  Al186  1  0.36785781  0.86754901  0.24962786  1
  Al  Al187  1  0.36054234  0.86887430  0.75553794  1
  Al  Al188  1  0.86357530  0.36993543  0.24802195  1
  Al  Al189  1  0.86774997  0.36310018  0.74714572  1
  Al  Al190  1  0.86659996  0.86340724  0.24597909  1
  Al  Al191  1  0.87112626  0.86028789  0.75217866  1
  Al  Al192  1  0.31974375  0.00390740  0.68046058  1
  Al  Al193  1  0.82438468  0.50022708  0.82145940  1
  Al  Al194  1  0.00258782  0.81317192  0.67975011  1
  Al  Al195  1  0.67653963  0.83083737  -0.00018423  1
  Al  Al196  1  -0.00057014  0.67746350  0.31007133  1
  Al  Al197  1  0.49563299  0.32662606  0.81830745  1
  Al  Al198  1  0.16717393  0.67106833  0.49955668  1
  Al  Al199  1  0.68683723  0.49992776  0.32960324  1
  Al  Al200  1  0.82732451  0.00009014  0.82063554  1
  Al  Al201  1  -0.00071897  0.32592838  0.31932973  1
  Al  Al202  1  0.50124862  0.80829127  0.67215139  1
  Al  Al203  1  0.17457625  0.67620955  -0.00068209  1
  Al  Al204  1  0.49853888  0.67618096  0.81182012  1
  Al  Al205  1  0.67095644  0.00081263  0.82867657  1
  Al  Al206  1  0.50005820  0.68578190  0.32092124  1
  Al  Al207  1  0.18892520  0.31151320  0.00029224  1
  Al  Al208  1  0.31706743  0.82477576  -0.00077020  1
  Al  Al209  1  0.67861738  0.49810396  0.17458032  1
  Al  Al210  1  0.17600605  0.18880206  0.50063166  1
  Al  Al211  1  0.67998179  -0.00080667  0.67282045  1
  Al  Al212  1  0.00336621  0.17214067  0.31732467  1
  Al  Al213  1  0.32700500  0.16981325  0.50065104  1
  Al  Al214  1  0.17951874  0.82827272  0.49931536  1
  Al  Al215  1  0.68131540  0.18049671  -0.00003241  1
  Al  Al216  1  0.30969709  0.32052155  0.50230839  1
  Al  Al217  1  0.67254918  -0.00297419  0.32977733  1
  Al  Al218  1  0.32728405  0.67739695  0.50335134  1
  Al  Al219  1  0.00243859  0.81467186  0.17570370  1
  Al  Al220  1  0.83297889  0.00021516  0.31109308  1
  Al  Al221  1  0.67832947  0.82847791  0.50110488  1
  Al  Al222  1  0.67714927  0.66965270  0.50143475  1
  Al  Al223  1  0.49809053  0.82933289  0.82787495  1
  Al  Al224  1  0.00242016  0.82916235  0.32775729  1
  Al  Al225  1  0.67401492  0.30807033  0.50030019  1
  Al  Al226  1  0.82201951  0.31771086  -0.00191647  1
  Al  Al227  1  0.68436340  0.67116541  -0.00103815  1
  Al  Al228  1  0.17006025  0.50327932  0.17257483  1
  Al  Al229  1  0.82870957  0.31418060  0.49997854  1
  Al  Al230  1  0.49856185  0.16906361  0.31856246  1
  Al  Al231  1  0.68439043  0.00124078  0.17357777  1
  Al  Al232  1  0.50080414  0.33044066  0.33101006  1
  Al  Al233  1  0.00170391  0.31848960  0.81524207  1
  Al  Al234  1  0.49626823  0.31350290  0.17008736  1
  Al  Al235  1  0.31647955  0.00197515  0.18526097  1
  Al  Al236  1  0.33104364  0.49756908  0.17853240  1
  Al  Al237  1  0.49903528  0.17059279  0.81859774  1
  Al  Al238  1  0.67616648  0.49862783  0.67620638  1
  Au  Au239  1  0.34236093  0.67041834  0.50609341  1
  Au  Au240  1  0.83427775  0.16773246  0.00607871  1
  Au  Au241  1  0.67437647  0.65776290  -0.00360465  1
  Au  Au242  1  0.50035530  0.34740953  0.33458830  1
  Au  Au243  1  0.83719198  0.00182888  0.32660904  1
  Au  Au244  1  0.16926601  0.00071226  0.16935583  1
  Au  Au245  1  0.16558399  0.49657053  0.66823593  1
  Au  Au246  1  0.67445724  0.32501807  0.50214745  1
  Au  Au247  1  -0.00073531  0.32201271  0.17041543  1
  Au  Au248  1  0.32892104  0.49873307  0.33960602  1
  Au  Au249  1  0.66116407  0.67570477  0.50189877  1
  Au  Au250  1  0.82608926  -0.00354839  0.83720442  1
  Au  Au251  1  0.16391480  0.00093509  0.67531699  1
  Au  Au252  1  0.16226569  0.68063091  -0.00063105  1
  Au  Au253  1  0.50347795  0.82521748  0.67487247  1
  Au  Au254  1  0.49582133  0.31781935  0.15376798  1
  Au  Au255  1  0.82746899  0.83969464  0.49780158  1
  Au  Au256  1  0.32541775  0.83914886  -0.00078566  1
  Au  Au257  1  0.33695453  0.49739226  0.67723625  1
  Au  Au258  1  0.15133447  0.67684777  0.49968562  1
  Au  Au259  1  0.15489793  0.50431838  0.16531698  1
  Au  Au260  1  0.49872290  0.84105890  0.17506043  1
  Au  Au261  1  0.17549464  0.32220137  -0.00150066  1
  Au  Au262  1  0.17055400  0.50052028  0.83619951  1
  Au  Au263  1  0.84172285  0.66684076  0.49808812  1
  Au  Au264  1  0.33693493  0.49616091  0.16182766  1
  Au  Au265  1  0.00199136  0.17847464  0.66541072  1
  Au  Au266  1  0.32852067  0.00138870  0.67178990  1
  Au  Au267  1  0.00221497  0.82026598  0.66432066  1
  Au  Au268  1  0.16433427  0.49606176  0.34140145  1
  Au  Au269  1  0.49587014  0.33041471  0.83054793  1
  Au  Au270  1  0.66252407  0.49754555  0.18068604  1
  Au  Au271  1  0.66557745  0.49885944  0.66931233  1
  Au  Au272  1  0.33187418  0.66002792  -0.00790787  1
  Au  Au273  1  0.50006202  0.67036565  0.32852696  1
  Au  Au274  1  0.67303546  0.33070843  -0.00219582  1
  Au  Au275  1  0.67419341  0.49932895  0.83301266  1
  Au  Au276  1  0.32826745  0.84503169  0.49294983  1
  Au  Au277  1  0.82724189  0.00607460  0.65677410  1
  Au  Au278  1  0.00666314  0.82576772  0.83930453  1
  Au  Au279  1  0.84242158  0.49618981  0.67238085  1
  Au  Au280  1  0.84048722  0.82600217  0.00442090  1
  Au  Au281  1  0.66527273  0.84262851  -0.00010172  1
  Au  Au282  1  0.00616377  0.17092652  0.83756892  1
  Au  Au283  1  0.66042562  -0.00305535  0.32614561  1
  Au  Au284  1  0.49863470  0.67495178  0.15838479  1
  Au  Au285  1  0.50078955  0.17425858  0.66738251  1
  Au  Au286  1  0.84142963  0.50219796  0.17104211  1
  Au  Au287  1  0.49834600  0.16049368  0.33274320  1
