# generated using pymatgen
data_Ca24Ti8Al207Au49
_symmetry_space_group_name_H-M   'P 1'
_cell_length_a   17.31762537
_cell_length_b   17.31847447
_cell_length_c   17.32033099
_cell_angle_alpha   89.99857654
_cell_angle_beta   90.00158859
_cell_angle_gamma   89.99762128
_symmetry_Int_Tables_number   1
_chemical_formula_structural   Ca24Ti8Al207Au49
_chemical_formula_sum   'Ca24 Ti8 Al207 Au49'
_cell_volume   5194.62450995
_cell_formula_units_Z   1
loop_
 _symmetry_equiv_pos_site_id
 _symmetry_equiv_pos_as_xyz
  1  'x, y, z'
loop_
 _atom_site_type_symbol
 _atom_site_label
 _atom_site_symmetry_multiplicity
 _atom_site_fract_x
 _atom_site_fract_y
 _atom_site_fract_z
 _atom_site_occupancy
  Ca  Ca0  1  0.25324951  -0.00261099  0.00123153  1
  Ca  Ca1  1  0.24546701  0.00207127  0.49775537  1
  Ca  Ca2  1  0.25008753  0.50029602  -0.00014147  1
  Ca  Ca3  1  0.25313519  0.49856605  0.50078443  1
  Ca  Ca4  1  0.75189528  0.00416686  0.00182642  1
  Ca  Ca5  1  0.75968578  0.00722851  0.49609970  1
  Ca  Ca6  1  0.74796026  0.49613425  -0.00158021  1
  Ca  Ca7  1  0.75209920  0.49107180  0.50536942  1
  Ca  Ca8  1  0.00136933  0.24970061  -0.00222254  1
  Ca  Ca9  1  0.00025122  0.24891459  0.50175157  1
  Ca  Ca10  1  -0.00023445  0.75394739  0.00817202  1
  Ca  Ca11  1  0.00775639  0.75583814  0.49516628  1
  Ca  Ca12  1  0.49569659  0.25270297  -0.00214788  1
  Ca  Ca13  1  0.49998737  0.25171931  0.50007353  1
  Ca  Ca14  1  0.50162788  0.74525949  -0.00209565  1
  Ca  Ca15  1  0.49500586  0.75067215  0.49955010  1
  Ca  Ca16  1  0.00286016  0.00127561  0.25124367  1
  Ca  Ca17  1  0.00700115  0.00362728  0.74640594  1
  Ca  Ca18  1  -0.00160449  0.49920454  0.25075671  1
  Ca  Ca19  1  -0.00168151  0.49707183  0.74776915  1
  Ca  Ca20  1  0.49982896  0.00062111  0.24895413  1
  Ca  Ca21  1  0.49609576  0.00198338  0.75118088  1
  Ca  Ca22  1  0.49914438  0.49848806  0.25125235  1
  Ca  Ca23  1  0.50169605  0.49460417  0.75174285  1
  Ti  Ti24  1  0.24948897  0.24861371  0.25283117  1
  Ti  Ti25  1  0.25002149  0.25119950  0.74806673  1
  Ti  Ti26  1  0.24744391  0.75134836  0.25153812  1
  Ti  Ti27  1  0.25401107  0.75134673  0.74904743  1
  Ti  Ti28  1  0.74936681  0.24936110  0.25118709  1
  Ti  Ti29  1  0.75166903  0.25118370  0.75050628  1
  Ti  Ti30  1  0.75142871  0.75134706  0.24943037  1
  Ti  Ti31  1  0.74763255  0.74891304  0.75034482  1
  Al  Al32  1  0.08454736  0.08132113  0.08797822  1
  Al  Al33  1  0.07979727  0.08566977  0.59415898  1
  Al  Al34  1  0.08428389  0.60163642  0.08759560  1
  Al  Al35  1  0.08335843  0.57519950  0.57360876  1
  Al  Al36  1  0.57340089  0.08518060  0.08732958  1
  Al  Al37  1  0.58444997  0.09691165  0.57305891  1
  Al  Al38  1  0.58507051  0.57433770  0.09153226  1
  Al  Al39  1  0.58480789  0.56865463  0.59398286  1
  Al  Al40  1  0.41274153  0.40802657  0.06869341  1
  Al  Al41  1  0.42154520  0.40390205  0.58678351  1
  Al  Al42  1  0.42434703  0.91883759  0.08975237  1
  Al  Al43  1  0.40695841  0.92083025  0.58296618  1
  Al  Al44  1  0.91603663  0.41829119  0.08619103  1
  Al  Al45  1  0.91244572  0.41076977  0.59042605  1
  Al  Al46  1  0.92067721  0.91866873  0.08680466  1
  Al  Al47  1  0.92623361  0.93019088  0.57696134  1
  Al  Al48  1  0.41086729  0.07913540  0.40974583  1
  Al  Al49  1  0.40480669  0.09381500  0.92035061  1
  Al  Al50  1  0.41058201  0.58682964  0.41717046  1
  Al  Al51  1  0.40689805  0.57149230  0.91240632  1
  Al  Al52  1  0.92176712  0.09446974  0.42234172  1
  Al  Al53  1  0.92562091  0.09211315  0.91505790  1
  Al  Al54  1  0.92181390  0.58316799  0.42221011  1
  Al  Al55  1  0.91555140  0.56947524  0.91996903  1
  Al  Al56  1  0.08352640  0.41173229  0.41786976  1
  Al  Al57  1  0.07679315  0.41115565  0.91320328  1
  Al  Al58  1  0.09187757  0.91843798  0.40621314  1
  Al  Al59  1  0.08959172  0.92568436  0.90900165  1
  Al  Al60  1  0.58386138  0.41652061  0.42047773  1
  Al  Al61  1  0.57914366  0.40783282  0.90642242  1
  Al  Al62  1  0.57256476  0.92256402  0.41561254  1
  Al  Al63  1  0.57628447  0.91711496  0.92946622  1
  Al  Al64  1  0.08318885  0.08085660  0.40673665  1
  Al  Al65  1  0.08718549  0.08656466  0.89795672  1
  Al  Al66  1  0.08401129  0.58668662  0.41659018  1
  Al  Al67  1  0.09192084  0.58415151  0.92998412  1
  Al  Al68  1  0.58804131  0.09470253  0.41789627  1
  Al  Al69  1  0.56772608  0.08262657  0.92364388  1
  Al  Al70  1  0.57262273  0.57492452  0.41376713  1
  Al  Al71  1  0.58242304  0.56817637  0.90868176  1
  Al  Al72  1  0.41123553  0.41750037  0.42599770  1
  Al  Al73  1  0.41219683  0.40750273  0.90556697  1
  Al  Al74  1  0.40544943  0.91758887  0.41009229  1
  Al  Al75  1  0.41709639  0.92750085  0.91701163  1
  Al  Al76  1  0.91890223  0.41188426  0.42311542  1
  Al  Al77  1  0.91496495  0.41054519  0.90593062  1
  Al  Al78  1  0.93222835  0.91526861  0.41530492  1
  Al  Al79  1  0.92527143  0.92232505  0.92188290  1
  Al  Al80  1  0.07596110  0.41956968  0.08092383  1
  Al  Al81  1  0.07768182  0.41230061  0.58461194  1
  Al  Al82  1  0.08449933  0.91731327  0.08879661  1
  Al  Al83  1  0.09021015  0.92546794  0.58543385  1
  Al  Al84  1  0.58511518  0.41808221  0.08165781  1
  Al  Al85  1  0.58585514  0.40869224  0.59826108  1
  Al  Al86  1  0.58188832  0.90973327  0.08964551  1
  Al  Al87  1  0.57136299  0.92497644  0.57583661  1
  Al  Al88  1  0.41198263  0.09467895  0.08579607  1
  Al  Al89  1  0.41451319  0.08088671  0.58787909  1
  Al  Al90  1  0.42185518  0.58078408  0.07276218  1
  Al  Al91  1  0.41217875  0.58623057  0.57592298  1
  Al  Al92  1  0.91912451  0.08266675  0.08088255  1
  Al  Al93  1  0.91657551  0.09566357  0.58574062  1
  Al  Al94  1  0.92469716  0.58430348  0.09521401  1
  Al  Al95  1  0.90709342  0.57132408  0.58262802  1
  Al  Al96  1  0.25220316  0.13549089  0.13666251  1
  Al  Al97  1  0.24506781  0.13673352  0.63223579  1
  Al  Al98  1  0.24287507  0.63766173  0.13341582  1
  Al  Al99  1  0.25686284  0.63462816  0.63567271  1
  Al  Al100  1  0.74666208  0.13665567  0.13822884  1
  Al  Al101  1  0.75277938  0.14245571  0.63125963  1
  Al  Al102  1  0.74876055  0.63657368  0.13651739  1
  Al  Al103  1  0.74779182  0.63508069  0.63715885  1
  Al  Al104  1  0.25345894  0.36047865  0.13694454  1
  Al  Al105  1  0.24991441  0.36088926  0.63293871  1
  Al  Al106  1  0.24578690  0.86945455  0.14428390  1
  Al  Al107  1  0.25174638  0.86674856  0.63509212  1
  Al  Al108  1  0.74971640  0.36302539  0.13704190  1
  Al  Al109  1  0.75299523  0.36185058  0.63763028  1
  Al  Al110  1  0.75195561  0.86385334  0.13820335  1
  Al  Al111  1  0.74969548  0.86436426  0.63640024  1
  Al  Al112  1  0.24825388  0.13316302  0.36599735  1
  Al  Al113  1  0.25092774  0.13423180  0.86049810  1
  Al  Al114  1  0.24925017  0.63582528  0.36401133  1
  Al  Al115  1  0.25397369  0.63263769  0.86209207  1
  Al  Al116  1  0.74946491  0.13843899  0.36706108  1
  Al  Al117  1  0.75295435  0.13713561  0.86253208  1
  Al  Al118  1  0.75021084  0.63881194  0.36160279  1
  Al  Al119  1  0.74624765  0.63164060  0.86255371  1
  Al  Al120  1  0.24832716  0.35930016  0.37309891  1
  Al  Al121  1  0.25743676  0.36663315  0.86491407  1
  Al  Al122  1  0.24915466  0.87180150  0.36207801  1
  Al  Al123  1  0.24618077  0.87455204  0.86107568  1
  Al  Al124  1  0.74713366  0.35994612  0.36596598  1
  Al  Al125  1  0.74739605  0.36726685  0.86118890  1
  Al  Al126  1  0.74901038  0.86840061  0.36130060  1
  Al  Al127  1  0.75138926  0.86480176  0.86302494  1
  Al  Al128  1  0.13420419  0.24669095  0.13635795  1
  Al  Al129  1  0.12881624  0.24981956  0.63369403  1
  Al  Al130  1  0.12792171  0.75159419  0.13847821  1
  Al  Al131  1  0.13941796  0.74989338  0.63609405  1
  Al  Al132  1  0.63093052  0.24582535  0.13578081  1
  Al  Al133  1  0.63409789  0.25285772  0.63786684  1
  Al  Al134  1  0.63324562  0.75687676  0.13868459  1
  Al  Al135  1  0.62790267  0.75125105  0.63718660  1
  Al  Al136  1  0.13074455  0.24738454  0.36773060  1
  Al  Al137  1  0.13774713  0.25253988  0.86584359  1
  Al  Al138  1  0.13466338  0.75252501  0.36433181  1
  Al  Al139  1  0.14231357  0.74855108  0.86122988  1
  Al  Al140  1  0.62795175  0.24794255  0.36325959  1
  Al  Al141  1  0.62829043  0.25372846  0.86396865  1
  Al  Al142  1  0.63266797  0.75580847  0.36133225  1
  Al  Al143  1  0.62833970  0.74923711  0.86147563  1
  Al  Al144  1  0.36709015  0.24578965  0.13548588  1
  Al  Al145  1  0.36823183  0.25508862  0.63389159  1
  Al  Al146  1  0.36107821  0.75161442  0.13936401  1
  Al  Al147  1  0.36810529  0.75106637  0.63275999  1
  Al  Al148  1  0.86531166  0.25014678  0.13615586  1
  Al  Al149  1  0.87556422  0.24743139  0.63687829  1
  Al  Al150  1  0.87058845  0.74964220  0.13617173  1
  Al  Al151  1  0.86155138  0.75178907  0.63608446  1
  Al  Al152  1  0.36815514  0.24915457  0.36625228  1
  Al  Al153  1  0.36605320  0.25141371  0.86491589  1
  Al  Al154  1  0.35999235  0.75365113  0.37065790  1
  Al  Al155  1  0.36926700  0.74945146  0.86364179  1
  Al  Al156  1  0.87008191  0.24765780  0.36633045  1
  Al  Al157  1  0.86631235  0.25579889  0.86413198  1
  Al  Al158  1  0.86643790  0.75471313  0.36547940  1
  Al  Al159  1  0.86091238  0.74706263  0.86662202  1
  Al  Al160  1  0.13273282  0.13264906  0.25284058  1
  Al  Al161  1  0.13613646  0.13450131  0.74713080  1
  Al  Al162  1  0.13313923  0.63211707  0.24920745  1
  Al  Al163  1  0.13946301  0.63460863  0.74890540  1
  Al  Al164  1  0.63140078  0.13173849  0.25215763  1
  Al  Al165  1  0.63283409  0.13823885  0.75268493  1
  Al  Al166  1  0.63397463  0.63645772  0.24752197  1
  Al  Al167  1  0.62807005  0.63371630  0.75011016  1
  Al  Al168  1  0.36741524  0.13456094  0.25270495  1
  Al  Al169  1  0.36580730  0.13666461  0.75182390  1
  Al  Al170  1  0.36106372  0.63536210  0.24984320  1
  Al  Al171  1  0.36997343  0.63347120  0.75062097  1
  Al  Al172  1  0.87170355  0.13896212  0.25168619  1
  Al  Al173  1  0.86685074  0.13704577  0.74890438  1
  Al  Al174  1  0.86674324  0.63538004  0.24897107  1
  Al  Al175  1  0.86520474  0.63356327  0.74554833  1
  Al  Al176  1  0.13914033  0.36845802  0.25344921  1
  Al  Al177  1  0.13179439  0.36184832  0.75132455  1
  Al  Al178  1  0.12755767  0.86699860  0.25371176  1
  Al  Al179  1  0.13718050  0.86762349  0.74683830  1
  Al  Al180  1  0.63104777  0.36233222  0.24682945  1
  Al  Al181  1  0.63080750  0.36434580  0.75191904  1
  Al  Al182  1  0.63131723  0.87137467  0.24959467  1
  Al  Al183  1  0.62932288  0.86587970  0.75111461  1
  Al  Al184  1  0.36618549  0.36072910  0.25307041  1
  Al  Al185  1  0.36917714  0.36375185  0.75150710  1
  Al  Al186  1  0.36737836  0.86678260  0.25277658  1
  Al  Al187  1  0.36979842  0.86562120  0.75172924  1
  Al  Al188  1  0.86454389  0.36369155  0.25396897  1
  Al  Al189  1  0.87154954  0.36443659  0.74781552  1
  Al  Al190  1  0.87175256  0.86438598  0.25021412  1
  Al  Al191  1  0.86514425  0.86435556  0.75242901  1
  Al  Al192  1  0.81067696  0.49935325  0.80926889  1
  Al  Al193  1  0.18192924  0.49832887  0.83199279  1
  Al  Al194  1  0.32860733  0.82910474  0.00191732  1
  Al  Al195  1  0.00185819  0.67004477  0.83382730  1
  Al  Al196  1  0.00211568  0.82734408  0.82550342  1
  Al  Al197  1  0.68079034  0.32568149  -0.00077394  1
  Al  Al198  1  0.18588130  0.67430022  0.50124037  1
  Al  Al199  1  0.82363329  0.18004528  -0.00021074  1
  Al  Al200  1  0.17805501  0.82829773  0.49948107  1
  Al  Al201  1  0.00107291  0.82822680  0.67134663  1
  Al  Al202  1  0.17277226  0.81402415  -0.00138278  1
  Al  Al203  1  0.66884776  0.17268243  -0.00085806  1
  Al  Al204  1  0.66756741  0.66558580  0.49945504  1
  Al  Al205  1  0.00111621  0.67011558  0.66679033  1
  Al  Al206  1  -0.00071358  0.68473603  0.31575678  1
  Al  Al207  1  0.82921975  0.00154039  0.67718828  1
  Al  Al208  1  0.00173005  0.19311940  0.80742566  1
  Al  Al209  1  0.50219567  0.18016844  0.67802990  1
  Al  Al210  1  0.68132072  0.83008195  0.49956058  1
  Al  Al211  1  0.18746819  0.32917892  0.00049393  1
  Al  Al212  1  0.18476915  0.16860530  -0.00234290  1
  Al  Al213  1  0.31626345  0.67281735  -0.00084045  1
  Al  Al214  1  0.32042358  0.49727831  0.32492229  1
  Al  Al215  1  0.17490388  0.49806347  0.67343192  1
  Al  Al216  1  0.49827823  0.32422826  0.17377246  1
  Al  Al217  1  0.69202680  0.49793394  0.69467095  1
  Al  Al218  1  0.82473657  0.31279003  0.50211207  1
  Al  Al219  1  0.67977659  0.82357710  -0.00004835  1
  Al  Al220  1  0.67458792  0.50006234  0.30758946  1
  Al  Al221  1  0.82067262  0.00205409  0.17503234  1
  Al  Al222  1  0.67217996  0.67347088  -0.00045944  1
  Al  Al223  1  0.82892801  0.00276205  0.32889265  1
  Al  Al224  1  0.67250057  0.31633145  0.50118892  1
  Al  Al225  1  0.83209082  0.67639462  0.00311427  1
  Al  Al226  1  0.33115026  0.49636251  0.68159043  1
  Al  Al227  1  0.32114708  0.50071553  0.16669095  1
  Al  Al228  1  0.31002708  0.00231157  0.68323047  1
  Al  Al229  1  0.81524022  0.49984851  0.17675151  1
  Al  Al230  1  0.32249815  0.00141986  0.17779608  1
  Al  Al231  1  0.49859319  0.68507840  0.16762271  1
  Al  Al232  1  0.82513316  0.67860282  0.49963682  1
  Al  Al233  1  0.49677884  0.68276171  0.32608574  1
  Al  Al234  1  0.00147031  0.31968837  0.18320537  1
  Al  Al235  1  0.67561831  0.00037835  0.83147185  1
  Al  Al236  1  0.82781438  0.49995602  0.33184479  1
  Al  Al237  1  0.67155481  0.00534359  0.66687625  1
  Al  Al238  1  0.32169750  0.18247226  0.50037249  1
  Au  Au239  1  0.84502126  0.00327694  0.33102159  1
  Au  Au240  1  0.17557730  0.33477947  0.50432580  1
  Au  Au241  1  -0.00376726  0.67011801  0.65066241  1
  Au  Au242  1  0.66693226  0.00074952  0.84543276  1
  Au  Au243  1  0.00469550  0.67695338  0.84911854  1
  Au  Au244  1  0.17090841  0.33267154  0.00298550  1
  Au  Au245  1  0.49641912  0.83330729  0.32612144  1
  Au  Au246  1  0.83365403  0.32935113  0.00053507  1
  Au  Au247  1  0.16563245  0.49890154  0.82675572  1
  Au  Au248  1  0.49995459  0.32142232  0.16159155  1
  Au  Au249  1  0.66646349  0.00325919  0.33492343  1
  Au  Au250  1  0.50043528  0.83256248  0.83493665  1
  Au  Au251  1  0.49847853  0.16240773  0.32411683  1
  Au  Au252  1  0.67404471  0.65073193  0.50001293  1
  Au  Au253  1  0.84663672  0.82867750  0.50157744  1
  Au  Au254  1  0.16924860  0.00044508  0.18318773  1
  Au  Au255  1  0.84732441  0.00332379  0.82626550  1
  Au  Au256  1  0.49914401  0.66761575  0.66226374  1
  Au  Au257  1  0.49995338  0.17156308  0.66906522  1
  Au  Au258  1  0.32268393  0.00280762  0.83022822  1
  Au  Au259  1  -0.00097072  0.82855535  0.17677183  1
  Au  Au260  1  0.67328538  0.49851605  0.32453996  1
  Au  Au261  1  -0.00253748  0.67447273  0.32915754  1
  Au  Au262  1  0.49501049  0.33233967  0.33778626  1
  Au  Au263  1  0.33284880  0.49471035  0.66529215  1
  Au  Au264  1  0.82847924  0.84063071  -0.00007229  1
  Au  Au265  1  0.49594329  0.65778041  0.83161685  1
  Au  Au266  1  0.16207705  0.82698807  -0.00348275  1
  Au  Au267  1  0.66297420  0.65906637  -0.00396065  1
  Au  Au268  1  -0.00081149  0.32551696  0.33123149  1
  Au  Au269  1  0.00144692  0.32407430  0.68078956  1
  Au  Au270  1  0.17723339  0.15405963  -0.00382518  1
  Au  Au271  1  0.83544449  0.66450439  0.00143305  1
  Au  Au272  1  0.33492898  -0.00040323  0.17892238  1
  Au  Au273  1  0.15675034  0.50337409  0.16925330  1
  Au  Au274  1  0.34431506  0.82146764  0.00363772  1
  Au  Au275  1  0.17254450  0.49904775  0.33829900  1
  Au  Au276  1  0.33327001  0.17046454  0.49971377  1
  Au  Au277  1  0.66517240  0.83474734  0.49803875  1
  Au  Au278  1  0.49857566  0.66904790  0.17410117  1
  Au  Au279  1  0.32633051  0.82723509  0.49985653  1
  Au  Au280  1  -0.00078164  0.17062512  0.17134642  1
  Au  Au281  1  0.49690075  0.17953523  0.83504850  1
  Au  Au282  1  0.15737463  0.16640597  0.49925131  1
  Au  Au283  1  0.33725444  0.49558980  0.16701252  1
  Au  Au284  1  0.67785361  0.00745115  0.65140670  1
  Au  Au285  1  0.67002705  0.00176799  0.16112397  1
  Au  Au286  1  0.82641939  0.49962006  0.81594125  1
  Au  Au287  1  0.49677118  0.83721059  0.66764646  1
