# generated using pymatgen
data_Ca24Ti8Al207Au49
_symmetry_space_group_name_H-M   'P 1'
_cell_length_a   17.31952881
_cell_length_b   17.31968388
_cell_length_c   17.31967665
_cell_angle_alpha   90.00735282
_cell_angle_beta   89.99691801
_cell_angle_gamma   89.99963009
_symmetry_Int_Tables_number   1
_chemical_formula_structural   Ca24Ti8Al207Au49
_chemical_formula_sum   'Ca24 Ti8 Al207 Au49'
_cell_volume   5195.36194744
_cell_formula_units_Z   1
loop_
 _symmetry_equiv_pos_site_id
 _symmetry_equiv_pos_as_xyz
  1  'x, y, z'
loop_
 _atom_site_type_symbol
 _atom_site_label
 _atom_site_symmetry_multiplicity
 _atom_site_fract_x
 _atom_site_fract_y
 _atom_site_fract_z
 _atom_site_occupancy
  Ca  Ca0  1  0.25062749  -0.00577923  -0.00077475  1
  Ca  Ca1  1  0.24660247  0.00154782  0.49888973  1
  Ca  Ca2  1  0.25571729  0.50325431  0.00098748  1
  Ca  Ca3  1  0.25422059  0.50245539  0.49914279  1
  Ca  Ca4  1  0.75134764  -0.00307049  -0.00195960  1
  Ca  Ca5  1  0.75570782  -0.00303651  0.50158981  1
  Ca  Ca6  1  0.74899444  0.50320825  0.00226768  1
  Ca  Ca7  1  0.74990812  0.50426569  0.49464678  1
  Ca  Ca8  1  0.00138432  0.24669026  0.00044881  1
  Ca  Ca9  1  0.00277659  0.24629276  0.49844946  1
  Ca  Ca10  1  0.00391078  0.75203570  -0.00119823  1
  Ca  Ca11  1  -0.00155125  0.75427421  0.50153873  1
  Ca  Ca12  1  0.50131364  0.24946619  0.00522334  1
  Ca  Ca13  1  0.49882555  0.24563352  0.50000461  1
  Ca  Ca14  1  0.49713965  0.74509199  -0.00002870  1
  Ca  Ca15  1  0.49747010  0.74763124  0.50056128  1
  Ca  Ca16  1  0.00256937  -0.00154634  0.25371305  1
  Ca  Ca17  1  -0.00005211  0.00004625  0.74472994  1
  Ca  Ca18  1  -0.00087986  0.50130068  0.25430702  1
  Ca  Ca19  1  -0.00126467  0.50069013  0.74919671  1
  Ca  Ca20  1  0.49605948  0.00152311  0.25450339  1
  Ca  Ca21  1  0.50123121  -0.00184197  0.74918645  1
  Ca  Ca22  1  0.50204069  0.49920597  0.25393225  1
  Ca  Ca23  1  0.49807782  0.50953009  0.75090691  1
  Ti  Ti24  1  0.24965224  0.24963803  0.25042250  1
  Ti  Ti25  1  0.24792931  0.24821729  0.74973193  1
  Ti  Ti26  1  0.25048514  0.75023661  0.24901236  1
  Ti  Ti27  1  0.25115119  0.75131834  0.75057068  1
  Ti  Ti28  1  0.75221807  0.24607848  0.25222614  1
  Ti  Ti29  1  0.75181926  0.24880155  0.74977825  1
  Ti  Ti30  1  0.75117943  0.75188312  0.25158867  1
  Ti  Ti31  1  0.74935804  0.75091641  0.74956755  1
  Al  Al32  1  0.08864867  0.07296674  0.09448057  1
  Al  Al33  1  0.08219743  0.08956463  0.58136151  1
  Al  Al34  1  0.09682749  0.58939949  0.07985812  1
  Al  Al35  1  0.08139016  0.59174245  0.58413863  1
  Al  Al36  1  0.57073365  0.08231687  0.08785166  1
  Al  Al37  1  0.59133417  0.06975550  0.58404943  1
  Al  Al38  1  0.57659491  0.58426785  0.07441988  1
  Al  Al39  1  0.57633978  0.59071776  0.59435921  1
  Al  Al40  1  0.41069890  0.42980863  0.08895502  1
  Al  Al41  1  0.40583396  0.42759511  0.58770161  1
  Al  Al42  1  0.41068009  0.91739928  0.07994061  1
  Al  Al43  1  0.40992449  0.91462179  0.58086683  1
  Al  Al44  1  0.91793323  0.42209037  0.08177266  1
  Al  Al45  1  0.92350164  0.41424284  0.57479346  1
  Al  Al46  1  0.92297937  0.91323114  0.07882760  1
  Al  Al47  1  0.91144489  0.91089066  0.58561245  1
  Al  Al48  1  0.41291185  0.09214077  0.41366204  1
  Al  Al49  1  0.40809218  0.08665449  0.92475339  1
  Al  Al50  1  0.41068694  0.59150682  0.42657468  1
  Al  Al51  1  0.41431573  0.59202315  0.91256290  1
  Al  Al52  1  0.92663101  0.08503734  0.41474285  1
  Al  Al53  1  0.92096821  0.08075824  0.91008008  1
  Al  Al54  1  0.90791137  0.58284489  0.41676226  1
  Al  Al55  1  0.91426866  0.58727267  0.92144812  1
  Al  Al56  1  0.07733637  0.41880688  0.41428499  1
  Al  Al57  1  0.07177194  0.41772523  0.90985238  1
  Al  Al58  1  0.08094527  0.91477310  0.41098949  1
  Al  Al59  1  0.08783691  0.90656307  0.92338247  1
  Al  Al60  1  0.57979199  0.42068571  0.41059496  1
  Al  Al61  1  0.58390636  0.42177357  0.89979386  1
  Al  Al62  1  0.58325794  0.91598919  0.42725354  1
  Al  Al63  1  0.58359974  0.91784049  0.91162438  1
  Al  Al64  1  0.08796708  0.08699991  0.41304632  1
  Al  Al65  1  0.08085549  0.08176607  0.91315489  1
  Al  Al66  1  0.08389870  0.58219409  0.42055900  1
  Al  Al67  1  0.08792536  0.59206564  0.92343457  1
  Al  Al68  1  0.57469647  0.08685421  0.41178513  1
  Al  Al69  1  0.58339815  0.07462865  0.91351554  1
  Al  Al70  1  0.58349489  0.58196706  0.41826325  1
  Al  Al71  1  0.58390519  0.58602070  0.90392094  1
  Al  Al72  1  0.42084259  0.41636484  0.41940818  1
  Al  Al73  1  0.42407850  0.42014655  0.90918173  1
  Al  Al74  1  0.41087503  0.91356053  0.42350177  1
  Al  Al75  1  0.41401784  0.91156476  0.91791951  1
  Al  Al76  1  0.91355132  0.41806021  0.41093482  1
  Al  Al77  1  0.91963162  0.41269577  0.91538697  1
  Al  Al78  1  0.91795577  0.90738587  0.42077451  1
  Al  Al79  1  0.91838440  0.91472504  0.91676592  1
  Al  Al80  1  0.07836320  0.42652307  0.08718414  1
  Al  Al81  1  0.08216452  0.41486636  0.58265948  1
  Al  Al82  1  0.09553779  0.91039415  0.08771364  1
  Al  Al83  1  0.07680351  0.91279435  0.58316547  1
  Al  Al84  1  0.57164526  0.42766479  0.07217086  1
  Al  Al85  1  0.57961008  0.43072312  0.58166805  1
  Al  Al86  1  0.57673826  0.92235556  0.07649015  1
  Al  Al87  1  0.59125454  0.91303942  0.58608891  1
  Al  Al88  1  0.40949071  0.09249909  0.08623618  1
  Al  Al89  1  0.40574223  0.07685261  0.57296880  1
  Al  Al90  1  0.40020592  0.58992046  0.07816320  1
  Al  Al91  1  0.41139020  0.59199362  0.59433063  1
  Al  Al92  1  0.92620329  0.07900775  0.08524323  1
  Al  Al93  1  0.91950231  0.07878606  0.58943578  1
  Al  Al94  1  0.90977178  0.58594115  0.07925647  1
  Al  Al95  1  0.92030468  0.59648985  0.57784545  1
  Al  Al96  1  0.24779769  0.12786542  0.14025756  1
  Al  Al97  1  0.24618857  0.13313963  0.63616931  1
  Al  Al98  1  0.24959216  0.63149973  0.13280662  1
  Al  Al99  1  0.25578760  0.63745371  0.63080971  1
  Al  Al100  1  0.75254683  0.12649098  0.14091612  1
  Al  Al101  1  0.75034947  0.13560178  0.63054537  1
  Al  Al102  1  0.75503344  0.63794947  0.13195416  1
  Al  Al103  1  0.74758931  0.63869643  0.63610936  1
  Al  Al104  1  0.25362361  0.36934848  0.13420895  1
  Al  Al105  1  0.25295373  0.36292328  0.63537443  1
  Al  Al106  1  0.24906721  0.86783714  0.12859535  1
  Al  Al107  1  0.25305633  0.86103896  0.63052324  1
  Al  Al108  1  0.75121217  0.36126467  0.13788850  1
  Al  Al109  1  0.75016959  0.36268026  0.63963591  1
  Al  Al110  1  0.75286425  0.86897613  0.13716964  1
  Al  Al111  1  0.75056704  0.86471379  0.63487913  1
  Al  Al112  1  0.25144512  0.13367663  0.36517889  1
  Al  Al113  1  0.24898547  0.13116851  0.86363944  1
  Al  Al114  1  0.25295685  0.63756913  0.36960070  1
  Al  Al115  1  0.25325834  0.63762919  0.86765381  1
  Al  Al116  1  0.75256238  0.12770766  0.36866157  1
  Al  Al117  1  0.74895022  0.13779518  0.86414305  1
  Al  Al118  1  0.75066522  0.63794092  0.36569961  1
  Al  Al119  1  0.74709936  0.63399990  0.86107527  1
  Al  Al120  1  0.25211173  0.36433714  0.36761297  1
  Al  Al121  1  0.25227479  0.36343676  0.86372535  1
  Al  Al122  1  0.25353705  0.86417708  0.36607570  1
  Al  Al123  1  0.25010856  0.86415107  0.86976491  1
  Al  Al124  1  0.75332752  0.36224997  0.36457780  1
  Al  Al125  1  0.74750312  0.36364777  0.86211372  1
  Al  Al126  1  0.75424466  0.86975744  0.36693010  1
  Al  Al127  1  0.75268372  0.86188796  0.86281335  1
  Al  Al128  1  0.13124008  0.24553151  0.13602542  1
  Al  Al129  1  0.13341551  0.24899497  0.63574952  1
  Al  Al130  1  0.14023368  0.75065409  0.12885699  1
  Al  Al131  1  0.13627838  0.75071877  0.63492467  1
  Al  Al132  1  0.63994396  0.24116801  0.13580798  1
  Al  Al133  1  0.63370473  0.24820961  0.63557396  1
  Al  Al134  1  0.63609189  0.74916833  0.13542494  1
  Al  Al135  1  0.62935656  0.74527496  0.63599641  1
  Al  Al136  1  0.13422658  0.24789975  0.36235861  1
  Al  Al137  1  0.13034397  0.24678915  0.86364526  1
  Al  Al138  1  0.12765089  0.75274385  0.36146898  1
  Al  Al139  1  0.13679000  0.75093892  0.86792898  1
  Al  Al140  1  0.63751017  0.24258293  0.36645502  1
  Al  Al141  1  0.63402508  0.25185925  0.86343006  1
  Al  Al142  1  0.63567963  0.75085217  0.36399412  1
  Al  Al143  1  0.62855965  0.74710109  0.86244756  1
  Al  Al144  1  0.35958695  0.24289134  0.13340784  1
  Al  Al145  1  0.36398031  0.24449663  0.63402320  1
  Al  Al146  1  0.35846359  0.74752855  0.12445340  1
  Al  Al147  1  0.36859366  0.74692113  0.63334964  1
  Al  Al148  1  0.87142795  0.24675734  0.14061506  1
  Al  Al149  1  0.86646190  0.24633833  0.63560665  1
  Al  Al150  1  0.86479254  0.75064089  0.13920058  1
  Al  Al151  1  0.86439281  0.75587184  0.63248424  1
  Al  Al152  1  0.36504465  0.24354813  0.36810447  1
  Al  Al153  1  0.36288186  0.24908278  0.86377741  1
  Al  Al154  1  0.36478912  0.75023588  0.36502703  1
  Al  Al155  1  0.36751048  0.74782010  0.87018926  1
  Al  Al156  1  0.86589477  0.24310135  0.36552297  1
  Al  Al157  1  0.87201681  0.24745418  0.86380870  1
  Al  Al158  1  0.87033957  0.75442666  0.36473648  1
  Al  Al159  1  0.86659981  0.74637634  0.86587132  1
  Al  Al160  1  0.13195079  0.13406402  0.25226477  1
  Al  Al161  1  0.13160479  0.13073950  0.75074295  1
  Al  Al162  1  0.13589835  0.63707370  0.24924993  1
  Al  Al163  1  0.13863035  0.63692754  0.74978723  1
  Al  Al164  1  0.63663184  0.12775828  0.25417304  1
  Al  Al165  1  0.63384663  0.13431251  0.74643140  1
  Al  Al166  1  0.63713496  0.63659467  0.24859747  1
  Al  Al167  1  0.63107629  0.63574745  0.75141451  1
  Al  Al168  1  0.36249216  0.12809345  0.25203361  1
  Al  Al169  1  0.36441467  0.13269435  0.75173030  1
  Al  Al170  1  0.36200292  0.63481657  0.24605846  1
  Al  Al171  1  0.36733751  0.63882185  0.74988765  1
  Al  Al172  1  0.87051745  0.12913109  0.25193803  1
  Al  Al173  1  0.87087262  0.13523955  0.75071209  1
  Al  Al174  1  0.86570181  0.63167068  0.25831387  1
  Al  Al175  1  0.86516189  0.63705823  0.74916114  1
  Al  Al176  1  0.13445666  0.36464944  0.24420964  1
  Al  Al177  1  0.13292414  0.36614511  0.75121783  1
  Al  Al178  1  0.13952500  0.86487201  0.24693754  1
  Al  Al179  1  0.13884882  0.86935450  0.74788286  1
  Al  Al180  1  0.63845891  0.36125598  0.25283841  1
  Al  Al181  1  0.63237796  0.36614753  0.75293458  1
  Al  Al182  1  0.63915980  0.87119988  0.25155147  1
  Al  Al183  1  0.63355456  0.86421267  0.74643996  1
  Al  Al184  1  0.36314604  0.36491221  0.25170961  1
  Al  Al185  1  0.36551503  0.36265699  0.75016390  1
  Al  Al186  1  0.36019242  0.86890069  0.24472552  1
  Al  Al187  1  0.36732690  0.86221940  0.75420801  1
  Al  Al188  1  0.86562333  0.36632936  0.25158274  1
  Al  Al189  1  0.86893537  0.36406066  0.75671042  1
  Al  Al190  1  0.86687063  0.86928735  0.25373400  1
  Al  Al191  1  0.87031681  0.86360276  0.74698674  1
  Al  Al192  1  0.32165924  0.32164578  0.50063700  1
  Al  Al193  1  0.18068327  0.82296750  0.49771751  1
  Al  Al194  1  0.67488233  0.50134602  0.68637908  1
  Al  Al195  1  0.18954648  0.50078912  0.66905998  1
  Al  Al196  1  0.82201334  0.50073671  0.18540846  1
  Al  Al197  1  -0.00077395  0.31337522  0.68480015  1
  Al  Al198  1  0.49768490  0.16767527  0.66860512  1
  Al  Al199  1  0.49845389  0.81930232  0.17342528  1
  Al  Al200  1  0.81630682  0.69137426  0.49917716  1
  Al  Al201  1  0.67380815  0.82975441  -0.00034514  1
  Al  Al202  1  0.17882539  -0.00112494  0.31539829  1
  Al  Al203  1  0.31647589  -0.00278805  0.67917669  1
  Al  Al204  1  0.66970739  0.49947953  0.17066187  1
  Al  Al205  1  0.49971664  0.33219839  0.68042077  1
  Al  Al206  1  0.49843263  0.17562956  0.19169277  1
  Al  Al207  1  0.68899069  0.81653083  0.50050123  1
  Al  Al208  1  0.82426880  0.16919301  0.00157825  1
  Al  Al209  1  0.49921057  0.18226379  0.82942388  1
  Al  Al210  1  0.49781812  0.82480868  0.67709665  1
  Al  Al211  1  0.16963869  0.32856991  -0.00106087  1
  Al  Al212  1  0.68137460  -0.00082814  0.81034656  1
  Al  Al213  1  0.32908077  0.50116766  0.31988460  1
  Al  Al214  1  0.17433877  0.50008612  0.31882958  1
  Al  Al215  1  -0.00044184  0.67424603  0.17614569  1
  Al  Al216  1  0.33125481  0.31996494  -0.00034003  1
  Al  Al217  1  0.50061228  0.31017304  0.32677410  1
  Al  Al218  1  0.32948527  0.50113647  0.81418879  1
  Al  Al219  1  0.68680940  0.50021395  0.32284127  1
  Al  Al220  1  0.17551065  0.50136533  0.82943578  1
  Al  Al221  1  0.50102971  0.32423295  0.16965183  1
  Al  Al222  1  0.82567719  0.32601761  0.00081214  1
  Al  Al223  1  0.18693601  0.18109647  0.49949111  1
  Al  Al224  1  0.66647709  0.32759477  -0.00136270  1
  Al  Al225  1  0.00267229  0.82886141  0.18371335  1
  Al  Al226  1  0.81670270  0.49902813  0.82782731  1
  Al  Al227  1  0.81352284  0.00052010  0.68118681  1
  Al  Al228  1  0.68353506  0.67410373  -0.00207085  1
  Al  Al229  1  0.83009941  0.50086335  0.66747697  1
  Al  Al230  1  -0.00016520  0.69287467  0.68166007  1
  Al  Al231  1  0.82596576  0.81237933  0.00128074  1
  Al  Al232  1  0.00397438  0.81926994  0.81936880  1
  Al  Al233  1  0.66777703  0.32601798  0.50083867  1
  Al  Al234  1  0.49921699  0.67326579  0.32229416  1
  Al  Al235  1  0.49911746  0.82813562  0.32961650  1
  Al  Al236  1  -0.00081475  0.31475541  0.32055992  1
  Al  Al237  1  0.18542923  0.16873806  0.00265886  1
  Al  Al238  1  0.82590805  0.31994501  0.49987282  1
  Au  Au239  1  0.17280714  0.50213827  0.66544470  1
  Au  Au240  1  0.17676794  0.66878300  0.49824145  1
  Au  Au241  1  0.49387166  0.65436249  0.17274786  1
  Au  Au242  1  0.16866852  -0.00584051  0.83419092  1
  Au  Au243  1  0.00101504  0.66091158  0.82656447  1
  Au  Au244  1  0.32234894  0.82391007  -0.00151530  1
  Au  Au245  1  0.15409053  0.33261516  -0.00114029  1
  Au  Au246  1  0.50052727  0.33847864  0.17890603  1
  Au  Au247  1  0.50246794  0.83567246  0.17447086  1
  Au  Au248  1  0.67388641  0.34184541  0.50070911  1
  Au  Au249  1  0.82693921  -0.00172357  0.82893060  1
  Au  Au250  1  0.00358318  0.16295224  0.18060323  1
  Au  Au251  1  0.49571579  0.82410572  0.66463074  1
  Au  Au252  1  0.34305123  0.33204999  -0.00124256  1
  Au  Au253  1  0.66247930  -0.00221561  0.33419373  1
  Au  Au254  1  0.83843063  -0.00195337  0.33637834  1
  Au  Au255  1  0.16263897  0.32687795  0.49483326  1
  Au  Au256  1  0.83552144  -0.00475732  0.16628458  1
  Au  Au257  1  0.32194465  0.00049284  0.16466096  1
  Au  Au258  1  0.66747006  0.66905025  0.50221117  1
  Au  Au259  1  0.17580498  0.15478629  0.00317680  1
  Au  Au260  1  0.00172740  0.83190263  0.82012239  1
  Au  Au261  1  -0.00189191  0.67338438  0.34165300  1
  Au  Au262  1  0.50073072  0.82035833  0.83681335  1
  Au  Au263  1  0.33277316  0.50119002  0.33213003  1
  Au  Au264  1  0.82181022  0.49747070  0.84392445  1
  Au  Au265  1  0.17692762  0.50051388  0.84204945  1
  Au  Au266  1  0.32718796  -0.00134786  0.33758762  1
  Au  Au267  1  0.16605767  0.00043750  0.66415501  1
  Au  Au268  1  0.49846217  0.34838425  0.67587444  1
  Au  Au269  1  0.49860652  0.17653520  0.84523361  1
  Au  Au270  1  0.66353107  0.15887651  0.00344955  1
  Au  Au271  1  0.17737002  0.50082523  0.16873948  1
  Au  Au272  1  0.67146803  0.34378055  -0.00394340  1
  Au  Au273  1  0.00278158  0.67619819  0.16024669  1
  Au  Au274  1  0.49725753  0.15575791  0.65792681  1
  Au  Au275  1  0.84042744  0.17429392  0.00142162  1
  Au  Au276  1  -0.00217120  0.33278213  0.17292083  1
  Au  Au277  1  -0.00278253  0.32716346  0.67453327  1
  Au  Au278  1  0.84407866  0.17036906  0.50234405  1
  Au  Au279  1  0.82535378  0.50304486  0.65137983  1
  Au  Au280  1  0.33719227  0.00003987  0.82774532  1
  Au  Au281  1  0.16899224  0.82761805  0.49787322  1
  Au  Au282  1  0.66764252  0.00017370  0.16465670  1
  Au  Au283  1  0.33434077  0.32243709  0.49907033  1
  Au  Au284  1  0.82595272  0.50138372  0.17307091  1
  Au  Au285  1  0.00180532  0.17325987  0.82272505  1
  Au  Au286  1  0.67151210  0.66963052  -0.00162664  1
  Au  Au287  1  0.66993523  0.15858345  0.49897622  1
