# generated using pymatgen
data_Ca24Ti8Al207Au49
_symmetry_space_group_name_H-M   'P 1'
_cell_length_a   17.32186716
_cell_length_b   17.32236039
_cell_length_c   17.32321395
_cell_angle_alpha   90.00137094
_cell_angle_beta   89.99425335
_cell_angle_gamma   90.00106651
_symmetry_Int_Tables_number   1
_chemical_formula_structural   Ca24Ti8Al207Au49
_chemical_formula_sum   'Ca24 Ti8 Al207 Au49'
_cell_volume   5197.92777005
_cell_formula_units_Z   1
loop_
 _symmetry_equiv_pos_site_id
 _symmetry_equiv_pos_as_xyz
  1  'x, y, z'
loop_
 _atom_site_type_symbol
 _atom_site_label
 _atom_site_symmetry_multiplicity
 _atom_site_fract_x
 _atom_site_fract_y
 _atom_site_fract_z
 _atom_site_occupancy
  Ca  Ca0  1  0.25177943  0.00083375  -0.00153678  1
  Ca  Ca1  1  0.25085767  0.00427360  0.50061287  1
  Ca  Ca2  1  0.25830567  0.49633181  -0.00139520  1
  Ca  Ca3  1  0.25374473  0.49741202  0.50002630  1
  Ca  Ca4  1  0.74745728  0.00170375  -0.00026110  1
  Ca  Ca5  1  0.74855270  0.00226517  0.49905012  1
  Ca  Ca6  1  0.74207480  0.49762633  -0.00132645  1
  Ca  Ca7  1  0.74653242  0.50010621  0.50433485  1
  Ca  Ca8  1  -0.00052983  0.24444644  -0.00590240  1
  Ca  Ca9  1  0.00346840  0.24781072  0.50335802  1
  Ca  Ca10  1  0.00327738  0.75565762  -0.00512936  1
  Ca  Ca11  1  0.00236980  0.74662784  0.50480726  1
  Ca  Ca12  1  0.49674212  0.25507517  -0.00003590  1
  Ca  Ca13  1  0.49405555  0.25282918  0.50034247  1
  Ca  Ca14  1  0.49753886  0.75414458  -0.00083774  1
  Ca  Ca15  1  0.49816931  0.74586609  0.49979361  1
  Ca  Ca16  1  0.00341953  -0.00281468  0.24877362  1
  Ca  Ca17  1  0.00324933  -0.00198922  0.74925223  1
  Ca  Ca18  1  0.00087272  0.49990840  0.25189997  1
  Ca  Ca19  1  0.00434723  0.49970481  0.74478229  1
  Ca  Ca20  1  0.49699915  0.00018896  0.25030694  1
  Ca  Ca21  1  0.49747775  0.00305670  0.75257762  1
  Ca  Ca22  1  0.49740944  0.49903875  0.25005504  1
  Ca  Ca23  1  0.49565409  0.49718388  0.75001222  1
  Ti  Ti24  1  0.25310091  0.25002020  0.25050600  1
  Ti  Ti25  1  0.25012893  0.25103532  0.74927144  1
  Ti  Ti26  1  0.25218181  0.75135704  0.25192282  1
  Ti  Ti27  1  0.25142108  0.74956289  0.74906816  1
  Ti  Ti28  1  0.74626589  0.25005288  0.24956433  1
  Ti  Ti29  1  0.74916217  0.25262254  0.74897406  1
  Ti  Ti30  1  0.74772720  0.74945528  0.24812407  1
  Ti  Ti31  1  0.75014653  0.74835343  0.75100228  1
  Al  Al32  1  0.08035221  0.07576038  0.08215495  1
  Al  Al33  1  0.08982130  0.09328018  0.58564531  1
  Al  Al34  1  0.08746935  0.58028025  0.08246462  1
  Al  Al35  1  0.08935871  0.58735932  0.58251706  1
  Al  Al36  1  0.57686331  0.09027841  0.09032241  1
  Al  Al37  1  0.58014175  0.08665485  0.57847700  1
  Al  Al38  1  0.57321716  0.57430187  0.08386231  1
  Al  Al39  1  0.58204385  0.57952091  0.58030169  1
  Al  Al40  1  0.41089161  0.40878643  0.08681989  1
  Al  Al41  1  0.40501818  0.41138529  0.58683296  1
  Al  Al42  1  0.41877977  0.91468074  0.08877935  1
  Al  Al43  1  0.41484149  0.92466829  0.58036692  1
  Al  Al44  1  0.92019663  0.42340286  0.07454636  1
  Al  Al45  1  0.91081009  0.41838480  0.59247938  1
  Al  Al46  1  0.91247825  0.92600869  0.08656052  1
  Al  Al47  1  0.92333549  0.90759280  0.58878944  1
  Al  Al48  1  0.41078904  0.09275199  0.41608824  1
  Al  Al49  1  0.41764982  0.08694506  0.91833413  1
  Al  Al50  1  0.41993554  0.57930365  0.41798708  1
  Al  Al51  1  0.41333278  0.57128757  0.91409986  1
  Al  Al52  1  0.91824119  0.07751363  0.42611513  1
  Al  Al53  1  0.92499417  0.08150106  0.91551864  1
  Al  Al54  1  0.92108219  0.58319930  0.42201271  1
  Al  Al55  1  0.92052780  0.57829015  0.91054579  1
  Al  Al56  1  0.09331974  0.42065547  0.43133260  1
  Al  Al57  1  0.08750681  0.41805461  0.91354068  1
  Al  Al58  1  0.09177804  0.92725729  0.41657746  1
  Al  Al59  1  0.08977947  0.91418027  0.90450160  1
  Al  Al60  1  0.58263267  0.42045364  0.40861385  1
  Al  Al61  1  0.57755104  0.40939848  0.90674481  1
  Al  Al62  1  0.57213112  0.90793361  0.40648198  1
  Al  Al63  1  0.57765982  0.91805094  0.90754845  1
  Al  Al64  1  0.10458233  0.08673229  0.42246156  1
  Al  Al65  1  0.08735236  0.07843057  0.90547302  1
  Al  Al66  1  0.08769235  0.58812316  0.42458037  1
  Al  Al67  1  0.08606739  0.58157333  0.91318897  1
  Al  Al68  1  0.57281875  0.09322357  0.42043653  1
  Al  Al69  1  0.57801511  0.08228628  0.91513973  1
  Al  Al70  1  0.58548204  0.58201531  0.41239174  1
  Al  Al71  1  0.58310347  0.56861458  0.90884348  1
  Al  Al72  1  0.41119753  0.40932441  0.41997383  1
  Al  Al73  1  0.41342285  0.40791188  0.91183916  1
  Al  Al74  1  0.41543685  0.91385233  0.40700107  1
  Al  Al75  1  0.42044484  0.91739232  0.91091337  1
  Al  Al76  1  0.91680236  0.42494063  0.42880976  1
  Al  Al77  1  0.91867918  0.41886306  0.91092740  1
  Al  Al78  1  0.91733699  0.92070011  0.42905632  1
  Al  Al79  1  0.92712632  0.91337592  0.90894232  1
  Al  Al80  1  0.08952390  0.42005076  0.07622290  1
  Al  Al81  1  0.08883087  0.41242416  0.58598497  1
  Al  Al82  1  0.08883760  0.92090892  0.07438405  1
  Al  Al83  1  0.08308739  0.91321093  0.59096039  1
  Al  Al84  1  0.57275003  0.40874678  0.08748483  1
  Al  Al85  1  0.57898515  0.41802816  0.58700024  1
  Al  Al86  1  0.57677303  0.91266887  0.09056933  1
  Al  Al87  1  0.57401735  0.92595528  0.57699656  1
  Al  Al88  1  0.41751005  0.09195507  0.08714084  1
  Al  Al89  1  0.40794545  0.09048616  0.57916510  1
  Al  Al90  1  0.41282693  0.57478444  0.09001099  1
  Al  Al91  1  0.40974865  0.57394069  0.59008175  1
  Al  Al92  1  0.91630827  0.07921871  0.09025992  1
  Al  Al93  1  0.92786611  0.08749243  0.58981314  1
  Al  Al94  1  0.92389877  0.57932191  0.08137865  1
  Al  Al95  1  0.91604769  0.57967853  0.59072682  1
  Al  Al96  1  0.25458701  0.13612751  0.13486168  1
  Al  Al97  1  0.24831059  0.14139597  0.62656945  1
  Al  Al98  1  0.25418708  0.63487976  0.13675314  1
  Al  Al99  1  0.25186261  0.63626427  0.62935041  1
  Al  Al100  1  0.74827020  0.13624037  0.13018394  1
  Al  Al101  1  0.75242516  0.13875949  0.63654435  1
  Al  Al102  1  0.74382962  0.62868280  0.13654177  1
  Al  Al103  1  0.75102055  0.62826242  0.63873572  1
  Al  Al104  1  0.25947107  0.36234865  0.12843466  1
  Al  Al105  1  0.25566814  0.36391061  0.63542362  1
  Al  Al106  1  0.25481796  0.86634960  0.13659433  1
  Al  Al107  1  0.24935907  0.86726991  0.63620555  1
  Al  Al108  1  0.74465886  0.36779108  0.13781932  1
  Al  Al109  1  0.74977809  0.37163590  0.63931369  1
  Al  Al110  1  0.74851929  0.86348110  0.12910330  1
  Al  Al111  1  0.75103358  0.86279145  0.63991731  1
  Al  Al112  1  0.25325760  0.13301692  0.36718626  1
  Al  Al113  1  0.24825199  0.13730140  0.86318784  1
  Al  Al114  1  0.25441534  0.63527240  0.37118343  1
  Al  Al115  1  0.25295491  0.63435284  0.86277918  1
  Al  Al116  1  0.74833518  0.13317566  0.36203617  1
  Al  Al117  1  0.74994323  0.14090237  0.86930420  1
  Al  Al118  1  0.74502643  0.63399722  0.36264447  1
  Al  Al119  1  0.74701357  0.63396971  0.86420658  1
  Al  Al120  1  0.25603529  0.36433537  0.36691511  1
  Al  Al121  1  0.25699421  0.36616657  0.86726233  1
  Al  Al122  1  0.24895859  0.87290133  0.36761288  1
  Al  Al123  1  0.24775087  0.86865531  0.86199662  1
  Al  Al124  1  0.74263799  0.36822734  0.36604372  1
  Al  Al125  1  0.74476597  0.36856853  0.86198755  1
  Al  Al126  1  0.75037018  0.86561257  0.36071159  1
  Al  Al127  1  0.75308483  0.86334014  0.86736504  1
  Al  Al128  1  0.14091922  0.25261173  0.13278388  1
  Al  Al129  1  0.13107221  0.24839689  0.63540753  1
  Al  Al130  1  0.13650472  0.75099642  0.13719601  1
  Al  Al131  1  0.13817099  0.75130925  0.63501296  1
  Al  Al132  1  0.63027708  0.24869188  0.13628352  1
  Al  Al133  1  0.62840674  0.25673488  0.63757310  1
  Al  Al134  1  0.63236572  0.75469514  0.13634426  1
  Al  Al135  1  0.63511844  0.74556586  0.64153228  1
  Al  Al136  1  0.14021297  0.24573772  0.37067620  1
  Al  Al137  1  0.13720118  0.25415538  0.86464870  1
  Al  Al138  1  0.14053047  0.74456898  0.36927430  1
  Al  Al139  1  0.13540703  0.75351669  0.86137132  1
  Al  Al140  1  0.63131489  0.25351409  0.36328655  1
  Al  Al141  1  0.63219123  0.25346479  0.86256533  1
  Al  Al142  1  0.63418884  0.75185091  0.36113282  1
  Al  Al143  1  0.63233756  0.75439249  0.86312858  1
  Al  Al144  1  0.37316007  0.25002676  0.13802877  1
  Al  Al145  1  0.36832697  0.25093015  0.63255776  1
  Al  Al146  1  0.36714416  0.75473330  0.13274378  1
  Al  Al147  1  0.36358873  0.74989634  0.63094565  1
  Al  Al148  1  0.86163268  0.24795230  0.13608067  1
  Al  Al149  1  0.87074749  0.25241312  0.63711408  1
  Al  Al150  1  0.86461981  0.74854840  0.13417605  1
  Al  Al151  1  0.86356323  0.74814507  0.63725382  1
  Al  Al152  1  0.36336989  0.25016124  0.36898680  1
  Al  Al153  1  0.36722087  0.25532590  0.86411154  1
  Al  Al154  1  0.36263684  0.75368666  0.36889184  1
  Al  Al155  1  0.36483645  0.75255437  0.86608123  1
  Al  Al156  1  0.85804440  0.25155857  0.36700235  1
  Al  Al157  1  0.86513444  0.25203822  0.86281255  1
  Al  Al158  1  0.86072550  0.74712778  0.36282890  1
  Al  Al159  1  0.86693848  0.75112623  0.86430700  1
  Al  Al160  1  0.14159320  0.13536822  0.25335597  1
  Al  Al161  1  0.13833921  0.13126522  0.74565518  1
  Al  Al162  1  0.13854746  0.63605175  0.24925914  1
  Al  Al163  1  0.13733058  0.63392314  0.74921440  1
  Al  Al164  1  0.63263599  0.13474609  0.24757457  1
  Al  Al165  1  0.63536982  0.13803065  0.74843419  1
  Al  Al166  1  0.63235058  0.62758364  0.24814824  1
  Al  Al167  1  0.63480528  0.62725897  0.75181330  1
  Al  Al168  1  0.36518483  0.13159353  0.24979114  1
  Al  Al169  1  0.36286173  0.13857499  0.74740476  1
  Al  Al170  1  0.36449466  0.63667430  0.24987353  1
  Al  Al171  1  0.36254897  0.63152128  0.74879161  1
  Al  Al172  1  0.86310134  0.13403679  0.24843453  1
  Al  Al173  1  0.86501833  0.13372740  0.75044679  1
  Al  Al174  1  0.86376193  0.63391453  0.24787797  1
  Al  Al175  1  0.86690047  0.63226251  0.74913257  1
  Al  Al176  1  0.14189504  0.36188769  0.25182168  1
  Al  Al177  1  0.13372060  0.36488825  0.74649203  1
  Al  Al178  1  0.13693102  0.86419654  0.25266648  1
  Al  Al179  1  0.13500195  0.86852770  0.74911696  1
  Al  Al180  1  0.62750804  0.36476210  0.24781701  1
  Al  Al181  1  0.62909950  0.37121036  0.75031131  1
  Al  Al182  1  0.63262858  0.86786946  0.25000878  1
  Al  Al183  1  0.63437820  0.86549268  0.75225836  1
  Al  Al184  1  0.37146645  0.36249651  0.24739399  1
  Al  Al185  1  0.36780892  0.36671407  0.75040480  1
  Al  Al186  1  0.36629772  0.86950979  0.25307382  1
  Al  Al187  1  0.36489052  0.86554952  0.75167877  1
  Al  Al188  1  0.86176007  0.36584549  0.25208104  1
  Al  Al189  1  0.87023465  0.36654284  0.74881423  1
  Al  Al190  1  0.86255886  0.86721712  0.24098416  1
  Al  Al191  1  0.87076714  0.86414287  0.75090142  1
  Al  Al192  1  0.32080891  0.00326086  0.82699620  1
  Al  Al193  1  0.82813708  0.00039332  0.67420657  1
  Al  Al194  1  0.81244258  0.49995497  0.81081001  1
  Al  Al195  1  0.49855647  0.67881262  0.83182424  1
  Al  Al196  1  0.00361572  0.33053408  0.33285420  1
  Al  Al197  1  0.67204974  0.00123274  0.67175364  1
  Al  Al198  1  0.32366834  0.67248944  -0.00030425  1
  Al  Al199  1  0.49919636  0.68401876  0.17641944  1
  Al  Al200  1  0.17822982  0.82410687  0.49798336  1
  Al  Al201  1  0.00043381  0.32956177  0.17055156  1
  Al  Al202  1  0.66557997  0.82381187  0.50235556  1
  Al  Al203  1  0.17231405  0.17535639  0.00061229  1
  Al  Al204  1  0.67975716  0.18329796  0.50028930  1
  Al  Al205  1  0.19439310  0.49686837  0.17337525  1
  Al  Al206  1  0.00241400  0.68499805  0.67057981  1
  Al  Al207  1  0.31755122  0.00328598  0.67467765  1
  Al  Al208  1  0.81641822  0.50127670  0.32197140  1
  Al  Al209  1  0.49768021  0.18295135  0.31343769  1
  Al  Al210  1  0.32773942  0.18852455  -0.00063181  1
  Al  Al211  1  0.49931843  0.83168230  0.68569505  1
  Al  Al212  1  0.49871835  0.18547880  0.81917048  1
  Al  Al213  1  0.82287427  -0.00105650  0.31547092  1
  Al  Al214  1  0.00107074  0.82372363  0.16504648  1
  Al  Al215  1  0.00142635  0.68425283  0.82176761  1
  Al  Al216  1  0.81877605  0.32227833  0.50070649  1
  Al  Al217  1  0.18634443  0.50040260  0.67122835  1
  Al  Al218  1  0.82673958  0.67790968  -0.00003812  1
  Al  Al219  1  0.49879848  0.68435088  0.32816451  1
  Al  Al220  1  0.00191925  0.16870852  0.33136515  1
  Al  Al221  1  0.49844971  0.67320583  0.67283566  1
  Al  Al222  1  0.68286125  -0.00081714  0.17673678  1
  Al  Al223  1  0.82667491  0.32182488  -0.00111150  1
  Al  Al224  1  0.00270166  0.17777886  0.81143757  1
  Al  Al225  1  0.19012942  0.31372914  0.50301697  1
  Al  Al226  1  0.00256997  0.17268306  0.17610482  1
  Al  Al227  1  0.66715939  0.67380612  -0.00132975  1
  Al  Al228  1  0.17548579  0.50183040  0.33026975  1
  Al  Al229  1  0.82464395  0.81765175  0.50071840  1
  Al  Al230  1  0.66872797  0.32269117  0.00030632  1
  Al  Al231  1  0.32799609  0.49912259  0.31580408  1
  Al  Al232  1  0.68136213  0.67259409  0.50088090  1
  Al  Al233  1  0.00135247  0.67269484  0.32395850  1
  Al  Al234  1  0.18096160  0.00000574  0.18401649  1
  Al  Al235  1  0.68009042  0.00229652  0.82492091  1
  Al  Al236  1  0.18307333  0.82120019  -0.00081278  1
  Al  Al237  1  -0.00107621  0.82991328  0.33036047  1
  Al  Al238  1  0.18725515  0.49882534  0.82297570  1
  Au  Au239  1  0.82751113  0.33124938  0.50290221  1
  Au  Au240  1  0.32912314  0.00187954  0.16660216  1
  Au  Au241  1  0.65682918  0.00580805  0.33812801  1
  Au  Au242  1  0.00171608  0.67190970  0.82551113  1
  Au  Au243  1  0.82064599  0.33777832  -0.00213358  1
  Au  Au244  1  0.33098309  0.66224385  -0.00010897  1
  Au  Au245  1  0.82751207  0.49979383  0.16340629  1
  Au  Au246  1  0.83371550  0.16032843  0.00141729  1
  Au  Au247  1  0.49939502  0.67170848  0.17267851  1
  Au  Au248  1  0.65885970  0.49329222  0.17439507  1
  Au  Au249  1  0.65606453  0.17370526  -0.00126847  1
  Au  Au250  1  0.33444102  0.83127031  0.49951599  1
  Au  Au251  1  0.83227959  0.84262657  -0.00167845  1
  Au  Au252  1  0.83360620  0.66808564  0.50448924  1
  Au  Au253  1  0.00086924  0.32316995  0.15410489  1
  Au  Au254  1  0.82476612  0.50210991  0.33673758  1
  Au  Au255  1  0.49783309  0.33027438  0.32519707  1
  Au  Au256  1  0.00206655  0.66028340  0.17527439  1
  Au  Au257  1  0.32371684  0.00316878  0.33486504  1
  Au  Au258  1  0.00271660  0.83591749  0.16781359  1
  Au  Au259  1  0.49825189  0.16484822  0.67179576  1
  Au  Au260  1  0.17781784  0.49717621  0.17801873  1
  Au  Au261  1  0.67340900  0.83784386  0.49683884  1
  Au  Au262  1  0.83382428  -0.00334902  0.32846316  1
  Au  Au263  1  0.16860365  0.83184008  0.50053969  1
  Au  Au264  1  0.17003863  0.16332008  0.00320312  1
  Au  Au265  1  0.49558132  0.33436364  0.67621022  1
  Au  Au266  1  0.67236795  0.00010873  0.16394759  1
  Au  Au267  1  0.00298705  0.32452324  0.83356296  1
  Au  Au268  1  0.00766172  0.15300326  0.32971691  1
  Au  Au269  1  0.16662558  0.67312527  -0.00116399  1
  Au  Au270  1  0.18174874  0.33452276  -0.00391681  1
  Au  Au271  1  0.33288491  0.83655525  -0.00336237  1
  Au  Au272  1  0.82981466  0.16621030  0.50348077  1
  Au  Au273  1  0.84261670  0.67007588  -0.00091699  1
  Au  Au274  1  0.66525739  0.65668206  -0.00149614  1
  Au  Au275  1  0.16856572  0.00266523  0.67336249  1
  Au  Au276  1  0.49869708  0.83264988  0.66875676  1
  Au  Au277  1  0.00122723  0.32511734  0.66592748  1
  Au  Au278  1  0.00558187  0.34600479  0.33901924  1
  Au  Au279  1  0.67089501  0.50125305  0.67313064  1
  Au  Au280  1  0.32861281  0.66005632  0.50124232  1
  Au  Au281  1  0.65752239  0.83414187  -0.00365606  1
  Au  Au282  1  0.83204716  -0.00415493  0.66313760  1
  Au  Au283  1  0.82901797  -0.00028382  0.83742024  1
  Au  Au284  1  0.00055939  0.82499601  0.34634254  1
  Au  Au285  1  0.49828359  0.66287204  0.82574974  1
  Au  Au286  1  0.65939447  0.33066058  0.49861512  1
  Au  Au287  1  0.82473782  0.49974707  0.82300419  1
