# generated using pymatgen
data_Ca24Ti8Al207Au49
_symmetry_space_group_name_H-M   'P 1'
_cell_length_a   17.31970763
_cell_length_b   17.31725625
_cell_length_c   17.31985439
_cell_angle_alpha   89.99552841
_cell_angle_beta   89.99656307
_cell_angle_gamma   89.99872644
_symmetry_Int_Tables_number   1
_chemical_formula_structural   Ca24Ti8Al207Au49
_chemical_formula_sum   'Ca24 Ti8 Al207 Au49'
_cell_volume   5194.74069859
_cell_formula_units_Z   1
loop_
 _symmetry_equiv_pos_site_id
 _symmetry_equiv_pos_as_xyz
  1  'x, y, z'
loop_
 _atom_site_type_symbol
 _atom_site_label
 _atom_site_symmetry_multiplicity
 _atom_site_fract_x
 _atom_site_fract_y
 _atom_site_fract_z
 _atom_site_occupancy
  Ca  Ca0  1  0.24842747  -0.00243502  -0.00446736  1
  Ca  Ca1  1  0.25352736  0.00564592  0.50750075  1
  Ca  Ca2  1  0.24560831  0.50088995  0.00288098  1
  Ca  Ca3  1  0.24768369  0.49375917  0.50113599  1
  Ca  Ca4  1  0.74683220  0.00246193  0.00081420  1
  Ca  Ca5  1  0.74874263  0.00701600  0.50073818  1
  Ca  Ca6  1  0.75003952  0.49718784  -0.00075234  1
  Ca  Ca7  1  0.74958835  0.49335363  0.50139909  1
  Ca  Ca8  1  -0.00168086  0.25041347  0.00224543  1
  Ca  Ca9  1  -0.00369432  0.25280631  0.49588424  1
  Ca  Ca10  1  -0.00059009  0.75513900  0.00048397  1
  Ca  Ca11  1  -0.00124015  0.74755081  0.49532557  1
  Ca  Ca12  1  0.50550444  0.25124234  -0.00209629  1
  Ca  Ca13  1  0.50439890  0.24944038  0.50065765  1
  Ca  Ca14  1  0.50335440  0.75122049  -0.00368340  1
  Ca  Ca15  1  0.50398477  0.75513738  0.50257994  1
  Ca  Ca16  1  -0.00505648  0.00554308  0.25007716  1
  Ca  Ca17  1  -0.00151170  0.00009056  0.75728798  1
  Ca  Ca18  1  -0.00335307  0.49412396  0.25298574  1
  Ca  Ca19  1  -0.00407110  0.49930449  0.75265522  1
  Ca  Ca20  1  0.50070711  0.00355209  0.25053123  1
  Ca  Ca21  1  0.50200875  0.00408838  0.74851589  1
  Ca  Ca22  1  0.50179681  0.49285473  0.24758627  1
  Ca  Ca23  1  0.50290731  0.49732706  0.75317456  1
  Ti  Ti24  1  0.24916196  0.25153150  0.25269053  1
  Ti  Ti25  1  0.25072766  0.24895838  0.74964032  1
  Ti  Ti26  1  0.24856810  0.75017251  0.24745576  1
  Ti  Ti27  1  0.25251984  0.75124657  0.75213417  1
  Ti  Ti28  1  0.74912595  0.25070710  0.24874131  1
  Ti  Ti29  1  0.74937690  0.25014680  0.75165477  1
  Ti  Ti30  1  0.75147925  0.74849397  0.24890646  1
  Ti  Ti31  1  0.74779644  0.74972806  0.75199379  1
  Al  Al32  1  0.07004787  0.08414309  0.07889675  1
  Al  Al33  1  0.08169823  0.08308602  0.57703615  1
  Al  Al34  1  0.08561454  0.58403115  0.08166909  1
  Al  Al35  1  0.07020000  0.57167188  0.57651092  1
  Al  Al36  1  0.58637908  0.08894825  0.08417166  1
  Al  Al37  1  0.58430154  0.09901559  0.58698642  1
  Al  Al38  1  0.58150136  0.57767203  0.07815497  1
  Al  Al39  1  0.58498186  0.57603391  0.58457237  1
  Al  Al40  1  0.42983953  0.40840111  0.08476855  1
  Al  Al41  1  0.42852938  0.40432472  0.58870469  1
  Al  Al42  1  0.41991701  0.89497436  0.08021267  1
  Al  Al43  1  0.41363454  0.91637325  0.58657031  1
  Al  Al44  1  0.91702527  0.40751804  0.08966318  1
  Al  Al45  1  0.91367365  0.41526304  0.57643520  1
  Al  Al46  1  0.91027546  0.91945587  0.07984279  1
  Al  Al47  1  0.91742992  0.92579645  0.58430447  1
  Al  Al48  1  0.42288760  0.09593339  0.42480442  1
  Al  Al49  1  0.42564456  0.08159343  0.91069801  1
  Al  Al50  1  0.42438855  0.57812932  0.42068687  1
  Al  Al51  1  0.41805916  0.58462435  0.91998500  1
  Al  Al52  1  0.91294881  0.10108781  0.41341796  1
  Al  Al53  1  0.91235502  0.08806511  0.92319147  1
  Al  Al54  1  0.90535587  0.57486549  0.41384857  1
  Al  Al55  1  0.90966620  0.58345240  0.91882996  1
  Al  Al56  1  0.08076087  0.40705799  0.40402010  1
  Al  Al57  1  0.07412855  0.41240009  0.91313694  1
  Al  Al58  1  0.07965093  0.92752336  0.41912080  1
  Al  Al59  1  0.09773354  0.91446784  0.91070807  1
  Al  Al60  1  0.59006700  0.40127973  0.41456116  1
  Al  Al61  1  0.59507714  0.41079378  0.91467884  1
  Al  Al62  1  0.57431947  0.92879489  0.42331225  1
  Al  Al63  1  0.58911320  0.92306856  0.91557964  1
  Al  Al64  1  0.07525413  0.09167747  0.40922874  1
  Al  Al65  1  0.08556489  0.07665948  0.91305721  1
  Al  Al66  1  0.07893134  0.56758988  0.40933004  1
  Al  Al67  1  0.08462053  0.58349598  0.92291082  1
  Al  Al68  1  0.58556772  0.09918756  0.41807617  1
  Al  Al69  1  0.58921613  0.08592780  0.90700831  1
  Al  Al70  1  0.58077303  0.57644774  0.41978066  1
  Al  Al71  1  0.58928222  0.57389473  0.91183984  1
  Al  Al72  1  0.42778501  0.40697416  0.41355778  1
  Al  Al73  1  0.42915959  0.41840702  0.92280988  1
  Al  Al74  1  0.41221678  0.90912210  0.42920422  1
  Al  Al75  1  0.40884619  0.91070610  0.92030989  1
  Al  Al76  1  0.91235918  0.41036381  0.40598262  1
  Al  Al77  1  0.91446227  0.41100591  0.91088320  1
  Al  Al78  1  0.91989951  0.92369887  0.42017973  1
  Al  Al79  1  0.91429891  0.91447792  0.92236344  1
  Al  Al80  1  0.07651713  0.40849355  0.09238909  1
  Al  Al81  1  0.07458169  0.41233840  0.57362505  1
  Al  Al82  1  0.08482101  0.91211698  0.07116064  1
  Al  Al83  1  0.07863185  0.92177472  0.58213050  1
  Al  Al84  1  0.58812457  0.40244173  0.07868774  1
  Al  Al85  1  0.58994054  0.40077141  0.58859501  1
  Al  Al86  1  0.58004843  0.90863318  0.08508992  1
  Al  Al87  1  0.57421645  0.92782511  0.58776395  1
  Al  Al88  1  0.42977847  0.08760009  0.08197583  1
  Al  Al89  1  0.41863450  0.09214736  0.58716502  1
  Al  Al90  1  0.41803170  0.58650955  0.07657787  1
  Al  Al91  1  0.42560892  0.58120344  0.58018066  1
  Al  Al92  1  0.91004645  0.09210252  0.08484663  1
  Al  Al93  1  0.90749298  0.08766653  0.57508719  1
  Al  Al94  1  0.91149307  0.58172818  0.07941909  1
  Al  Al95  1  0.90657253  0.58367757  0.57391939  1
  Al  Al96  1  0.25077345  0.13863047  0.14227701  1
  Al  Al97  1  0.25120709  0.13770654  0.62987953  1
  Al  Al98  1  0.24968310  0.63382635  0.13559018  1
  Al  Al99  1  0.25034473  0.63392939  0.63676270  1
  Al  Al100  1  0.74829674  0.14015578  0.12936124  1
  Al  Al101  1  0.74456104  0.13951996  0.62927157  1
  Al  Al102  1  0.75052448  0.62836869  0.13618137  1
  Al  Al103  1  0.74939064  0.63239580  0.63588047  1
  Al  Al104  1  0.24503287  0.36392021  0.13876648  1
  Al  Al105  1  0.25242907  0.36262405  0.63594977  1
  Al  Al106  1  0.24816050  0.86359458  0.12843133  1
  Al  Al107  1  0.25375355  0.86619100  0.63472329  1
  Al  Al108  1  0.75084154  0.36867526  0.13434810  1
  Al  Al109  1  0.74624680  0.36128271  0.63382988  1
  Al  Al110  1  0.75054307  0.86263923  0.12868380  1
  Al  Al111  1  0.74566478  0.86583648  0.63471801  1
  Al  Al112  1  0.24935017  0.14176559  0.37146739  1
  Al  Al113  1  0.25135236  0.12946668  0.86119130  1
  Al  Al114  1  0.24672893  0.63650826  0.36239760  1
  Al  Al115  1  0.25482671  0.63441724  0.86477136  1
  Al  Al116  1  0.75072054  0.14096251  0.37223531  1
  Al  Al117  1  0.74789665  0.13642583  0.86996397  1
  Al  Al118  1  0.75739080  0.62746708  0.36710694  1
  Al  Al119  1  0.74719080  0.62849093  0.86391257  1
  Al  Al120  1  0.24769023  0.36348228  0.36579072  1
  Al  Al121  1  0.25028734  0.36432897  0.86149366  1
  Al  Al122  1  0.25349096  0.86439571  0.36157821  1
  Al  Al123  1  0.25023501  0.86861207  0.86725032  1
  Al  Al124  1  0.75108238  0.36591631  0.36334365  1
  Al  Al125  1  0.74638987  0.36951895  0.86621200  1
  Al  Al126  1  0.74949576  0.86350982  0.36559055  1
  Al  Al127  1  0.74769643  0.86411254  0.87069839  1
  Al  Al128  1  0.13086131  0.25382177  0.13853756  1
  Al  Al129  1  0.13365945  0.24553476  0.63533910  1
  Al  Al130  1  0.13317789  0.75213191  0.13567879  1
  Al  Al131  1  0.13696742  0.75579743  0.63553861  1
  Al  Al132  1  0.63519571  0.25274251  0.12652035  1
  Al  Al133  1  0.63066773  0.24908006  0.63627493  1
  Al  Al134  1  0.63839537  0.74979123  0.12846610  1
  Al  Al135  1  0.63658911  0.74788169  0.63565935  1
  Al  Al136  1  0.12566387  0.24949530  0.36177572  1
  Al  Al137  1  0.13168106  0.24957213  0.86458071  1
  Al  Al138  1  0.12851364  0.75223813  0.36228385  1
  Al  Al139  1  0.13776400  0.75276055  0.86654037  1
  Al  Al140  1  0.63953273  0.25098152  0.37132336  1
  Al  Al141  1  0.63723390  0.25120193  0.87150692  1
  Al  Al142  1  0.63865959  0.74913783  0.36564061  1
  Al  Al143  1  0.63200621  0.75087166  0.86781109  1
  Al  Al144  1  0.36721766  0.25353550  0.13676989  1
  Al  Al145  1  0.37149374  0.24534277  0.63426086  1
  Al  Al146  1  0.36439942  0.74913494  0.12682989  1
  Al  Al147  1  0.36462246  0.75186286  0.63565107  1
  Al  Al148  1  0.86493726  0.25236325  0.13495545  1
  Al  Al149  1  0.86076674  0.24825964  0.63232866  1
  Al  Al150  1  0.86547433  0.75146638  0.13618895  1
  Al  Al151  1  0.85900305  0.74683197  0.63371472  1
  Al  Al152  1  0.36729393  0.24884575  0.36875422  1
  Al  Al153  1  0.36726312  0.25067014  0.86134246  1
  Al  Al154  1  0.36393614  0.75392716  0.36357244  1
  Al  Al155  1  0.36787757  0.75267919  0.86991450  1
  Al  Al156  1  0.86881305  0.25106899  0.36258525  1
  Al  Al157  1  0.86651122  0.24880467  0.86627764  1
  Al  Al158  1  0.86811729  0.74600645  0.36455568  1
  Al  Al159  1  0.86197805  0.75091469  0.86558694  1
  Al  Al160  1  0.13274288  0.13737453  0.25219164  1
  Al  Al161  1  0.13197000  0.13532800  0.75527812  1
  Al  Al162  1  0.13355770  0.62961217  0.24938282  1
  Al  Al163  1  0.13620212  0.63655694  0.75252410  1
  Al  Al164  1  0.63666497  0.13862432  0.25231994  1
  Al  Al165  1  0.63905090  0.13261147  0.74958886  1
  Al  Al166  1  0.63820312  0.63338324  0.25060061  1
  Al  Al167  1  0.63196262  0.63496928  0.75245139  1
  Al  Al168  1  0.36841630  0.13870610  0.25642255  1
  Al  Al169  1  0.36779001  0.13565236  0.74835569  1
  Al  Al170  1  0.36504233  0.63675426  0.24934199  1
  Al  Al171  1  0.37220359  0.63751028  0.75044111  1
  Al  Al172  1  0.86279363  0.13875512  0.25108915  1
  Al  Al173  1  0.86260710  0.13573810  0.75233798  1
  Al  Al174  1  0.86619030  0.62783133  0.24857279  1
  Al  Al175  1  0.86482386  0.63447711  0.75606488  1
  Al  Al176  1  0.13092590  0.36680854  0.25298795  1
  Al  Al177  1  0.13356479  0.36394687  0.75194140  1
  Al  Al178  1  0.13314720  0.86463659  0.24956694  1
  Al  Al179  1  0.13721831  0.86568121  0.75379285  1
  Al  Al180  1  0.63431620  0.36296113  0.24721685  1
  Al  Al181  1  0.62866104  0.35899687  0.75162354  1
  Al  Al182  1  0.63632120  0.86693169  0.24573129  1
  Al  Al183  1  0.63771866  0.87332877  0.75413044  1
  Al  Al184  1  0.36585250  0.36481421  0.25262461  1
  Al  Al185  1  0.37289603  0.36209178  0.74626534  1
  Al  Al186  1  0.36728960  0.85955210  0.24022274  1
  Al  Al187  1  0.36566867  0.86664778  0.75715471  1
  Al  Al188  1  0.86556381  0.36545777  0.25095034  1
  Al  Al189  1  0.86082338  0.36310375  0.75398879  1
  Al  Al190  1  0.86770185  0.86371785  0.25151153  1
  Al  Al191  1  0.86108778  0.86411340  0.75124913  1
  Al  Al192  1  -0.00460732  0.17149950  0.67719844  1
  Al  Al193  1  0.17003748  0.00150654  0.68875095  1
  Al  Al194  1  0.33204801  0.00465793  0.33587831  1
  Al  Al195  1  0.67141406  0.00372923  0.32474013  1
  Al  Al196  1  0.50193491  0.67506637  0.32557354  1
  Al  Al197  1  0.31611137  0.50100844  0.33170767  1
  Al  Al198  1  -0.00195992  0.18621523  0.18457835  1
  Al  Al199  1  -0.00357284  0.67637933  0.17674725  1
  Al  Al200  1  0.16852709  0.66908751  0.49894700  1
  Al  Al201  1  0.82717270  0.00276627  0.32808997  1
  Al  Al202  1  0.81586860  0.00251661  0.67419480  1
  Al  Al203  1  0.81812544  0.68743597  0.00111155  1
  Al  Al204  1  -0.00193116  0.82868162  0.67505247  1
  Al  Al205  1  0.32585040  0.49949888  0.67689301  1
  Al  Al206  1  0.32958503  0.31573090  0.50155683  1
  Al  Al207  1  0.82390822  0.81952655  0.50005672  1
  Al  Al208  1  0.32973873  0.68413404  0.49917618  1
  Al  Al209  1  0.32355811  0.17022431  0.00027981  1
  Al  Al210  1  0.81830707  0.00179021  0.17418215  1
  Al  Al211  1  0.33500074  -0.00329728  0.16806894  1
  Al  Al212  1  0.18084534  0.68690805  0.00085151  1
  Al  Al213  1  0.68446720  0.67602384  0.49880311  1
  Al  Al214  1  0.67303861  0.49638163  0.68505500  1
  Al  Al215  1  0.17125541  0.00060231  0.16745301  1
  Al  Al216  1  0.17365118  0.31818593  0.49899741  1
  Al  Al217  1  0.17580059  0.00281571  0.32481531  1
  Al  Al218  1  0.81522464  0.31558878  -0.00122347  1
  Al  Al219  1  0.81776587  -0.00061329  0.82930837  1
  Al  Al220  1  0.17015161  0.32757373  -0.00045819  1
  Al  Al221  1  0.82582468  0.49808547  0.67749705  1
  Al  Al222  1  0.50001851  0.83469825  0.31745392  1
  Al  Al223  1  0.18596047  0.83307260  0.49707916  1
  Al  Al224  1  0.50415485  0.18219676  0.81068217  1
  Al  Al225  1  0.81586074  0.31555161  0.49755330  1
  Al  Al226  1  0.32525328  0.32891136  0.00029324  1
  Al  Al227  1  0.32607430  0.00238450  0.68125113  1
  Al  Al228  1  -0.00034162  0.82393205  0.82854666  1
  Al  Al229  1  -0.00344923  0.32761863  0.68220711  1
  Al  Al230  1  0.32361523  0.49680483  0.17111346  1
  Al  Al231  1  0.50194618  0.68582212  0.16768935  1
  Al  Al232  1  0.17550567  0.49653693  0.82337803  1
  Al  Al233  1  -0.00213316  0.67281538  0.67548171  1
  Al  Al234  1  0.50259027  0.30350626  0.30979924  1
  Al  Al235  1  0.50172901  0.19587603  0.18906686  1
  Al  Al236  1  0.50052741  0.82226653  0.68177715  1
  Al  Al237  1  0.17234357  0.17287083  0.00116768  1
  Al  Al238  1  0.67805134  0.50052535  0.32240547  1
  Au  Au239  1  -0.00596715  0.67571304  0.65910592  1
  Au  Au240  1  0.49953105  0.82851019  0.33372788  1
  Au  Au241  1  0.67250914  0.17240183  -0.00228136  1
  Au  Au242  1  0.15884136  0.00002658  0.17056580  1
  Au  Au243  1  0.67366607  0.66299660  0.49946465  1
  Au  Au244  1  -0.00452293  0.66176217  0.33380310  1
  Au  Au245  1  0.50264987  0.84006709  0.82994986  1
  Au  Au246  1  0.50153557  0.66922215  0.17272556  1
  Au  Au247  1  -0.00102457  0.66805643  0.16773422  1
  Au  Au248  1  -0.00001450  0.67497219  0.84399695  1
  Au  Au249  1  0.00090627  0.83999825  0.32981973  1
  Au  Au250  1  0.32858275  -0.00015686  0.83272427  1
  Au  Au251  1  -0.00496405  0.17501868  0.66482325  1
  Au  Au252  1  0.16708023  0.49886710  0.83236000  1
  Au  Au253  1  0.32971839  0.49509214  0.84353583  1
  Au  Au254  1  0.33874562  0.49888316  0.66605187  1
  Au  Au255  1  0.32785515  0.00735786  0.35210922  1
  Au  Au256  1  0.66641165  0.49385688  0.16596148  1
  Au  Au257  1  0.15789658  0.49275823  0.66856009  1
  Au  Au258  1  0.33813194  0.17734490  -0.00499873  1
  Au  Au259  1  0.33169920  0.49961841  0.33861823  1
  Au  Au260  1  0.50289211  0.66464241  0.83273094  1
  Au  Au261  1  0.66186363  0.83933842  0.50492866  1
  Au  Au262  1  0.83780627  0.82920156  0.50098192  1
  Au  Au263  1  0.16957929  0.65201116  0.49513996  1
  Au  Au264  1  0.82576684  0.49887134  0.82696027  1
  Au  Au265  1  0.66631518  0.00524166  0.67088911  1
  Au  Au266  1  0.34625380  0.67974362  0.49786007  1
  Au  Au267  1  0.50438027  0.67335960  0.66654606  1
  Au  Au268  1  0.67424677  0.66177926  -0.00275578  1
  Au  Au269  1  0.15770166  0.49672761  0.17772078  1
  Au  Au270  1  -0.00305916  0.83283809  0.16121888  1
  Au  Au271  1  0.50133402  0.32919582  0.82759179  1
  Au  Au272  1  0.67537649  0.83312690  -0.00094735  1
  Au  Au273  1  0.16883545  0.16910660  0.49563228  1
  Au  Au274  1  0.32718400  0.67875021  -0.00221192  1
  Au  Au275  1  0.66935489  -0.00294147  0.16409975  1
  Au  Au276  1  0.66934271  0.49815570  0.33143466  1
  Au  Au277  1  0.83700292  0.49669104  0.17547183  1
  Au  Au278  1  0.82995723  0.32373353  -0.00117191  1
  Au  Au279  1  0.16978978  0.83865067  0.49770185  1
  Au  Au280  1  0.82951704  -0.00036094  0.83749971  1
  Au  Au281  1  0.50176856  0.17910795  0.18488169  1
  Au  Au282  1  0.17004465  0.00147094  0.67156369  1
  Au  Au283  1  0.00025838  0.17539274  0.84104278  1
  Au  Au284  1  0.33379853  0.32796556  0.50145545  1
  Au  Au285  1  0.33407782  0.49581702  0.15870040  1
  Au  Au286  1  0.67434369  0.00447446  0.33727619  1
  Au  Au287  1  0.33512625  -0.00749280  0.15173579  1
