# generated using pymatgen
data_Ca24Ti8Al207Au49
_symmetry_space_group_name_H-M   'P 1'
_cell_length_a   17.32161320
_cell_length_b   17.32180930
_cell_length_c   17.32031580
_cell_angle_alpha   89.99594317
_cell_angle_beta   90.00193965
_cell_angle_gamma   89.99895554
_symmetry_Int_Tables_number   1
_chemical_formula_structural   Ca24Ti8Al207Au49
_chemical_formula_sum   'Ca24 Ti8 Al207 Au49'
_cell_volume   5196.81664436
_cell_formula_units_Z   1
loop_
 _symmetry_equiv_pos_site_id
 _symmetry_equiv_pos_as_xyz
  1  'x, y, z'
loop_
 _atom_site_type_symbol
 _atom_site_label
 _atom_site_symmetry_multiplicity
 _atom_site_fract_x
 _atom_site_fract_y
 _atom_site_fract_z
 _atom_site_occupancy
  Ca  Ca0  1  0.24578794  0.00623627  -0.00140768  1
  Ca  Ca1  1  0.24621669  -0.00124589  0.49937420  1
  Ca  Ca2  1  0.24771507  0.49377703  0.00132780  1
  Ca  Ca3  1  0.25237183  0.50249116  0.49979672  1
  Ca  Ca4  1  0.75465495  0.00101044  0.00105878  1
  Ca  Ca5  1  0.75683703  0.00490844  0.49961567  1
  Ca  Ca6  1  0.75596722  0.50038950  0.00396748  1
  Ca  Ca7  1  0.74586591  0.49584405  0.49779915  1
  Ca  Ca8  1  0.00024528  0.25079114  0.00220783  1
  Ca  Ca9  1  0.00067455  0.24926714  0.49863261  1
  Ca  Ca10  1  -0.00062148  0.74716927  0.00367859  1
  Ca  Ca11  1  0.00059347  0.75066383  0.49795083  1
  Ca  Ca12  1  0.49820952  0.25336458  0.00309110  1
  Ca  Ca13  1  0.50148262  0.25668140  0.49865040  1
  Ca  Ca14  1  0.50161758  0.74757325  0.00626445  1
  Ca  Ca15  1  0.49878683  0.74019132  0.49579443  1
  Ca  Ca16  1  0.00034945  0.00153918  0.25141515  1
  Ca  Ca17  1  0.00176961  0.00711278  0.74464021  1
  Ca  Ca18  1  0.00098186  0.49862778  0.24898295  1
  Ca  Ca19  1  -0.00066657  0.49886251  0.74443834  1
  Ca  Ca20  1  0.50067236  0.00062605  0.25047858  1
  Ca  Ca21  1  0.49934514  0.00077330  0.74812480  1
  Ca  Ca22  1  0.49771002  0.50034833  0.25475817  1
  Ca  Ca23  1  0.50085708  0.49756787  0.74343066  1
  Ti  Ti24  1  0.25105823  0.25092076  0.25176100  1
  Ti  Ti25  1  0.24862768  0.25172385  0.74941910  1
  Ti  Ti26  1  0.24908454  0.74856443  0.25185763  1
  Ti  Ti27  1  0.25090696  0.74773198  0.74812944  1
  Ti  Ti28  1  0.74870277  0.25083461  0.25144567  1
  Ti  Ti29  1  0.75049388  0.25025440  0.74717153  1
  Ti  Ti30  1  0.75076634  0.74934865  0.25327975  1
  Ti  Ti31  1  0.75048682  0.74965987  0.74530328  1
  Al  Al32  1  0.08182323  0.09322825  0.08607480  1
  Al  Al33  1  0.08194860  0.09074901  0.58382836  1
  Al  Al34  1  0.07611640  0.57718382  0.08877323  1
  Al  Al35  1  0.08564929  0.57758488  0.58425305  1
  Al  Al36  1  0.57883674  0.08783764  0.09178297  1
  Al  Al37  1  0.59293155  0.09435452  0.57242535  1
  Al  Al38  1  0.57494799  0.58600120  0.09146353  1
  Al  Al39  1  0.58642639  0.57135008  0.58216243  1
  Al  Al40  1  0.40678996  0.41747141  0.09189158  1
  Al  Al41  1  0.42603030  0.41993489  0.58975282  1
  Al  Al42  1  0.41908019  0.91845814  0.09320607  1
  Al  Al43  1  0.41697135  0.91488546  0.57823027  1
  Al  Al44  1  0.92394441  0.41275320  0.09048752  1
  Al  Al45  1  0.91287803  0.41582403  0.58290551  1
  Al  Al46  1  0.92153375  0.91250162  0.09227478  1
  Al  Al47  1  0.92147666  0.91134706  0.58581619  1
  Al  Al48  1  0.42501813  0.09136878  0.40792025  1
  Al  Al49  1  0.41535037  0.07794309  0.91255232  1
  Al  Al50  1  0.41363051  0.58965700  0.41027453  1
  Al  Al51  1  0.42277397  0.57897310  0.90968403  1
  Al  Al52  1  0.91719659  0.09119650  0.42256134  1
  Al  Al53  1  0.92233347  0.08190750  0.91911122  1
  Al  Al54  1  0.90708588  0.58911423  0.41947788  1
  Al  Al55  1  0.91102527  0.58640628  0.92907990  1
  Al  Al56  1  0.08476212  0.41337465  0.41754295  1
  Al  Al57  1  0.08886589  0.40713290  0.92365542  1
  Al  Al58  1  0.08028470  0.91767458  0.41969953  1
  Al  Al59  1  0.08605997  0.92922820  0.91189245  1
  Al  Al60  1  0.58955143  0.41423722  0.42039722  1
  Al  Al61  1  0.58426033  0.42286491  0.91651894  1
  Al  Al62  1  0.57703813  0.90932706  0.41327795  1
  Al  Al63  1  0.57392806  0.92179971  0.92137514  1
  Al  Al64  1  0.08323518  0.09043876  0.42152177  1
  Al  Al65  1  0.08889277  0.08770511  0.91579259  1
  Al  Al66  1  0.08203236  0.57860225  0.41720350  1
  Al  Al67  1  0.07666373  0.57013687  0.92154399  1
  Al  Al68  1  0.58596132  0.10369302  0.41389198  1
  Al  Al69  1  0.57645402  0.08153695  0.92436598  1
  Al  Al70  1  0.57974173  0.57805037  0.41057847  1
  Al  Al71  1  0.58144152  0.58064539  0.90507438  1
  Al  Al72  1  0.42078425  0.42750798  0.41104296  1
  Al  Al73  1  0.41164437  0.41785493  0.92101004  1
  Al  Al74  1  0.42019333  0.90760456  0.41098098  1
  Al  Al75  1  0.41377214  0.92291207  0.90959191  1
  Al  Al76  1  0.91581145  0.41499618  0.41707684  1
  Al  Al77  1  0.92591930  0.41909059  0.92536805  1
  Al  Al78  1  0.91950281  0.91594852  0.41849107  1
  Al  Al79  1  0.92224848  0.92429497  0.92049934  1
  Al  Al80  1  0.08750902  0.40300949  0.08741625  1
  Al  Al81  1  0.08896778  0.41475702  0.58393422  1
  Al  Al82  1  0.07722171  0.91678372  0.09256227  1
  Al  Al83  1  0.08073028  0.91554256  0.58488369  1
  Al  Al84  1  0.57774084  0.41927944  0.08360630  1
  Al  Al85  1  0.58917808  0.40790324  0.58630205  1
  Al  Al86  1  0.57402858  0.92089933  0.09620977  1
  Al  Al87  1  0.57947144  0.92006088  0.57794501  1
  Al  Al88  1  0.42068808  0.08361734  0.09309357  1
  Al  Al89  1  0.42177323  0.07864961  0.57676406  1
  Al  Al90  1  0.41487096  0.57961346  0.10401545  1
  Al  Al91  1  0.40994708  0.58061113  0.57558077  1
  Al  Al92  1  0.92332121  0.09015258  0.09001195  1
  Al  Al93  1  0.91753264  0.09584639  0.58386747  1
  Al  Al94  1  0.91440352  0.58829918  0.08762725  1
  Al  Al95  1  0.90316453  0.58683454  0.57986686  1
  Al  Al96  1  0.24737146  0.13914577  0.13916909  1
  Al  Al97  1  0.24510110  0.13742672  0.63228403  1
  Al  Al98  1  0.25259527  0.62709998  0.14095800  1
  Al  Al99  1  0.25345650  0.63502123  0.63146640  1
  Al  Al100  1  0.74993254  0.14024146  0.13843675  1
  Al  Al101  1  0.75188535  0.13610186  0.62970285  1
  Al  Al102  1  0.74933829  0.63536508  0.13685216  1
  Al  Al103  1  0.75006556  0.63622137  0.62600538  1
  Al  Al104  1  0.25089270  0.36708041  0.14030112  1
  Al  Al105  1  0.24954968  0.36377177  0.63553836  1
  Al  Al106  1  0.24682419  0.86531013  0.13901088  1
  Al  Al107  1  0.25296173  0.86433493  0.63409507  1
  Al  Al108  1  0.74467667  0.36247668  0.13932130  1
  Al  Al109  1  0.74486297  0.36413894  0.62915503  1
  Al  Al110  1  0.75598963  0.86489497  0.13938671  1
  Al  Al111  1  0.75138202  0.86947228  0.63159043  1
  Al  Al112  1  0.24731752  0.13123119  0.36148181  1
  Al  Al113  1  0.24518478  0.13669901  0.86376408  1
  Al  Al114  1  0.25414934  0.62713318  0.36496446  1
  Al  Al115  1  0.25074293  0.62790323  0.86427997  1
  Al  Al116  1  0.74812473  0.13683157  0.36819975  1
  Al  Al117  1  0.75091379  0.13664672  0.86300018  1
  Al  Al118  1  0.75005987  0.63103789  0.36812951  1
  Al  Al119  1  0.75177414  0.63534665  0.86186468  1
  Al  Al120  1  0.25330087  0.36851419  0.36053714  1
  Al  Al121  1  0.24914880  0.37047429  0.86234249  1
  Al  Al122  1  0.25192518  0.86952621  0.36172714  1
  Al  Al123  1  0.24745203  0.86493617  0.86429256  1
  Al  Al124  1  0.74662566  0.36814817  0.36537755  1
  Al  Al125  1  0.74617944  0.36245249  0.86073941  1
  Al  Al126  1  0.75463039  0.86657464  0.36381390  1
  Al  Al127  1  0.75449885  0.86330278  0.86217222  1
  Al  Al128  1  0.13139515  0.25437971  0.14062520  1
  Al  Al129  1  0.12881358  0.24949805  0.63645962  1
  Al  Al130  1  0.13617857  0.75040235  0.13796988  1
  Al  Al131  1  0.13123908  0.74748839  0.63525663  1
  Al  Al132  1  0.62619484  0.24904372  0.13966137  1
  Al  Al133  1  0.63718661  0.25111322  0.62696326  1
  Al  Al134  1  0.63541267  0.74965911  0.13794566  1
  Al  Al135  1  0.63504954  0.74606677  0.62929554  1
  Al  Al136  1  0.13676956  0.24964276  0.36114164  1
  Al  Al137  1  0.13495062  0.25352289  0.86448818  1
  Al  Al138  1  0.13122272  0.74667543  0.36234564  1
  Al  Al139  1  0.13702369  0.74709475  0.86287339  1
  Al  Al140  1  0.63329591  0.25241649  0.36814317  1
  Al  Al141  1  0.63551737  0.24907289  0.86556859  1
  Al  Al142  1  0.63469303  0.74411345  0.36763518  1
  Al  Al143  1  0.63751371  0.74840157  0.86381580  1
  Al  Al144  1  0.36917693  0.25058550  0.13998243  1
  Al  Al145  1  0.36644018  0.25699991  0.63488348  1
  Al  Al146  1  0.36455033  0.74939712  0.13841860  1
  Al  Al147  1  0.36688496  0.74690453  0.62725626  1
  Al  Al148  1  0.87010630  0.25152984  0.13952904  1
  Al  Al149  1  0.87005840  0.24700849  0.62953841  1
  Al  Al150  1  0.86419923  0.74778231  0.13686456  1
  Al  Al151  1  0.86606623  0.74981915  0.62867434  1
  Al  Al152  1  0.37253255  0.24774069  0.36282267  1
  Al  Al153  1  0.36159585  0.25385840  0.86072921  1
  Al  Al154  1  0.36281202  0.74658050  0.37016475  1
  Al  Al155  1  0.36153447  0.74928698  0.86454348  1
  Al  Al156  1  0.86431104  0.24800753  0.36606362  1
  Al  Al157  1  0.86447397  0.25097344  0.86296009  1
  Al  Al158  1  0.86814191  0.74940885  0.36842520  1
  Al  Al159  1  0.86419116  0.74469019  0.86307723  1
  Al  Al160  1  0.13266713  0.13247482  0.24727439  1
  Al  Al161  1  0.13370529  0.13539146  0.74932303  1
  Al  Al162  1  0.13744654  0.62603124  0.25261119  1
  Al  Al163  1  0.13345175  0.63389527  0.74655638  1
  Al  Al164  1  0.63051884  0.13792267  0.25392157  1
  Al  Al165  1  0.63763842  0.13649754  0.74323838  1
  Al  Al166  1  0.63460717  0.63297844  0.25576136  1
  Al  Al167  1  0.63834779  0.63449583  0.74326351  1
  Al  Al168  1  0.36781670  0.13555391  0.25173229  1
  Al  Al169  1  0.36299650  0.13764490  0.74573880  1
  Al  Al170  1  0.36727835  0.63358827  0.25634644  1
  Al  Al171  1  0.36360727  0.62830402  0.74423689  1
  Al  Al172  1  0.86328780  0.13136851  0.25015947  1
  Al  Al173  1  0.86538368  0.13654257  0.74309733  1
  Al  Al174  1  0.86500732  0.63439973  0.25644254  1
  Al  Al175  1  0.86634225  0.63751680  0.73820226  1
  Al  Al176  1  0.13516083  0.37131415  0.24922621  1
  Al  Al177  1  0.13352831  0.36488118  0.74709878  1
  Al  Al178  1  0.13175370  0.86959989  0.25384028  1
  Al  Al179  1  0.13580643  0.86598222  0.74593069  1
  Al  Al180  1  0.62636490  0.36477175  0.25646644  1
  Al  Al181  1  0.63136427  0.36278038  0.74094763  1
  Al  Al182  1  0.63484138  0.86480190  0.25092154  1
  Al  Al183  1  0.63574431  0.86514474  0.74611115  1
  Al  Al184  1  0.37078240  0.36624237  0.25050100  1
  Al  Al185  1  0.36433544  0.37188796  0.74809521  1
  Al  Al186  1  0.36709928  0.86341603  0.25135382  1
  Al  Al187  1  0.36428979  0.86287890  0.74901027  1
  Al  Al188  1  0.86383034  0.36360515  0.25282644  1
  Al  Al189  1  0.86371233  0.36142612  0.74060549  1
  Al  Al190  1  0.87180024  0.86549212  0.25098016  1
  Al  Al191  1  0.86695356  0.86246957  0.74318081  1
  Al  Al192  1  0.49957253  0.17353995  0.82311766  1
  Al  Al193  1  0.82963134  0.81573387  -0.00131640  1
  Al  Al194  1  0.67551693  0.49850603  0.80774956  1
  Al  Al195  1  0.49988033  0.18741542  0.66607655  1
  Al  Al196  1  0.17622019  0.31234173  0.49856760  1
  Al  Al197  1  0.49993024  0.68827513  0.19348170  1
  Al  Al198  1  -0.00070400  0.17315232  0.81897273  1
  Al  Al199  1  0.67286046  0.18119064  0.00133449  1
  Al  Al200  1  0.68067556  0.00193899  0.17538327  1
  Al  Al201  1  0.66980814  0.49849805  0.18528402  1
  Al  Al202  1  -0.00002906  0.83089797  0.81783276  1
  Al  Al203  1  0.30756752  0.00145865  0.81637208  1
  Al  Al204  1  0.32934560  0.33256212  0.49770311  1
  Al  Al205  1  0.18927424  0.49987298  0.68024863  1
  Al  Al206  1  0.68099503  0.66777183  -0.00191189  1
  Al  Al207  1  0.31578506  0.17408992  0.49695934  1
  Al  Al208  1  0.82449851  0.32694133  0.00211195  1
  Al  Al209  1  0.50046464  0.80550843  0.30969846  1
  Al  Al210  1  0.00071057  0.68513950  0.18285192  1
  Al  Al211  1  0.49998265  0.68061864  0.81403436  1
  Al  Al212  1  0.67285992  0.83100320  0.00398434  1
  Al  Al213  1  0.32957999  0.66691163  0.00021650  1
  Al  Al214  1  0.00076834  0.32607351  0.31745923  1
  Al  Al215  1  -0.00041081  0.17495106  0.31836888  1
  Al  Al216  1  0.67980989  0.82283869  0.50083336  1
  Al  Al217  1  0.18172849  0.67149123  0.49798231  1
  Al  Al218  1  0.50230132  0.82132473  0.67806298  1
  Al  Al219  1  0.32651957  0.82901786  0.00099747  1
  Al  Al220  1  0.83346856  0.49814746  0.82267783  1
  Al  Al221  1  0.49979028  0.33235554  0.81752468  1
  Al  Al222  1  0.16925959  0.82920331  0.00181677  1
  Al  Al223  1  0.82658567  0.00046838  0.81926784  1
  Al  Al224  1  0.31105321  0.32573682  0.00168171  1
  Al  Al225  1  0.17865340  0.00177285  0.67523367  1
  Al  Al226  1  -0.00171011  0.32588369  0.82098598  1
  Al  Al227  1  0.18043998  0.82587602  0.49926142  1
  Al  Al228  1  0.32296958  0.17112517  0.00106719  1
  Al  Al229  1  -0.00011242  0.66936319  0.82113635  1
  Al  Al230  1  0.17212548  0.67168524  0.00192408  1
  Al  Al231  1  0.81220708  0.31206788  0.49847677  1
  Al  Al232  1  0.17289901  0.19244122  0.00218052  1
  Al  Al233  1  0.82893834  0.17421343  0.00059844  1
  Al  Al234  1  0.66800442  0.00078270  0.82076290  1
  Al  Al235  1  0.31882256  0.00130576  0.18011348  1
  Al  Al236  1  0.67326771  0.00226203  0.33186993  1
  Al  Al237  1  0.82598475  0.49899810  0.18206551  1
  Al  Al238  1  0.80948634  0.49948531  0.67301603  1
  Au  Au239  1  0.49710354  0.32510606  0.16548840  1
  Au  Au240  1  0.66855896  0.16921794  0.00128019  1
  Au  Au241  1  0.17778788  0.49707087  0.33507091  1
  Au  Au242  1  0.84216203  0.00248646  0.66911820  1
  Au  Au243  1  0.00012382  0.33004167  0.67048688  1
  Au  Au244  1  0.50161451  0.32769129  0.33598197  1
  Au  Au245  1  0.16929167  0.67443573  0.49991282  1
  Au  Au246  1  0.17397957  0.49594433  0.16547705  1
  Au  Au247  1  0.16329313  0.49512802  0.82653580  1
  Au  Au248  1  0.67410226  0.00068728  0.83675775  1
  Au  Au249  1  0.67088728  0.83121379  0.49840484  1
  Au  Au250  1  0.00270607  0.84764204  0.81743912  1
  Au  Au251  1  0.33030049  0.82653208  0.49672620  1
  Au  Au252  1  0.66990125  0.65509481  -0.00302309  1
  Au  Au253  1  0.32857321  0.34740669  0.50301659  1
  Au  Au254  1  0.66069142  0.00303185  0.32927739  1
  Au  Au255  1  0.82454732  0.32365298  0.49859326  1
  Au  Au256  1  0.84443403  0.82411557  -0.00120818  1
  Au  Au257  1  0.34166420  0.00006959  0.32638808  1
  Au  Au258  1  0.50067022  0.82868739  0.66814442  1
  Au  Au259  1  0.67272816  0.65748081  0.49604699  1
  Au  Au260  1  0.49899484  0.82647415  0.83455034  1
  Au  Au261  1  0.32384344  0.15927617  0.49578625  1
  Au  Au262  1  0.33257833  0.50096963  0.82069386  1
  Au  Au263  1  -0.00358278  0.67035524  0.83844930  1
  Au  Au264  1  0.50358178  0.17057832  0.66713104  1
  Au  Au265  1  0.00206960  0.83271071  0.32283662  1
  Au  Au266  1  0.65760413  0.83514033  0.01133968  1
  Au  Au267  1  0.83617817  0.82357104  0.50049009  1
  Au  Au268  1  0.82482382  0.49704723  0.83723598  1
  Au  Au269  1  0.67246358  0.50026074  0.17268915  1
  Au  Au270  1  0.17026029  0.00388714  0.16439394  1
  Au  Au271  1  0.16597699  0.66073779  0.00230271  1
  Au  Au272  1  0.15834633  0.83335279  -0.00282375  1
  Au  Au273  1  0.49943133  0.32736011  0.83394009  1
  Au  Au274  1  0.83599540  0.00409761  0.33593833  1
  Au  Au275  1  0.33889228  0.66036193  0.00544887  1
  Au  Au276  1  0.82627376  0.49960264  0.33304793  1
  Au  Au277  1  -0.00105778  0.66452114  0.32905494  1
  Au  Au278  1  0.67188813  0.00317418  0.65700184  1
  Au  Au279  1  0.33531765  0.83763180  0.00324630  1
  Au  Au280  1  0.33682787  -0.00048095  0.67268366  1
  Au  Au281  1  0.67622097  0.34231549  -0.00053136  1
  Au  Au282  1  0.49813060  0.65583962  0.66711978  1
  Au  Au283  1  -0.00265535  0.67134592  0.65772046  1
  Au  Au284  1  0.16616722  0.00202590  0.67856674  1
  Au  Au285  1  0.33888638  0.17444180  -0.00014005  1
  Au  Au286  1  0.83042541  0.00187382  0.16338787  1
  Au  Au287  1  0.16771490  0.00254002  0.33844754  1
