# generated using pymatgen
data_Ca24Ti8Al207Au49
_symmetry_space_group_name_H-M   'P 1'
_cell_length_a   17.32074435
_cell_length_b   17.32055642
_cell_length_c   17.31954255
_cell_angle_alpha   89.99995173
_cell_angle_beta   90.00479381
_cell_angle_gamma   90.00128707
_symmetry_Int_Tables_number   1
_chemical_formula_structural   Ca24Ti8Al207Au49
_chemical_formula_sum   'Ca24 Ti8 Al207 Au49'
_cell_volume   5195.94812677
_cell_formula_units_Z   1
loop_
 _symmetry_equiv_pos_site_id
 _symmetry_equiv_pos_as_xyz
  1  'x, y, z'
loop_
 _atom_site_type_symbol
 _atom_site_label
 _atom_site_symmetry_multiplicity
 _atom_site_fract_x
 _atom_site_fract_y
 _atom_site_fract_z
 _atom_site_occupancy
  Ca  Ca0  1  0.24901469  -0.00278047  0.00051932  1
  Ca  Ca1  1  0.24679561  0.00064198  0.50178574  1
  Ca  Ca2  1  0.25007992  0.50246421  -0.00039891  1
  Ca  Ca3  1  0.24330675  0.50011117  0.49845474  1
  Ca  Ca4  1  0.75388193  -0.00642977  0.00104791  1
  Ca  Ca5  1  0.75489847  -0.00103652  0.49863577  1
  Ca  Ca6  1  0.75093854  0.50557836  0.00160663  1
  Ca  Ca7  1  0.75601120  0.50107010  0.49659386  1
  Ca  Ca8  1  -0.00314328  0.24855567  0.00273324  1
  Ca  Ca9  1  0.00449546  0.25097944  0.49503388  1
  Ca  Ca10  1  -0.00310794  0.75401739  -0.00132621  1
  Ca  Ca11  1  0.00418327  0.74833611  0.49853616  1
  Ca  Ca12  1  0.50171946  0.24832711  0.00404672  1
  Ca  Ca13  1  0.49725482  0.24905754  0.49337169  1
  Ca  Ca14  1  0.50390187  0.75002266  -0.00179828  1
  Ca  Ca15  1  0.49765799  0.75031058  0.50368891  1
  Ca  Ca16  1  -0.00033039  -0.00528082  0.24815071  1
  Ca  Ca17  1  -0.00084754  -0.00131530  0.75276054  1
  Ca  Ca18  1  0.00379322  0.50421967  0.25193248  1
  Ca  Ca19  1  0.00141961  0.50361985  0.74498247  1
  Ca  Ca20  1  0.49973579  -0.00102075  0.24814288  1
  Ca  Ca21  1  0.49936368  -0.00489883  0.75467722  1
  Ca  Ca22  1  0.50046575  0.49696837  0.25103594  1
  Ca  Ca23  1  0.49856280  0.50637596  0.75251374  1
  Ti  Ti24  1  0.24917703  0.25068500  0.25168828  1
  Ti  Ti25  1  0.24928136  0.25037108  0.74743676  1
  Ti  Ti26  1  0.24889247  0.74997490  0.25049198  1
  Ti  Ti27  1  0.24846431  0.74977848  0.74935030  1
  Ti  Ti28  1  0.75045765  0.24968414  0.25087849  1
  Ti  Ti29  1  0.75140200  0.25093874  0.74902806  1
  Ti  Ti30  1  0.75144202  0.74951372  0.24995272  1
  Ti  Ti31  1  0.75285563  0.74960621  0.74973425  1
  Al  Al32  1  0.08200095  0.07789337  0.08505758  1
  Al  Al33  1  0.08961764  0.07692547  0.58852949  1
  Al  Al34  1  0.08421584  0.58364326  0.09655043  1
  Al  Al35  1  0.08291205  0.59630297  0.57284462  1
  Al  Al36  1  0.58641022  0.08877172  0.08232603  1
  Al  Al37  1  0.58103168  0.07485612  0.57147285  1
  Al  Al38  1  0.59403227  0.58469851  0.07791977  1
  Al  Al39  1  0.58407379  0.58534169  0.59901341  1
  Al  Al40  1  0.42098788  0.42173450  0.08405479  1
  Al  Al41  1  0.40866067  0.41441004  0.57060415  1
  Al  Al42  1  0.40678703  0.91815927  0.08353736  1
  Al  Al43  1  0.40620618  0.91767745  0.59086414  1
  Al  Al44  1  0.91647585  0.42733995  0.09282137  1
  Al  Al45  1  0.92376448  0.41681214  0.59004140  1
  Al  Al46  1  0.91541292  0.90728065  0.07932732  1
  Al  Al47  1  0.92811617  0.91514397  0.58695271  1
  Al  Al48  1  0.41562637  0.08854338  0.40749380  1
  Al  Al49  1  0.41893812  0.07083565  0.92355420  1
  Al  Al50  1  0.41518776  0.57816842  0.41689521  1
  Al  Al51  1  0.41886224  0.58980156  0.90206159  1
  Al  Al52  1  0.91966451  0.08940116  0.41288903  1
  Al  Al53  1  0.90614468  0.07478666  0.91418618  1
  Al  Al54  1  0.92630674  0.58351502  0.40998360  1
  Al  Al55  1  0.91774564  0.59948853  0.92134078  1
  Al  Al56  1  0.08856136  0.41806773  0.40556866  1
  Al  Al57  1  0.07872983  0.41395831  0.91063782  1
  Al  Al58  1  0.08672586  0.89944424  0.42170834  1
  Al  Al59  1  0.07412831  0.91319241  0.91146917  1
  Al  Al60  1  0.57050865  0.41169559  0.41068687  1
  Al  Al61  1  0.58087396  0.41979987  0.92638994  1
  Al  Al62  1  0.57547779  0.92515794  0.41854282  1
  Al  Al63  1  0.58744090  0.90803150  0.91429191  1
  Al  Al64  1  0.07544347  0.08962749  0.41403939  1
  Al  Al65  1  0.08181727  0.07690014  0.91817528  1
  Al  Al66  1  0.08985007  0.59150788  0.40897392  1
  Al  Al67  1  0.07566072  0.59088488  0.91077728  1
  Al  Al68  1  0.57637836  0.08904062  0.40700491  1
  Al  Al69  1  0.59898230  0.08235183  0.92564254  1
  Al  Al70  1  0.57754373  0.57482398  0.42507481  1
  Al  Al71  1  0.58193536  0.59677222  0.91604118  1
  Al  Al72  1  0.40869847  0.40390956  0.41081989  1
  Al  Al73  1  0.41077294  0.43029331  0.91154612  1
  Al  Al74  1  0.41255583  0.92472073  0.41910468  1
  Al  Al75  1  0.41768549  0.91002615  0.91712975  1
  Al  Al76  1  0.92641169  0.41944495  0.40821790  1
  Al  Al77  1  0.92439494  0.41386868  0.91480638  1
  Al  Al78  1  0.92854081  0.91562111  0.41021541  1
  Al  Al79  1  0.91010084  0.90995460  0.91356556  1
  Al  Al80  1  0.08686749  0.42419050  0.09403466  1
  Al  Al81  1  0.07886891  0.41371248  0.57848614  1
  Al  Al82  1  0.07738846  0.91551127  0.08953014  1
  Al  Al83  1  0.09366179  0.90926637  0.58790694  1
  Al  Al84  1  0.58755263  0.41803744  0.08559140  1
  Al  Al85  1  0.58748945  0.42900097  0.58958242  1
  Al  Al86  1  0.58706474  0.91362225  0.07391454  1
  Al  Al87  1  0.57291341  0.91747773  0.58436280  1
  Al  Al88  1  0.41505269  0.07652419  0.09553877  1
  Al  Al89  1  0.40285912  0.07481480  0.57953019  1
  Al  Al90  1  0.41870148  0.58059666  0.08018191  1
  Al  Al91  1  0.42183403  0.58685873  0.58405380  1
  Al  Al92  1  0.91904428  0.08190208  0.07711905  1
  Al  Al93  1  0.92265419  0.08116635  0.57902264  1
  Al  Al94  1  0.91042771  0.59071095  0.08707820  1
  Al  Al95  1  0.92394627  0.58716707  0.58849647  1
  Al  Al96  1  0.25309616  0.13562749  0.13958815  1
  Al  Al97  1  0.24807713  0.13399695  0.63275611  1
  Al  Al98  1  0.24236011  0.63734573  0.13787753  1
  Al  Al99  1  0.24536151  0.63278636  0.63351527  1
  Al  Al100  1  0.74881532  0.13473753  0.13920609  1
  Al  Al101  1  0.75372297  0.13472688  0.63620534  1
  Al  Al102  1  0.75327319  0.63877890  0.13604795  1
  Al  Al103  1  0.75103050  0.63219626  0.63272458  1
  Al  Al104  1  0.24588389  0.36438677  0.13650896  1
  Al  Al105  1  0.24974730  0.36828237  0.63118328  1
  Al  Al106  1  0.24884545  0.86081338  0.13657000  1
  Al  Al107  1  0.24515945  0.86265892  0.62967280  1
  Al  Al108  1  0.75237595  0.36338513  0.13974746  1
  Al  Al109  1  0.74663178  0.37319187  0.63653651  1
  Al  Al110  1  0.75400697  0.85969266  0.13369204  1
  Al  Al111  1  0.75872747  0.86301148  0.63316935  1
  Al  Al112  1  0.25358133  0.13877828  0.36647220  1
  Al  Al113  1  0.24907509  0.13349141  0.86393472  1
  Al  Al114  1  0.24277870  0.63384401  0.36587965  1
  Al  Al115  1  0.25126721  0.63541269  0.86611874  1
  Al  Al116  1  0.74949472  0.13849992  0.36147560  1
  Al  Al117  1  0.75040211  0.13449562  0.86482930  1
  Al  Al118  1  0.75322551  0.63669961  0.36927458  1
  Al  Al119  1  0.75112230  0.63623517  0.86639257  1
  Al  Al120  1  0.24891070  0.36263069  0.36931669  1
  Al  Al121  1  0.25100115  0.36620225  0.86363967  1
  Al  Al122  1  0.24560543  0.86070743  0.36894068  1
  Al  Al123  1  0.24884184  0.86514353  0.86275785  1
  Al  Al124  1  0.74993526  0.36331792  0.36340470  1
  Al  Al125  1  0.75098097  0.36767370  0.86196549  1
  Al  Al126  1  0.75350576  0.86202802  0.36361863  1
  Al  Al127  1  0.75589911  0.86317903  0.86639604  1
  Al  Al128  1  0.13260762  0.25060008  0.13868068  1
  Al  Al129  1  0.13448725  0.25572038  0.63259398  1
  Al  Al130  1  0.12535500  0.74865892  0.13347393  1
  Al  Al131  1  0.13448957  0.74856620  0.63138026  1
  Al  Al132  1  0.63489427  0.24756272  0.13488595  1
  Al  Al133  1  0.63764749  0.24891564  0.63195135  1
  Al  Al134  1  0.63269737  0.74833597  0.13305052  1
  Al  Al135  1  0.63707753  0.74924847  0.63316324  1
  Al  Al136  1  0.13232728  0.25129840  0.36660490  1
  Al  Al137  1  0.13679109  0.24958149  0.86294984  1
  Al  Al138  1  0.13388444  0.74723577  0.36867726  1
  Al  Al139  1  0.13393241  0.75224126  0.86571874  1
  Al  Al140  1  0.63126494  0.25047559  0.36665165  1
  Al  Al141  1  0.63730896  0.25030137  0.86470766  1
  Al  Al142  1  0.63379003  0.74830817  0.36584304  1
  Al  Al143  1  0.63660016  0.74584113  0.86590046  1
  Al  Al144  1  0.36603347  0.25333101  0.13544017  1
  Al  Al145  1  0.36104669  0.25417170  0.62801206  1
  Al  Al146  1  0.36899137  0.74836302  0.13590412  1
  Al  Al147  1  0.36099216  0.74948361  0.63273535  1
  Al  Al148  1  0.86999415  0.24599915  0.13943794  1
  Al  Al149  1  0.86591800  0.25246206  0.63710281  1
  Al  Al150  1  0.87418726  0.75172743  0.13469916  1
  Al  Al151  1  0.86724202  0.74601354  0.63024674  1
  Al  Al152  1  0.36575825  0.25195053  0.36802216  1
  Al  Al153  1  0.36517964  0.24694545  0.86408026  1
  Al  Al154  1  0.36490258  0.75196150  0.36589142  1
  Al  Al155  1  0.36535778  0.74706000  0.86227588  1
  Al  Al156  1  0.87044321  0.24985450  0.36261896  1
  Al  Al157  1  0.86383252  0.24765790  0.85995203  1
  Al  Al158  1  0.86719453  0.74699017  0.36874379  1
  Al  Al159  1  0.86719625  0.75487242  0.86593316  1
  Al  Al160  1  0.13070525  0.13699382  0.25291010  1
  Al  Al161  1  0.13508929  0.13135091  0.74631489  1
  Al  Al162  1  0.12682780  0.63985051  0.25331474  1
  Al  Al163  1  0.13405268  0.63550107  0.74798071  1
  Al  Al164  1  0.63018212  0.13677131  0.25141821  1
  Al  Al165  1  0.63687079  0.13558084  0.75201755  1
  Al  Al166  1  0.63399459  0.63573528  0.24824471  1
  Al  Al167  1  0.63709727  0.63612929  0.74857117  1
  Al  Al168  1  0.37027048  0.14043332  0.25261276  1
  Al  Al169  1  0.36034531  0.13043218  0.74260234  1
  Al  Al170  1  0.36347293  0.63530284  0.25140730  1
  Al  Al171  1  0.36260661  0.63262757  0.75174146  1
  Al  Al172  1  0.87064548  0.13511006  0.25227674  1
  Al  Al173  1  0.86521598  0.12775387  0.75187128  1
  Al  Al174  1  0.87103188  0.63856417  0.24879335  1
  Al  Al175  1  0.86556606  0.63517823  0.74717929  1
  Al  Al176  1  0.13375445  0.36849394  0.25630038  1
  Al  Al177  1  0.13649684  0.36911869  0.74649674  1
  Al  Al178  1  0.13379837  0.86142821  0.24843166  1
  Al  Al179  1  0.13629894  0.86903083  0.74737169  1
  Al  Al180  1  0.63296013  0.36375560  0.25184520  1
  Al  Al181  1  0.63250305  0.36344971  0.74854749  1
  Al  Al182  1  0.63085063  0.86107443  0.24703230  1
  Al  Al183  1  0.63823564  0.86072142  0.75110637  1
  Al  Al184  1  0.36818062  0.36406101  0.25440625  1
  Al  Al185  1  0.36633263  0.36367193  0.75229709  1
  Al  Al186  1  0.36743000  0.86358388  0.24675195  1
  Al  Al187  1  0.35981308  0.86868164  0.74253527  1
  Al  Al188  1  0.86885007  0.36490820  0.25209424  1
  Al  Al189  1  0.86560240  0.36865264  0.74567310  1
  Al  Al190  1  0.86780010  0.86230051  0.24753748  1
  Al  Al191  1  0.86819843  0.86808518  0.75181282  1
  Al  Al192  1  0.32453880  0.00059788  0.31019416  1
  Al  Al193  1  0.32232614  0.32337367  -0.00153754  1
  Al  Al194  1  0.66912784  0.50132213  0.81684342  1
  Al  Al195  1  0.00083998  0.31666169  0.80772809  1
  Al  Al196  1  0.00080429  0.80637537  0.31083774  1
  Al  Al197  1  0.68998500  0.50105590  0.17589948  1
  Al  Al198  1  0.68564896  -0.00296594  0.82927158  1
  Al  Al199  1  0.00066191  0.18487568  0.67999178  1
  Al  Al200  1  0.00131573  0.32467854  0.18052454  1
  Al  Al201  1  0.17672905  0.17759864  0.49707200  1
  Al  Al202  1  0.69019331  0.80983503  -0.00092862  1
  Al  Al203  1  0.31956159  -0.00139953  0.82294914  1
  Al  Al204  1  0.32335568  0.49919587  0.68110076  1
  Al  Al205  1  0.67557603  0.31537897  0.00079715  1
  Al  Al206  1  0.83131746  0.32960930  0.49777856  1
  Al  Al207  1  0.17356538  0.67674871  0.00341019  1
  Al  Al208  1  0.81126589  0.17224057  0.00138489  1
  Al  Al209  1  0.67415449  -0.00133956  0.32395720  1
  Al  Al210  1  0.31442954  0.67920580  0.49820644  1
  Al  Al211  1  0.67266094  0.50006310  0.32790614  1
  Al  Al212  1  0.50268088  0.67467690  0.32345235  1
  Al  Al213  1  0.18620062  -0.00069340  0.17642179  1
  Al  Al214  1  0.49775302  0.33205541  0.67336567  1
  Al  Al215  1  0.00085221  0.80876702  0.69064456  1
  Al  Al216  1  0.50287554  0.17370499  0.83216143  1
  Al  Al217  1  0.50130562  0.31926916  0.17701556  1
  Al  Al218  1  0.17572106  0.00024513  0.33062428  1
  Al  Al219  1  0.83062403  0.32161692  0.00104501  1
  Al  Al220  1  0.49736179  0.17202087  0.67013900  1
  Al  Al221  1  0.17639180  0.17635824  0.00193920  1
  Al  Al222  1  0.50003188  0.81075337  0.81901011  1
  Al  Al223  1  0.66856682  0.32601542  0.49974374  1
  Al  Al224  1  0.18168205  0.50145428  0.82261939  1
  Al  Al225  1  0.83236493  0.50352323  0.82418117  1
  Al  Al226  1  -0.00049757  0.69325875  0.80795594  1
  Al  Al227  1  0.67703148  0.82410433  0.49888991  1
  Al  Al228  1  0.82176105  0.17359850  0.49966420  1
  Al  Al229  1  0.31329005  0.49881566  0.32711629  1
  Al  Al230  1  0.68085876  -0.00140808  0.67235059  1
  Al  Al231  1  0.31714402  0.81815243  -0.00044755  1
  Al  Al232  1  0.82840153  -0.00160774  0.17165372  1
  Al  Al233  1  0.81119135  0.69286541  0.00083794  1
  Al  Al234  1  0.67449004  -0.00248436  0.17107772  1
  Al  Al235  1  0.30819405  0.50103285  0.17097730  1
  Al  Al236  1  0.82619868  0.50190614  0.31256636  1
  Al  Al237  1  0.49833995  0.68301902  0.69107054  1
  Al  Al238  1  0.82816999  -0.00025585  0.32579577  1
  Au  Au239  1  0.49495500  0.15736800  0.66101937  1
  Au  Au240  1  0.49515627  0.33469006  0.66141383  1
  Au  Au241  1  0.66274039  0.50242428  0.83183785  1
  Au  Au242  1  0.67222819  0.16152224  0.49453493  1
  Au  Au243  1  0.16832448  0.16864924  0.49933821  1
  Au  Au244  1  0.00231517  0.33709734  0.18386646  1
  Au  Au245  1  0.15659417  0.33106689  0.00303262  1
  Au  Au246  1  0.17219222  0.33516170  0.49764768  1
  Au  Au247  1  -0.00121855  0.67582518  0.17867484  1
  Au  Au248  1  0.17194982  0.50158521  0.83643895  1
  Au  Au249  1  -0.00063596  0.16149385  0.17766579  1
  Au  Au250  1  0.49949314  0.33182315  0.17817131  1
  Au  Au251  1  -0.00481461  0.17146318  0.84288358  1
  Au  Au252  1  0.33373762  0.33608508  -0.00246186  1
  Au  Au253  1  0.49876192  0.34211991  0.83164116  1
  Au  Au254  1  0.33722133  0.49942345  0.67148492  1
  Au  Au255  1  0.49585590  0.83196419  0.33500621  1
  Au  Au256  1  0.50514435  0.16593956  0.84693149  1
  Au  Au257  1  0.16754884  0.84057587  0.00085506  1
  Au  Au258  1  0.66677056  0.83735568  0.49896230  1
  Au  Au259  1  0.84030705  -0.00054516  0.67323230  1
  Au  Au260  1  0.50060260  0.16474362  0.17787456  1
  Au  Au261  1  0.16816475  0.16688251  0.00196100  1
  Au  Au262  1  0.32338070  0.66472395  0.49840053  1
  Au  Au263  1  0.33919250  0.67168308  -0.00416281  1
  Au  Au264  1  0.16040288  -0.00499707  0.32957375  1
  Au  Au265  1  0.50486465  0.66424010  0.16634795  1
  Au  Au266  1  0.33341524  0.17478185  0.49706350  1
  Au  Au267  1  0.15835684  0.50534065  0.65990000  1
  Au  Au268  1  0.82653516  0.33766967  0.00486162  1
  Au  Au269  1  0.66521386  -0.00103771  0.67927076  1
  Au  Au270  1  0.33203686  -0.00288173  0.82049436  1
  Au  Au271  1  0.84824474  0.32501489  0.49685096  1
  Au  Au272  1  0.31901257  0.84086284  0.49943254  1
  Au  Au273  1  0.66937784  0.65775344  0.50333866  1
  Au  Au274  1  0.49518338  0.82823749  0.67260694  1
  Au  Au275  1  0.33078609  0.15663163  0.00563014  1
  Au  Au276  1  0.32433937  0.50159615  0.17712348  1
  Au  Au277  1  0.16208556  -0.00137878  0.81974255  1
  Au  Au278  1  0.50048708  0.66571612  0.33198034  1
  Au  Au279  1  0.49907604  0.83720518  0.16276134  1
  Au  Au280  1  0.16521573  0.66782451  0.00060280  1
  Au  Au281  1  0.83989559  0.50313212  0.83403327  1
  Au  Au282  1  0.82653751  0.50178841  0.66075657  1
  Au  Au283  1  0.84264668  0.66746810  0.49746890  1
  Au  Au284  1  0.00148102  0.17780770  0.66480818  1
  Au  Au285  1  0.66634773  0.33816016  0.50235735  1
  Au  Au286  1  0.00397619  0.81930462  0.67794702  1
  Au  Au287  1  0.84147097  0.83590658  0.49695755  1
