# generated using pymatgen
data_Ca24Ti8Al207Au49
_symmetry_space_group_name_H-M   'P 1'
_cell_length_a   17.32753527
_cell_length_b   17.32580446
_cell_length_c   17.32688402
_cell_angle_alpha   89.99820681
_cell_angle_beta   90.00264044
_cell_angle_gamma   90.00155636
_symmetry_Int_Tables_number   1
_chemical_formula_structural   Ca24Ti8Al207Au49
_chemical_formula_sum   'Ca24 Ti8 Al207 Au49'
_cell_volume   5201.76427342
_cell_formula_units_Z   1
loop_
 _symmetry_equiv_pos_site_id
 _symmetry_equiv_pos_as_xyz
  1  'x, y, z'
loop_
 _atom_site_type_symbol
 _atom_site_label
 _atom_site_symmetry_multiplicity
 _atom_site_fract_x
 _atom_site_fract_y
 _atom_site_fract_z
 _atom_site_occupancy
  Ca  Ca0  1  0.25087630  0.00158271  0.00461358  1
  Ca  Ca1  1  0.25103472  0.00275551  0.49530233  1
  Ca  Ca2  1  0.25012256  0.50169676  0.00684817  1
  Ca  Ca3  1  0.24983773  0.49946630  0.49636208  1
  Ca  Ca4  1  0.74820750  -0.00464025  -0.00106289  1
  Ca  Ca5  1  0.75006091  -0.00315171  0.50019716  1
  Ca  Ca6  1  0.75206742  0.50723586  0.00292194  1
  Ca  Ca7  1  0.75177870  0.50565841  0.49586074  1
  Ca  Ca8  1  0.00163790  0.25204216  -0.00284761  1
  Ca  Ca9  1  0.00298459  0.25426026  0.49375017  1
  Ca  Ca10  1  -0.00287669  0.74334168  0.00308485  1
  Ca  Ca11  1  -0.00291358  0.74457511  0.49778803  1
  Ca  Ca12  1  0.49707097  0.25246219  -0.00064010  1
  Ca  Ca13  1  0.49828977  0.25228900  0.50044879  1
  Ca  Ca14  1  0.50125043  0.74640761  0.00235916  1
  Ca  Ca15  1  0.50300608  0.74787561  0.49821913  1
  Ca  Ca16  1  0.00371215  -0.00239078  0.25349730  1
  Ca  Ca17  1  -0.00197434  -0.00312715  0.74951368  1
  Ca  Ca18  1  -0.00280112  0.50520032  0.25067567  1
  Ca  Ca19  1  0.00117760  0.50437543  0.75027178  1
  Ca  Ca20  1  0.49652259  -0.00205110  0.25119451  1
  Ca  Ca21  1  0.50096764  -0.00057665  0.74833414  1
  Ca  Ca22  1  0.50138543  0.50312900  0.25072378  1
  Ca  Ca23  1  0.49863427  0.50032354  0.74828529  1
  Ti  Ti24  1  0.25041409  0.25254272  0.25076026  1
  Ti  Ti25  1  0.25166776  0.25026412  0.74927552  1
  Ti  Ti26  1  0.25075745  0.74843453  0.25111416  1
  Ti  Ti27  1  0.25085205  0.74855015  0.74921815  1
  Ti  Ti28  1  0.74920237  0.25389342  0.25152941  1
  Ti  Ti29  1  0.74858734  0.25115054  0.74974125  1
  Ti  Ti30  1  0.74959916  0.74897269  0.24922670  1
  Ti  Ti31  1  0.75071926  0.74795324  0.75119021  1
  Al  Al32  1  0.09606712  0.08208162  0.08169165  1
  Al  Al33  1  0.07779065  0.08689045  0.57550636  1
  Al  Al34  1  0.08290013  0.58501735  0.09465862  1
  Al  Al35  1  0.07879915  0.57808706  0.58112066  1
  Al  Al36  1  0.57570006  0.07583891  0.08499236  1
  Al  Al37  1  0.57459647  0.08382430  0.59067331  1
  Al  Al38  1  0.57962930  0.59068464  0.09237152  1
  Al  Al39  1  0.58456969  0.58907696  0.57723195  1
  Al  Al40  1  0.41185468  0.42138233  0.09052023  1
  Al  Al41  1  0.41596872  0.41332398  0.58214509  1
  Al  Al42  1  0.42422571  0.91010937  0.08956679  1
  Al  Al43  1  0.42253401  0.91064093  0.58667155  1
  Al  Al44  1  0.91472142  0.42963734  0.09404908  1
  Al  Al45  1  0.91056667  0.41859795  0.56927654  1
  Al  Al46  1  0.91639152  0.91084740  0.08152078  1
  Al  Al47  1  0.91225776  0.91255612  0.58180694  1
  Al  Al48  1  0.41565892  0.08231387  0.41511623  1
  Al  Al49  1  0.41915489  0.08891636  0.91829644  1
  Al  Al50  1  0.42274329  0.58785753  0.40746362  1
  Al  Al51  1  0.42209662  0.58092253  0.92003327  1
  Al  Al52  1  0.92170884  0.07403541  0.42455576  1
  Al  Al53  1  0.91535802  0.07066541  0.90534466  1
  Al  Al54  1  0.90968382  0.58869936  0.40453201  1
  Al  Al55  1  0.91659460  0.59647869  0.92208412  1
  Al  Al56  1  0.08814357  0.41729499  0.41640497  1
  Al  Al57  1  0.08347510  0.42632758  0.92510832  1
  Al  Al58  1  0.08603545  0.91846443  0.41182334  1
  Al  Al59  1  0.07485600  0.91798725  0.92474658  1
  Al  Al60  1  0.58316338  0.42183068  0.41638485  1
  Al  Al61  1  0.57583805  0.42075665  0.91658516  1
  Al  Al62  1  0.58250953  0.91370927  0.41458538  1
  Al  Al63  1  0.58478492  0.91247631  0.91923364  1
  Al  Al64  1  0.09483033  0.07732954  0.41674606  1
  Al  Al65  1  0.08529089  0.09182440  0.92598026  1
  Al  Al66  1  0.07380615  0.58648386  0.40601125  1
  Al  Al67  1  0.07784964  0.58737942  0.91599952  1
  Al  Al68  1  0.57583979  0.07686141  0.41237760  1
  Al  Al69  1  0.57802851  0.07720991  0.90992200  1
  Al  Al70  1  0.58513225  0.59291750  0.41225421  1
  Al  Al71  1  0.58188316  0.58565237  0.92091732  1
  Al  Al72  1  0.41527727  0.41897405  0.41664628  1
  Al  Al73  1  0.41790233  0.41632283  0.92136738  1
  Al  Al74  1  0.41953795  0.91874175  0.41158374  1
  Al  Al75  1  0.42380166  0.91672111  0.92022150  1
  Al  Al76  1  0.90325131  0.42487731  0.41025707  1
  Al  Al77  1  0.92092493  0.42920497  0.92469447  1
  Al  Al78  1  0.91695457  0.91037566  0.42204617  1
  Al  Al79  1  0.90859020  0.91523518  0.91317730  1
  Al  Al80  1  0.08852697  0.42422060  0.09151986  1
  Al  Al81  1  0.09161566  0.41752087  0.57395684  1
  Al  Al82  1  0.08210513  0.91929392  0.08759218  1
  Al  Al83  1  0.07301826  0.91829782  0.57538332  1
  Al  Al84  1  0.57519658  0.42332183  0.08873929  1
  Al  Al85  1  0.58054678  0.41557370  0.58278734  1
  Al  Al86  1  0.58141529  0.90350358  0.08410632  1
  Al  Al87  1  0.58085942  0.91021099  0.58635105  1
  Al  Al88  1  0.41629259  0.08332549  0.08097044  1
  Al  Al89  1  0.41967849  0.09080963  0.58249728  1
  Al  Al90  1  0.41544570  0.58417918  0.09888532  1
  Al  Al91  1  0.42146940  0.58232495  0.58172420  1
  Al  Al92  1  0.92512001  0.07024520  0.07844294  1
  Al  Al93  1  0.92017177  0.07774349  0.58729895  1
  Al  Al94  1  0.91343359  0.59032357  0.09386331  1
  Al  Al95  1  0.91231593  0.58890179  0.57389798  1
  Al  Al96  1  0.24938055  0.13612755  0.13024944  1
  Al  Al97  1  0.24992199  0.13274233  0.63423553  1
  Al  Al98  1  0.25001529  0.63074429  0.13849287  1
  Al  Al99  1  0.25152043  0.63684676  0.63509131  1
  Al  Al100  1  0.75006093  0.13303080  0.13736027  1
  Al  Al101  1  0.75121775  0.13566440  0.63551700  1
  Al  Al102  1  0.75114270  0.63085477  0.13479482  1
  Al  Al103  1  0.75151426  0.63687307  0.63407718  1
  Al  Al104  1  0.24964498  0.37071166  0.13685103  1
  Al  Al105  1  0.25222811  0.36186246  0.62763019  1
  Al  Al106  1  0.24777795  0.86088661  0.13739094  1
  Al  Al107  1  0.25157707  0.86650473  0.63682954  1
  Al  Al108  1  0.75171152  0.37387979  0.13810141  1
  Al  Al109  1  0.75062318  0.36284628  0.62860030  1
  Al  Al110  1  0.75336735  0.86368860  0.13571002  1
  Al  Al111  1  0.74967275  0.86240698  0.63547233  1
  Al  Al112  1  0.24906778  0.13851037  0.36559640  1
  Al  Al113  1  0.25264969  0.13644100  0.87018448  1
  Al  Al114  1  0.25018159  0.62820728  0.35987335  1
  Al  Al115  1  0.25187685  0.63640926  0.86477503  1
  Al  Al116  1  0.74872777  0.13710130  0.36657140  1
  Al  Al117  1  0.74949649  0.12856969  0.86125566  1
  Al  Al118  1  0.75431844  0.63012457  0.36107733  1
  Al  Al119  1  0.75042354  0.63309333  0.86920021  1
  Al  Al120  1  0.24972156  0.37245144  0.36756156  1
  Al  Al121  1  0.25220830  0.36436466  0.86606744  1
  Al  Al122  1  0.25067534  0.85948785  0.36387116  1
  Al  Al123  1  0.24967569  0.86306173  0.86434286  1
  Al  Al124  1  0.75121367  0.37329333  0.36779958  1
  Al  Al125  1  0.74632273  0.36970718  0.86702581  1
  Al  Al126  1  0.74607513  0.85870029  0.36296065  1
  Al  Al127  1  0.75232974  0.86628358  0.86465507  1
  Al  Al128  1  0.13933610  0.25048080  0.13835782  1
  Al  Al129  1  0.13764216  0.25303823  0.63510727  1
  Al  Al130  1  0.13190850  0.74377304  0.13885796  1
  Al  Al131  1  0.13525108  0.74583709  0.63479574  1
  Al  Al132  1  0.63773070  0.25448607  0.13606683  1
  Al  Al133  1  0.63097792  0.25193622  0.63530813  1
  Al  Al134  1  0.63308852  0.74381709  0.13658430  1
  Al  Al135  1  0.63039762  0.74921548  0.63686544  1
  Al  Al136  1  0.13424992  0.25892439  0.36347872  1
  Al  Al137  1  0.13589896  0.24577742  0.86758628  1
  Al  Al138  1  0.13011929  0.74476446  0.36029055  1
  Al  Al139  1  0.13415126  0.74762105  0.86454778  1
  Al  Al140  1  0.63708282  0.25766389  0.36476998  1
  Al  Al141  1  0.63630364  0.25041379  0.86284580  1
  Al  Al142  1  0.62771239  0.74577421  0.35963893  1
  Al  Al143  1  0.63621366  0.74717397  0.86492875  1
  Al  Al144  1  0.36307921  0.24937319  0.13709981  1
  Al  Al145  1  0.37196362  0.25078045  0.63828220  1
  Al  Al146  1  0.36925793  0.74759430  0.13807186  1
  Al  Al147  1  0.37210141  0.75172855  0.63785592  1
  Al  Al148  1  0.86267820  0.25607787  0.14097440  1
  Al  Al149  1  0.86310024  0.25268643  0.63726987  1
  Al  Al150  1  0.86701994  0.74360126  0.13081185  1
  Al  Al151  1  0.86485927  0.74506174  0.63543264  1
  Al  Al152  1  0.36351388  0.25755542  0.36319987  1
  Al  Al153  1  0.36546851  0.24793921  0.86307684  1
  Al  Al154  1  0.37357161  0.74766695  0.36068388  1
  Al  Al155  1  0.36595559  0.75076475  0.86351977  1
  Al  Al156  1  0.86328049  0.25925742  0.36721103  1
  Al  Al157  1  0.86205756  0.25290208  0.86369706  1
  Al  Al158  1  0.86955077  0.74305232  0.36279488  1
  Al  Al159  1  0.86290241  0.74546437  0.87283037  1
  Al  Al160  1  0.13820188  0.13546154  0.25459974  1
  Al  Al161  1  0.13744161  0.13573651  0.74950446  1
  Al  Al162  1  0.13389240  0.62872123  0.24804519  1
  Al  Al163  1  0.12991025  0.63592903  0.75023813  1
  Al  Al164  1  0.63474548  0.13763058  0.24816818  1
  Al  Al165  1  0.63445373  0.13526822  0.74730173  1
  Al  Al166  1  0.63669003  0.62948172  0.25014193  1
  Al  Al167  1  0.63861310  0.63059633  0.74934869  1
  Al  Al168  1  0.36155927  0.13583705  0.25012892  1
  Al  Al169  1  0.36254882  0.13137435  0.74759197  1
  Al  Al170  1  0.36620302  0.63048477  0.24796262  1
  Al  Al171  1  0.36406453  0.62881799  0.74769406  1
  Al  Al172  1  0.86356779  0.13685250  0.25413960  1
  Al  Al173  1  0.86443579  0.13655832  0.75217554  1
  Al  Al174  1  0.86608721  0.63293967  0.24742447  1
  Al  Al175  1  0.87003956  0.63368714  0.75161088  1
  Al  Al176  1  0.13751217  0.37295954  0.25093871  1
  Al  Al177  1  0.13776952  0.36457715  0.75298141  1
  Al  Al178  1  0.13139019  0.86438776  0.25351934  1
  Al  Al179  1  0.13438798  0.86399258  0.74778158  1
  Al  Al180  1  0.63772458  0.37502484  0.25221363  1
  Al  Al181  1  0.63730524  0.37090506  0.74591824  1
  Al  Al182  1  0.62763850  0.85912782  0.24614019  1
  Al  Al183  1  0.63624592  0.86315967  0.75003049  1
  Al  Al184  1  0.36156244  0.37411171  0.24885915  1
  Al  Al185  1  0.36190259  0.37135822  0.74650482  1
  Al  Al186  1  0.37144353  0.86162109  0.24992119  1
  Al  Al187  1  0.36425534  0.86829306  0.74948453  1
  Al  Al188  1  0.86294671  0.37279471  0.25387505  1
  Al  Al189  1  0.86075345  0.37114747  0.75466462  1
  Al  Al190  1  0.86532174  0.86061006  0.24971145  1
  Al  Al191  1  0.86357809  0.86060462  0.75250654  1
  Al  Al192  1  0.82155784  0.00019860  0.17757588  1
  Al  Al193  1  0.66937501  0.17749190  -0.00078180  1
  Al  Al194  1  0.66835863  0.17765548  0.49954476  1
  Al  Al195  1  0.32758556  0.66870355  0.00313992  1
  Al  Al196  1  0.17952398  0.00058409  0.82935499  1
  Al  Al197  1  0.32663053  0.18181186  0.49970285  1
  Al  Al198  1  0.68958841  0.68290414  0.49656255  1
  Al  Al199  1  0.17891720  0.49916188  0.67330648  1
  Al  Al200  1  0.81758119  0.80821193  0.49881290  1
  Al  Al201  1  0.82454181  0.49940556  0.67345923  1
  Al  Al202  1  0.32459518  0.82462366  0.00241590  1
  Al  Al203  1  0.00008940  0.33249692  0.66639144  1
  Al  Al204  1  0.17785021  -0.00037958  0.18789240  1
  Al  Al205  1  0.82930191  0.18457428  0.50054352  1
  Al  Al206  1  0.00036251  0.17588243  0.67888881  1
  Al  Al207  1  0.17761600  0.50239787  0.82732991  1
  Al  Al208  1  0.17409586  0.18585329  0.49922728  1
  Al  Al209  1  0.50075918  0.82532664  0.81678097  1
  Al  Al210  1  0.00068564  0.33006382  0.18123176  1
  Al  Al211  1  0.31118958  -0.00043116  0.32348702  1
  Al  Al212  1  0.00139323  0.32223009  0.83065445  1
  Al  Al213  1  0.32481716  0.82574666  0.49835138  1
  Al  Al214  1  0.49899138  0.32663000  0.81859760  1
  Al  Al215  1  0.67266810  -0.00052798  0.68035365  1
  Al  Al216  1  0.50007703  0.67330623  0.81795926  1
  Al  Al217  1  0.17187509  0.82356477  0.49944615  1
  Al  Al218  1  0.67403889  -0.00150142  0.31921582  1
  Al  Al219  1  -0.00165259  0.81374168  0.83058399  1
  Al  Al220  1  0.68114131  0.81612040  0.00076386  1
  Al  Al221  1  0.82870632  -0.00164207  0.68443787  1
  Al  Al222  1  0.00193680  0.17270317  0.16901599  1
  Al  Al223  1  0.17079272  0.66950762  0.49663091  1
  Al  Al224  1  0.17292578  0.31963744  0.00229662  1
  Al  Al225  1  0.32544346  0.67079469  0.49689677  1
  Al  Al226  1  0.17259959  0.67621419  0.00178207  1
  Al  Al227  1  0.00007873  0.81828295  0.18274719  1
  Al  Al228  1  0.49893817  0.32104866  0.18333709  1
  Al  Al229  1  0.82602999  -0.00288804  0.33159643  1
  Al  Al230  1  -0.00061048  0.81688050  0.67238934  1
  Al  Al231  1  0.82338754  0.33557400  0.00471199  1
  Al  Al232  1  0.00184893  0.17515367  0.33097993  1
  Al  Al233  1  0.32650578  0.31955955  0.00200010  1
  Al  Al234  1  0.83248603  0.17332763  -0.00129780  1
  Al  Al235  1  0.49907576  0.18200590  0.31964821  1
  Al  Al236  1  0.17548226  -0.00054060  0.66754475  1
  Al  Al237  1  0.32869930  -0.00236287  0.17303229  1
  Al  Al238  1  0.49953692  0.17494351  0.81311162  1
  Au  Au239  1  0.00544708  0.17778847  0.15272214  1
  Au  Au240  1  0.66483997  0.50062037  0.83310345  1
  Au  Au241  1  0.16598807  0.50215913  0.32451317  1
  Au  Au242  1  0.83405597  0.00183140  0.17497994  1
  Au  Au243  1  0.67759081  0.34103458  0.49890427  1
  Au  Au244  1  0.67077712  0.66925783  0.00326628  1
  Au  Au245  1  0.82886280  0.49748864  0.66202507  1
  Au  Au246  1  0.17001165  0.00163986  0.84323357  1
  Au  Au247  1  -0.00057226  0.66653867  0.66854198  1
  Au  Au248  1  0.00094148  0.32722586  0.65026188  1
  Au  Au249  1  0.67537190  0.00098250  0.66821451  1
  Au  Au250  1  0.65497736  0.16835521  0.49868469  1
  Au  Au251  1  0.32552467  0.16949418  0.00069081  1
  Au  Au252  1  0.33715501  0.82791184  0.49598811  1
  Au  Au253  1  0.32659301  0.49997485  0.84047742  1
  Au  Au254  1  0.67483710  0.50423983  0.33349835  1
  Au  Au255  1  0.33638921  0.82789970  0.00470113  1
  Au  Au256  1  -0.00045278  0.82276064  0.33605049  1
  Au  Au257  1  0.33534056  0.50318079  0.32309072  1
  Au  Au258  1  0.84174167  0.17340818  0.50301546  1
  Au  Au259  1  0.66047117  0.34069512  0.00246271  1
  Au  Au260  1  0.67338380  0.50182093  0.16706203  1
  Au  Au261  1  -0.00403485  0.34215111  0.33170011  1
  Au  Au262  1  0.83582451  0.33336434  0.00629817  1
  Au  Au263  1  0.50100381  0.67641996  0.66834184  1
  Au  Au264  1  0.32718389  0.50138784  0.66348452  1
  Au  Au265  1  0.65881309  -0.00724653  0.17227898  1
  Au  Au266  1  0.66900757  0.50289979  0.66383096  1
  Au  Au267  1  -0.00167292  0.82986531  0.82460644  1
  Au  Au268  1  0.32240460  0.32954974  0.49791692  1
  Au  Au269  1  0.50098770  0.82582462  0.32295463  1
  Au  Au270  1  0.16861347  0.33378035  0.00340821  1
  Au  Au271  1  0.00075184  0.15891133  0.82676909  1
  Au  Au272  1  0.82769723  0.82619105  -0.00044534  1
  Au  Au273  1  0.16470715  -0.00065779  0.66104075  1
  Au  Au274  1  0.34009344  0.00139136  0.66561935  1
  Au  Au275  1  0.00036207  0.33901600  0.83418134  1
  Au  Au276  1  0.83286674  0.15665658  -0.00688834  1
  Au  Au277  1  0.83438198  0.50868089  0.83621652  1
  Au  Au278  1  0.00279196  0.15835405  0.33312282  1
  Au  Au279  1  0.16363692  0.82602890  0.00290838  1
  Au  Au280  1  0.66980290  0.82850597  0.49907765  1
  Au  Au281  1  0.50090880  0.32348259  0.67082391  1
  Au  Au282  1  0.65673938  0.16644975  -0.00080703  1
  Au  Au283  1  0.00134768  0.82023783  0.17028827  1
  Au  Au284  1  0.49784956  0.17095064  0.17129226  1
  Au  Au285  1  0.34176891  -0.00061392  0.83226351  1
  Au  Au286  1  0.67682123  -0.00393215  0.83436719  1
  Au  Au287  1  0.50074881  0.33058336  0.33213182  1
