# generated using pymatgen
data_Ca24Ti8Al207Au49
_symmetry_space_group_name_H-M   'P 1'
_cell_length_a   17.31771809
_cell_length_b   17.31672498
_cell_length_c   17.31757367
_cell_angle_alpha   90.00465624
_cell_angle_beta   89.99231592
_cell_angle_gamma   89.99461988
_symmetry_Int_Tables_number   1
_chemical_formula_structural   Ca24Ti8Al207Au49
_chemical_formula_sum   'Ca24 Ti8 Al207 Au49'
_cell_volume   5193.30060778
_cell_formula_units_Z   1
loop_
 _symmetry_equiv_pos_site_id
 _symmetry_equiv_pos_as_xyz
  1  'x, y, z'
loop_
 _atom_site_type_symbol
 _atom_site_label
 _atom_site_symmetry_multiplicity
 _atom_site_fract_x
 _atom_site_fract_y
 _atom_site_fract_z
 _atom_site_occupancy
  Ca  Ca0  1  0.25134887  0.00202651  0.00338174  1
  Ca  Ca1  1  0.24968739  0.00067360  0.49862773  1
  Ca  Ca2  1  0.25046006  0.49713316  -0.00083206  1
  Ca  Ca3  1  0.24537644  0.50357832  0.50046727  1
  Ca  Ca4  1  0.74932276  0.00841469  0.00893730  1
  Ca  Ca5  1  0.75091970  -0.00040560  0.49882551  1
  Ca  Ca6  1  0.75482212  0.49437228  0.00137072  1
  Ca  Ca7  1  0.75849078  0.50157533  0.49774616  1
  Ca  Ca8  1  -0.00100109  0.25308906  0.00316950  1
  Ca  Ca9  1  0.00258415  0.25358799  0.49582553  1
  Ca  Ca10  1  0.00160431  0.73850234  -0.00162398  1
  Ca  Ca11  1  0.00376527  0.73748708  0.49662406  1
  Ca  Ca12  1  0.49914175  0.25282299  0.00109997  1
  Ca  Ca13  1  0.49389100  0.25541817  0.50121111  1
  Ca  Ca14  1  0.49905415  0.74619388  -0.00183623  1
  Ca  Ca15  1  0.49469579  0.74691752  0.50303921  1
  Ca  Ca16  1  -0.00026755  0.00462272  0.25006752  1
  Ca  Ca17  1  -0.00500756  -0.00102015  0.75236000  1
  Ca  Ca18  1  0.00101866  0.49868683  0.25283139  1
  Ca  Ca19  1  0.00245276  0.50217670  0.74422313  1
  Ca  Ca20  1  0.49585217  0.00132106  0.24973564  1
  Ca  Ca21  1  0.50176241  -0.00232458  0.75023479  1
  Ca  Ca22  1  0.49639773  0.49759775  0.24652428  1
  Ca  Ca23  1  0.49555409  0.50007257  0.74787070  1
  Ti  Ti24  1  0.25041282  0.25085348  0.25040919  1
  Ti  Ti25  1  0.24881235  0.25362285  0.74930631  1
  Ti  Ti26  1  0.25073626  0.74754650  0.25004261  1
  Ti  Ti27  1  0.25011232  0.74717096  0.75047960  1
  Ti  Ti28  1  0.75138999  0.25253314  0.24686672  1
  Ti  Ti29  1  0.75226255  0.25281239  0.75281946  1
  Ti  Ti30  1  0.74940856  0.74660777  0.25039357  1
  Ti  Ti31  1  0.74934881  0.74620194  0.74893437  1
  Al  Al32  1  0.07859675  0.09304627  0.09419752  1
  Al  Al33  1  0.08116664  0.09521231  0.57353718  1
  Al  Al34  1  0.08052555  0.58057765  0.08539574  1
  Al  Al35  1  0.09094783  0.58826496  0.58510057  1
  Al  Al36  1  0.59072627  0.08680997  0.08858773  1
  Al  Al37  1  0.57881636  0.08246081  0.58142334  1
  Al  Al38  1  0.57810005  0.57269880  0.08223471  1
  Al  Al39  1  0.57617708  0.58652082  0.58317463  1
  Al  Al40  1  0.40271378  0.41558010  0.08364269  1
  Al  Al41  1  0.39676725  0.41842524  0.58549977  1
  Al  Al42  1  0.41121311  0.92331044  0.08833849  1
  Al  Al43  1  0.41636127  0.89858349  0.58135954  1
  Al  Al44  1  0.91161025  0.41568509  0.09218024  1
  Al  Al45  1  0.91673440  0.42770286  0.58397664  1
  Al  Al46  1  0.91392652  0.92960533  0.08587206  1
  Al  Al47  1  0.92139452  0.91643471  0.57517791  1
  Al  Al48  1  0.41088443  0.07904566  0.41721387  1
  Al  Al49  1  0.41710110  0.07909034  0.92718672  1
  Al  Al50  1  0.40576229  0.58481487  0.42391493  1
  Al  Al51  1  0.40788920  0.58272776  0.92026259  1
  Al  Al52  1  0.93003310  0.08936912  0.41254678  1
  Al  Al53  1  0.91343738  0.09557341  0.93191579  1
  Al  Al54  1  0.91903849  0.58493178  0.40983685  1
  Al  Al55  1  0.92057752  0.57909639  0.91704224  1
  Al  Al56  1  0.08521402  0.42117864  0.41039101  1
  Al  Al57  1  0.09720388  0.41572971  0.92233213  1
  Al  Al58  1  0.09817274  0.92304343  0.41263433  1
  Al  Al59  1  0.08378866  0.92451736  0.92181827  1
  Al  Al60  1  0.57760833  0.42356860  0.41656062  1
  Al  Al61  1  0.58070091  0.40765679  0.92228705  1
  Al  Al62  1  0.58448103  0.91792313  0.42026322  1
  Al  Al63  1  0.57769158  0.92222326  0.91430510  1
  Al  Al64  1  0.09098664  0.08804520  0.40684989  1
  Al  Al65  1  0.07994369  0.08274811  0.92400358  1
  Al  Al66  1  0.08842797  0.58522020  0.41494231  1
  Al  Al67  1  0.08687207  0.57874482  0.91423112  1
  Al  Al68  1  0.58112835  0.07656072  0.42004555  1
  Al  Al69  1  0.58771865  0.08082221  0.92450367  1
  Al  Al70  1  0.58388144  0.58272926  0.41759626  1
  Al  Al71  1  0.57332695  0.57448898  0.91907735  1
  Al  Al72  1  0.40552722  0.41276413  0.42284399  1
  Al  Al73  1  0.41007277  0.41425968  0.92044798  1
  Al  Al74  1  0.40519679  0.91282176  0.42087900  1
  Al  Al75  1  0.41976060  0.91629797  0.91670544  1
  Al  Al76  1  0.91904877  0.42185418  0.40805510  1
  Al  Al77  1  0.91466823  0.41815951  0.92230036  1
  Al  Al78  1  0.92263308  0.92224103  0.41981364  1
  Al  Al79  1  0.92429699  0.92474246  0.93138065  1
  Al  Al80  1  0.08939823  0.40914887  0.08369329  1
  Al  Al81  1  0.08910793  0.42422080  0.58539261  1
  Al  Al82  1  0.08347453  0.92647084  0.08176286  1
  Al  Al83  1  0.08482847  0.91248042  0.57092552  1
  Al  Al84  1  0.59014076  0.40998069  0.07947068  1
  Al  Al85  1  0.57452372  0.42135915  0.58034979  1
  Al  Al86  1  0.58456951  0.92937232  0.09027654  1
  Al  Al87  1  0.57774506  0.90624323  0.58389816  1
  Al  Al88  1  0.41163997  0.08262426  0.08871473  1
  Al  Al89  1  0.42108210  0.08500897  0.57794416  1
  Al  Al90  1  0.40207450  0.57774561  0.08225607  1
  Al  Al91  1  0.40286775  0.58705845  0.58771655  1
  Al  Al92  1  0.91368001  0.09551222  0.09360333  1
  Al  Al93  1  0.92731271  0.09224097  0.58192765  1
  Al  Al94  1  0.91441474  0.57802881  0.09633883  1
  Al  Al95  1  0.92076856  0.58730972  0.58495283  1
  Al  Al96  1  0.25160154  0.13435483  0.13425508  1
  Al  Al97  1  0.25021591  0.13758452  0.63256186  1
  Al  Al98  1  0.25182913  0.63180259  0.12944140  1
  Al  Al99  1  0.24781506  0.62874413  0.63512388  1
  Al  Al100  1  0.75408993  0.14260057  0.12749511  1
  Al  Al101  1  0.74803486  0.13748116  0.63545461  1
  Al  Al102  1  0.75155956  0.62412225  0.13962216  1
  Al  Al103  1  0.75417428  0.63151506  0.63562280  1
  Al  Al104  1  0.25022927  0.36616565  0.13217939  1
  Al  Al105  1  0.24716164  0.36665196  0.62735506  1
  Al  Al106  1  0.24985290  0.86567867  0.13479748  1
  Al  Al107  1  0.25496022  0.86026045  0.63202690  1
  Al  Al108  1  0.75252343  0.36546175  0.13070280  1
  Al  Al109  1  0.75734931  0.36767901  0.63777333  1
  Al  Al110  1  0.74901647  0.86277034  0.13833569  1
  Al  Al111  1  0.74879863  0.86391348  0.63551598  1
  Al  Al112  1  0.24894278  0.12732320  0.36305577  1
  Al  Al113  1  0.24645391  0.13851616  0.86815134  1
  Al  Al114  1  0.24765850  0.62608190  0.36416401  1
  Al  Al115  1  0.24941542  0.63358995  0.87021464  1
  Al  Al116  1  0.75000090  0.13819889  0.36080545  1
  Al  Al117  1  0.75111407  0.13989207  0.87064999  1
  Al  Al118  1  0.75213124  0.62677478  0.36203293  1
  Al  Al119  1  0.75100955  0.62733907  0.86070164  1
  Al  Al120  1  0.24819575  0.36988088  0.36773238  1
  Al  Al121  1  0.24928230  0.36774378  0.86740763  1
  Al  Al122  1  0.25252057  0.86749705  0.36497082  1
  Al  Al123  1  0.25156837  0.86248022  0.86398160  1
  Al  Al124  1  0.75720733  0.37358526  0.35785932  1
  Al  Al125  1  0.75339149  0.36739532  0.87040061  1
  Al  Al126  1  0.75169847  0.86274766  0.36384191  1
  Al  Al127  1  0.74831997  0.86000572  0.85985711  1
  Al  Al128  1  0.13288500  0.25139495  0.13740622  1
  Al  Al129  1  0.13204434  0.25383081  0.63379404  1
  Al  Al130  1  0.13923657  0.74658547  0.13364127  1
  Al  Al131  1  0.13684875  0.74049185  0.62982774  1
  Al  Al132  1  0.63659213  0.25285304  0.12811451  1
  Al  Al133  1  0.63635944  0.25680910  0.63807090  1
  Al  Al134  1  0.62967242  0.74463742  0.14136952  1
  Al  Al135  1  0.63475080  0.74560433  0.63538369  1
  Al  Al136  1  0.13600174  0.25115922  0.36307911  1
  Al  Al137  1  0.13444104  0.25812602  0.86882314  1
  Al  Al138  1  0.13755419  0.74106720  0.36786928  1
  Al  Al139  1  0.13621138  0.74356239  0.86798871  1
  Al  Al140  1  0.63879202  0.25348147  0.35754500  1
  Al  Al141  1  0.63833419  0.25340169  0.87379288  1
  Al  Al142  1  0.63560991  0.74486691  0.36261282  1
  Al  Al143  1  0.62657953  0.74845992  0.85928412  1
  Al  Al144  1  0.36167731  0.25376675  0.13287556  1
  Al  Al145  1  0.36034855  0.25465572  0.62783654  1
  Al  Al146  1  0.36608001  0.74502956  0.13617978  1
  Al  Al147  1  0.36332087  0.74798453  0.63306411  1
  Al  Al148  1  0.87018288  0.25213025  0.12980787  1
  Al  Al149  1  0.86858408  0.25033842  0.63512259  1
  Al  Al150  1  0.86033330  0.74503524  0.13883277  1
  Al  Al151  1  0.86677543  0.74468330  0.63393241  1
  Al  Al152  1  0.35750249  0.24989407  0.36892834  1
  Al  Al153  1  0.35933390  0.25523503  0.87180514  1
  Al  Al154  1  0.36279403  0.74883695  0.36178421  1
  Al  Al155  1  0.36892501  0.74484105  0.86472893  1
  Al  Al156  1  0.86638482  0.25025015  0.36062105  1
  Al  Al157  1  0.86643823  0.25208877  0.87152872  1
  Al  Al158  1  0.86905755  0.74453417  0.36142449  1
  Al  Al159  1  0.86423607  0.74463869  0.86285629  1
  Al  Al160  1  0.13343928  0.13589752  0.25220293  1
  Al  Al161  1  0.13417603  0.14297036  0.74914552  1
  Al  Al162  1  0.13661170  0.63121983  0.25284885  1
  Al  Al163  1  0.13579311  0.63006802  0.74916485  1
  Al  Al164  1  0.64097515  0.13151254  0.24030639  1
  Al  Al165  1  0.63899953  0.13985069  0.75131923  1
  Al  Al166  1  0.63313416  0.62521128  0.25115402  1
  Al  Al167  1  0.63335683  0.63004794  0.75142438  1
  Al  Al168  1  0.36109404  0.13094335  0.25018224  1
  Al  Al169  1  0.36020621  0.14088721  0.74974423  1
  Al  Al170  1  0.36018873  0.62483316  0.25084715  1
  Al  Al171  1  0.36104228  0.63238302  0.74709257  1
  Al  Al172  1  0.86946132  0.13947692  0.24666985  1
  Al  Al173  1  0.86537145  0.13949148  0.74730037  1
  Al  Al174  1  0.86599670  0.62871050  0.25233988  1
  Al  Al175  1  0.86894037  0.63050698  0.74829206  1
  Al  Al176  1  0.13572066  0.36754645  0.25093869  1
  Al  Al177  1  0.13764620  0.37321200  0.74505056  1
  Al  Al178  1  0.13814118  0.86566445  0.25697716  1
  Al  Al179  1  0.13725673  0.86038852  0.74577123  1
  Al  Al180  1  0.63675867  0.37038787  0.24626513  1
  Al  Al181  1  0.63689082  0.36643885  0.75334122  1
  Al  Al182  1  0.63392416  0.86533275  0.24976067  1
  Al  Al183  1  0.63093475  0.86192051  0.74563683  1
  Al  Al184  1  0.35903876  0.37159837  0.25026194  1
  Al  Al185  1  0.35936511  0.36643293  0.74417543  1
  Al  Al186  1  0.36349577  0.86898202  0.24889494  1
  Al  Al187  1  0.37091104  0.85780465  0.74958326  1
  Al  Al188  1  0.86791131  0.36747278  0.24515292  1
  Al  Al189  1  0.86826476  0.36889547  0.75298529  1
  Al  Al190  1  0.86617091  0.86486756  0.25130215  1
  Al  Al191  1  0.86576815  0.86221037  0.74455578  1
  Al  Al192  1  0.67494249  0.17310507  0.49903403  1
  Al  Al193  1  0.49588178  0.32933937  0.32466684  1
  Al  Al194  1  0.67824735  -0.00021479  0.31538168  1
  Al  Al195  1  0.17354597  0.00154534  0.82560207  1
  Al  Al196  1  0.00152636  0.67345442  0.18706765  1
  Al  Al197  1  0.82841749  0.66969261  0.00198238  1
  Al  Al198  1  0.18817349  0.80892961  0.49638065  1
  Al  Al199  1  0.50096504  0.17128069  0.32268523  1
  Al  Al200  1  -0.00140016  0.32974179  0.67628661  1
  Al  Al201  1  0.00279554  0.81323033  0.67076291  1
  Al  Al202  1  0.16452280  0.00430848  0.66978475  1
  Al  Al203  1  0.00401207  0.81618120  0.33211099  1
  Al  Al204  1  0.67124469  0.67236482  -0.00099992  1
  Al  Al205  1  -0.00044449  0.82703814  0.16920610  1
  Al  Al206  1  0.83163345  0.00382172  0.32764996  1
  Al  Al207  1  0.50138622  0.82631476  0.17713928  1
  Al  Al208  1  0.82996019  0.17394069  0.49741144  1
  Al  Al209  1  0.32562338  0.00080262  0.82721487  1
  Al  Al210  1  0.67878923  0.33071160  0.49740634  1
  Al  Al211  1  0.18296071  0.00033403  0.18800026  1
  Al  Al212  1  0.49737089  0.33027184  0.17064041  1
  Al  Al213  1  0.30331807  0.69112393  0.49842987  1
  Al  Al214  1  0.17693455  0.17944141  0.00192665  1
  Al  Al215  1  0.49942226  0.17500686  0.83231735  1
  Al  Al216  1  0.67968038  0.81762083  0.49964112  1
  Al  Al217  1  0.68335384  0.49860452  0.67555532  1
  Al  Al218  1  0.49900692  0.17731465  0.17326124  1
  Al  Al219  1  0.49646649  0.32629421  0.81912220  1
  Al  Al220  1  0.82443678  0.00329133  0.66905169  1
  Al  Al221  1  0.49915008  0.18518643  0.67362069  1
  Al  Al222  1  0.00108679  0.31744424  0.31871759  1
  Al  Al223  1  0.32312422  0.81597799  -0.00005504  1
  Al  Al224  1  0.82810082  0.82460275  0.00086688  1
  Al  Al225  1  -0.00104043  0.17713162  0.81848454  1
  Al  Al226  1  0.18474706  0.49984976  0.18394505  1
  Al  Al227  1  0.82780667  0.00170299  0.83682693  1
  Al  Al228  1  0.00015688  0.82086244  0.83135878  1
  Al  Al229  1  0.82147202  0.67861303  0.49758176  1
  Al  Al230  1  0.18176606  0.18654983  0.49711697  1
  Al  Al231  1  0.33158884  -0.00381136  0.67122944  1
  Al  Al232  1  0.67385106  0.00076459  0.81888898  1
  Al  Al233  1  0.32123934  0.49944280  0.81736404  1
  Al  Al234  1  0.49755125  0.68356241  0.68085688  1
  Al  Al235  1  0.67131013  0.83288644  0.00075922  1
  Al  Al236  1  0.81048265  0.00307409  0.17724294  1
  Al  Al237  1  0.83034505  0.32945687  0.49762490  1
  Al  Al238  1  0.49434439  0.67421820  0.32256494  1
  Au  Au239  1  0.67015532  0.66952745  0.50120283  1
  Au  Au240  1  0.49744444  0.82858855  0.34244452  1
  Au  Au241  1  0.33291194  0.17822667  0.00281544  1
  Au  Au242  1  0.17065061  0.00263213  0.17593067  1
  Au  Au243  1  0.82722207  0.32866724  0.00179465  1
  Au  Au244  1  0.49666075  0.66571677  0.33155828  1
  Au  Au245  1  0.50135166  0.83362194  0.82120575  1
  Au  Au246  1  0.17234328  0.66323424  0.00135839  1
  Au  Au247  1  0.32870767  0.17311180  0.50046270  1
  Au  Au248  1  0.66766851  0.49251783  0.83856649  1
  Au  Au249  1  0.67677106  0.49438783  0.16528257  1
  Au  Au250  1  -0.00350842  0.32923342  0.66363846  1
  Au  Au251  1  0.50120997  0.17827152  0.33812918  1
  Au  Au252  1  0.00212465  0.81871209  0.65445731  1
  Au  Au253  1  0.49942087  0.15978177  0.82523788  1
  Au  Au254  1  0.00136444  0.66080029  0.82342306  1
  Au  Au255  1  0.67619141  0.49847524  0.33318694  1
  Au  Au256  1  0.82844917  0.83037890  0.49555855  1
  Au  Au257  1  0.32501011  -0.00278527  0.32744127  1
  Au  Au258  1  0.67352070  0.00023571  0.32742513  1
  Au  Au259  1  0.67723187  0.65584583  -0.00129853  1
  Au  Au260  1  0.17423063  0.49909978  0.82268363  1
  Au  Au261  1  0.16600310  0.83086722  -0.00049292  1
  Au  Au262  1  0.49948996  0.83472301  0.16793466  1
  Au  Au263  1  0.17254061  0.33694881  0.49675091  1
  Au  Au264  1  0.00466297  0.33641735  0.83964646  1
  Au  Au265  1  0.82171532  0.00159075  0.85265017  1
  Au  Au266  1  0.83584653  0.50025377  0.82457669  1
  Au  Au267  1  0.67491350  0.17348438  0.00091444  1
  Au  Au268  1  0.17359794  0.49879474  0.17134859  1
  Au  Au269  1  0.84070746  0.00442175  0.66473135  1
  Au  Au270  1  0.18832312  0.82601299  0.49945212  1
  Au  Au271  1  -0.00125547  0.83757819  0.83403676  1
  Au  Au272  1  0.14875364  0.00846497  0.67450448  1
  Au  Au273  1  0.49480217  0.66279295  0.82796318  1
  Au  Au274  1  0.16432228  0.18026346  -0.00018341  1
  Au  Au275  1  0.65617522  -0.00293814  0.67000533  1
  Au  Au276  1  -0.00488596  0.82266139  0.15316602  1
  Au  Au277  1  -0.00223471  0.16171415  0.82606316  1
  Au  Au278  1  0.33639912  0.82644260  0.00071737  1
  Au  Au279  1  0.66323920  0.32382239  0.49591262  1
  Au  Au280  1  0.00604962  0.83262224  0.33583399  1
  Au  Au281  1  0.49251764  0.66069496  0.16528600  1
  Au  Au282  1  0.34801111  -0.00592625  0.67447014  1
  Au  Au283  1  0.67139893  0.50046342  0.66385471  1
  Au  Au284  1  0.00121968  0.32470345  0.17046957  1
  Au  Au285  1  0.32558119  0.49747708  0.33274939  1
  Au  Au286  1  0.49099723  0.33626950  0.66709585  1
  Au  Au287  1  0.67702682  0.84885194  0.00054909  1
