# generated using pymatgen
data_Ca24Ti8Al207Au49
_symmetry_space_group_name_H-M   'P 1'
_cell_length_a   17.31976728
_cell_length_b   17.31999319
_cell_length_c   17.32152309
_cell_angle_alpha   90.00094831
_cell_angle_beta   90.00143065
_cell_angle_gamma   89.99997684
_symmetry_Int_Tables_number   1
_chemical_formula_structural   Ca24Ti8Al207Au49
_chemical_formula_sum   'Ca24 Ti8 Al207 Au49'
_cell_volume   5196.08020218
_cell_formula_units_Z   1
loop_
 _symmetry_equiv_pos_site_id
 _symmetry_equiv_pos_as_xyz
  1  'x, y, z'
loop_
 _atom_site_type_symbol
 _atom_site_label
 _atom_site_symmetry_multiplicity
 _atom_site_fract_x
 _atom_site_fract_y
 _atom_site_fract_z
 _atom_site_occupancy
  Ca  Ca0  1  0.24303507  0.00674804  0.00454216  1
  Ca  Ca1  1  0.25036247  -0.00116114  0.49838756  1
  Ca  Ca2  1  0.24411083  0.49552212  0.00177695  1
  Ca  Ca3  1  0.24943538  0.50150186  0.49917377  1
  Ca  Ca4  1  0.75482741  0.00219586  -0.00217608  1
  Ca  Ca5  1  0.74695964  -0.00113272  0.50518881  1
  Ca  Ca6  1  0.75013596  0.50006302  0.00010596  1
  Ca  Ca7  1  0.74433974  0.50271409  0.50140292  1
  Ca  Ca8  1  0.00309280  0.24804251  -0.00267129  1
  Ca  Ca9  1  0.00194088  0.25477226  0.50255982  1
  Ca  Ca10  1  -0.00137537  0.74921887  0.00180215  1
  Ca  Ca11  1  -0.00408657  0.74745033  0.49867967  1
  Ca  Ca12  1  0.49850444  0.25355037  0.00050600  1
  Ca  Ca13  1  0.49877489  0.25521322  0.49923551  1
  Ca  Ca14  1  0.50347179  0.74984168  -0.00118895  1
  Ca  Ca15  1  0.50309309  0.74533024  0.50740676  1
  Ca  Ca16  1  0.00014509  0.00059441  0.24227515  1
  Ca  Ca17  1  -0.00706954  0.00515788  0.75868720  1
  Ca  Ca18  1  0.00260703  0.49964830  0.24733529  1
  Ca  Ca19  1  0.00050140  0.49556711  0.75234840  1
  Ca  Ca20  1  0.50299255  0.00187618  0.24918392  1
  Ca  Ca21  1  0.50348684  0.00202160  0.75049817  1
  Ca  Ca22  1  0.49837716  0.49901886  0.25300622  1
  Ca  Ca23  1  0.49942092  0.49981359  0.74421004  1
  Ti  Ti24  1  0.24842783  0.25086365  0.24866405  1
  Ti  Ti25  1  0.24837558  0.25068745  0.75098758  1
  Ti  Ti26  1  0.24646976  0.74873382  0.24898139  1
  Ti  Ti27  1  0.24998263  0.74894672  0.74903178  1
  Ti  Ti28  1  0.74996433  0.25048609  0.24831893  1
  Ti  Ti29  1  0.75153925  0.24943905  0.75111311  1
  Ti  Ti30  1  0.75089557  0.74972950  0.24851641  1
  Ti  Ti31  1  0.74904639  0.74898217  0.75154471  1
  Al  Al32  1  0.08805930  0.09127585  0.08682114  1
  Al  Al33  1  0.07280415  0.08643636  0.58746593  1
  Al  Al34  1  0.08144255  0.58169920  0.09470058  1
  Al  Al35  1  0.09377191  0.57795698  0.58097865  1
  Al  Al36  1  0.59112886  0.08724387  0.07888913  1
  Al  Al37  1  0.58278967  0.08296626  0.57672806  1
  Al  Al38  1  0.59845368  0.57622023  0.08323891  1
  Al  Al39  1  0.59012533  0.59039392  0.58965818  1
  Al  Al40  1  0.41262271  0.41074001  0.08420183  1
  Al  Al41  1  0.41300317  0.41472383  0.57744504  1
  Al  Al42  1  0.41576984  0.92786253  0.08021619  1
  Al  Al43  1  0.42877953  0.90423806  0.58692582  1
  Al  Al44  1  0.92031591  0.42052505  0.07689606  1
  Al  Al45  1  0.92349481  0.41706564  0.59351256  1
  Al  Al46  1  0.91114028  0.90674727  0.07384691  1
  Al  Al47  1  0.90559467  0.91886749  0.58010744  1
  Al  Al48  1  0.42221068  0.07649771  0.41637268  1
  Al  Al49  1  0.41698336  0.09367743  0.92729103  1
  Al  Al50  1  0.41289279  0.57725624  0.41879172  1
  Al  Al51  1  0.42207534  0.57848632  0.91704686  1
  Al  Al52  1  0.92005019  0.07649460  0.42301385  1
  Al  Al53  1  0.91182170  0.08698819  0.91405784  1
  Al  Al54  1  0.91227517  0.58994355  0.42189620  1
  Al  Al55  1  0.91045294  0.59019516  0.92591291  1
  Al  Al56  1  0.09247746  0.42847762  0.41418104  1
  Al  Al57  1  0.08819756  0.40564848  0.91488282  1
  Al  Al58  1  0.08189214  0.91629432  0.41713982  1
  Al  Al59  1  0.07025727  0.92198449  0.92876652  1
  Al  Al60  1  0.57875244  0.42244857  0.41940603  1
  Al  Al61  1  0.58247370  0.41844963  0.92170888  1
  Al  Al62  1  0.59047480  0.91577246  0.41507673  1
  Al  Al63  1  0.59268884  0.91095420  0.91631146  1
  Al  Al64  1  0.07990231  0.07857723  0.41811278  1
  Al  Al65  1  0.07904773  0.09623232  0.92017246  1
  Al  Al66  1  0.09685497  0.58770861  0.41723026  1
  Al  Al67  1  0.07918055  0.57217951  0.91976342  1
  Al  Al68  1  0.59118519  0.07693104  0.41317055  1
  Al  Al69  1  0.59275354  0.08617180  0.91853132  1
  Al  Al70  1  0.59035210  0.58730519  0.42622722  1
  Al  Al71  1  0.58617925  0.58571331  0.91917747  1
  Al  Al72  1  0.40361415  0.41579695  0.41849619  1
  Al  Al73  1  0.41572402  0.41181547  0.92319564  1
  Al  Al74  1  0.42480437  0.91970427  0.41779700  1
  Al  Al75  1  0.42697088  0.91829022  0.92122668  1
  Al  Al76  1  0.92428775  0.42629874  0.42608323  1
  Al  Al77  1  0.92546281  0.40987328  0.91442215  1
  Al  Al78  1  0.90976775  0.91022672  0.42366097  1
  Al  Al79  1  0.90524665  0.91663547  0.91308417  1
  Al  Al80  1  0.09594877  0.41760725  0.08330769  1
  Al  Al81  1  0.08564120  0.41719486  0.59551743  1
  Al  Al82  1  0.08736675  0.92571016  0.08831264  1
  Al  Al83  1  0.07879425  0.92116172  0.57641463  1
  Al  Al84  1  0.58734862  0.41595175  0.08819636  1
  Al  Al85  1  0.58553125  0.42723395  0.58871991  1
  Al  Al86  1  0.59570501  0.91622366  0.07511215  1
  Al  Al87  1  0.58465250  0.90491011  0.58356625  1
  Al  Al88  1  0.40561959  0.09109448  0.08304899  1
  Al  Al89  1  0.42557761  0.08383224  0.57831050  1
  Al  Al90  1  0.41514764  0.57098297  0.08164211  1
  Al  Al91  1  0.42338985  0.58772450  0.58525131  1
  Al  Al92  1  0.92343833  0.09029769  0.07672942  1
  Al  Al93  1  0.91554566  0.08282973  0.59159690  1
  Al  Al94  1  0.91841527  0.59918581  0.08721039  1
  Al  Al95  1  0.90735837  0.58090700  0.57713772  1
  Al  Al96  1  0.24676374  0.13344123  0.13243159  1
  Al  Al97  1  0.24404972  0.13689318  0.64012379  1
  Al  Al98  1  0.24701549  0.62536752  0.13899436  1
  Al  Al99  1  0.24873931  0.63239756  0.63468266  1
  Al  Al100  1  0.75008116  0.13339311  0.12955904  1
  Al  Al101  1  0.75259400  0.13706512  0.63850513  1
  Al  Al102  1  0.75214274  0.63836569  0.12728675  1
  Al  Al103  1  0.74413740  0.63466001  0.63318199  1
  Al  Al104  1  0.24464876  0.36782945  0.13294101  1
  Al  Al105  1  0.24684765  0.36433758  0.63228770  1
  Al  Al106  1  0.24697192  0.87095703  0.13894614  1
  Al  Al107  1  0.24431303  0.86274960  0.63474031  1
  Al  Al108  1  0.75004597  0.36566438  0.13418418  1
  Al  Al109  1  0.74711909  0.36580017  0.63551613  1
  Al  Al110  1  0.75272545  0.86530629  0.13164657  1
  Al  Al111  1  0.75024477  0.86291927  0.63558899  1
  Al  Al112  1  0.24817531  0.13699734  0.36223640  1
  Al  Al113  1  0.24404708  0.13656907  0.86836432  1
  Al  Al114  1  0.24399743  0.63362970  0.36341089  1
  Al  Al115  1  0.25392579  0.63397527  0.86192749  1
  Al  Al116  1  0.74924159  0.13666412  0.36306360  1
  Al  Al117  1  0.75560101  0.13344956  0.86727741  1
  Al  Al118  1  0.75077864  0.63058978  0.36215489  1
  Al  Al119  1  0.74654425  0.63670785  0.87204140  1
  Al  Al120  1  0.24607358  0.36412095  0.36845463  1
  Al  Al121  1  0.24661917  0.36190329  0.86728636  1
  Al  Al122  1  0.24399595  0.86330565  0.36378427  1
  Al  Al123  1  0.25160825  0.86418847  0.86299774  1
  Al  Al124  1  0.74858616  0.37191210  0.36178351  1
  Al  Al125  1  0.75104262  0.36096907  0.86374952  1
  Al  Al126  1  0.74996505  0.86298751  0.36513228  1
  Al  Al127  1  0.75138224  0.86314143  0.87104919  1
  Al  Al128  1  0.13742808  0.24909022  0.12821662  1
  Al  Al129  1  0.12537652  0.25507136  0.63683838  1
  Al  Al130  1  0.12964579  0.74704063  0.13633257  1
  Al  Al131  1  0.13556465  0.74249703  0.62755978  1
  Al  Al132  1  0.63647103  0.24674330  0.13700437  1
  Al  Al133  1  0.63620793  0.24949315  0.63558435  1
  Al  Al134  1  0.63846650  0.75117309  0.12894197  1
  Al  Al135  1  0.63343957  0.74860368  0.63405485  1
  Al  Al136  1  0.13170364  0.25140347  0.36149483  1
  Al  Al137  1  0.13534197  0.25105003  0.86941745  1
  Al  Al138  1  0.13372911  0.74821012  0.36848139  1
  Al  Al139  1  0.13671729  0.74578871  0.86441351  1
  Al  Al140  1  0.63294463  0.25363409  0.36021729  1
  Al  Al141  1  0.63794350  0.24473232  0.86607146  1
  Al  Al142  1  0.63641555  0.74354783  0.36360654  1
  Al  Al143  1  0.63482295  0.75026738  0.87068044  1
  Al  Al144  1  0.35992691  0.24699404  0.13261575  1
  Al  Al145  1  0.36170812  0.25217500  0.63337126  1
  Al  Al146  1  0.35803927  0.75097330  0.13496730  1
  Al  Al147  1  0.36464664  0.74769973  0.63398421  1
  Al  Al148  1  0.86687578  0.24694995  0.13197644  1
  Al  Al149  1  0.87189471  0.25113747  0.64038111  1
  Al  Al150  1  0.86739207  0.74999421  0.13255169  1
  Al  Al151  1  0.86374742  0.75001025  0.63484209  1
  Al  Al152  1  0.36627620  0.25524185  0.36252903  1
  Al  Al153  1  0.36228358  0.24540269  0.86807658  1
  Al  Al154  1  0.36344792  0.74526386  0.36113107  1
  Al  Al155  1  0.36851945  0.75381582  0.86298123  1
  Al  Al156  1  0.86432429  0.25147212  0.36231364  1
  Al  Al157  1  0.86978200  0.24329782  0.86865030  1
  Al  Al158  1  0.86596007  0.75057274  0.36371963  1
  Al  Al159  1  0.86186852  0.74809181  0.87167892  1
  Al  Al160  1  0.13086297  0.13531934  0.24130923  1
  Al  Al161  1  0.12597635  0.13973602  0.75393988  1
  Al  Al162  1  0.13250055  0.63104409  0.24718547  1
  Al  Al163  1  0.13509663  0.63317625  0.74748919  1
  Al  Al164  1  0.63835824  0.12935251  0.24873441  1
  Al  Al165  1  0.63224471  0.13547138  0.75215290  1
  Al  Al166  1  0.63998395  0.62992847  0.24678286  1
  Al  Al167  1  0.63331615  0.63468124  0.74541727  1
  Al  Al168  1  0.36499353  0.13611956  0.24654495  1
  Al  Al169  1  0.36986943  0.13933772  0.74770339  1
  Al  Al170  1  0.36451136  0.63263347  0.24882409  1
  Al  Al171  1  0.36705583  0.63374505  0.74605677  1
  Al  Al172  1  0.86651724  0.13597215  0.24346469  1
  Al  Al173  1  0.87067684  0.13626276  0.75455206  1
  Al  Al174  1  0.86694901  0.63647243  0.24610978  1
  Al  Al175  1  0.86327059  0.63748542  0.75141844  1
  Al  Al176  1  0.13562002  0.36800514  0.24855228  1
  Al  Al177  1  0.13480096  0.36601068  0.74735151  1
  Al  Al178  1  0.12692617  0.86146761  0.24667366  1
  Al  Al179  1  0.13561814  0.86585285  0.75059064  1
  Al  Al180  1  0.63668085  0.37142723  0.24813237  1
  Al  Al181  1  0.63418406  0.36373120  0.74934308  1
  Al  Al182  1  0.64047586  0.86717295  0.24892814  1
  Al  Al183  1  0.63437274  0.86138249  0.75141969  1
  Al  Al184  1  0.35976643  0.36561485  0.24676434  1
  Al  Al185  1  0.36243430  0.36475439  0.75159486  1
  Al  Al186  1  0.36324247  0.86361378  0.24970011  1
  Al  Al187  1  0.37060597  0.86182339  0.74298000  1
  Al  Al188  1  0.86792850  0.36622516  0.24727073  1
  Al  Al189  1  0.86488686  0.36485038  0.74955127  1
  Al  Al190  1  0.86928703  0.86376686  0.24529883  1
  Al  Al191  1  0.86114341  0.86407835  0.75656480  1
  Al  Al192  1  0.16984394  -0.00006562  0.31284277  1
  Al  Al193  1  0.82325073  0.32769280  0.50116663  1
  Al  Al194  1  0.32207433  0.82850751  0.49759105  1
  Al  Al195  1  -0.00204285  0.17709096  0.31620621  1
  Al  Al196  1  0.17047776  0.66952987  0.00211362  1
  Al  Al197  1  0.50075712  0.68146420  0.81477520  1
  Al  Al198  1  0.68854370  0.80870611  0.49928201  1
  Al  Al199  1  0.81814257  0.50220102  0.17518004  1
  Al  Al200  1  0.16365603  0.00010697  0.82615278  1
  Al  Al201  1  0.49815430  0.32464030  0.67224947  1
  Al  Al202  1  0.67318828  0.49987958  0.81248562  1
  Al  Al203  1  0.67495851  0.17958333  0.49806791  1
  Al  Al204  1  0.31320790  0.31364823  0.00103074  1
  Al  Al205  1  0.82522614  0.00144803  0.16772125  1
  Al  Al206  1  0.68876953  -0.00111537  0.82187357  1
  Al  Al207  1  0.17603647  0.82615808  0.00131463  1
  Al  Al208  1  0.82132135  0.00074955  0.68962512  1
  Al  Al209  1  0.00009584  0.66318805  0.67479418  1
  Al  Al210  1  0.82749058  0.17174646  0.50104438  1
  Al  Al211  1  0.50245692  0.17624932  0.32307378  1
  Al  Al212  1  0.31655788  0.67128155  0.49923399  1
  Al  Al213  1  0.00283458  0.31685676  0.17265904  1
  Al  Al214  1  0.82996318  0.50046890  0.82920300  1
  Al  Al215  1  0.30990835  0.49962246  0.32013489  1
  Al  Al216  1  0.32372942  -0.00214735  0.66621214  1
  Al  Al217  1  0.81521690  0.50080864  0.67550564  1
  Al  Al218  1  0.32823733  0.68008601  -0.00152214  1
  Al  Al219  1  0.50267178  0.66650694  0.17691089  1
  Al  Al220  1  0.17087813  0.18441962  0.50128133  1
  Al  Al221  1  0.49992780  0.32342464  0.82694277  1
  Al  Al222  1  0.00171900  0.67562945  0.32032800  1
  Al  Al223  1  0.00087194  0.30888574  0.80959844  1
  Al  Al224  1  0.67014765  -0.00111499  0.66940623  1
  Al  Al225  1  0.80631500  0.69058324  0.49872027  1
  Al  Al226  1  -0.00077907  0.81983806  0.82982677  1
  Al  Al227  1  0.81514114  0.00029616  0.32739702  1
  Al  Al228  1  0.31775480  0.49862440  0.67662778  1
  Al  Al229  1  0.50085587  0.82746890  0.17137277  1
  Al  Al230  1  0.49975748  0.32135839  0.18068540  1
  Al  Al231  1  0.32672491  0.00445678  0.82869683  1
  Al  Al232  1  -0.00366800  0.83050600  0.67251877  1
  Al  Al233  1  0.50236299  0.82113313  0.32582911  1
  Al  Al234  1  0.82473095  0.31642223  -0.00116017  1
  Al  Al235  1  0.32703103  0.18522190  0.49759639  1
  Al  Al236  1  0.17836985  0.49880409  0.81671075  1
  Al  Al237  1  0.32712481  -0.00116220  0.31937244  1
  Al  Al238  1  0.67320653  0.31493379  0.00059223  1
  Au  Au239  1  0.50432184  0.84320256  0.16945485  1
  Au  Au240  1  0.16307805  0.00237655  0.66655294  1
  Au  Au241  1  0.67644248  0.49680773  0.82887495  1
  Au  Au242  1  0.32557931  0.66339218  0.00192598  1
  Au  Au243  1  0.33777383  0.82219305  0.49617741  1
  Au  Au244  1  0.00162075  0.66617120  0.66270258  1
  Au  Au245  1  0.67820313  0.82188837  0.49835068  1
  Au  Au246  1  0.32610234  0.49987312  0.66257013  1
  Au  Au247  1  0.50425801  0.65246578  0.16884310  1
  Au  Au248  1  -0.00392258  0.16486541  0.32831476  1
  Au  Au249  1  0.50131348  0.83740319  0.82129192  1
  Au  Au250  1  0.50112516  0.17523299  0.84044539  1
  Au  Au251  1  0.16009618  0.82040718  0.50078602  1
  Au  Au252  1  0.32119616  0.49490377  0.17225636  1
  Au  Au253  1  0.00429450  0.32843201  0.16054853  1
  Au  Au254  1  0.66787049  0.00063315  0.17130561  1
  Au  Au255  1  0.81887082  -0.00158716  0.34402264  1
  Au  Au256  1  0.32500276  0.84033504  0.00051514  1
  Au  Au257  1  0.00118233  0.82741183  0.15956865  1
  Au  Au258  1  0.83004125  0.49993769  0.33745471  1
  Au  Au259  1  0.50257600  0.16537413  0.32947405  1
  Au  Au260  1  0.33815620  0.17241052  0.49522700  1
  Au  Au261  1  -0.00502827  0.83721150  0.32906520  1
  Au  Au262  1  0.16128185  -0.00248277  0.83803156  1
  Au  Au263  1  0.32306338  0.00293531  0.16893801  1
  Au  Au264  1  0.33148488  0.00582612  0.84544150  1
  Au  Au265  1  0.50087618  0.17428106  0.15707717  1
  Au  Au266  1  0.00387340  0.34167248  0.33482175  1
  Au  Au267  1  0.32467288  0.49444560  0.84060927  1
  Au  Au268  1  0.50032995  0.66530964  0.82131484  1
  Au  Au269  1  -0.00219554  0.17907314  0.68068900  1
  Au  Au270  1  0.17596300  -0.00025050  0.32914564  1
  Au  Au271  1  0.65812454  0.32919180  0.50299367  1
  Au  Au272  1  0.50416432  0.17442390  0.66654572  1
  Au  Au273  1  0.67481909  0.67494305  0.00135837  1
  Au  Au274  1  0.82857638  0.32868437  -0.00135306  1
  Au  Au275  1  0.49971578  0.67256728  0.34712820  1
  Au  Au276  1  0.82996487  0.50396508  0.16291528  1
  Au  Au277  1  0.66289398  0.50268438  0.32727343  1
  Au  Au278  1  -0.00563383  0.84255990  0.67612777  1
  Au  Au279  1  0.83722021  0.00390791  0.16536765  1
  Au  Au280  1  0.83939700  0.32554802  0.50511571  1
  Au  Au281  1  0.67942078  -0.00116767  0.83240951  1
  Au  Au282  1  0.17358097  0.34396228  0.50213936  1
  Au  Au283  1  0.00004132  0.66921893  0.83974183  1
  Au  Au284  1  0.16426523  0.16797604  0.50252414  1
  Au  Au285  1  0.34052805  -0.00311555  0.66328187  1
  Au  Au286  1  0.49420865  0.33973986  0.32914985  1
  Au  Au287  1  0.00232626  0.66074677  0.32752999  1
