# generated using pymatgen
data_Ca24Ti8Al207Au49
_symmetry_space_group_name_H-M   'P 1'
_cell_length_a   17.32044532
_cell_length_b   17.32160225
_cell_length_c   17.32182354
_cell_angle_alpha   90.00227437
_cell_angle_beta   89.99929131
_cell_angle_gamma   89.99724820
_symmetry_Int_Tables_number   1
_chemical_formula_structural   Ca24Ti8Al207Au49
_chemical_formula_sum   'Ca24 Ti8 Al207 Au49'
_cell_volume   5196.85649901
_cell_formula_units_Z   1
loop_
 _symmetry_equiv_pos_site_id
 _symmetry_equiv_pos_as_xyz
  1  'x, y, z'
loop_
 _atom_site_type_symbol
 _atom_site_label
 _atom_site_symmetry_multiplicity
 _atom_site_fract_x
 _atom_site_fract_y
 _atom_site_fract_z
 _atom_site_occupancy
  Ca  Ca0  1  0.25404538  0.00192844  -0.00107839  1
  Ca  Ca1  1  0.25411965  -0.00666459  0.49880312  1
  Ca  Ca2  1  0.24908145  0.50021893  0.00041315  1
  Ca  Ca3  1  0.25078835  0.50698291  0.49716098  1
  Ca  Ca4  1  0.74761825  -0.00079280  -0.00143481  1
  Ca  Ca5  1  0.74349667  0.00025647  0.49994701  1
  Ca  Ca6  1  0.75105677  0.50044709  -0.00486167  1
  Ca  Ca7  1  0.74482582  0.50071256  0.50464412  1
  Ca  Ca8  1  -0.00072871  0.25028603  0.00438623  1
  Ca  Ca9  1  -0.00343468  0.25114901  0.50018649  1
  Ca  Ca10  1  0.00194979  0.74976131  0.00679715  1
  Ca  Ca11  1  0.00595159  0.74751161  0.49766492  1
  Ca  Ca12  1  0.49994958  0.24590604  -0.00298522  1
  Ca  Ca13  1  0.50639959  0.24313305  0.50256826  1
  Ca  Ca14  1  0.49343698  0.75542844  0.00405765  1
  Ca  Ca15  1  0.49289418  0.75000742  0.49941179  1
  Ca  Ca16  1  0.00164485  0.00037871  0.24601757  1
  Ca  Ca17  1  0.00075329  -0.00014577  0.75241740  1
  Ca  Ca18  1  0.00347165  0.50183666  0.24691787  1
  Ca  Ca19  1  -0.00367484  0.50157257  0.74843187  1
  Ca  Ca20  1  0.49757660  0.00109650  0.24886955  1
  Ca  Ca21  1  0.49880274  -0.00082284  0.74940893  1
  Ca  Ca22  1  0.49667976  0.49923326  0.24871991  1
  Ca  Ca23  1  0.50620798  0.49990102  0.75205221  1
  Ti  Ti24  1  0.25021043  0.25117752  0.24861963  1
  Ti  Ti25  1  0.25075550  0.24812417  0.75159629  1
  Ti  Ti26  1  0.25070839  0.74976896  0.25048916  1
  Ti  Ti27  1  0.25113183  0.75146021  0.74873895  1
  Ti  Ti28  1  0.75047173  0.24815539  0.24832284  1
  Ti  Ti29  1  0.74921243  0.25032637  0.75127511  1
  Ti  Ti30  1  0.75056939  0.75083034  0.25002075  1
  Ti  Ti31  1  0.74903977  0.74945482  0.75083379  1
  Al  Al32  1  0.08986946  0.08330876  0.08131210  1
  Al  Al33  1  0.07952570  0.07139459  0.58733458  1
  Al  Al34  1  0.08968191  0.58594180  0.08627555  1
  Al  Al35  1  0.09482430  0.59005792  0.57680257  1
  Al  Al36  1  0.57696539  0.09130118  0.08838651  1
  Al  Al37  1  0.59197675  0.08302217  0.58277016  1
  Al  Al38  1  0.57656723  0.57835127  0.07466838  1
  Al  Al39  1  0.58555677  0.57624933  0.58978424  1
  Al  Al40  1  0.40919675  0.41091185  0.07805103  1
  Al  Al41  1  0.41447438  0.42810962  0.58873790  1
  Al  Al42  1  0.40023060  0.92276617  0.08323445  1
  Al  Al43  1  0.41659423  0.90343730  0.58215224  1
  Al  Al44  1  0.90971786  0.42059647  0.08640421  1
  Al  Al45  1  0.91101508  0.42440885  0.59199017  1
  Al  Al46  1  0.91207436  0.91865224  0.09211772  1
  Al  Al47  1  0.92447197  0.92481430  0.58272506  1
  Al  Al48  1  0.41937344  0.07925193  0.39790932  1
  Al  Al49  1  0.42088856  0.08919590  0.91630894  1
  Al  Al50  1  0.40804444  0.59830445  0.41629077  1
  Al  Al51  1  0.40848082  0.58730112  0.92625906  1
  Al  Al52  1  0.91590412  0.07983313  0.41480397  1
  Al  Al53  1  0.91832832  0.08125559  0.92587011  1
  Al  Al54  1  0.92496070  0.58269622  0.41371708  1
  Al  Al55  1  0.91232328  0.57668426  0.91820801  1
  Al  Al56  1  0.08468113  0.42791609  0.40455502  1
  Al  Al57  1  0.08558566  0.40983826  0.92628430  1
  Al  Al58  1  0.08605561  0.90686459  0.41109780  1
  Al  Al59  1  0.08455769  0.91696647  0.92252472  1
  Al  Al60  1  0.58075287  0.41687960  0.42730993  1
  Al  Al61  1  0.59207446  0.41156387  0.91050194  1
  Al  Al62  1  0.57090760  0.92761586  0.42384806  1
  Al  Al63  1  0.57938862  0.92025774  0.91353952  1
  Al  Al64  1  0.07741061  0.07284667  0.41441733  1
  Al  Al65  1  0.08786223  0.08681015  0.92194238  1
  Al  Al66  1  0.09701783  0.58964092  0.41284683  1
  Al  Al67  1  0.08753215  0.58907309  0.92870666  1
  Al  Al68  1  0.58110337  0.09641245  0.41811257  1
  Al  Al69  1  0.58250731  0.08823546  0.91092045  1
  Al  Al70  1  0.56805844  0.58746164  0.41253663  1
  Al  Al71  1  0.59148470  0.57297703  0.91350530  1
  Al  Al72  1  0.42123857  0.42871923  0.41529686  1
  Al  Al73  1  0.41636800  0.40830357  0.92111529  1
  Al  Al74  1  0.40513138  0.91637126  0.41779433  1
  Al  Al75  1  0.41531021  0.91030419  0.92180214  1
  Al  Al76  1  0.92430416  0.42017478  0.41510038  1
  Al  Al77  1  0.91370413  0.41992612  0.91727231  1
  Al  Al78  1  0.92735196  0.91567325  0.40209482  1
  Al  Al79  1  0.92147308  0.91978917  0.92367046  1
  Al  Al80  1  0.09267847  0.41575060  0.08428625  1
  Al  Al81  1  0.07758810  0.43019726  0.58344027  1
  Al  Al82  1  0.08554844  0.91626270  0.08470435  1
  Al  Al83  1  0.09013864  0.91466611  0.58016217  1
  Al  Al84  1  0.58665171  0.40984555  0.07130104  1
  Al  Al85  1  0.59173610  0.41793041  0.58710140  1
  Al  Al86  1  0.57857947  0.92382881  0.07629316  1
  Al  Al87  1  0.57839630  0.92037176  0.59490398  1
  Al  Al88  1  0.41269220  0.08585105  0.09565984  1
  Al  Al89  1  0.42671576  0.07333809  0.58075974  1
  Al  Al90  1  0.40604339  0.59047088  0.08190099  1
  Al  Al91  1  0.40015167  0.58845899  0.57984112  1
  Al  Al92  1  0.90875844  0.07836603  0.08615009  1
  Al  Al93  1  0.91552668  0.08241524  0.58193527  1
  Al  Al94  1  0.91484066  0.58007100  0.08856590  1
  Al  Al95  1  0.91751222  0.57759411  0.58985672  1
  Al  Al96  1  0.25471242  0.13436360  0.13602393  1
  Al  Al97  1  0.25518731  0.13335054  0.63753161  1
  Al  Al98  1  0.25171791  0.63647888  0.13376570  1
  Al  Al99  1  0.25186801  0.63931868  0.62606386  1
  Al  Al100  1  0.74991629  0.13350886  0.13671446  1
  Al  Al101  1  0.74296568  0.13370014  0.63686545  1
  Al  Al102  1  0.75075378  0.63466851  0.13701038  1
  Al  Al103  1  0.74668861  0.63292119  0.63483434  1
  Al  Al104  1  0.25049867  0.36244937  0.12924837  1
  Al  Al105  1  0.24950815  0.36340800  0.63450167  1
  Al  Al106  1  0.25541406  0.86477159  0.13297473  1
  Al  Al107  1  0.25249927  0.86243798  0.62616650  1
  Al  Al108  1  0.74945789  0.36284564  0.13500931  1
  Al  Al109  1  0.74863358  0.36686260  0.63822976  1
  Al  Al110  1  0.75159594  0.86585536  0.13038594  1
  Al  Al111  1  0.74299779  0.86571116  0.63730256  1
  Al  Al112  1  0.25605386  0.13221400  0.35955217  1
  Al  Al113  1  0.25326932  0.12858984  0.86470260  1
  Al  Al114  1  0.24973772  0.63389282  0.36738513  1
  Al  Al115  1  0.25448255  0.63419494  0.86873530  1
  Al  Al116  1  0.74823122  0.12871388  0.35933486  1
  Al  Al117  1  0.74464105  0.13460341  0.86390633  1
  Al  Al118  1  0.75510822  0.63646869  0.36467464  1
  Al  Al119  1  0.74706660  0.63316034  0.86447140  1
  Al  Al120  1  0.25224556  0.37112792  0.36386489  1
  Al  Al121  1  0.25306860  0.36489820  0.87077470  1
  Al  Al122  1  0.25440702  0.85941191  0.37289717  1
  Al  Al123  1  0.25536297  0.86965704  0.86640869  1
  Al  Al124  1  0.75005121  0.36323229  0.36142612  1
  Al  Al125  1  0.74395411  0.36726789  0.86561131  1
  Al  Al126  1  0.74770381  0.86944137  0.36249042  1
  Al  Al127  1  0.74730305  0.86568753  0.86877876  1
  Al  Al128  1  0.13195122  0.25266797  0.13451283  1
  Al  Al129  1  0.13281952  0.24813782  0.63676205  1
  Al  Al130  1  0.13735804  0.74768165  0.13474729  1
  Al  Al131  1  0.13969157  0.75002745  0.62691076  1
  Al  Al132  1  0.63746685  0.24688258  0.13028749  1
  Al  Al133  1  0.63417389  0.24827456  0.63596631  1
  Al  Al134  1  0.63379832  0.75271371  0.13610756  1
  Al  Al135  1  0.63268877  0.75077168  0.63553985  1
  Al  Al136  1  0.13796772  0.24872415  0.36283594  1
  Al  Al137  1  0.13752143  0.25249575  0.86811426  1
  Al  Al138  1  0.13713259  0.74889739  0.37009976  1
  Al  Al139  1  0.14034443  0.74678989  0.86763671  1
  Al  Al140  1  0.63525741  0.24313100  0.36436221  1
  Al  Al141  1  0.63608477  0.24997970  0.87000070  1
  Al  Al142  1  0.63489239  0.74973594  0.36788485  1
  Al  Al143  1  0.63680603  0.75232766  0.86289608  1
  Al  Al144  1  0.36435334  0.24893339  0.13133663  1
  Al  Al145  1  0.36730524  0.24596744  0.63673372  1
  Al  Al146  1  0.36533379  0.74942056  0.13609339  1
  Al  Al147  1  0.36501343  0.75372049  0.63044509  1
  Al  Al148  1  0.87037920  0.25002447  0.13709996  1
  Al  Al149  1  0.86725420  0.24669196  0.63744189  1
  Al  Al150  1  0.86579099  0.75245568  0.13822343  1
  Al  Al151  1  0.86337256  0.74916361  0.63686173  1
  Al  Al152  1  0.36503662  0.24845803  0.36202553  1
  Al  Al153  1  0.36160012  0.24717966  0.87067735  1
  Al  Al154  1  0.36421138  0.74706912  0.36695847  1
  Al  Al155  1  0.36260246  0.75011474  0.86454811  1
  Al  Al156  1  0.86438020  0.24427068  0.36011324  1
  Al  Al157  1  0.86079479  0.25119490  0.86538496  1
  Al  Al158  1  0.87399638  0.75160043  0.35854045  1
  Al  Al159  1  0.86046251  0.75121757  0.86523817  1
  Al  Al160  1  0.13097503  0.13647040  0.24567051  1
  Al  Al161  1  0.13170251  0.13636932  0.75419899  1
  Al  Al162  1  0.13771451  0.63527634  0.25515510  1
  Al  Al163  1  0.14437888  0.63790388  0.74615467  1
  Al  Al164  1  0.62950085  0.13499674  0.24860410  1
  Al  Al165  1  0.62937985  0.13817824  0.75117777  1
  Al  Al166  1  0.63321210  0.63549992  0.25364378  1
  Al  Al167  1  0.63454784  0.62956535  0.74877473  1
  Al  Al168  1  0.36888857  0.13509734  0.24645879  1
  Al  Al169  1  0.37036551  0.13184627  0.75460851  1
  Al  Al170  1  0.36415009  0.63162551  0.25316018  1
  Al  Al171  1  0.36014586  0.63464970  0.74254762  1
  Al  Al172  1  0.86727760  0.12959081  0.24706150  1
  Al  Al173  1  0.86746352  0.13637923  0.74944008  1
  Al  Al174  1  0.86462997  0.62999554  0.24911939  1
  Al  Al175  1  0.86149752  0.63221467  0.74750447  1
  Al  Al176  1  0.13681822  0.36588535  0.24806187  1
  Al  Al177  1  0.13579029  0.36322457  0.75044094  1
  Al  Al178  1  0.14030116  0.86096706  0.25214481  1
  Al  Al179  1  0.13977585  0.86084804  0.75119848  1
  Al  Al180  1  0.63410486  0.36322284  0.24886746  1
  Al  Al181  1  0.63542554  0.36808523  0.75083760  1
  Al  Al182  1  0.63090287  0.86602511  0.24989488  1
  Al  Al183  1  0.63273571  0.86525307  0.74819594  1
  Al  Al184  1  0.36403151  0.37087636  0.24752272  1
  Al  Al185  1  0.36286821  0.36148522  0.75018666  1
  Al  Al186  1  0.36367423  0.86635626  0.25192996  1
  Al  Al187  1  0.36368425  0.86755504  0.74596712  1
  Al  Al188  1  0.86323142  0.36902489  0.24649081  1
  Al  Al189  1  0.86454615  0.36629694  0.74796017  1
  Al  Al190  1  0.86271522  0.86986485  0.24881059  1
  Al  Al191  1  0.86388597  0.86307598  0.74901406  1
  Al  Al192  1  0.50118231  0.31440409  0.17124638  1
  Al  Al193  1  0.00253596  0.82685902  0.67239446  1
  Al  Al194  1  -0.00080221  0.32343221  0.82533944  1
  Al  Al195  1  0.67215728  0.00052032  0.81374240  1
  Al  Al196  1  0.50066361  0.31192719  0.32628716  1
  Al  Al197  1  0.81741410  0.32769035  0.00013767  1
  Al  Al198  1  0.81329077  0.49893354  0.81598653  1
  Al  Al199  1  0.80734616  0.17347645  0.49949436  1
  Al  Al200  1  0.82208437  0.66742206  0.50262914  1
  Al  Al201  1  0.16772554  0.33232833  0.49889761  1
  Al  Al202  1  0.81099169  -0.00058858  0.67313470  1
  Al  Al203  1  0.18541440  0.18688161  0.00140366  1
  Al  Al204  1  0.82805807  0.82888495  0.49646893  1
  Al  Al205  1  0.17084977  0.17189341  0.50172427  1
  Al  Al206  1  0.66727690  0.82367097  0.50167001  1
  Al  Al207  1  0.18905846  0.81557476  0.00052600  1
  Al  Al208  1  0.00062970  0.67424438  0.18146901  1
  Al  Al209  1  0.67309040  0.67703005  0.00060469  1
  Al  Al210  1  0.49988122  0.32427212  0.67346388  1
  Al  Al211  1  0.50061028  0.67701373  0.18138790  1
  Al  Al212  1  0.18004364  0.50131872  0.18417477  1
  Al  Al213  1  0.68122888  -0.00027034  0.17896822  1
  Al  Al214  1  0.50092294  0.67250039  0.83481847  1
  Al  Al215  1  0.81624075  0.17487895  0.00102514  1
  Al  Al216  1  0.33236291  0.16953432  0.49304377  1
  Al  Al217  1  0.18241918  -0.00222910  0.68208171  1
  Al  Al218  1  0.18660642  -0.00090390  0.17178797  1
  Al  Al219  1  0.00382710  0.67381497  0.67312193  1
  Al  Al220  1  0.82667005  0.67681006  0.00189016  1
  Al  Al221  1  0.82632244  0.00032422  0.83037125  1
  Al  Al222  1  0.67975330  0.50102959  0.33104201  1
  Al  Al223  1  0.68024815  0.49885941  0.16940887  1
  Al  Al224  1  0.49716051  0.68176249  0.67166565  1
  Al  Al225  1  0.49933995  0.31375027  0.82893031  1
  Al  Al226  1  0.49781276  0.81670694  0.32524864  1
  Al  Al227  1  0.00010027  0.32157942  0.31771159  1
  Al  Al228  1  0.33100201  0.49919237  0.81501019  1
  Al  Al229  1  0.49779819  0.82635126  0.81532412  1
  Al  Al230  1  0.00194411  0.82811776  0.18495279  1
  Al  Al231  1  0.17224796  0.50051108  0.83086471  1
  Al  Al232  1  0.82823095  0.32904750  0.50082225  1
  Al  Al233  1  0.67472593  0.31321923  0.49976667  1
  Al  Al234  1  0.18762323  0.50203162  0.67411643  1
  Al  Al235  1  0.18958715  -0.00346484  0.32717262  1
  Al  Al236  1  -0.00023616  0.67005346  0.82465177  1
  Al  Al237  1  0.00120983  0.82772614  0.82592978  1
  Al  Al238  1  0.32972627  0.32707392  0.49945038  1
  Au  Au239  1  0.00046497  0.17421701  0.33612749  1
  Au  Au240  1  -0.00091075  0.33038678  0.83570365  1
  Au  Au241  1  0.66059906  0.82592123  -0.00242628  1
  Au  Au242  1  0.33628505  -0.00050372  0.83566542  1
  Au  Au243  1  0.49598558  0.82843325  0.33706936  1
  Au  Au244  1  0.84124700  0.49923672  0.32146519  1
  Au  Au245  1  0.15694249  0.50078566  0.82603802  1
  Au  Au246  1  0.33789411  0.33648058  0.50112472  1
  Au  Au247  1  0.66516694  0.00420923  0.33892282  1
  Au  Au248  1  0.49560837  0.67059972  0.65998413  1
  Au  Au249  1  0.32503518  0.49766165  0.16282974  1
  Au  Au250  1  0.50094723  0.33654813  0.67698880  1
  Au  Au251  1  0.50282015  0.16071190  0.67588539  1
  Au  Au252  1  0.16747143  0.15650218  0.50218682  1
  Au  Au253  1  0.33020782  -0.00514837  0.66208363  1
  Au  Au254  1  -0.00100676  0.16212982  0.16592701  1
  Au  Au255  1  0.50310763  0.67565148  0.84726744  1
  Au  Au256  1  -0.00302127  0.16800167  0.83790989  1
  Au  Au257  1  0.16383436  -0.00062993  0.82893490  1
  Au  Au258  1  0.00561183  0.67651172  0.33073120  1
  Au  Au259  1  0.33323325  0.17415989  0.00198668  1
  Au  Au260  1  0.16506091  0.34347174  0.49380540  1
  Au  Au261  1  0.32528034  0.50517224  0.33333425  1
  Au  Au262  1  0.17356673  0.82294931  0.00078166  1
  Au  Au263  1  0.82290059  0.34567417  0.50043082  1
  Au  Au264  1  0.67197767  0.00046548  0.16497316  1
  Au  Au265  1  0.34306763  0.16489479  0.49755835  1
  Au  Au266  1  0.49209661  0.84095582  0.16259829  1
  Au  Au267  1  0.50048379  0.66323649  0.17154036  1
  Au  Au268  1  0.66204758  0.83513920  0.50126324  1
  Au  Au269  1  0.83392800  0.66390007  0.50436667  1
  Au  Au270  1  0.66280883  0.50076402  0.33447936  1
  Au  Au271  1  0.50261576  0.32371475  0.33866082  1
  Au  Au272  1  0.17353239  -0.00293006  0.32154040  1
  Au  Au273  1  0.50098233  0.32130477  0.15573628  1
  Au  Au274  1  0.00146737  0.16711761  0.66666571  1
  Au  Au275  1  -0.00014882  0.33876263  0.16925818  1
  Au  Au276  1  0.00064770  0.33755684  0.66997532  1
  Au  Au277  1  0.17406576  0.82399243  0.49856969  1
  Au  Au278  1  0.66077948  0.66363186  0.49838325  1
  Au  Au279  1  0.66603194  0.17396986  -0.00059016  1
  Au  Au280  1  0.84472191  0.83386754  0.49404316  1
  Au  Au281  1  -0.00237014  0.67684408  0.84006271  1
  Au  Au282  1  0.82070645  0.16295445  0.49790897  1
  Au  Au283  1  0.82731779  -0.00135484  0.67863175  1
  Au  Au284  1  0.83711557  -0.00146634  0.31993047  1
  Au  Au285  1  0.34387428  0.49824767  0.82589581  1
  Au  Au286  1  0.67550372  0.49741899  0.15331227  1
  Au  Au287  1  0.83738700  0.82728275  0.00153332  1
