# generated using pymatgen
data_Ca24Ti8Al207Au49
_symmetry_space_group_name_H-M   'P 1'
_cell_length_a   17.32416285
_cell_length_b   17.32332370
_cell_length_c   17.32387894
_cell_angle_alpha   89.99979422
_cell_angle_beta   89.99946154
_cell_angle_gamma   89.99506225
_symmetry_Int_Tables_number   1
_chemical_formula_structural   Ca24Ti8Al207Au49
_chemical_formula_sum   'Ca24 Ti8 Al207 Au49'
_cell_volume   5199.10533653
_cell_formula_units_Z   1
loop_
 _symmetry_equiv_pos_site_id
 _symmetry_equiv_pos_as_xyz
  1  'x, y, z'
loop_
 _atom_site_type_symbol
 _atom_site_label
 _atom_site_symmetry_multiplicity
 _atom_site_fract_x
 _atom_site_fract_y
 _atom_site_fract_z
 _atom_site_occupancy
  Ca  Ca0  1  0.24933298  -0.00080342  0.00559772  1
  Ca  Ca1  1  0.25227663  0.00132629  0.49278571  1
  Ca  Ca2  1  0.24966279  0.50412660  0.00035631  1
  Ca  Ca3  1  0.25014827  0.49576261  0.50054946  1
  Ca  Ca4  1  0.74632634  -0.00334299  0.00115925  1
  Ca  Ca5  1  0.74937945  0.00378259  0.49577752  1
  Ca  Ca6  1  0.75098638  0.50225679  0.00410979  1
  Ca  Ca7  1  0.75224718  0.49540582  0.49774099  1
  Ca  Ca8  1  0.00519139  0.25230882  0.00087052  1
  Ca  Ca9  1  0.00159186  0.24990769  0.50082032  1
  Ca  Ca10  1  0.00216117  0.74891013  0.00128346  1
  Ca  Ca11  1  0.00334332  0.75154821  0.49828388  1
  Ca  Ca12  1  0.49650284  0.25115304  0.00422902  1
  Ca  Ca13  1  0.49831357  0.24606249  0.49160143  1
  Ca  Ca14  1  0.49818140  0.75087967  -0.00010684  1
  Ca  Ca15  1  0.49758851  0.75392410  0.50248393  1
  Ca  Ca16  1  0.00258932  -0.00208234  0.24822475  1
  Ca  Ca17  1  -0.00086728  0.00372055  0.75260342  1
  Ca  Ca18  1  0.00373794  0.50092172  0.24545357  1
  Ca  Ca19  1  0.00023108  0.50060160  0.75283774  1
  Ca  Ca20  1  0.49873599  0.00027920  0.25060410  1
  Ca  Ca21  1  0.50043781  -0.00658320  0.75439550  1
  Ca  Ca22  1  0.49578306  0.49651337  0.24526534  1
  Ca  Ca23  1  0.49699891  0.50792800  0.75372935  1
  Ti  Ti24  1  0.25053877  0.25011881  0.25104098  1
  Ti  Ti25  1  0.24866980  0.25038741  0.74840896  1
  Ti  Ti26  1  0.25010620  0.74977110  0.24766676  1
  Ti  Ti27  1  0.24903977  0.74844934  0.75130074  1
  Ti  Ti28  1  0.74850523  0.25101325  0.24819099  1
  Ti  Ti29  1  0.75214729  0.24993579  0.75156611  1
  Ti  Ti30  1  0.74938072  0.74978860  0.24818872  1
  Ti  Ti31  1  0.75053788  0.74983045  0.75059976  1
  Al  Al32  1  0.09203145  0.08277217  0.08200415  1
  Al  Al33  1  0.07759406  0.09078750  0.58296047  1
  Al  Al34  1  0.08662831  0.58744944  0.08201301  1
  Al  Al35  1  0.08735051  0.58058240  0.59237169  1
  Al  Al36  1  0.58124252  0.08308988  0.08515707  1
  Al  Al37  1  0.58115931  0.07726366  0.57631539  1
  Al  Al38  1  0.57645741  0.58613626  0.08206495  1
  Al  Al39  1  0.57519423  0.58765569  0.59026736  1
  Al  Al40  1  0.41759061  0.41227399  0.08863268  1
  Al  Al41  1  0.41299513  0.42197211  0.57655423  1
  Al  Al42  1  0.41685596  0.91207058  0.09181244  1
  Al  Al43  1  0.42301211  0.91148985  0.58442366  1
  Al  Al44  1  0.92377040  0.40882988  0.08532044  1
  Al  Al45  1  0.92118177  0.41758695  0.58202647  1
  Al  Al46  1  0.91341259  0.91689587  0.08621009  1
  Al  Al47  1  0.92554074  0.91532982  0.58831014  1
  Al  Al48  1  0.41096149  0.08883875  0.40712205  1
  Al  Al49  1  0.41520132  0.08019620  0.92706463  1
  Al  Al50  1  0.41122755  0.57608491  0.41310886  1
  Al  Al51  1  0.41160746  0.59391769  0.91545915  1
  Al  Al52  1  0.90952926  0.07990712  0.41568814  1
  Al  Al53  1  0.92388852  0.08968038  0.91138691  1
  Al  Al54  1  0.92735026  0.58592798  0.40880707  1
  Al  Al55  1  0.92390647  0.59087094  0.91699698  1
  Al  Al56  1  0.08356248  0.41986327  0.41642140  1
  Al  Al57  1  0.08716424  0.41036686  0.92363972  1
  Al  Al58  1  0.08460983  0.91912964  0.40746519  1
  Al  Al59  1  0.08278562  0.90869161  0.92561796  1
  Al  Al60  1  0.58220054  0.41192982  0.41480764  1
  Al  Al61  1  0.58779500  0.41344719  0.93038823  1
  Al  Al62  1  0.58070194  0.92462393  0.41286916  1
  Al  Al63  1  0.58612888  0.90708429  0.92006196  1
  Al  Al64  1  0.09098367  0.07755501  0.41340287  1
  Al  Al65  1  0.08400641  0.09941151  0.91888180  1
  Al  Al66  1  0.08296058  0.58470930  0.40897513  1
  Al  Al67  1  0.08430123  0.59292369  0.91814275  1
  Al  Al68  1  0.57835668  0.08582409  0.40580521  1
  Al  Al69  1  0.58445307  0.07676766  0.92211259  1
  Al  Al70  1  0.57442513  0.57838418  0.41900814  1
  Al  Al71  1  0.57425409  0.59066316  0.91590498  1
  Al  Al72  1  0.41028669  0.41514478  0.40707235  1
  Al  Al73  1  0.41484441  0.42597914  0.92560952  1
  Al  Al74  1  0.41386007  0.92544029  0.40903269  1
  Al  Al75  1  0.42173481  0.91162593  0.91986551  1
  Al  Al76  1  0.92035046  0.41779574  0.41749509  1
  Al  Al77  1  0.92072148  0.41473660  0.92218030  1
  Al  Al78  1  0.91936927  0.92091531  0.40604136  1
  Al  Al79  1  0.91830066  0.91306629  0.91928172  1
  Al  Al80  1  0.08625493  0.41001331  0.08644156  1
  Al  Al81  1  0.08735170  0.41946964  0.59224919  1
  Al  Al82  1  0.09113139  0.91850244  0.08594427  1
  Al  Al83  1  0.07724269  0.91364698  0.58173165  1
  Al  Al84  1  0.58103722  0.40444962  0.08760010  1
  Al  Al85  1  0.58385530  0.41958955  0.57265539  1
  Al  Al86  1  0.58179705  0.90577191  0.08425771  1
  Al  Al87  1  0.57737433  0.91154539  0.59089320  1
  Al  Al88  1  0.41362238  0.08146833  0.08735839  1
  Al  Al89  1  0.41353603  0.08519054  0.56774801  1
  Al  Al90  1  0.41128859  0.58985790  0.08162167  1
  Al  Al91  1  0.41951076  0.58636632  0.59244190  1
  Al  Al92  1  0.91640564  0.07660487  0.08356175  1
  Al  Al93  1  0.91933336  0.08982207  0.58073082  1
  Al  Al94  1  0.92395894  0.58539873  0.08129797  1
  Al  Al95  1  0.92678170  0.58223909  0.58551616  1
  Al  Al96  1  0.24810806  0.13390071  0.13640892  1
  Al  Al97  1  0.24998739  0.13626856  0.62900342  1
  Al  Al98  1  0.25193311  0.63603123  0.12928265  1
  Al  Al99  1  0.24931592  0.62857857  0.64189892  1
  Al  Al100  1  0.74529081  0.13700101  0.13360257  1
  Al  Al101  1  0.74930872  0.13400485  0.63676327  1
  Al  Al102  1  0.74968009  0.63252484  0.13570616  1
  Al  Al103  1  0.75293440  0.63998123  0.63783377  1
  Al  Al104  1  0.25026974  0.36510524  0.13647825  1
  Al  Al105  1  0.24890242  0.36730514  0.63100749  1
  Al  Al106  1  0.25029442  0.86868036  0.13308692  1
  Al  Al107  1  0.24976550  0.86158154  0.63655292  1
  Al  Al108  1  0.74720162  0.36958919  0.13785341  1
  Al  Al109  1  0.75499061  0.36315184  0.63531475  1
  Al  Al110  1  0.74781543  0.86276542  0.12765966  1
  Al  Al111  1  0.74764706  0.86396143  0.63554717  1
  Al  Al112  1  0.25480042  0.13739099  0.37081179  1
  Al  Al113  1  0.24394411  0.13893709  0.86664985  1
  Al  Al114  1  0.25410879  0.63212337  0.36096675  1
  Al  Al115  1  0.24890698  0.63589983  0.86845196  1
  Al  Al116  1  0.74756784  0.13759632  0.36344857  1
  Al  Al117  1  0.75024975  0.13518209  0.86515978  1
  Al  Al118  1  0.74886359  0.63414489  0.36401688  1
  Al  Al119  1  0.75230591  0.63648883  0.86387743  1
  Al  Al120  1  0.25412931  0.36267770  0.36741057  1
  Al  Al121  1  0.24315968  0.36449150  0.86742642  1
  Al  Al122  1  0.25046663  0.86500652  0.36126391  1
  Al  Al123  1  0.25187190  0.86048442  0.86476880  1
  Al  Al124  1  0.74999369  0.36401913  0.35929207  1
  Al  Al125  1  0.75043388  0.36670788  0.86620379  1
  Al  Al126  1  0.75142473  0.86440926  0.36250008  1
  Al  Al127  1  0.74862140  0.86036270  0.86988616  1
  Al  Al128  1  0.13511178  0.25211149  0.13276089  1
  Al  Al129  1  0.13357292  0.24802201  0.63161113  1
  Al  Al130  1  0.13642766  0.74701262  0.13298106  1
  Al  Al131  1  0.12906114  0.74676135  0.63621610  1
  Al  Al132  1  0.63352010  0.25367966  0.12974858  1
  Al  Al133  1  0.63599756  0.24766549  0.63441226  1
  Al  Al134  1  0.63352611  0.75295867  0.13282512  1
  Al  Al135  1  0.63008267  0.74924226  0.63545691  1
  Al  Al136  1  0.13802955  0.25022483  0.36983752  1
  Al  Al137  1  0.13121141  0.24972261  0.86430660  1
  Al  Al138  1  0.13696438  0.74780962  0.36153531  1
  Al  Al139  1  0.13172546  0.74568406  0.86776301  1
  Al  Al140  1  0.62757542  0.25002825  0.35985143  1
  Al  Al141  1  0.63631208  0.25026014  0.87074915  1
  Al  Al142  1  0.63441653  0.75368011  0.36557960  1
  Al  Al143  1  0.63301323  0.75011367  0.86479823  1
  Al  Al144  1  0.36395654  0.25025157  0.13718455  1
  Al  Al145  1  0.36232845  0.25229975  0.62721775  1
  Al  Al146  1  0.36113731  0.75098588  0.12935883  1
  Al  Al147  1  0.36779018  0.74683636  0.63757841  1
  Al  Al148  1  0.86833126  0.25280706  0.13781192  1
  Al  Al149  1  0.87118885  0.24746018  0.63828685  1
  Al  Al150  1  0.86543721  0.75332404  0.13642454  1
  Al  Al151  1  0.87422108  0.75126200  0.63492792  1
  Al  Al152  1  0.36969697  0.25040063  0.36547146  1
  Al  Al153  1  0.36393228  0.25027833  0.86557816  1
  Al  Al154  1  0.36574457  0.75098261  0.36053996  1
  Al  Al155  1  0.36551754  0.74547142  0.87168830  1
  Al  Al156  1  0.86597117  0.25394381  0.36184213  1
  Al  Al157  1  0.87202455  0.24873131  0.86353301  1
  Al  Al158  1  0.86619068  0.74922577  0.36168286  1
  Al  Al159  1  0.86774087  0.74935125  0.86557926  1
  Al  Al160  1  0.13735382  0.13529218  0.24856924  1
  Al  Al161  1  0.13129442  0.13564773  0.75059263  1
  Al  Al162  1  0.13645058  0.63379978  0.24887429  1
  Al  Al163  1  0.12886387  0.63647519  0.75261301  1
  Al  Al164  1  0.63201356  0.13609194  0.24948795  1
  Al  Al165  1  0.63369028  0.13711437  0.75211181  1
  Al  Al166  1  0.63394484  0.63313962  0.24792929  1
  Al  Al167  1  0.63084250  0.63688502  0.75072122  1
  Al  Al168  1  0.36655700  0.13284560  0.25623371  1
  Al  Al169  1  0.36314125  0.13842591  0.74935950  1
  Al  Al170  1  0.36282791  0.63011395  0.24464054  1
  Al  Al171  1  0.36916397  0.63872739  0.75270319  1
  Al  Al172  1  0.86364088  0.13409011  0.25086722  1
  Al  Al173  1  0.86842917  0.13602709  0.75033146  1
  Al  Al174  1  0.86498816  0.63110071  0.24790114  1
  Al  Al175  1  0.87137563  0.63489922  0.75169348  1
  Al  Al176  1  0.13229098  0.36271826  0.24860447  1
  Al  Al177  1  0.13596322  0.36755245  0.74822419  1
  Al  Al178  1  0.13586586  0.86622087  0.24510051  1
  Al  Al179  1  0.13433172  0.86489237  0.75104795  1
  Al  Al180  1  0.62649131  0.36430117  0.24744765  1
  Al  Al181  1  0.63799926  0.36126371  0.75082850  1
  Al  Al182  1  0.63238881  0.86559992  0.24281402  1
  Al  Al183  1  0.63264824  0.86119426  0.74840460  1
  Al  Al184  1  0.36714019  0.36612682  0.24997293  1
  Al  Al185  1  0.36098517  0.36424643  0.74799334  1
  Al  Al186  1  0.36734330  0.86489203  0.24642542  1
  Al  Al187  1  0.36580279  0.86035954  0.74863047  1
  Al  Al188  1  0.86824835  0.36931664  0.24693835  1
  Al  Al189  1  0.86611975  0.36950982  0.75297339  1
  Al  Al190  1  0.86408278  0.86627804  0.24947196  1
  Al  Al191  1  0.86649872  0.86248226  0.74804299  1
  Al  Al192  1  0.82685813  -0.00092172  0.82927715  1
  Al  Al193  1  0.49774699  0.68971432  0.17836622  1
  Al  Al194  1  -0.00127062  0.81939499  0.81850606  1
  Al  Al195  1  0.00334801  0.31919948  0.67994022  1
  Al  Al196  1  0.83124364  0.67356726  0.49991935  1
  Al  Al197  1  0.32131279  0.67124774  0.50303978  1
  Al  Al198  1  0.81812031  0.18263412  0.49964642  1
  Al  Al199  1  0.81597282  -0.00002167  0.18746957  1
  Al  Al200  1  0.81666492  0.32705553  0.00202190  1
  Al  Al201  1  0.00008947  0.17249932  0.32539096  1
  Al  Al202  1  0.18389813  0.81241046  0.00060598  1
  Al  Al203  1  0.17769396  0.67277757  0.49930683  1
  Al  Al204  1  0.49784948  0.32556607  0.83397206  1
  Al  Al205  1  0.31762671  0.00116168  0.18860959  1
  Al  Al206  1  0.16994186  0.00095475  0.83084319  1
  Al  Al207  1  0.67620239  0.50178541  0.83397686  1
  Al  Al208  1  0.00130311  0.81324192  0.31758925  1
  Al  Al209  1  0.18346764  0.49743061  0.32481047  1
  Al  Al210  1  0.67690796  0.50201739  0.32157849  1
  Al  Al211  1  0.67736942  0.50195368  0.67311725  1
  Al  Al212  1  0.49820212  0.32853867  0.67305074  1
  Al  Al213  1  0.32418642  0.50133341  0.81878841  1
  Al  Al214  1  0.18075275  0.50010153  0.17228254  1
  Al  Al215  1  0.49999916  0.81982382  0.32096466  1
  Al  Al216  1  0.67059452  0.67411553  0.50014766  1
  Al  Al217  1  0.67408782  -0.00356491  0.82351076  1
  Al  Al218  1  0.32678372  -0.00025642  0.66919551  1
  Al  Al219  1  0.49864315  0.81332723  0.81806128  1
  Al  Al220  1  0.49627460  0.17156573  0.67409472  1
  Al  Al221  1  0.16814385  0.50189000  0.82245270  1
  Al  Al222  1  0.31496619  0.17525585  0.00175659  1
  Al  Al223  1  0.68219061  0.31530328  0.49720364  1
  Al  Al224  1  0.68718451  0.00047619  0.31566805  1
  Al  Al225  1  0.82461304  0.00120481  0.67195531  1
  Al  Al226  1  0.67173863  0.68196177  -0.00033561  1
  Al  Al227  1  0.17252047  0.00050746  0.66991466  1
  Al  Al228  1  0.82600750  0.68110402  0.00142472  1
  Al  Al229  1  0.83119015  0.82754998  0.49874738  1
  Al  Al230  1  0.19511158  0.00133858  0.30596071  1
  Al  Al231  1  0.82529450  0.17615623  0.00003601  1
  Al  Al232  1  0.31659486  0.32759917  0.00048939  1
  Al  Al233  1  0.32792170  -0.00136775  0.82830226  1
  Al  Al234  1  0.00074521  0.68184723  0.18637008  1
  Al  Al235  1  0.49942455  0.18594880  0.18552247  1
  Al  Al236  1  0.17302764  0.82878143  0.49792852  1
  Al  Al237  1  0.00036343  0.17649604  0.17113825  1
  Al  Al238  1  0.32671163  0.83025761  0.49790912  1
  Au  Au239  1  0.83715967  0.00194242  0.67479228  1
  Au  Au240  1  0.00298236  0.83119041  0.16987595  1
  Au  Au241  1  0.83008070  0.33096386  0.49958388  1
  Au  Au242  1  0.84014088  0.50310432  0.83699812  1
  Au  Au243  1  0.00529692  0.17298413  0.16018210  1
  Au  Au244  1  0.66934971  -0.00412709  0.16709494  1
  Au  Au245  1  0.16652859  0.66904966  0.50358703  1
  Au  Au246  1  0.83444181  0.50141884  0.33007873  1
  Au  Au247  1  0.33948955  0.00022879  0.67174481  1
  Au  Au248  1  0.17487811  0.16422374  0.49897253  1
  Au  Au249  1  0.49752572  0.17549650  0.17219685  1
  Au  Au250  1  0.66331465  0.17655334  -0.00027628  1
  Au  Au251  1  0.17254834  0.00100093  0.84340418  1
  Au  Au252  1  0.49841515  0.33808523  0.83231201  1
  Au  Au253  1  0.33141269  0.82457324  -0.00026641  1
  Au  Au254  1  0.00220989  0.33659887  0.32319381  1
  Au  Au255  1  0.17137142  0.50205993  0.83505890  1
  Au  Au256  1  0.66677873  0.84133230  0.49937541  1
  Au  Au257  1  0.33148205  0.49947453  0.17177634  1
  Au  Au258  1  0.00142517  0.82884702  0.82692146  1
  Au  Au259  1  0.33333823  0.67475349  0.50217153  1
  Au  Au260  1  0.83267814  0.50196614  0.66640221  1
  Au  Au261  1  0.33414918  0.32486791  0.49672725  1
  Au  Au262  1  0.16774122  0.33445100  0.50186643  1
  Au  Au263  1  0.83806064  0.49954697  0.16261133  1
  Au  Au264  1  0.83599390  0.16758097  0.00031395  1
  Au  Au265  1  -0.00206029  0.32318362  0.66938319  1
  Au  Au266  1  0.66089797  -0.00152278  0.67490179  1
  Au  Au267  1  0.16082194  -0.00284709  0.66721509  1
  Au  Au268  1  0.49517464  0.65912760  0.32250576  1
  Au  Au269  1  0.65955984  0.67071587  0.50456971  1
  Au  Au270  1  0.32688690  0.50031500  0.66987350  1
  Au  Au271  1  -0.00027629  0.17456529  0.33773374  1
  Au  Au272  1  0.00122926  0.67341600  0.67804925  1
  Au  Au273  1  0.00229052  0.32120745  0.83605805  1
  Au  Au274  1  0.82418809  0.83080574  0.00014132  1
  Au  Au275  1  0.66269007  0.49896219  0.16496590  1
  Au  Au276  1  0.82931002  0.84019802  0.49913588  1
  Au  Au277  1  0.66814549  0.49959262  0.33021274  1
  Au  Au278  1  0.49910189  0.83238093  0.32300735  1
  Au  Au279  1  0.49457353  0.16755433  0.66233871  1
  Au  Au280  1  0.66626789  0.49704147  0.66989501  1
  Au  Au281  1  0.49800978  0.32781694  0.32528792  1
  Au  Au282  1  0.66736612  0.16691259  0.49410235  1
  Au  Au283  1  0.66404307  0.50000677  0.83176082  1
  Au  Au284  1  0.49884006  0.16077098  0.83724189  1
  Au  Au285  1  0.50309884  0.33241480  0.66230723  1
  Au  Au286  1  0.83360584  0.66178163  0.49607355  1
  Au  Au287  1  0.31915003  0.00221245  0.17582729  1
