# generated using pymatgen
data_Ca24Ti8Al207Au49
_symmetry_space_group_name_H-M   'P 1'
_cell_length_a   17.32134440
_cell_length_b   17.32032836
_cell_length_c   17.32159570
_cell_angle_alpha   90.00115348
_cell_angle_beta   90.00014059
_cell_angle_gamma   90.00098158
_symmetry_Int_Tables_number   1
_chemical_formula_structural   Ca24Ti8Al207Au49
_chemical_formula_sum   'Ca24 Ti8 Al207 Au49'
_cell_volume   5196.67570244
_cell_formula_units_Z   1
loop_
 _symmetry_equiv_pos_site_id
 _symmetry_equiv_pos_as_xyz
  1  'x, y, z'
loop_
 _atom_site_type_symbol
 _atom_site_label
 _atom_site_symmetry_multiplicity
 _atom_site_fract_x
 _atom_site_fract_y
 _atom_site_fract_z
 _atom_site_occupancy
  Ca  Ca0  1  0.24790533  -0.00540016  -0.00359574  1
  Ca  Ca1  1  0.25197889  0.00202278  0.50064037  1
  Ca  Ca2  1  0.25301945  0.50287521  -0.00009013  1
  Ca  Ca3  1  0.25604761  0.49440576  0.50004528  1
  Ca  Ca4  1  0.74972338  0.00731922  -0.00206633  1
  Ca  Ca5  1  0.74732102  0.00249989  0.50470911  1
  Ca  Ca6  1  0.74494408  0.49449120  -0.00177258  1
  Ca  Ca7  1  0.74562032  0.50053107  0.49683366  1
  Ca  Ca8  1  -0.00656374  0.24190199  -0.00272064  1
  Ca  Ca9  1  -0.00127846  0.24715086  0.50344979  1
  Ca  Ca10  1  0.00118017  0.75681134  -0.00020520  1
  Ca  Ca11  1  0.00067894  0.74893869  0.50079606  1
  Ca  Ca12  1  0.50455900  0.24907511  -0.00042453  1
  Ca  Ca13  1  0.50400836  0.24896374  0.50161832  1
  Ca  Ca14  1  0.49558474  0.75715895  -0.00308475  1
  Ca  Ca15  1  0.49851454  0.74597421  0.50160614  1
  Ca  Ca16  1  -0.00247676  -0.00401910  0.24182568  1
  Ca  Ca17  1  -0.00097169  0.00414641  0.75478601  1
  Ca  Ca18  1  0.00061295  0.50582859  0.25195492  1
  Ca  Ca19  1  0.00070181  0.49597504  0.74657537  1
  Ca  Ca20  1  0.50391277  0.00219238  0.24801966  1
  Ca  Ca21  1  0.50256717  0.00191870  0.75141942  1
  Ca  Ca22  1  0.49808589  0.49894430  0.25500561  1
  Ca  Ca23  1  0.49936183  0.49495398  0.74509765  1
  Ti  Ti24  1  0.25391204  0.25000807  0.25253931  1
  Ti  Ti25  1  0.24974572  0.25032021  0.74867697  1
  Ti  Ti26  1  0.24910919  0.74933984  0.24884524  1
  Ti  Ti27  1  0.25179164  0.74884024  0.74982947  1
  Ti  Ti28  1  0.74633041  0.24815121  0.24936748  1
  Ti  Ti29  1  0.74721766  0.24839679  0.75146248  1
  Ti  Ti30  1  0.75008317  0.75196911  0.25115369  1
  Ti  Ti31  1  0.74734240  0.75162719  0.74918095  1
  Al  Al32  1  0.07496666  0.07701785  0.07122872  1
  Al  Al33  1  0.08146075  0.08661904  0.58633562  1
  Al  Al34  1  0.08337599  0.58349366  0.08308276  1
  Al  Al35  1  0.09061686  0.58799425  0.57337639  1
  Al  Al36  1  0.58820879  0.09444207  0.08423341  1
  Al  Al37  1  0.59083113  0.09251241  0.58855085  1
  Al  Al38  1  0.57448115  0.57873664  0.09256521  1
  Al  Al39  1  0.57714672  0.57867309  0.58190444  1
  Al  Al40  1  0.42768842  0.42324183  0.08133543  1
  Al  Al41  1  0.41707540  0.40176726  0.57816012  1
  Al  Al42  1  0.41001092  0.91504879  0.07804528  1
  Al  Al43  1  0.42662016  0.92079613  0.58237185  1
  Al  Al44  1  0.91428478  0.40756473  0.07277388  1
  Al  Al45  1  0.91518596  0.42102973  0.58233992  1
  Al  Al46  1  0.91525077  0.92639331  0.08771671  1
  Al  Al47  1  0.90938174  0.92516780  0.59066815  1
  Al  Al48  1  0.42197264  0.08820802  0.41921542  1
  Al  Al49  1  0.42783969  0.07647516  0.91232850  1
  Al  Al50  1  0.41177929  0.57621560  0.40714134  1
  Al  Al51  1  0.41728666  0.59347909  0.91159102  1
  Al  Al52  1  0.90726593  0.07699470  0.42380740  1
  Al  Al53  1  0.91339216  0.08964700  0.91311189  1
  Al  Al54  1  0.92451894  0.59265164  0.41603950  1
  Al  Al55  1  0.92374667  0.57491060  0.91710325  1
  Al  Al56  1  0.09253996  0.41417330  0.42548548  1
  Al  Al57  1  0.07509498  0.41380900  0.91529742  1
  Al  Al58  1  0.08186367  0.91584955  0.42246048  1
  Al  Al59  1  0.09155338  0.92054749  0.91081543  1
  Al  Al60  1  0.57694763  0.40422039  0.41805583  1
  Al  Al61  1  0.58658099  0.40284511  0.91618847  1
  Al  Al62  1  0.58074103  0.92266288  0.42074827  1
  Al  Al63  1  0.57847497  0.91111921  0.90896150  1
  Al  Al64  1  0.08509761  0.08086579  0.42403907  1
  Al  Al65  1  0.08365591  0.08477953  0.90637185  1
  Al  Al66  1  0.08616646  0.59672135  0.41402674  1
  Al  Al67  1  0.08354493  0.58252681  0.91983970  1
  Al  Al68  1  0.58901558  0.09491710  0.42410549  1
  Al  Al69  1  0.59006217  0.08879372  0.91864755  1
  Al  Al70  1  0.57282889  0.57962635  0.41669112  1
  Al  Al71  1  0.57144844  0.58167489  0.90848163  1
  Al  Al72  1  0.41240228  0.41039245  0.41283506  1
  Al  Al73  1  0.42814301  0.41666449  0.90687230  1
  Al  Al74  1  0.42109120  0.92094775  0.41951058  1
  Al  Al75  1  0.41359159  0.90510016  0.91355711  1
  Al  Al76  1  0.91853373  0.42433914  0.42414734  1
  Al  Al77  1  0.91302358  0.40355925  0.91590482  1
  Al  Al78  1  0.91417324  0.91968755  0.41523261  1
  Al  Al79  1  0.92076424  0.92557055  0.91593029  1
  Al  Al80  1  0.07670390  0.42260013  0.08136002  1
  Al  Al81  1  0.09011728  0.41000544  0.58036576  1
  Al  Al82  1  0.08107613  0.91580946  0.07513229  1
  Al  Al83  1  0.08465951  0.91817719  0.58311622  1
  Al  Al84  1  0.58883495  0.41262609  0.07833429  1
  Al  Al85  1  0.58200018  0.40167220  0.58196870  1
  Al  Al86  1  0.57990567  0.92163313  0.08052771  1
  Al  Al87  1  0.59062567  0.92802191  0.59277845  1
  Al  Al88  1  0.42679637  0.07849682  0.09183161  1
  Al  Al89  1  0.42652107  0.09154458  0.58968897  1
  Al  Al90  1  0.41955890  0.59335859  0.08629356  1
  Al  Al91  1  0.41765022  0.58371247  0.58061184  1
  Al  Al92  1  0.90495612  0.08734638  0.07842217  1
  Al  Al93  1  0.90788266  0.08587574  0.59326756  1
  Al  Al94  1  0.92520601  0.57954399  0.08285860  1
  Al  Al95  1  0.91601146  0.57902096  0.57957829  1
  Al  Al96  1  0.24958787  0.13660452  0.13866610  1
  Al  Al97  1  0.24672235  0.13500004  0.63527079  1
  Al  Al98  1  0.25372421  0.63627322  0.12925045  1
  Al  Al99  1  0.25469907  0.63342563  0.63265504  1
  Al  Al100  1  0.74850414  0.12938557  0.13487833  1
  Al  Al101  1  0.74659200  0.13055849  0.63727672  1
  Al  Al102  1  0.75190282  0.63452703  0.13800105  1
  Al  Al103  1  0.74600335  0.63686135  0.63770554  1
  Al  Al104  1  0.25579576  0.36268096  0.13619605  1
  Al  Al105  1  0.25122931  0.36677937  0.63243966  1
  Al  Al106  1  0.25084725  0.86357276  0.13380369  1
  Al  Al107  1  0.25354595  0.86571665  0.64077676  1
  Al  Al108  1  0.74447572  0.35991693  0.13381797  1
  Al  Al109  1  0.74140388  0.36046573  0.63541135  1
  Al  Al110  1  0.75220834  0.87132634  0.13630475  1
  Al  Al111  1  0.74550807  0.87096280  0.63727012  1
  Al  Al112  1  0.25264047  0.13605111  0.36772056  1
  Al  Al113  1  0.25176501  0.13634123  0.86361289  1
  Al  Al114  1  0.25095275  0.63669357  0.36746623  1
  Al  Al115  1  0.25498615  0.63504994  0.86924246  1
  Al  Al116  1  0.74264432  0.13634010  0.36478873  1
  Al  Al117  1  0.74595779  0.13377602  0.86474096  1
  Al  Al118  1  0.75084505  0.63158492  0.36153470  1
  Al  Al119  1  0.74969634  0.63373677  0.86238374  1
  Al  Al120  1  0.25873333  0.36730210  0.36782612  1
  Al  Al121  1  0.25012563  0.36483497  0.86354739  1
  Al  Al122  1  0.24938040  0.86355788  0.36401005  1
  Al  Al123  1  0.25309198  0.86355724  0.86399608  1
  Al  Al124  1  0.74279378  0.36807444  0.36568608  1
  Al  Al125  1  0.74638250  0.36495244  0.86672792  1
  Al  Al126  1  0.74791981  0.86547016  0.36875628  1
  Al  Al127  1  0.74761431  0.86580738  0.86379530  1
  Al  Al128  1  0.13673256  0.25217767  0.13717888  1
  Al  Al129  1  0.13554142  0.25357524  0.63332721  1
  Al  Al130  1  0.13595566  0.74528705  0.13462074  1
  Al  Al131  1  0.13471868  0.74939894  0.63777838  1
  Al  Al132  1  0.63241395  0.24630724  0.13504980  1
  Al  Al133  1  0.63370613  0.24358845  0.63356874  1
  Al  Al134  1  0.63544703  0.74942960  0.13913156  1
  Al  Al135  1  0.62663208  0.75296196  0.63941232  1
  Al  Al136  1  0.14074284  0.25907260  0.36984081  1
  Al  Al137  1  0.13613653  0.24779536  0.86350373  1
  Al  Al138  1  0.13348815  0.74680906  0.36611729  1
  Al  Al139  1  0.13738319  0.74834742  0.86275544  1
  Al  Al140  1  0.63023218  0.24982436  0.36594897  1
  Al  Al141  1  0.63221203  0.25161907  0.86532495  1
  Al  Al142  1  0.63500565  0.75233980  0.36308784  1
  Al  Al143  1  0.63202088  0.75133224  0.86327217  1
  Al  Al144  1  0.36907938  0.24862490  0.13615973  1
  Al  Al145  1  0.36287307  0.25235105  0.63031657  1
  Al  Al146  1  0.36525605  0.74970655  0.13139462  1
  Al  Al147  1  0.37364717  0.74653252  0.63913526  1
  Al  Al148  1  0.86134279  0.24600893  0.13475825  1
  Al  Al149  1  0.86135930  0.24749846  0.63615394  1
  Al  Al150  1  0.86283942  0.75049237  0.13464930  1
  Al  Al151  1  0.86465764  0.75286527  0.63709378  1
  Al  Al152  1  0.37265350  0.25230961  0.37023223  1
  Al  Al153  1  0.36856639  0.25572508  0.86199287  1
  Al  Al154  1  0.36536222  0.74656198  0.36589458  1
  Al  Al155  1  0.36640441  0.75172802  0.86753694  1
  Al  Al156  1  0.85829993  0.24736491  0.36573590  1
  Al  Al157  1  0.86295550  0.24108642  0.86630859  1
  Al  Al158  1  0.86539491  0.75080662  0.36413701  1
  Al  Al159  1  0.86316361  0.75450990  0.86377689  1
  Al  Al160  1  0.13705128  0.13670357  0.25352416  1
  Al  Al161  1  0.13563259  0.13027231  0.75456591  1
  Al  Al162  1  0.13062974  0.63644539  0.25350488  1
  Al  Al163  1  0.13502127  0.63243582  0.74599895  1
  Al  Al164  1  0.62890131  0.13308150  0.24879857  1
  Al  Al165  1  0.63367228  0.12846351  0.74823563  1
  Al  Al166  1  0.63521440  0.63375753  0.25156381  1
  Al  Al167  1  0.62748502  0.63535070  0.75212654  1
  Al  Al168  1  0.37388793  0.13920328  0.25385071  1
  Al  Al169  1  0.36689813  0.13822810  0.74679000  1
  Al  Al170  1  0.36286103  0.63567809  0.24927544  1
  Al  Al171  1  0.36838298  0.63302211  0.75173845  1
  Al  Al172  1  0.85953725  0.13332431  0.24645411  1
  Al  Al173  1  0.86222110  0.13267655  0.74905441  1
  Al  Al174  1  0.87234157  0.63756255  0.25192960  1
  Al  Al175  1  0.86565557  0.63652879  0.75071782  1
  Al  Al176  1  0.14094783  0.36475188  0.25143589  1
  Al  Al177  1  0.13657358  0.36780979  0.74779260  1
  Al  Al178  1  0.13567628  0.86677898  0.24886880  1
  Al  Al179  1  0.13817933  0.87011602  0.75138576  1
  Al  Al180  1  0.63077006  0.36302823  0.25534259  1
  Al  Al181  1  0.63033639  0.36378146  0.75146998  1
  Al  Al182  1  0.63580070  0.87354164  0.24683975  1
  Al  Al183  1  0.63221407  0.86990034  0.75243515  1
  Al  Al184  1  0.37109543  0.36575617  0.25724479  1
  Al  Al185  1  0.36437808  0.36813843  0.74690695  1
  Al  Al186  1  0.36508133  0.86370753  0.25004054  1
  Al  Al187  1  0.37450899  0.86228844  0.75289064  1
  Al  Al188  1  0.85859577  0.36238637  0.25327150  1
  Al  Al189  1  0.86077367  0.36014536  0.75242094  1
  Al  Al190  1  0.86557391  0.86662379  0.24878144  1
  Al  Al191  1  0.86320783  0.86855146  0.74637150  1
  Al  Al192  1  0.82753469  0.67985202  -0.00160113  1
  Al  Al193  1  0.49894356  0.30664259  0.68662948  1
  Al  Al194  1  0.32914509  0.81996875  0.50288731  1
  Al  Al195  1  0.00013934  0.17118357  0.17080455  1
  Al  Al196  1  0.17361363  0.81463501  0.50225974  1
  Al  Al197  1  -0.00497698  0.16764620  0.32972265  1
  Al  Al198  1  0.32375084  0.33162313  -0.00187360  1
  Al  Al199  1  0.32366865  0.00163236  0.67333500  1
  Al  Al200  1  0.00007334  0.17728735  0.69016055  1
  Al  Al201  1  0.31953212  0.00082028  0.18019287  1
  Al  Al202  1  0.81877930  0.00054664  0.81590388  1
  Al  Al203  1  0.50087768  0.31584828  0.18320009  1
  Al  Al204  1  0.67391382  0.49593718  0.82229280  1
  Al  Al205  1  0.17879301  -0.00312513  0.32390785  1
  Al  Al206  1  0.17551348  0.50008556  0.17571283  1
  Al  Al207  1  0.18762057  0.50143439  0.33108603  1
  Al  Al208  1  -0.00206511  0.32556934  0.17353419  1
  Al  Al209  1  0.18434996  0.82077180  -0.00166292  1
  Al  Al210  1  0.00090067  0.82490713  0.82228499  1
  Al  Al211  1  0.50057314  0.18754644  0.80941510  1
  Al  Al212  1  0.81641930  -0.00010913  0.31563644  1
  Al  Al213  1  -0.00228219  0.32830978  0.67085925  1
  Al  Al214  1  0.82879207  0.49647669  0.17679706  1
  Al  Al215  1  0.32073836  -0.00069941  0.82763472  1
  Al  Al216  1  0.67871325  0.82651425  0.50338423  1
  Al  Al217  1  0.00266875  0.67450084  0.67417091  1
  Al  Al218  1  -0.00106016  0.30656847  0.82123098  1
  Al  Al219  1  0.80908479  0.30673344  -0.00061799  1
  Al  Al220  1  0.33321374  0.16638262  0.00118054  1
  Al  Al221  1  0.69067610  0.19161616  0.00005311  1
  Al  Al222  1  0.49899425  0.67902241  0.31233302  1
  Al  Al223  1  0.18259280  0.18037662  0.50053990  1
  Al  Al224  1  0.00026679  0.32771719  0.32973045  1
  Al  Al225  1  0.00010486  0.81911688  0.16973747  1
  Al  Al226  1  0.67247192  0.49763579  0.18103208  1
  Al  Al227  1  0.00080263  0.81824941  0.32575769  1
  Al  Al228  1  0.17407323  0.17712065  -0.00018169  1
  Al  Al229  1  0.81102956  0.17312664  0.50149613  1
  Al  Al230  1  0.81121300  0.32993632  0.50037692  1
  Al  Al231  1  0.67779432  0.82689420  0.00048451  1
  Al  Al232  1  0.67052349  0.67087506  0.49867086  1
  Al  Al233  1  0.17785855  0.49743688  0.82424464  1
  Al  Al234  1  0.50053657  0.81885539  0.17523977  1
  Al  Al235  1  0.81759747  0.49892348  0.67946077  1
  Al  Al236  1  0.82384851  0.67937938  0.50064918  1
  Al  Al237  1  0.66286854  0.66931051  0.00077480  1
  Al  Al238  1  0.33187203  0.49900812  0.18501956  1
  Au  Au239  1  0.15501871  0.32563103  0.00350951  1
  Au  Au240  1  0.50408762  0.32744292  0.17088653  1
  Au  Au241  1  0.34236040  0.00284043  0.32573579  1
  Au  Au242  1  0.33742409  0.17890657  0.50262286  1
  Au  Au243  1  0.17168559  0.50143108  0.65914182  1
  Au  Au244  1  0.33530712  0.50155159  0.83003203  1
  Au  Au245  1  0.49991664  0.66576238  0.67681149  1
  Au  Au246  1  0.50081524  0.17999306  0.82486152  1
  Au  Au247  1  0.00216739  0.34409122  0.32506497  1
  Au  Au248  1  0.16996363  0.17915028  0.50106137  1
  Au  Au249  1  0.17177473  0.50231761  0.33553153  1
  Au  Au250  1  0.16860739  0.67377065  0.00130979  1
  Au  Au251  1  0.83284731  0.50685027  0.33820747  1
  Au  Au252  1  0.32354985  0.65844704  0.49596188  1
  Au  Au253  1  0.65767494  0.49492150  0.33243036  1
  Au  Au254  1  0.33752477  0.68048431  -0.00096002  1
  Au  Au255  1  0.64730329  0.67386001  0.00135226  1
  Au  Au256  1  0.82618705  0.49214901  0.16054461  1
  Au  Au257  1  0.33568567  0.00023869  0.67683514  1
  Au  Au258  1  0.66675317  0.83043172  0.50294554  1
  Au  Au259  1  0.67098260  0.00378212  0.33671144  1
  Au  Au260  1  0.00023400  0.66624320  0.66505091  1
  Au  Au261  1  0.33754635  0.49405537  0.66255607  1
  Au  Au262  1  -0.00788329  0.15174402  0.32464562  1
  Au  Au263  1  0.32308978  0.83593088  0.50243776  1
  Au  Au264  1  0.82714051  0.32400643  0.50099410  1
  Au  Au265  1  0.33070547  0.50256688  0.16823875  1
  Au  Au266  1  0.50126024  0.82583690  0.33535872  1
  Au  Au267  1  0.50284531  0.17452621  0.32914256  1
  Au  Au268  1  -0.00072154  0.84124855  0.67418933  1
  Au  Au269  1  0.67462882  0.00139630  0.16304644  1
  Au  Au270  1  0.00096971  0.83046888  0.32965154  1
  Au  Au271  1  0.67110171  0.49566191  0.65704205  1
  Au  Au272  1  0.32903869  0.15027049  0.00376981  1
  Au  Au273  1  0.83640420  0.82998218  0.50398033  1
  Au  Au274  1  0.16900094  0.49958957  0.83286362  1
  Au  Au275  1  0.16735443  0.00153056  0.67542121  1
  Au  Au276  1  0.34051232  0.33463867  -0.00453507  1
  Au  Au277  1  0.82710671  0.84778293  0.00073383  1
  Au  Au278  1  0.49833380  0.82802325  0.16636107  1
  Au  Au279  1  0.00223836  0.66888205  0.17546782  1
  Au  Au280  1  0.17006927  -0.00073112  0.33261441  1
  Au  Au281  1  0.17046051  0.00164794  0.15904692  1
  Au  Au282  1  0.67020075  -0.00125881  0.82765292  1
  Au  Au283  1  0.66534578  0.49867397  0.83099858  1
  Au  Au284  1  0.50391706  0.83706633  0.67841358  1
  Au  Au285  1  0.83945158  0.49599619  0.82612545  1
  Au  Au286  1  0.00086835  0.67622907  0.83814526  1
  Au  Au287  1  0.83748044  0.66670271  -0.00164000  1
