# generated using pymatgen
data_Ca24Ti8Al207Au49
_symmetry_space_group_name_H-M   'P 1'
_cell_length_a   17.32121003
_cell_length_b   17.32164616
_cell_length_c   17.32113861
_cell_angle_alpha   89.99803339
_cell_angle_beta   89.99883527
_cell_angle_gamma   90.00059673
_symmetry_Int_Tables_number   1
_chemical_formula_structural   Ca24Ti8Al207Au49
_chemical_formula_sum   'Ca24 Ti8 Al207 Au49'
_cell_volume   5196.89362413
_cell_formula_units_Z   1
loop_
 _symmetry_equiv_pos_site_id
 _symmetry_equiv_pos_as_xyz
  1  'x, y, z'
loop_
 _atom_site_type_symbol
 _atom_site_label
 _atom_site_symmetry_multiplicity
 _atom_site_fract_x
 _atom_site_fract_y
 _atom_site_fract_z
 _atom_site_occupancy
  Ca  Ca0  1  0.24728118  -0.00342701  0.00224668  1
  Ca  Ca1  1  0.24793212  -0.00401984  0.49779273  1
  Ca  Ca2  1  0.25548626  0.50255040  -0.00078912  1
  Ca  Ca3  1  0.25075472  0.50215161  0.50444609  1
  Ca  Ca4  1  0.74855877  -0.00267966  0.00302438  1
  Ca  Ca5  1  0.75090204  0.00195966  0.49875879  1
  Ca  Ca6  1  0.74380817  0.50668153  0.00037207  1
  Ca  Ca7  1  0.74263847  0.50063201  0.49979580  1
  Ca  Ca8  1  0.00336367  0.24678693  -0.00265616  1
  Ca  Ca9  1  -0.00058195  0.24622263  0.49890439  1
  Ca  Ca10  1  0.00125804  0.75018750  0.00050065  1
  Ca  Ca11  1  0.00026877  0.75494777  0.50197598  1
  Ca  Ca12  1  0.49694496  0.25294150  0.00573400  1
  Ca  Ca13  1  0.50016899  0.25300775  0.49608253  1
  Ca  Ca14  1  0.49927602  0.74678679  0.00420433  1
  Ca  Ca15  1  0.49987304  0.74775194  0.50042043  1
  Ca  Ca16  1  0.00301970  -0.00454546  0.24750508  1
  Ca  Ca17  1  0.00283324  -0.00087000  0.74098901  1
  Ca  Ca18  1  0.00221975  0.50395432  0.24549388  1
  Ca  Ca19  1  -0.00021012  0.50666549  0.74753947  1
  Ca  Ca20  1  0.49959357  -0.00083383  0.24554915  1
  Ca  Ca21  1  0.49782096  -0.00299915  0.74603829  1
  Ca  Ca22  1  0.50019630  0.50278380  0.24811258  1
  Ca  Ca23  1  0.50072394  0.50289213  0.75024380  1
  Ti  Ti24  1  0.25233478  0.24826659  0.24886579  1
  Ti  Ti25  1  0.25174677  0.25104256  0.75103119  1
  Ti  Ti26  1  0.25043527  0.75108255  0.24800290  1
  Ti  Ti27  1  0.25107645  0.75006863  0.75238705  1
  Ti  Ti28  1  0.74756357  0.25044473  0.25206018  1
  Ti  Ti29  1  0.74780856  0.25161640  0.74813061  1
  Ti  Ti30  1  0.74982952  0.74978191  0.25026679  1
  Ti  Ti31  1  0.74801761  0.74880121  0.74997017  1
  Al  Al32  1  0.08946918  0.07494637  0.09050653  1
  Al  Al33  1  0.08854906  0.07803693  0.58318930  1
  Al  Al34  1  0.08588397  0.58571904  0.08012343  1
  Al  Al35  1  0.08417684  0.58531976  0.58749036  1
  Al  Al36  1  0.57431269  0.08597661  0.08674649  1
  Al  Al37  1  0.57931470  0.08251186  0.58036789  1
  Al  Al38  1  0.58300748  0.59887445  0.08987233  1
  Al  Al39  1  0.57830758  0.58082282  0.58341905  1
  Al  Al40  1  0.41070195  0.41719887  0.09456785  1
  Al  Al41  1  0.41615739  0.42382416  0.58979286  1
  Al  Al42  1  0.41817695  0.91026609  0.09075718  1
  Al  Al43  1  0.42068135  0.91072889  0.59091629  1
  Al  Al44  1  0.91722700  0.42454701  0.07812367  1
  Al  Al45  1  0.91712530  0.41887987  0.58415445  1
  Al  Al46  1  0.91505621  0.91526399  0.08435586  1
  Al  Al47  1  0.92544533  0.92000530  0.57893761  1
  Al  Al48  1  0.41861609  0.08294893  0.40767547  1
  Al  Al49  1  0.42149315  0.08244167  0.92450670  1
  Al  Al50  1  0.42527244  0.58733021  0.40523035  1
  Al  Al51  1  0.42492121  0.58843505  0.91288380  1
  Al  Al52  1  0.90704893  0.07501131  0.41541514  1
  Al  Al53  1  0.92192990  0.07662474  0.92811132  1
  Al  Al54  1  0.91408759  0.58238109  0.41372761  1
  Al  Al55  1  0.91025336  0.59299836  0.92114075  1
  Al  Al56  1  0.08290993  0.42691224  0.42747017  1
  Al  Al57  1  0.09542029  0.41494280  0.92111740  1
  Al  Al58  1  0.08159718  0.91331299  0.40360935  1
  Al  Al59  1  0.08713591  0.89985071  0.92230184  1
  Al  Al60  1  0.59230857  0.41646480  0.41030141  1
  Al  Al61  1  0.57790050  0.42990879  0.92057985  1
  Al  Al62  1  0.58164015  0.91604669  0.41309170  1
  Al  Al63  1  0.58490063  0.90137505  0.92592760  1
  Al  Al64  1  0.08850220  0.07172796  0.41848992  1
  Al  Al65  1  0.08221866  0.07526896  0.92734079  1
  Al  Al66  1  0.08226736  0.58425372  0.42238302  1
  Al  Al67  1  0.08491496  0.58776235  0.91894238  1
  Al  Al68  1  0.58130598  0.08459440  0.41167478  1
  Al  Al69  1  0.57652910  0.08048491  0.92556119  1
  Al  Al70  1  0.58611647  0.58017480  0.39892846  1
  Al  Al71  1  0.58796135  0.59557162  0.91576192  1
  Al  Al72  1  0.42424827  0.42283079  0.41306528  1
  Al  Al73  1  0.41492558  0.42345599  0.92178114  1
  Al  Al74  1  0.41771502  0.91754168  0.41139481  1
  Al  Al75  1  0.42170981  0.91021759  0.92382859  1
  Al  Al76  1  0.90620479  0.42525838  0.42268529  1
  Al  Al77  1  0.92102492  0.42835440  0.92322508  1
  Al  Al78  1  0.91739996  0.91335304  0.39964364  1
  Al  Al79  1  0.92599696  0.90356513  0.91672268  1
  Al  Al80  1  0.09637839  0.41912891  0.07664913  1
  Al  Al81  1  0.08361510  0.42220231  0.58798634  1
  Al  Al82  1  0.09563327  0.91265763  0.08594793  1
  Al  Al83  1  0.08876310  0.91826575  0.58874746  1
  Al  Al84  1  0.57282724  0.41623992  0.09173835  1
  Al  Al85  1  0.58603092  0.41477174  0.57451938  1
  Al  Al86  1  0.58130481  0.89906928  0.08672830  1
  Al  Al87  1  0.57761210  0.91173936  0.58930049  1
  Al  Al88  1  0.41662540  0.08247898  0.09113895  1
  Al  Al89  1  0.41995266  0.08172510  0.58347943  1
  Al  Al90  1  0.41823982  0.58598705  0.09556495  1
  Al  Al91  1  0.41518758  0.58037059  0.59500651  1
  Al  Al92  1  0.91477053  0.07668632  0.08681940  1
  Al  Al93  1  0.91464622  0.08260811  0.57435365  1
  Al  Al94  1  0.91040449  0.59272597  0.07903371  1
  Al  Al95  1  0.92224328  0.58277691  0.58748974  1
  Al  Al96  1  0.24724120  0.13163757  0.13467140  1
  Al  Al97  1  0.25281597  0.12993796  0.63670453  1
  Al  Al98  1  0.25651898  0.63704457  0.13366254  1
  Al  Al99  1  0.25406041  0.63839828  0.63950121  1
  Al  Al100  1  0.74947086  0.13714748  0.13769083  1
  Al  Al101  1  0.74966889  0.13563443  0.63237183  1
  Al  Al102  1  0.74496680  0.63650326  0.13113642  1
  Al  Al103  1  0.74398117  0.63839183  0.63154088  1
  Al  Al104  1  0.25513837  0.36615179  0.13704299  1
  Al  Al105  1  0.25327077  0.36665939  0.63897731  1
  Al  Al106  1  0.24825936  0.86468808  0.13069534  1
  Al  Al107  1  0.25163445  0.86585705  0.63408679  1
  Al  Al108  1  0.74477610  0.36815106  0.13742987  1
  Al  Al109  1  0.74469720  0.36539645  0.63220897  1
  Al  Al110  1  0.74648643  0.86111084  0.13336312  1
  Al  Al111  1  0.74819120  0.86254336  0.63735009  1
  Al  Al112  1  0.25164905  0.12822583  0.36049998  1
  Al  Al113  1  0.24990625  0.13580627  0.86750826  1
  Al  Al114  1  0.25181079  0.63735396  0.36059723  1
  Al  Al115  1  0.25501042  0.63086562  0.86359637  1
  Al  Al116  1  0.75069353  0.13363494  0.36779681  1
  Al  Al117  1  0.74869176  0.13653805  0.86521722  1
  Al  Al118  1  0.74511338  0.63663955  0.36825922  1
  Al  Al119  1  0.74703254  0.63898751  0.86875517  1
  Al  Al120  1  0.25567844  0.36679694  0.35961524  1
  Al  Al121  1  0.25107344  0.37172005  0.86196956  1
  Al  Al122  1  0.24981358  0.86887872  0.36300705  1
  Al  Al123  1  0.24834963  0.86126268  0.87245724  1
  Al  Al124  1  0.74327739  0.36578467  0.36937249  1
  Al  Al125  1  0.74907375  0.36528411  0.86303556  1
  Al  Al126  1  0.75240229  0.86554649  0.36224074  1
  Al  Al127  1  0.74228543  0.85818573  0.86625856  1
  Al  Al128  1  0.14175216  0.25067685  0.13156039  1
  Al  Al129  1  0.13906415  0.24648148  0.63633165  1
  Al  Al130  1  0.13601554  0.75475964  0.13260298  1
  Al  Al131  1  0.13739442  0.75481276  0.63479136  1
  Al  Al132  1  0.62817301  0.25119576  0.14024832  1
  Al  Al133  1  0.63378087  0.25385283  0.63085951  1
  Al  Al134  1  0.63087139  0.74925910  0.13582638  1
  Al  Al135  1  0.62829711  0.74898471  0.63134136  1
  Al  Al136  1  0.13736212  0.24567960  0.36275829  1
  Al  Al137  1  0.13815937  0.24993688  0.86884423  1
  Al  Al138  1  0.13304072  0.75792374  0.36225666  1
  Al  Al139  1  0.12999213  0.75202944  0.86556524  1
  Al  Al140  1  0.63382891  0.25405404  0.36713373  1
  Al  Al141  1  0.62823930  0.25182694  0.86266290  1
  Al  Al142  1  0.63341309  0.74742130  0.36732070  1
  Al  Al143  1  0.63094110  0.74522178  0.86990331  1
  Al  Al144  1  0.36856733  0.25040931  0.13712458  1
  Al  Al145  1  0.36462885  0.25051394  0.63559121  1
  Al  Al146  1  0.36781318  0.75174438  0.13195533  1
  Al  Al147  1  0.37198631  0.75152699  0.63722307  1
  Al  Al148  1  0.86178772  0.25412868  0.13868527  1
  Al  Al149  1  0.86332807  0.24718391  0.63159075  1
  Al  Al150  1  0.86322915  0.74917868  0.13230933  1
  Al  Al151  1  0.86411816  0.75022432  0.63319873  1
  Al  Al152  1  0.36634815  0.24899517  0.36178730  1
  Al  Al153  1  0.36949507  0.25276851  0.86353517  1
  Al  Al154  1  0.36532954  0.74981160  0.36346898  1
  Al  Al155  1  0.36468950  0.74807894  0.87178748  1
  Al  Al156  1  0.86305720  0.24583882  0.36991232  1
  Al  Al157  1  0.86264245  0.24918827  0.86377308  1
  Al  Al158  1  0.86728517  0.75206263  0.36755844  1
  Al  Al159  1  0.86786452  0.74802198  0.86664846  1
  Al  Al160  1  0.13559794  0.13182882  0.24984319  1
  Al  Al161  1  0.13614761  0.13316466  0.74701677  1
  Al  Al162  1  0.13624774  0.63728042  0.24856360  1
  Al  Al163  1  0.13554318  0.63722470  0.75531103  1
  Al  Al164  1  0.63499698  0.13567542  0.25017136  1
  Al  Al165  1  0.63698212  0.13772544  0.74907094  1
  Al  Al166  1  0.63377622  0.63415103  0.24963148  1
  Al  Al167  1  0.62810027  0.63968142  0.75000145  1
  Al  Al168  1  0.36672053  0.13291973  0.24732651  1
  Al  Al169  1  0.36490183  0.13427929  0.75093524  1
  Al  Al170  1  0.36923497  0.63570938  0.24591429  1
  Al  Al171  1  0.37068798  0.63638900  0.75146759  1
  Al  Al172  1  0.86501737  0.13518684  0.25372056  1
  Al  Al173  1  0.86476338  0.13711416  0.74680441  1
  Al  Al174  1  0.86222771  0.63832765  0.25241455  1
  Al  Al175  1  0.86259830  0.63710987  0.75295146  1
  Al  Al176  1  0.13889879  0.36455192  0.24983865  1
  Al  Al177  1  0.13753314  0.36419882  0.75021365  1
  Al  Al178  1  0.13472845  0.86825010  0.24668876  1
  Al  Al179  1  0.13208954  0.86141254  0.74928956  1
  Al  Al180  1  0.63130275  0.36958817  0.25100940  1
  Al  Al181  1  0.62764514  0.36458873  0.74890173  1
  Al  Al182  1  0.63222253  0.86391933  0.24784461  1
  Al  Al183  1  0.63008432  0.85938392  0.74791927  1
  Al  Al184  1  0.37287036  0.36795350  0.24722023  1
  Al  Al185  1  0.36923008  0.37031174  0.75154191  1
  Al  Al186  1  0.36625563  0.86426750  0.24718626  1
  Al  Al187  1  0.36541474  0.86377601  0.74975373  1
  Al  Al188  1  0.85917928  0.36567145  0.25685101  1
  Al  Al189  1  0.86214977  0.36377757  0.74595026  1
  Al  Al190  1  0.87069473  0.86045925  0.24851256  1
  Al  Al191  1  0.86889008  0.85861888  0.75233955  1
  Al  Al192  1  0.67631077  0.32976205  -0.00040203  1
  Al  Al193  1  0.50059688  0.17913947  0.68010543  1
  Al  Al194  1  0.18664628  0.50281088  0.17056465  1
  Al  Al195  1  0.68207540  0.18114451  0.50018725  1
  Al  Al196  1  0.83261138  -0.00398284  0.82887455  1
  Al  Al197  1  0.00032572  0.68197975  0.17227457  1
  Al  Al198  1  0.81894886  0.50169966  0.67588254  1
  Al  Al199  1  0.81405364  0.31668803  0.50064924  1
  Al  Al200  1  0.00091660  0.68499061  0.68462511  1
  Al  Al201  1  -0.00110204  0.32963681  0.33066685  1
  Al  Al202  1  0.82644836  0.17634868  0.00241433  1
  Al  Al203  1  0.68509194  -0.00000278  0.32093110  1
  Al  Al204  1  0.17054155  0.32505527  0.50116779  1
  Al  Al205  1  0.82170128  -0.00217453  0.18996606  1
  Al  Al206  1  0.81307626  0.81417953  -0.00229241  1
  Al  Al207  1  0.18207945  0.17096349  0.49882274  1
  Al  Al208  1  0.31720011  0.33007667  -0.00058304  1
  Al  Al209  1  0.32040698  0.17411177  0.00265522  1
  Al  Al210  1  0.16987164  -0.00467692  0.81930311  1
  Al  Al211  1  0.82593273  -0.00124287  0.67183467  1
  Al  Al212  1  0.32712916  -0.00166171  0.82205261  1
  Al  Al213  1  0.31538758  -0.00226695  0.17862953  1
  Al  Al214  1  0.67188248  -0.00002683  0.67402009  1
  Al  Al215  1  0.67329820  0.50328202  0.81813260  1
  Al  Al216  1  0.82254672  0.82788678  0.49645405  1
  Al  Al217  1  0.18420363  0.68725284  -0.00124150  1
  Al  Al218  1  0.00104816  0.17002826  0.82123233  1
  Al  Al219  1  0.50096521  0.18240053  0.31140595  1
  Al  Al220  1  0.82556859  0.50205224  0.82942495  1
  Al  Al221  1  0.00105515  0.68268930  0.32669380  1
  Al  Al222  1  0.17496586  0.68161366  0.50044090  1
  Al  Al223  1  0.18356963  0.50116336  0.32646677  1
  Al  Al224  1  0.00063746  0.31985702  0.67263021  1
  Al  Al225  1  0.67199150  0.17316391  0.00239989  1
  Al  Al226  1  0.67221527  -0.00192380  0.82864654  1
  Al  Al227  1  0.32807089  0.67529092  0.50016546  1
  Al  Al228  1  0.49877941  0.81115345  0.81629450  1
  Al  Al229  1  -0.00016662  0.33147686  0.82875193  1
  Al  Al230  1  0.82323933  0.50315572  0.17648157  1
  Al  Al231  1  0.80913344  0.50154242  0.32625768  1
  Al  Al232  1  0.00006311  0.17305402  0.17311876  1
  Al  Al233  1  0.18515450  0.50257992  0.68140251  1
  Al  Al234  1  0.00468617  0.33090241  0.16770717  1
  Al  Al235  1  -0.00166935  0.16616868  0.32910838  1
  Al  Al236  1  0.67019502  -0.00142054  0.16566627  1
  Al  Al237  1  0.32611094  0.32627296  0.49827082  1
  Al  Al238  1  0.50068940  0.81130901  0.31124982  1
  Au  Au239  1  -0.00012149  0.17001894  0.65610642  1
  Au  Au240  1  0.65983318  0.66440535  0.49473081  1
  Au  Au241  1  0.33735408  0.50330834  0.31811336  1
  Au  Au242  1  0.32497633  0.34238400  0.50155543  1
  Au  Au243  1  0.83423165  0.50328874  0.16841716  1
  Au  Au244  1  0.67038768  0.49800619  0.66758609  1
  Au  Au245  1  -0.00217653  0.34439298  0.33866675  1
  Au  Au246  1  0.16259141  0.83209186  0.49609922  1
  Au  Au247  1  0.00174538  0.67044622  0.33045993  1
  Au  Au248  1  0.50127452  0.16687932  0.82927268  1
  Au  Au249  1  0.33146813  0.65909736  0.49945287  1
  Au  Au250  1  0.65578955  -0.00368975  0.83177450  1
  Au  Au251  1  0.67300933  -0.00010596  0.32570459  1
  Au  Au252  1  0.32374311  0.83220113  0.00436783  1
  Au  Au253  1  0.66704625  0.83397893  0.50302561  1
  Au  Au254  1  0.65997220  0.32869512  0.00289398  1
  Au  Au255  1  0.00098915  0.16843017  0.83825748  1
  Au  Au256  1  0.16655128  0.17206661  0.00337590  1
  Au  Au257  1  0.84862606  -0.00493550  0.82345855  1
  Au  Au258  1  0.33095094  0.16102193  0.49760540  1
  Au  Au259  1  0.00021417  0.34818702  0.82377890  1
  Au  Au260  1  0.83134331  0.66309976  0.50422251  1
  Au  Au261  1  0.50124501  0.32780319  0.66082453  1
  Au  Au262  1  -0.00105358  0.67446009  0.83433745  1
  Au  Au263  1  0.33306959  0.66397871  0.00129777  1
  Au  Au264  1  0.49911690  0.81833082  0.83183294  1
  Au  Au265  1  0.82627590  0.82504399  -0.00119584  1
  Au  Au266  1  0.65950209  0.50324387  0.17484492  1
  Au  Au267  1  0.82556966  0.32890715  0.50325793  1
  Au  Au268  1  0.32407313  -0.00103081  0.32525417  1
  Au  Au269  1  0.15519663  -0.00747829  0.82715362  1
  Au  Au270  1  0.50259111  0.32977624  0.32444034  1
  Au  Au271  1  0.00007124  0.83344422  0.67539120  1
  Au  Au272  1  0.32551162  -0.00162277  0.66157890  1
  Au  Au273  1  0.33280262  0.17752910  0.00327223  1
  Au  Au274  1  0.00298767  0.83244708  0.17052908  1
  Au  Au275  1  0.49890770  0.82096562  0.32544904  1
  Au  Au276  1  0.00771167  0.32552353  0.15189674  1
  Au  Au277  1  0.49813879  0.33658983  0.83471379  1
  Au  Au278  1  0.33598015  -0.00147205  0.83680699  1
  Au  Au279  1  0.00341919  0.15530449  0.33255913  1
  Au  Au280  1  0.66667581  0.17405216  0.50007280  1
  Au  Au281  1  0.33880532  0.50411470  0.82201043  1
  Au  Au282  1  0.83848856  0.32643563  -0.00397337  1
  Au  Au283  1  0.83039643  0.83701317  0.49966962  1
  Au  Au284  1  0.17152183  0.50069164  0.33017523  1
  Au  Au285  1  0.49915423  0.67276818  0.67511863  1
  Au  Au286  1  0.17111500  0.50300545  0.82953549  1
  Au  Au287  1  0.33324409  0.83578239  0.50072723  1
