# generated using pymatgen
data_Ca24Ti8Al207Au49
_symmetry_space_group_name_H-M   'P 1'
_cell_length_a   17.32295656
_cell_length_b   17.32345759
_cell_length_c   17.32410852
_cell_angle_alpha   89.99516280
_cell_angle_beta   90.00039218
_cell_angle_gamma   90.00162014
_symmetry_Int_Tables_number   1
_chemical_formula_structural   Ca24Ti8Al207Au49
_chemical_formula_sum   'Ca24 Ti8 Al207 Au49'
_cell_volume   5198.85239549
_cell_formula_units_Z   1
loop_
 _symmetry_equiv_pos_site_id
 _symmetry_equiv_pos_as_xyz
  1  'x, y, z'
loop_
 _atom_site_type_symbol
 _atom_site_label
 _atom_site_symmetry_multiplicity
 _atom_site_fract_x
 _atom_site_fract_y
 _atom_site_fract_z
 _atom_site_occupancy
  Ca  Ca0  1  0.25028464  -0.00061024  -0.00212350  1
  Ca  Ca1  1  0.24654582  -0.00007511  0.50020177  1
  Ca  Ca2  1  0.25033184  0.50145953  0.00473312  1
  Ca  Ca3  1  0.24802756  0.50033700  0.49635970  1
  Ca  Ca4  1  0.75012960  0.00168480  0.00197939  1
  Ca  Ca5  1  0.74986095  -0.00071442  0.49554299  1
  Ca  Ca6  1  0.74396471  0.49736686  -0.00138291  1
  Ca  Ca7  1  0.74216969  0.49954219  0.49968682  1
  Ca  Ca8  1  -0.00650805  0.24547017  0.00645874  1
  Ca  Ca9  1  0.00718498  0.24793075  0.49604222  1
  Ca  Ca10  1  -0.00414641  0.75421848  0.00098157  1
  Ca  Ca11  1  0.00132776  0.75946045  0.49712177  1
  Ca  Ca12  1  0.50321259  0.25116515  0.00254759  1
  Ca  Ca13  1  0.49569966  0.24936589  0.49728596  1
  Ca  Ca14  1  0.50128507  0.75181120  -0.00085069  1
  Ca  Ca15  1  0.50010102  0.75320832  0.50359824  1
  Ca  Ca16  1  -0.00175959  -0.00182171  0.25289283  1
  Ca  Ca17  1  0.00168644  -0.00485021  0.74713895  1
  Ca  Ca18  1  0.00607789  0.50114945  0.24727713  1
  Ca  Ca19  1  0.00408526  0.50416778  0.74847782  1
  Ca  Ca20  1  0.50215531  0.00308969  0.24914216  1
  Ca  Ca21  1  0.49725624  -0.00060878  0.74945616  1
  Ca  Ca22  1  0.49798287  0.49722968  0.25125460  1
  Ca  Ca23  1  0.49957819  0.50179177  0.75168462  1
  Ti  Ti24  1  0.25027210  0.24817122  0.25131890  1
  Ti  Ti25  1  0.25107904  0.24865596  0.74788640  1
  Ti  Ti26  1  0.25011421  0.75111323  0.24897468  1
  Ti  Ti27  1  0.25085028  0.75099439  0.75046546  1
  Ti  Ti28  1  0.74796222  0.24752377  0.25049671  1
  Ti  Ti29  1  0.74800627  0.24892924  0.74934973  1
  Ti  Ti30  1  0.74912988  0.75180943  0.24961236  1
  Ti  Ti31  1  0.74897077  0.75176204  0.74982698  1
  Al  Al32  1  0.07391215  0.07889445  0.08389028  1
  Al  Al33  1  0.09503947  0.08120497  0.57474266  1
  Al  Al34  1  0.09088787  0.58135748  0.08956370  1
  Al  Al35  1  0.08686401  0.58218486  0.58074921  1
  Al  Al36  1  0.58906807  0.08413268  0.08361478  1
  Al  Al37  1  0.58720288  0.07588554  0.58587209  1
  Al  Al38  1  0.58679769  0.59210042  0.07498499  1
  Al  Al39  1  0.58331775  0.58039717  0.58160298  1
  Al  Al40  1  0.41863793  0.41937703  0.09517160  1
  Al  Al41  1  0.41626918  0.41783532  0.57579390  1
  Al  Al42  1  0.42422481  0.92043617  0.07663788  1
  Al  Al43  1  0.41035867  0.91871186  0.58995747  1
  Al  Al44  1  0.91619440  0.41095089  0.07651250  1
  Al  Al45  1  0.92402909  0.41671004  0.57481739  1
  Al  Al46  1  0.91278696  0.91801785  0.10001020  1
  Al  Al47  1  0.91589034  0.91735072  0.58051793  1
  Al  Al48  1  0.42066120  0.08799245  0.41755471  1
  Al  Al49  1  0.40693642  0.07124496  0.90951925  1
  Al  Al50  1  0.41547451  0.57441280  0.41756530  1
  Al  Al51  1  0.42026758  0.58605646  0.90787307  1
  Al  Al52  1  0.91964875  0.08232456  0.40213370  1
  Al  Al53  1  0.91341270  0.08205857  0.93270974  1
  Al  Al54  1  0.92511638  0.58031460  0.41942731  1
  Al  Al55  1  0.91967359  0.58641405  0.92019139  1
  Al  Al56  1  0.09229198  0.41000665  0.41802423  1
  Al  Al57  1  0.08596088  0.42188129  0.92424604  1
  Al  Al58  1  0.08086997  0.91498314  0.41353981  1
  Al  Al59  1  0.08953531  0.91810265  0.91346307  1
  Al  Al60  1  0.57965358  0.40133282  0.41618079  1
  Al  Al61  1  0.58780033  0.41555400  0.92504361  1
  Al  Al62  1  0.58957216  0.92255400  0.41318545  1
  Al  Al63  1  0.58309775  0.90791168  0.91316430  1
  Al  Al64  1  0.08269249  0.08778089  0.41285625  1
  Al  Al65  1  0.09087655  0.07469699  0.91445781  1
  Al  Al66  1  0.08714134  0.58277310  0.41784380  1
  Al  Al67  1  0.08278216  0.58303999  0.91841505  1
  Al  Al68  1  0.58267317  0.08312165  0.40789737  1
  Al  Al69  1  0.58654626  0.08017978  0.92174713  1
  Al  Al70  1  0.57933709  0.58123509  0.42305813  1
  Al  Al71  1  0.58335228  0.59683633  0.91635190  1
  Al  Al72  1  0.41756489  0.41053044  0.40842106  1
  Al  Al73  1  0.41255222  0.42977439  0.91370995  1
  Al  Al74  1  0.41848958  0.91985338  0.42275168  1
  Al  Al75  1  0.41907807  0.91219239  0.90048499  1
  Al  Al76  1  0.92189770  0.41468949  0.41765655  1
  Al  Al77  1  0.91162512  0.41304769  0.92486497  1
  Al  Al78  1  0.91424377  0.91655261  0.40235136  1
  Al  Al79  1  0.92332522  0.92032670  0.92676851  1
  Al  Al80  1  0.09114471  0.42043614  0.08811602  1
  Al  Al81  1  0.09119708  0.41289717  0.57756239  1
  Al  Al82  1  0.07614319  0.91144480  0.08774599  1
  Al  Al83  1  0.09325853  0.91634234  0.57825208  1
  Al  Al84  1  0.57946062  0.40674832  0.08369846  1
  Al  Al85  1  0.58930945  0.41605722  0.57543268  1
  Al  Al86  1  0.59457297  0.91182888  0.07782046  1
  Al  Al87  1  0.58664827  0.91759676  0.58894826  1
  Al  Al88  1  0.42287260  0.08153043  0.08075608  1
  Al  Al89  1  0.40607188  0.07841512  0.58740082  1
  Al  Al90  1  0.41220232  0.57743494  0.08824175  1
  Al  Al91  1  0.42117149  0.58025219  0.58084266  1
  Al  Al92  1  0.90609736  0.08325257  0.09341637  1
  Al  Al93  1  0.92041531  0.07254793  0.57899850  1
  Al  Al94  1  0.92267052  0.58576999  0.07551467  1
  Al  Al95  1  0.92643184  0.58291852  0.57758420  1
  Al  Al96  1  0.24830974  0.12796939  0.13600699  1
  Al  Al97  1  0.25199600  0.13511952  0.63062496  1
  Al  Al98  1  0.25112164  0.63402387  0.13667960  1
  Al  Al99  1  0.25006017  0.63727961  0.63606044  1
  Al  Al100  1  0.75292985  0.12567723  0.13550233  1
  Al  Al101  1  0.74367680  0.13386699  0.63355629  1
  Al  Al102  1  0.74309111  0.63732147  0.13520826  1
  Al  Al103  1  0.74934092  0.63847452  0.63640043  1
  Al  Al104  1  0.25080560  0.36906823  0.13873989  1
  Al  Al105  1  0.25146036  0.36229333  0.62644506  1
  Al  Al106  1  0.25069029  0.87011478  0.13748275  1
  Al  Al107  1  0.25386379  0.86799498  0.64021044  1
  Al  Al108  1  0.74374946  0.36200518  0.13506614  1
  Al  Al109  1  0.74845733  0.36241008  0.62879634  1
  Al  Al110  1  0.74983652  0.87256086  0.14062427  1
  Al  Al111  1  0.74263990  0.86492494  0.63629845  1
  Al  Al112  1  0.24963704  0.13649780  0.37255106  1
  Al  Al113  1  0.25155322  0.12727030  0.86226503  1
  Al  Al114  1  0.24784111  0.63733488  0.36163559  1
  Al  Al115  1  0.25255988  0.63010641  0.86552457  1
  Al  Al116  1  0.74820171  0.12866102  0.36406019  1
  Al  Al117  1  0.74836005  0.13397986  0.86497380  1
  Al  Al118  1  0.74935271  0.63597764  0.36155427  1
  Al  Al119  1  0.74416380  0.63816634  0.86808692  1
  Al  Al120  1  0.24765013  0.36381163  0.36916167  1
  Al  Al121  1  0.25361955  0.37037508  0.86278355  1
  Al  Al122  1  0.24814404  0.86571755  0.36434189  1
  Al  Al123  1  0.25165147  0.87087379  0.86375297  1
  Al  Al124  1  0.75034708  0.36318510  0.37087042  1
  Al  Al125  1  0.74392619  0.36550050  0.86636425  1
  Al  Al126  1  0.75089625  0.87230462  0.36012429  1
  Al  Al127  1  0.74301999  0.86329528  0.86640089  1
  Al  Al128  1  0.13650380  0.24640863  0.13849591  1
  Al  Al129  1  0.13866769  0.24786744  0.63129101  1
  Al  Al130  1  0.12802229  0.75439802  0.14144641  1
  Al  Al131  1  0.13822963  0.75692903  0.63502994  1
  Al  Al132  1  0.63485652  0.24624550  0.13685984  1
  Al  Al133  1  0.63017436  0.25080962  0.63164219  1
  Al  Al134  1  0.63347543  0.75517645  0.13467734  1
  Al  Al135  1  0.62650490  0.75383123  0.63692682  1
  Al  Al136  1  0.13699048  0.24717194  0.36816979  1
  Al  Al137  1  0.13846924  0.24522660  0.86352998  1
  Al  Al138  1  0.13342939  0.75604372  0.36425977  1
  Al  Al139  1  0.13747763  0.75245510  0.85995331  1
  Al  Al140  1  0.63454055  0.25252126  0.36678726  1
  Al  Al141  1  0.63208785  0.24795218  0.86585037  1
  Al  Al142  1  0.63535424  0.75648719  0.36286868  1
  Al  Al143  1  0.63342191  0.75239609  0.86957756  1
  Al  Al144  1  0.36279597  0.24667469  0.13659437  1
  Al  Al145  1  0.36884561  0.24834773  0.63121887  1
  Al  Al146  1  0.36575587  0.75028445  0.13081602  1
  Al  Al147  1  0.37177743  0.75299688  0.63960703  1
  Al  Al148  1  0.86220343  0.24358005  0.13734303  1
  Al  Al149  1  0.86354928  0.24902169  0.63429035  1
  Al  Al150  1  0.86947737  0.75744066  0.13944062  1
  Al  Al151  1  0.86361400  0.75518735  0.63409207  1
  Al  Al152  1  0.36296151  0.25158043  0.37082227  1
  Al  Al153  1  0.36488078  0.24237562  0.85978978  1
  Al  Al154  1  0.36636184  0.75089538  0.36121123  1
  Al  Al155  1  0.36304917  0.75310858  0.86889893  1
  Al  Al156  1  0.86508985  0.24421664  0.36087286  1
  Al  Al157  1  0.86266236  0.24869560  0.86650825  1
  Al  Al158  1  0.86714150  0.75680935  0.36201793  1
  Al  Al159  1  0.86273422  0.75424497  0.86589896  1
  Al  Al160  1  0.13290310  0.13462862  0.25524546  1
  Al  Al161  1  0.13633956  0.13272923  0.74948290  1
  Al  Al162  1  0.13385419  0.63535414  0.24724492  1
  Al  Al163  1  0.13740523  0.63613163  0.75131215  1
  Al  Al164  1  0.63835731  0.12838388  0.24891191  1
  Al  Al165  1  0.62908840  0.13610239  0.74884130  1
  Al  Al166  1  0.62858120  0.63781394  0.24884870  1
  Al  Al167  1  0.63468653  0.63833827  0.75154514  1
  Al  Al168  1  0.36144403  0.12942363  0.25320413  1
  Al  Al169  1  0.36430130  0.13008774  0.74508083  1
  Al  Al170  1  0.36899344  0.63589750  0.24600917  1
  Al  Al171  1  0.36480179  0.63660291  0.75207202  1
  Al  Al172  1  0.86132614  0.12706428  0.25212471  1
  Al  Al173  1  0.86455913  0.13493535  0.74785305  1
  Al  Al174  1  0.86608825  0.63880079  0.24674340  1
  Al  Al175  1  0.86370316  0.63730194  0.75153270  1
  Al  Al176  1  0.13842227  0.36438074  0.24903509  1
  Al  Al177  1  0.13916918  0.36136800  0.75047305  1
  Al  Al178  1  0.13074108  0.86640805  0.25161784  1
  Al  Al179  1  0.13330721  0.86890984  0.75126088  1
  Al  Al180  1  0.63488255  0.36638497  0.25560717  1
  Al  Al181  1  0.63359806  0.36241722  0.74907383  1
  Al  Al182  1  0.63660573  0.87451610  0.24862340  1
  Al  Al183  1  0.62690031  0.86325805  0.75280208  1
  Al  Al184  1  0.36264026  0.36279697  0.25283800  1
  Al  Al185  1  0.36532256  0.36226905  0.74740457  1
  Al  Al186  1  0.36400771  0.87070772  0.24953931  1
  Al  Al187  1  0.36759799  0.86686533  0.75296947  1
  Al  Al188  1  0.86080080  0.36261266  0.25053657  1
  Al  Al189  1  0.85955953  0.36319890  0.75239762  1
  Al  Al190  1  0.86528298  0.87029319  0.25099617  1
  Al  Al191  1  0.86869856  0.86440419  0.74894296  1
  Al  Al192  1  0.32268864  0.17361736  -0.00001906  1
  Al  Al193  1  0.49886369  0.69164689  0.81817751  1
  Al  Al194  1  0.49903000  0.31751490  0.19109828  1
  Al  Al195  1  0.50052245  0.82424848  0.32254717  1
  Al  Al196  1  0.67369783  0.49937213  0.68021691  1
  Al  Al197  1  0.00322463  0.17054890  0.66930304  1
  Al  Al198  1  0.17733522  0.67860334  0.00051893  1
  Al  Al199  1  0.00122000  0.32449979  0.83161935  1
  Al  Al200  1  0.17436245  0.49819779  0.68127807  1
  Al  Al201  1  0.00187377  0.32771726  0.67308244  1
  Al  Al202  1  0.17476070  0.31844354  0.00120252  1
  Al  Al203  1  0.83224385  0.17635560  0.49765853  1
  Al  Al204  1  0.17757296  0.82435114  0.00148289  1
  Al  Al205  1  0.83150442  0.50039905  0.67177918  1
  Al  Al206  1  0.17458636  0.68657410  0.49963211  1
  Al  Al207  1  0.81133598  -0.00125813  0.67636475  1
  Al  Al208  1  0.00202699  0.68036436  0.67221871  1
  Al  Al209  1  0.49803513  0.32415854  0.82432768  1
  Al  Al210  1  0.82103764  0.50177744  0.82979521  1
  Al  Al211  1  0.67551163  0.68269886  0.50005922  1
  Al  Al212  1  -0.00144321  0.17031905  0.83087387  1
  Al  Al213  1  0.00160994  0.30973009  0.32660564  1
  Al  Al214  1  0.17860083  0.00079680  0.32361636  1
  Al  Al215  1  0.18596022  0.00111636  0.68147113  1
  Al  Al216  1  0.33113418  0.50024178  0.68572074  1
  Al  Al217  1  0.30967635  0.82703405  0.50123811  1
  Al  Al218  1  -0.00004874  0.68121334  0.82637053  1
  Al  Al219  1  -0.00267727  0.17226747  0.18778462  1
  Al  Al220  1  0.32673246  0.67112921  0.49966220  1
  Al  Al221  1  0.32527493  0.50020761  0.31483534  1
  Al  Al222  1  0.81993238  0.82801203  0.49696718  1
  Al  Al223  1  0.33104009  0.33142050  0.00050115  1
  Al  Al224  1  0.67088405  0.17687087  0.50037291  1
  Al  Al225  1  0.69577222  0.19080516  0.00242125  1
  Al  Al226  1  0.67196831  -0.00052971  0.81438243  1
  Al  Al227  1  -0.00010181  0.32561995  0.17165764  1
  Al  Al228  1  0.82177210  0.50150856  0.32874624  1
  Al  Al229  1  0.82863449  -0.00130912  0.83007404  1
  Al  Al230  1  0.82920616  0.67390784  0.49838045  1
  Al  Al231  1  0.00125068  0.68481744  0.32043732  1
  Al  Al232  1  0.82927904  0.50200588  0.16808330  1
  Al  Al233  1  0.17445184  0.50011668  0.31868183  1
  Al  Al234  1  0.81417317  0.67641743  0.00219028  1
  Al  Al235  1  0.81144733  0.83154529  0.00297374  1
  Al  Al236  1  0.80700830  0.30733678  0.00181539  1
  Al  Al237  1  0.49922243  0.18902654  0.31671626  1
  Al  Al238  1  0.67205747  0.50248889  0.17198920  1
  Au  Au239  1  0.67071738  0.83374623  0.49920568  1
  Au  Au240  1  0.00610543  0.17053496  0.65692393  1
  Au  Au241  1  0.32590946  0.50022877  0.66949055  1
  Au  Au242  1  0.50293257  0.83401924  0.16694668  1
  Au  Au243  1  0.15839931  0.17000508  0.00264278  1
  Au  Au244  1  0.16851667  0.83256958  0.00122520  1
  Au  Au245  1  0.50008975  0.83570840  0.32760881  1
  Au  Au246  1  0.50158396  0.66738691  0.67143134  1
  Au  Au247  1  0.33289870  0.66032160  -0.00190819  1
  Au  Au248  1  0.00366953  0.82973946  0.65973646  1
  Au  Au249  1  0.32358535  0.33356865  0.49624137  1
  Au  Au250  1  0.49899020  0.66624030  0.16492354  1
  Au  Au251  1  0.49794809  0.33460216  0.83741438  1
  Au  Au252  1  0.68070367  0.18276956  -0.00016557  1
  Au  Au253  1  -0.00101425  0.83111153  0.83316801  1
  Au  Au254  1  0.66739025  0.49766005  0.16141550  1
  Au  Au255  1  0.65885701  0.49647673  0.33687515  1
  Au  Au256  1  0.33489131  0.83739029  -0.00411074  1
  Au  Au257  1  0.50064156  0.17133098  0.17139705  1
  Au  Au258  1  0.00470365  0.32637060  0.32546919  1
  Au  Au259  1  -0.00102992  0.67854308  0.16107418  1
  Au  Au260  1  0.50275686  0.33087394  0.65790968  1
  Au  Au261  1  0.32605408  0.82291989  0.50223310  1
  Au  Au262  1  0.65958504  0.50276339  0.83141030  1
  Au  Au263  1  0.15896646  -0.00115495  0.17501757  1
  Au  Au264  1  0.00209519  0.67736617  0.33543439  1
  Au  Au265  1  0.83324463  0.50202951  0.33370646  1
  Au  Au266  1  0.49740516  0.66918364  0.33807120  1
  Au  Au267  1  0.67593935  -0.00205528  0.82673914  1
  Au  Au268  1  0.49731074  0.15893407  0.83362700  1
  Au  Au269  1  0.83176007  0.50188095  0.83603550  1
  Au  Au270  1  0.16825105  0.67041146  0.00089296  1
  Au  Au271  1  0.82783866  0.50061096  0.65950279  1
  Au  Au272  1  -0.00468419  0.15836032  0.83308618  1
  Au  Au273  1  0.83005409  0.16406726  0.49646444  1
  Au  Au274  1  0.83686542  0.49398396  0.17360974  1
  Au  Au275  1  0.33350041  -0.00102501  0.16589026  1
  Au  Au276  1  0.67461062  -0.00012738  0.17137883  1
  Au  Au277  1  0.49793419  0.15874850  0.66740659  1
  Au  Au278  1  0.32355882  0.16567312  0.50129874  1
  Au  Au279  1  0.00124990  0.33717112  0.82896451  1
  Au  Au280  1  0.49785985  0.83888284  0.67952776  1
  Au  Au281  1  0.66050566  0.17226828  0.49542833  1
  Au  Au282  1  0.32498465  0.34113055  0.00610170  1
  Au  Au283  1  0.32855420  0.00281304  0.33692553  1
  Au  Au284  1  0.17416454  0.49988220  0.83331604  1
  Au  Au285  1  0.33231334  0.16806938  -0.00580619  1
  Au  Au286  1  0.82795605  0.82954274  0.00588221  1
  Au  Au287  1  0.82775470  0.33057371  0.50005158  1
