# generated using pymatgen
data_Ca24Ti8Al207Au49
_symmetry_space_group_name_H-M   'P 1'
_cell_length_a   17.32600890
_cell_length_b   17.32341931
_cell_length_c   17.32317498
_cell_angle_alpha   90.00082316
_cell_angle_beta   89.99730436
_cell_angle_gamma   90.00033947
_symmetry_Int_Tables_number   1
_chemical_formula_structural   Ca24Ti8Al207Au49
_chemical_formula_sum   'Ca24 Ti8 Al207 Au49'
_cell_volume   5199.47677330
_cell_formula_units_Z   1
loop_
 _symmetry_equiv_pos_site_id
 _symmetry_equiv_pos_as_xyz
  1  'x, y, z'
loop_
 _atom_site_type_symbol
 _atom_site_label
 _atom_site_symmetry_multiplicity
 _atom_site_fract_x
 _atom_site_fract_y
 _atom_site_fract_z
 _atom_site_occupancy
  Ca  Ca0  1  0.25763221  -0.00116071  -0.00288050  1
  Ca  Ca1  1  0.24908826  -0.00212126  0.50016198  1
  Ca  Ca2  1  0.25175702  0.50131465  0.00433439  1
  Ca  Ca3  1  0.25121693  0.49948206  0.49557984  1
  Ca  Ca4  1  0.74647926  0.00256124  -0.00255628  1
  Ca  Ca5  1  0.75180402  0.00374076  0.50274445  1
  Ca  Ca6  1  0.74728761  0.49892554  -0.00124615  1
  Ca  Ca7  1  0.74833700  0.49603592  0.50000855  1
  Ca  Ca8  1  -0.00139063  0.24859103  0.00114754  1
  Ca  Ca9  1  -0.00107636  0.24797336  0.49989664  1
  Ca  Ca10  1  -0.00140771  0.74753699  -0.00187090  1
  Ca  Ca11  1  0.00170298  0.75396948  0.50259750  1
  Ca  Ca12  1  0.50498554  0.25134645  0.00409646  1
  Ca  Ca13  1  0.50039757  0.25049651  0.49693202  1
  Ca  Ca14  1  0.50252179  0.75023979  -0.00355680  1
  Ca  Ca15  1  0.49750241  0.75350807  0.50449840  1
  Ca  Ca16  1  0.00017001  0.00499379  0.25866209  1
  Ca  Ca17  1  -0.00243623  0.00508087  0.74290816  1
  Ca  Ca18  1  0.00065184  0.49488074  0.25312403  1
  Ca  Ca19  1  -0.00229677  0.49976191  0.74688585  1
  Ca  Ca20  1  0.50067999  0.00224887  0.25446308  1
  Ca  Ca21  1  0.50140967  -0.00524781  0.74876666  1
  Ca  Ca22  1  0.49777841  0.49838625  0.25290158  1
  Ca  Ca23  1  0.49967735  0.50447874  0.74895311  1
  Ti  Ti24  1  0.24991758  0.24946830  0.25320453  1
  Ti  Ti25  1  0.24898479  0.24735337  0.74619336  1
  Ti  Ti26  1  0.25335725  0.75019343  0.25359186  1
  Ti  Ti27  1  0.25092365  0.75170142  0.74710129  1
  Ti  Ti28  1  0.74951501  0.24948944  0.25071582  1
  Ti  Ti29  1  0.74892486  0.24886162  0.74940536  1
  Ti  Ti30  1  0.74611672  0.75050580  0.25332232  1
  Ti  Ti31  1  0.74954795  0.75162056  0.74674125  1
  Al  Al32  1  0.07768378  0.08182748  0.08768864  1
  Al  Al33  1  0.08086526  0.09209671  0.58274396  1
  Al  Al34  1  0.08010034  0.57878842  0.08487154  1
  Al  Al35  1  0.08270541  0.58715457  0.58343028  1
  Al  Al36  1  0.57768947  0.09369926  0.09218143  1
  Al  Al37  1  0.59256156  0.08335868  0.57376801  1
  Al  Al38  1  0.58905655  0.57297601  0.08514003  1
  Al  Al39  1  0.57474772  0.59157449  0.59161939  1
  Al  Al40  1  0.42562915  0.41552855  0.10063196  1
  Al  Al41  1  0.42615845  0.41954725  0.57092575  1
  Al  Al42  1  0.42423218  0.92044134  0.07856293  1
  Al  Al43  1  0.40970161  0.90515576  0.58815254  1
  Al  Al44  1  0.91027654  0.40882994  0.07891009  1
  Al  Al45  1  0.91386540  0.40541288  0.57807883  1
  Al  Al46  1  0.92351100  0.92561326  0.07385912  1
  Al  Al47  1  0.91542476  0.92015531  0.59714863  1
  Al  Al48  1  0.42586332  0.08565685  0.41456501  1
  Al  Al49  1  0.42073554  0.07936444  0.91766890  1
  Al  Al50  1  0.40443497  0.58488106  0.41772962  1
  Al  Al51  1  0.42768742  0.59217067  0.91087368  1
  Al  Al52  1  0.91880408  0.09741343  0.42550203  1
  Al  Al53  1  0.91176113  0.08717233  0.89743713  1
  Al  Al54  1  0.91897165  0.57238227  0.42429319  1
  Al  Al55  1  0.91699865  0.57984002  0.92099721  1
  Al  Al56  1  0.08353338  0.41391932  0.41119291  1
  Al  Al57  1  0.07133199  0.42213157  0.91368126  1
  Al  Al58  1  0.08243449  0.92319987  0.42433379  1
  Al  Al59  1  0.07603135  0.92146719  0.91376315  1
  Al  Al60  1  0.58020441  0.40840049  0.41725320  1
  Al  Al61  1  0.58592221  0.42081865  0.92065368  1
  Al  Al62  1  0.57259038  0.91422075  0.41407623  1
  Al  Al63  1  0.58245840  0.90896412  0.91028239  1
  Al  Al64  1  0.08357484  0.09304182  0.41895190  1
  Al  Al65  1  0.07098524  0.08732589  0.90423021  1
  Al  Al66  1  0.09165973  0.57577546  0.41911682  1
  Al  Al67  1  0.07554130  0.57935718  0.91961684  1
  Al  Al68  1  0.58569623  0.09823494  0.41340666  1
  Al  Al69  1  0.57962711  0.07809053  0.91733618  1
  Al  Al70  1  0.57779975  0.57997995  0.42358374  1
  Al  Al71  1  0.58353760  0.58831981  0.90811831  1
  Al  Al72  1  0.41374605  0.41877537  0.40792567  1
  Al  Al73  1  0.42834720  0.42135324  0.92020246  1
  Al  Al74  1  0.41245287  0.90454921  0.42233619  1
  Al  Al75  1  0.42291668  0.90896064  0.90550068  1
  Al  Al76  1  0.91269056  0.40355076  0.41816625  1
  Al  Al77  1  0.91034473  0.40656961  0.92026158  1
  Al  Al78  1  0.92352764  0.92446193  0.42862891  1
  Al  Al79  1  0.91267655  0.92582437  0.90281830  1
  Al  Al80  1  0.07439412  0.42276656  0.08913348  1
  Al  Al81  1  0.07862747  0.41347994  0.58214690  1
  Al  Al82  1  0.08269904  0.92485386  0.07904093  1
  Al  Al83  1  0.07835362  0.91341508  0.58717756  1
  Al  Al84  1  0.58695739  0.41205628  0.09749802  1
  Al  Al85  1  0.58591845  0.41244202  0.57837921  1
  Al  Al86  1  0.58190981  0.91565034  0.07607495  1
  Al  Al87  1  0.57466749  0.91388262  0.58987748  1
  Al  Al88  1  0.42333595  0.09151473  0.08823404  1
  Al  Al89  1  0.40912713  0.06775297  0.58417812  1
  Al  Al90  1  0.41661965  0.57335844  0.08414080  1
  Al  Al91  1  0.41489772  0.60332392  0.58077483  1
  Al  Al92  1  0.92184901  0.08722162  0.07894559  1
  Al  Al93  1  0.91159633  0.09052562  0.59014277  1
  Al  Al94  1  0.91904273  0.57945438  0.07758708  1
  Al  Al95  1  0.92259045  0.58455256  0.58392516  1
  Al  Al96  1  0.24779409  0.13987748  0.14048031  1
  Al  Al97  1  0.24797756  0.12925693  0.63297056  1
  Al  Al98  1  0.25512060  0.63779284  0.13326465  1
  Al  Al99  1  0.25549848  0.64034586  0.62866381  1
  Al  Al100  1  0.74604463  0.13783430  0.13498893  1
  Al  Al101  1  0.75498815  0.12922533  0.63485892  1
  Al  Al102  1  0.74214185  0.63529886  0.13586359  1
  Al  Al103  1  0.74871102  0.63594054  0.63030896  1
  Al  Al104  1  0.24955927  0.36163267  0.13887606  1
  Al  Al105  1  0.24573638  0.36401095  0.63443635  1
  Al  Al106  1  0.25149227  0.86353866  0.13905069  1
  Al  Al107  1  0.25475272  0.86738141  0.62932648  1
  Al  Al108  1  0.74850945  0.36273530  0.13242378  1
  Al  Al109  1  0.75437447  0.36368284  0.63056993  1
  Al  Al110  1  0.74371044  0.86422943  0.13780876  1
  Al  Al111  1  0.75062401  0.86663605  0.62959291  1
  Al  Al112  1  0.24774427  0.13530317  0.36598661  1
  Al  Al113  1  0.25355154  0.13246549  0.85879932  1
  Al  Al114  1  0.25575542  0.63730555  0.37235500  1
  Al  Al115  1  0.24974160  0.63930791  0.86242218  1
  Al  Al116  1  0.74812801  0.13500846  0.36826275  1
  Al  Al117  1  0.75325382  0.12783525  0.86261081  1
  Al  Al118  1  0.74527918  0.63626957  0.37044378  1
  Al  Al119  1  0.74525121  0.63773074  0.86067129  1
  Al  Al120  1  0.25059136  0.36327945  0.36402259  1
  Al  Al121  1  0.24417129  0.36345759  0.86145229  1
  Al  Al122  1  0.25281446  0.86425828  0.37194523  1
  Al  Al123  1  0.25405315  0.86841438  0.85800227  1
  Al  Al124  1  0.74905974  0.36126759  0.36544036  1
  Al  Al125  1  0.74938620  0.36330527  0.87026557  1
  Al  Al126  1  0.74453691  0.86840079  0.37082324  1
  Al  Al127  1  0.74930076  0.86868179  0.85771883  1
  Al  Al128  1  0.12748747  0.25004945  0.13993408  1
  Al  Al129  1  0.13582782  0.24477167  0.62644291  1
  Al  Al130  1  0.13711765  0.74692420  0.13647803  1
  Al  Al131  1  0.13999595  0.75312422  0.62669617  1
  Al  Al132  1  0.63169745  0.25106100  0.13439373  1
  Al  Al133  1  0.63881237  0.24362563  0.63255722  1
  Al  Al134  1  0.62756208  0.75091010  0.13864027  1
  Al  Al135  1  0.63255884  0.75278396  0.63184300  1
  Al  Al136  1  0.13552111  0.24878046  0.37328013  1
  Al  Al137  1  0.13190460  0.24213832  0.86041285  1
  Al  Al138  1  0.14023332  0.75049731  0.37346308  1
  Al  Al139  1  0.13600936  0.75436256  0.86224401  1
  Al  Al140  1  0.63289758  0.24618151  0.36358780  1
  Al  Al141  1  0.63956873  0.24971779  0.87120203  1
  Al  Al142  1  0.63217722  0.75214516  0.37025620  1
  Al  Al143  1  0.63030876  0.75007793  0.85942425  1
  Al  Al144  1  0.37035787  0.25018059  0.14147169  1
  Al  Al145  1  0.36110332  0.24995467  0.63416447  1
  Al  Al146  1  0.37153492  0.74992455  0.13891767  1
  Al  Al147  1  0.36963598  0.75271653  0.63558644  1
  Al  Al148  1  0.86677690  0.25023445  0.13476405  1
  Al  Al149  1  0.86234408  0.24418215  0.62988609  1
  Al  Al150  1  0.85920525  0.74745452  0.13851656  1
  Al  Al151  1  0.86447928  0.75433390  0.63077273  1
  Al  Al152  1  0.36828315  0.24513036  0.36560835  1
  Al  Al153  1  0.36344164  0.25134078  0.86243063  1
  Al  Al154  1  0.36615194  0.75397987  0.37302158  1
  Al  Al155  1  0.36958781  0.74976716  0.86010148  1
  Al  Al156  1  0.86097041  0.24871190  0.37278946  1
  Al  Al157  1  0.86241285  0.24802546  0.86346428  1
  Al  Al158  1  0.85937738  0.75235446  0.37209691  1
  Al  Al159  1  0.86158735  0.75181650  0.85986908  1
  Al  Al160  1  0.12844900  0.13885661  0.25546547  1
  Al  Al161  1  0.13003863  0.13356106  0.74310358  1
  Al  Al162  1  0.13998135  0.63712207  0.25446821  1
  Al  Al163  1  0.13757356  0.63968181  0.74556930  1
  Al  Al164  1  0.63295919  0.13412600  0.25084322  1
  Al  Al165  1  0.63821672  0.13192694  0.75041043  1
  Al  Al166  1  0.63181671  0.63423716  0.24950962  1
  Al  Al167  1  0.62953811  0.63955546  0.74503699  1
  Al  Al168  1  0.36995289  0.13683880  0.25114238  1
  Al  Al169  1  0.36359434  0.12870360  0.74615941  1
  Al  Al170  1  0.36547126  0.63474268  0.25507919  1
  Al  Al171  1  0.36996139  0.63747544  0.74548825  1
  Al  Al172  1  0.86938958  0.13916333  0.25495686  1
  Al  Al173  1  0.86777299  0.13552708  0.74732341  1
  Al  Al174  1  0.85855416  0.63636356  0.25304452  1
  Al  Al175  1  0.86284539  0.63792893  0.74497431  1
  Al  Al176  1  0.13422030  0.36403096  0.25219545  1
  Al  Al177  1  0.13347897  0.36131981  0.74847831  1
  Al  Al178  1  0.13882410  0.86211368  0.25267285  1
  Al  Al179  1  0.13665627  0.86776776  0.74057968  1
  Al  Al180  1  0.63424730  0.36387796  0.24642528  1
  Al  Al181  1  0.63897086  0.36087971  0.74897840  1
  Al  Al182  1  0.62918202  0.86619243  0.25334629  1
  Al  Al183  1  0.63036537  0.86405942  0.74730323  1
  Al  Al184  1  0.36722576  0.36355231  0.25289147  1
  Al  Al185  1  0.36432759  0.36515515  0.75157190  1
  Al  Al186  1  0.37396755  0.86164310  0.25437435  1
  Al  Al187  1  0.36897539  0.86645650  0.74629449  1
  Al  Al188  1  0.86208121  0.36251841  0.24964192  1
  Al  Al189  1  0.86286377  0.35985082  0.74871114  1
  Al  Al190  1  0.86027210  0.86560550  0.25299892  1
  Al  Al191  1  0.86423085  0.86977326  0.74451287  1
  Al  Al192  1  0.32964384  0.82706343  -0.00120495  1
  Al  Al193  1  0.32844002  0.50010047  0.66819210  1
  Al  Al194  1  0.49805667  0.68155916  0.32550507  1
  Al  Al195  1  0.68259146  0.31217756  0.49837809  1
  Al  Al196  1  -0.00153784  0.31004754  0.32148776  1
  Al  Al197  1  0.67374152  0.81518873  -0.00235856  1
  Al  Al198  1  0.31957560  0.32484620  0.49869391  1
  Al  Al199  1  0.16963550  0.16964288  -0.00169089  1
  Al  Al200  1  0.31851170  0.49879092  0.19073881  1
  Al  Al201  1  0.31881473  0.50060974  0.83158059  1
  Al  Al202  1  0.50023316  0.32519410  0.67853017  1
  Al  Al203  1  -0.00312261  0.82166269  0.17048179  1
  Al  Al204  1  0.50059338  0.18174734  0.82529841  1
  Al  Al205  1  0.00177137  0.68996232  0.67415573  1
  Al  Al206  1  0.50057460  0.31473018  0.31549962  1
  Al  Al207  1  0.31971790  0.16887765  0.50018800  1
  Al  Al208  1  0.33241572  0.32908366  0.00347725  1
  Al  Al209  1  0.00024781  0.82877957  0.80483980  1
  Al  Al210  1  -0.00117107  0.30926636  0.67199852  1
  Al  Al211  1  -0.00257569  0.67152847  0.17536573  1
  Al  Al212  1  0.49750545  0.17347700  0.66810396  1
  Al  Al213  1  0.17178156  0.50031586  0.67613291  1
  Al  Al214  1  0.81779976  0.67380689  -0.00052667  1
  Al  Al215  1  0.32713091  0.17333517  0.00035335  1
  Al  Al216  1  0.82216986  0.18163573  -0.00177208  1
  Al  Al217  1  0.17148262  0.82495931  -0.00124750  1
  Al  Al218  1  0.32956076  -0.00160312  0.32969602  1
  Al  Al219  1  0.82469601  0.49790171  0.32636273  1
  Al  Al220  1  0.67473402  0.50026915  0.81821624  1
  Al  Al221  1  0.81730406  0.00052232  0.17020728  1
  Al  Al222  1  0.32732269  0.67179950  -0.00106096  1
  Al  Al223  1  -0.00203526  0.67307416  0.82563413  1
  Al  Al224  1  0.83236618  0.82526283  -0.00113041  1
  Al  Al225  1  -0.00183762  0.31338532  0.82344158  1
  Al  Al226  1  0.82250770  0.49770437  0.67262813  1
  Al  Al227  1  0.17371880  0.00087522  0.32692145  1
  Al  Al228  1  -0.00104968  0.67382629  0.33390212  1
  Al  Al229  1  0.82598306  0.00390236  0.33542574  1
  Al  Al230  1  0.66903588  0.49876005  0.31560384  1
  Al  Al231  1  0.16822924  0.32857875  0.00011812  1
  Al  Al232  1  0.32170892  0.00144947  0.16988619  1
  Al  Al233  1  0.81282668  0.50123862  0.16892841  1
  Al  Al234  1  0.67687038  -0.00203112  0.67995988  1
  Al  Al235  1  0.19188989  0.50060686  0.31953185  1
  Al  Al236  1  0.17464952  0.00406058  0.81807299  1
  Al  Al237  1  0.00044737  0.82709028  0.32874554  1
  Al  Al238  1  0.82687453  0.49963741  0.82868594  1
  Au  Au239  1  0.33966225  -0.00145017  0.82270277  1
  Au  Au240  1  0.83456426  0.49791441  0.66856557  1
  Au  Au241  1  0.50616837  0.33210161  0.82891608  1
  Au  Au242  1  0.50152848  0.15749629  0.66823244  1
  Au  Au243  1  -0.00021765  0.65801236  0.32773503  1
  Au  Au244  1  -0.00115632  0.16743208  0.18136438  1
  Au  Au245  1  0.33458449  0.50140151  0.65586730  1
  Au  Au246  1  0.82361407  0.83913827  -0.00595666  1
  Au  Au247  1  0.50102867  0.83396416  0.17246242  1
  Au  Au248  1  0.17729373  0.84126535  -0.00205960  1
  Au  Au249  1  -0.00148210  0.32575425  0.82700134  1
  Au  Au250  1  0.34836397  0.32629227  0.00807550  1
  Au  Au251  1  0.66147078  0.00082497  0.33560738  1
  Au  Au252  1  0.66537784  0.66742925  0.50422859  1
  Au  Au253  1  0.65850458  0.49964631  0.67127727  1
  Au  Au254  1  0.65984228  0.83341888  0.49982108  1
  Au  Au255  1  0.67484557  -0.00160758  0.83451273  1
  Au  Au256  1  0.66734813  0.66478487  -0.00023673  1
  Au  Au257  1  0.17938723  0.66418603  0.50087365  1
  Au  Au258  1  0.65984779  -0.00054888  0.16690436  1
  Au  Au259  1  0.16131256  0.00163056  0.17975212  1
  Au  Au260  1  0.66839392  0.49783838  0.33265611  1
  Au  Au261  1  0.67831620  -0.00045071  0.66748160  1
  Au  Au262  1  -0.00397787  0.33184926  0.17433267  1
  Au  Au263  1  0.49606051  0.67584407  0.34114954  1
  Au  Au264  1  0.16478077  0.34504397  -0.00021677  1
  Au  Au265  1  0.50195902  0.66109392  0.16541567  1
  Au  Au266  1  0.17015943  0.00157208  0.66147995  1
  Au  Au267  1  0.16854985  0.32956934  0.50009688  1
  Au  Au268  1  -0.00283870  0.82662659  0.82160424  1
  Au  Au269  1  0.83190100  0.66578692  0.49908246  1
  Au  Au270  1  0.33974055  0.67449515  0.00072072  1
  Au  Au271  1  0.17378894  0.83352805  0.50031891  1
  Au  Au272  1  0.66185349  0.17013193  -0.00028537  1
  Au  Au273  1  0.16623060  0.00187100  0.82709678  1
  Au  Au274  1  0.15822050  0.50425337  0.82378959  1
  Au  Au275  1  0.00197482  0.83781108  0.17320401  1
  Au  Au276  1  0.83749724  0.17458551  -0.00341825  1
  Au  Au277  1  0.83590547  0.83552812  0.50403586  1
  Au  Au278  1  0.17294680  0.15307124  -0.00359532  1
  Au  Au279  1  0.33755778  0.00168788  0.17451073  1
  Au  Au280  1  0.82967904  0.50089888  0.16731290  1
  Au  Au281  1  0.67423218  0.33896852  0.00381405  1
  Au  Au282  1  0.17161757  0.50271518  0.17422932  1
  Au  Au283  1  0.33192024  0.16508864  0.49978189  1
  Au  Au284  1  0.83449346  0.00338624  0.16680105  1
  Au  Au285  1  0.33563528  0.50264023  0.83372430  1
  Au  Au286  1  0.83814975  0.00648662  0.33526872  1
  Au  Au287  1  0.16353970  0.66356288  -0.00132438  1
