# generated using pymatgen
data_Ca24Ti8Al207Au49
_symmetry_space_group_name_H-M   'P 1'
_cell_length_a   17.32047859
_cell_length_b   17.31893053
_cell_length_c   17.32161064
_cell_angle_alpha   89.99629139
_cell_angle_beta   89.99886677
_cell_angle_gamma   89.99648504
_symmetry_Int_Tables_number   1
_chemical_formula_structural   Ca24Ti8Al207Au49
_chemical_formula_sum   'Ca24 Ti8 Al207 Au49'
_cell_volume   5196.00103061
_cell_formula_units_Z   1
loop_
 _symmetry_equiv_pos_site_id
 _symmetry_equiv_pos_as_xyz
  1  'x, y, z'
loop_
 _atom_site_type_symbol
 _atom_site_label
 _atom_site_symmetry_multiplicity
 _atom_site_fract_x
 _atom_site_fract_y
 _atom_site_fract_z
 _atom_site_occupancy
  Ca  Ca0  1  0.24841751  0.00020777  0.00305707  1
  Ca  Ca1  1  0.25131797  0.00238931  0.49411959  1
  Ca  Ca2  1  0.25121970  0.49830815  -0.00043550  1
  Ca  Ca3  1  0.25306362  0.49906228  0.49801746  1
  Ca  Ca4  1  0.75948915  -0.00535103  0.00106513  1
  Ca  Ca5  1  0.75590640  -0.00078492  0.50116791  1
  Ca  Ca6  1  0.75464015  0.50336653  0.00431746  1
  Ca  Ca7  1  0.75539533  0.50261705  0.49558887  1
  Ca  Ca8  1  0.00014659  0.25096370  0.00145752  1
  Ca  Ca9  1  0.00081434  0.24474107  0.49728332  1
  Ca  Ca10  1  0.00055325  0.75183490  0.00070548  1
  Ca  Ca11  1  -0.00289799  0.75210538  0.49896068  1
  Ca  Ca12  1  0.49798817  0.25269990  -0.00042943  1
  Ca  Ca13  1  0.49734232  0.24679194  0.50138918  1
  Ca  Ca14  1  0.49839698  0.75201527  0.00697240  1
  Ca  Ca15  1  0.49986879  0.75497790  0.49287849  1
  Ca  Ca16  1  0.00565003  -0.00148139  0.25423271  1
  Ca  Ca17  1  -0.00369500  0.00210293  0.74757292  1
  Ca  Ca18  1  -0.00311689  0.50336127  0.24727846  1
  Ca  Ca19  1  0.00344206  0.50104948  0.74736767  1
  Ca  Ca20  1  0.49874779  -0.00246021  0.25281693  1
  Ca  Ca21  1  0.50027609  0.00503746  0.74340676  1
  Ca  Ca22  1  0.49998875  0.50363861  0.24657902  1
  Ca  Ca23  1  0.49765267  0.49313743  0.74730970  1
  Ti  Ti24  1  0.24902506  0.24929568  0.25152527  1
  Ti  Ti25  1  0.24972105  0.25108100  0.74905832  1
  Ti  Ti26  1  0.24960348  0.75177100  0.25056075  1
  Ti  Ti27  1  0.24763327  0.74914488  0.75036087  1
  Ti  Ti28  1  0.75111781  0.25002315  0.25098650  1
  Ti  Ti29  1  0.75098183  0.24933178  0.74916189  1
  Ti  Ti30  1  0.75001372  0.74998930  0.25070589  1
  Ti  Ti31  1  0.75365775  0.75389115  0.74848026  1
  Al  Al32  1  0.08590548  0.07914949  0.08750289  1
  Al  Al33  1  0.08047692  0.08954805  0.58572693  1
  Al  Al34  1  0.07164191  0.58813800  0.08788323  1
  Al  Al35  1  0.07602548  0.58034456  0.58100862  1
  Al  Al36  1  0.57723043  0.08279458  0.07170768  1
  Al  Al37  1  0.57777385  0.09249340  0.58164065  1
  Al  Al38  1  0.58223186  0.58928761  0.09263573  1
  Al  Al39  1  0.58381933  0.58528835  0.56892503  1
  Al  Al40  1  0.41437742  0.41839228  0.07845094  1
  Al  Al41  1  0.41307313  0.39701597  0.58522226  1
  Al  Al42  1  0.40839220  0.91310570  0.09249888  1
  Al  Al43  1  0.41939331  0.92436324  0.57225143  1
  Al  Al44  1  0.90993009  0.42379365  0.08952223  1
  Al  Al45  1  0.91946155  0.41530330  0.58057316  1
  Al  Al46  1  0.91641554  0.90452721  0.07578880  1
  Al  Al47  1  0.91305604  0.91198959  0.57943899  1
  Al  Al48  1  0.41062211  0.09080479  0.41282393  1
  Al  Al49  1  0.42271907  0.09131548  0.92075807  1
  Al  Al50  1  0.42143164  0.59177425  0.41181455  1
  Al  Al51  1  0.41507150  0.57429832  0.92769083  1
  Al  Al52  1  0.91102351  0.08048004  0.42050110  1
  Al  Al53  1  0.91198315  0.07995209  0.90363971  1
  Al  Al54  1  0.91086254  0.58935366  0.41786809  1
  Al  Al55  1  0.92235646  0.59707332  0.92018725  1
  Al  Al56  1  0.08385810  0.41351412  0.41933997  1
  Al  Al57  1  0.08619561  0.41208557  0.91836775  1
  Al  Al58  1  0.08644923  0.92070361  0.41568563  1
  Al  Al59  1  0.07231687  0.90623240  0.91698977  1
  Al  Al60  1  0.57871479  0.42109810  0.42207378  1
  Al  Al61  1  0.58008100  0.40160135  0.92476435  1
  Al  Al62  1  0.58049859  0.90493535  0.41272331  1
  Al  Al63  1  0.59023508  0.91493128  0.92888649  1
  Al  Al64  1  0.08923951  0.08103833  0.41859473  1
  Al  Al65  1  0.07071437  0.08988442  0.91540330  1
  Al  Al66  1  0.07553820  0.58117158  0.41776019  1
  Al  Al67  1  0.07765763  0.59185174  0.91202392  1
  Al  Al68  1  0.57494842  0.09103288  0.41856297  1
  Al  Al69  1  0.58064250  0.08982834  0.91426595  1
  Al  Al70  1  0.58172344  0.59378617  0.41126690  1
  Al  Al71  1  0.57983749  0.57817591  0.93385673  1
  Al  Al72  1  0.40946682  0.40906023  0.42453515  1
  Al  Al73  1  0.41371270  0.40680906  0.92001387  1
  Al  Al74  1  0.41704375  0.91974478  0.40747974  1
  Al  Al75  1  0.41314470  0.91164395  0.93251443  1
  Al  Al76  1  0.91649590  0.41810050  0.41839811  1
  Al  Al77  1  0.92279334  0.41232469  0.92396516  1
  Al  Al78  1  0.90797419  0.91625532  0.41625834  1
  Al  Al79  1  0.91025534  0.90785219  0.91043232  1
  Al  Al80  1  0.08246337  0.41437974  0.07495361  1
  Al  Al81  1  0.08500590  0.41263821  0.58214334  1
  Al  Al82  1  0.08357287  0.91413374  0.08816447  1
  Al  Al83  1  0.07999878  0.92114041  0.57956572  1
  Al  Al84  1  0.58681319  0.41439226  0.08065245  1
  Al  Al85  1  0.57245162  0.40522591  0.58755080  1
  Al  Al86  1  0.57724379  0.90301812  0.08301814  1
  Al  Al87  1  0.58903780  0.91319022  0.57004171  1
  Al  Al88  1  0.40787227  0.07688815  0.08683622  1
  Al  Al89  1  0.41405778  0.10033805  0.57902238  1
  Al  Al90  1  0.42020495  0.58780416  0.08935446  1
  Al  Al91  1  0.41701449  0.57834564  0.57428306  1
  Al  Al92  1  0.92623498  0.07754717  0.07604457  1
  Al  Al93  1  0.91688754  0.09421464  0.58423983  1
  Al  Al94  1  0.91140847  0.58874909  0.09205157  1
  Al  Al95  1  0.91198199  0.59128591  0.57846384  1
  Al  Al96  1  0.25225523  0.12683670  0.13934856  1
  Al  Al97  1  0.25245901  0.13895150  0.63391267  1
  Al  Al98  1  0.25116818  0.63673940  0.13827694  1
  Al  Al99  1  0.24828828  0.63576181  0.63610596  1
  Al  Al100  1  0.74796825  0.13541855  0.13691574  1
  Al  Al101  1  0.75546495  0.13518381  0.63384588  1
  Al  Al102  1  0.75097851  0.63153704  0.13713471  1
  Al  Al103  1  0.75570570  0.63956560  0.63360245  1
  Al  Al104  1  0.25137826  0.36507286  0.13542082  1
  Al  Al105  1  0.25195411  0.36210342  0.62778477  1
  Al  Al106  1  0.25426065  0.87166458  0.13837483  1
  Al  Al107  1  0.25014970  0.86444434  0.63679071  1
  Al  Al108  1  0.74941782  0.36730028  0.13369760  1
  Al  Al109  1  0.75228589  0.36019040  0.63640859  1
  Al  Al110  1  0.75038570  0.86277676  0.13417670  1
  Al  Al111  1  0.75416694  0.86846925  0.63585761  1
  Al  Al112  1  0.25161043  0.13470945  0.36726638  1
  Al  Al113  1  0.25403856  0.13533486  0.86235818  1
  Al  Al114  1  0.24912458  0.63294853  0.36052658  1
  Al  Al115  1  0.25034973  0.63248932  0.86531223  1
  Al  Al116  1  0.75522582  0.13357700  0.36708117  1
  Al  Al117  1  0.75400718  0.13398357  0.86095731  1
  Al  Al118  1  0.75320887  0.63679426  0.36387480  1
  Al  Al119  1  0.75235848  0.63996526  0.86491177  1
  Al  Al120  1  0.25201538  0.36305475  0.37174348  1
  Al  Al121  1  0.25274130  0.36792986  0.86180188  1
  Al  Al122  1  0.25009395  0.86762536  0.36260724  1
  Al  Al123  1  0.24930577  0.86688356  0.86367064  1
  Al  Al124  1  0.75161565  0.36434470  0.36646493  1
  Al  Al125  1  0.74942309  0.35990262  0.87055983  1
  Al  Al126  1  0.74915775  0.86531325  0.36435290  1
  Al  Al127  1  0.75814230  0.86742767  0.86534560  1
  Al  Al128  1  0.13770774  0.24668272  0.13860110  1
  Al  Al129  1  0.13091481  0.24974191  0.63489807  1
  Al  Al130  1  0.13725126  0.75338031  0.13722518  1
  Al  Al131  1  0.12791681  0.75044813  0.63626109  1
  Al  Al132  1  0.63505443  0.25122443  0.13620373  1
  Al  Al133  1  0.63148236  0.24822953  0.63568004  1
  Al  Al134  1  0.62997542  0.75126485  0.14031572  1
  Al  Al135  1  0.63502600  0.75447489  0.63199241  1
  Al  Al136  1  0.12997139  0.24914906  0.36361100  1
  Al  Al137  1  0.13286845  0.24411815  0.86440491  1
  Al  Al138  1  0.12883644  0.75323255  0.36236461  1
  Al  Al139  1  0.13220621  0.75004297  0.86549121  1
  Al  Al140  1  0.63520186  0.24751888  0.36503768  1
  Al  Al141  1  0.63410211  0.25086731  0.86365086  1
  Al  Al142  1  0.63509957  0.75469471  0.36615320  1
  Al  Al143  1  0.64081778  0.75949334  0.86728356  1
  Al  Al144  1  0.36333109  0.25152473  0.13563738  1
  Al  Al145  1  0.36773395  0.24917207  0.63314738  1
  Al  Al146  1  0.36862353  0.75358595  0.13572147  1
  Al  Al147  1  0.36482836  0.75066867  0.63550286  1
  Al  Al148  1  0.86452415  0.25139254  0.13467652  1
  Al  Al149  1  0.87285432  0.24510703  0.63244813  1
  Al  Al150  1  0.86502062  0.75061858  0.13641661  1
  Al  Al151  1  0.87293642  0.75240731  0.63621868  1
  Al  Al152  1  0.36419370  0.24541875  0.36991322  1
  Al  Al153  1  0.36521178  0.25392218  0.86606915  1
  Al  Al154  1  0.36590408  0.75584997  0.36246737  1
  Al  Al155  1  0.36285944  0.75544973  0.86804574  1
  Al  Al156  1  0.87120336  0.24715395  0.36728477  1
  Al  Al157  1  0.87004916  0.24301437  0.86441984  1
  Al  Al158  1  0.87072830  0.74824230  0.36476119  1
  Al  Al159  1  0.86998969  0.75511461  0.86493670  1
  Al  Al160  1  0.13895925  0.12689014  0.25417439  1
  Al  Al161  1  0.13284644  0.13567752  0.74719368  1
  Al  Al162  1  0.12716276  0.63704051  0.24944830  1
  Al  Al163  1  0.12767218  0.63599023  0.75153056  1
  Al  Al164  1  0.63458455  0.13359975  0.25650257  1
  Al  Al165  1  0.63453604  0.13555998  0.74539453  1
  Al  Al166  1  0.63582550  0.63482648  0.24913850  1
  Al  Al167  1  0.63932679  0.64217964  0.74773429  1
  Al  Al168  1  0.36694520  0.13677800  0.25245736  1
  Al  Al169  1  0.36642075  0.13556488  0.74488712  1
  Al  Al170  1  0.36668462  0.63777630  0.25086394  1
  Al  Al171  1  0.36237429  0.63001191  0.74988058  1
  Al  Al172  1  0.86474231  0.13117123  0.25650736  1
  Al  Al173  1  0.86750971  0.13247141  0.74648462  1
  Al  Al174  1  0.87094677  0.63804672  0.24597354  1
  Al  Al175  1  0.87162573  0.64238312  0.75225376  1
  Al  Al176  1  0.13886782  0.36975712  0.25469596  1
  Al  Al177  1  0.13574874  0.36492523  0.75197583  1
  Al  Al178  1  0.13703906  0.87216142  0.25039339  1
  Al  Al179  1  0.12820726  0.86227361  0.75151015  1
  Al  Al180  1  0.63546945  0.36557005  0.25068728  1
  Al  Al181  1  0.62876271  0.36066033  0.74850028  1
  Al  Al182  1  0.62944791  0.86639251  0.25014289  1
  Al  Al183  1  0.63423680  0.86554414  0.74854006  1
  Al  Al184  1  0.36240691  0.36336045  0.25610610  1
  Al  Al185  1  0.36870142  0.36429631  0.74634345  1
  Al  Al186  1  0.37129668  0.86595407  0.24862408  1
  Al  Al187  1  0.36557342  0.86588719  0.74668672  1
  Al  Al188  1  0.86375935  0.36417420  0.24974806  1
  Al  Al189  1  0.86570782  0.36154582  0.75327030  1
  Al  Al190  1  0.86371625  0.86437536  0.25538015  1
  Al  Al191  1  0.87039405  0.86898541  0.74996224  1
  Al  Al192  1  0.19225143  0.31615712  -0.00116524  1
  Al  Al193  1  0.32310201  0.68105676  0.49760034  1
  Al  Al194  1  0.00163556  0.31945866  0.81774684  1
  Al  Al195  1  0.50152030  0.16864359  0.18472262  1
  Al  Al196  1  0.82657986  0.68765064  0.00102976  1
  Al  Al197  1  0.16900494  0.67388470  0.00184234  1
  Al  Al198  1  0.66945190  0.49622470  0.83097855  1
  Al  Al199  1  0.18445318  0.82662864  0.00117998  1
  Al  Al200  1  0.31535898  0.00126384  0.31181865  1
  Al  Al201  1  0.49924636  0.67766718  0.66787017  1
  Al  Al202  1  0.50145511  0.69351703  0.30789570  1
  Al  Al203  1  0.49825088  0.32719746  0.17341538  1
  Al  Al204  1  0.32456056  0.68564572  0.00231860  1
  Al  Al205  1  0.00076523  0.17350669  0.18128351  1
  Al  Al206  1  0.83336203  0.50395049  0.83079315  1
  Al  Al207  1  0.18037998  0.82619304  0.50014359  1
  Al  Al208  1  0.82686547  0.50080509  0.67330748  1
  Al  Al209  1  0.68200438  -0.00111568  0.82966869  1
  Al  Al210  1  0.81714923  0.31876315  0.50055334  1
  Al  Al211  1  0.67419125  0.18568915  -0.00120969  1
  Al  Al212  1  0.67406410  0.50066157  0.31938732  1
  Al  Al213  1  0.32665804  0.50025594  0.18166672  1
  Al  Al214  1  0.49987691  0.18107247  0.81200789  1
  Al  Al215  1  0.31847967  0.18309495  0.00291183  1
  Al  Al216  1  0.83237613  -0.00206713  0.18073130  1
  Al  Al217  1  0.17846540  0.50221897  0.67666726  1
  Al  Al218  1  0.16458059  -0.00045555  0.82981032  1
  Al  Al219  1  0.66877628  0.49986682  0.66993466  1
  Al  Al220  1  0.67838592  0.00094976  0.33235780  1
  Al  Al221  1  0.17859371  0.00096038  0.67259323  1
  Al  Al222  1  0.68622479  0.17856420  0.50006914  1
  Al  Al223  1  0.17054902  0.50028907  0.17447163  1
  Al  Al224  1  0.00120073  0.32770819  0.17605737  1
  Al  Al225  1  0.82981457  0.50165041  0.31583029  1
  Al  Al226  1  0.67222835  0.69372748  0.00273059  1
  Al  Al227  1  0.50218126  0.83411476  0.82698878  1
  Al  Al228  1  0.81035483  0.81063321  0.49947116  1
  Al  Al229  1  0.69433735  0.69254542  0.49991987  1
  Al  Al230  1  0.00030900  0.81390983  0.18102853  1
  Al  Al231  1  0.67578820  -0.00070502  0.66943192  1
  Al  Al232  1  0.18406827  0.17925571  0.50024004  1
  Al  Al233  1  0.82924534  0.17643426  -0.00001185  1
  Al  Al234  1  0.16986082  0.67262076  0.49877869  1
  Al  Al235  1  0.50064901  0.67260399  0.82718029  1
  Al  Al236  1  0.33198896  -0.00009007  0.82433960  1
  Al  Al237  1  0.49915503  0.31206891  0.33032595  1
  Al  Al238  1  0.67173008  -0.00194088  0.16721082  1
  Au  Au239  1  0.67896363  0.68538852  0.49686731  1
  Au  Au240  1  0.66710432  -0.00360105  0.15225464  1
  Au  Au241  1  0.49867038  0.82034120  0.17826941  1
  Au  Au242  1  0.82188414  0.33842195  0.00428070  1
  Au  Au243  1  0.00041175  0.83928569  0.32837062  1
  Au  Au244  1  -0.00065882  0.32225440  0.66549260  1
  Au  Au245  1  0.16397863  0.50352531  0.83335281  1
  Au  Au246  1  0.34275724  -0.00023334  0.83628491  1
  Au  Au247  1  0.16211805  0.17167728  0.00039814  1
  Au  Au248  1  0.50258527  0.83100348  0.83937765  1
  Au  Au249  1  0.17656746  0.32606189  0.49909024  1
  Au  Au250  1  0.49809505  0.32679072  0.82528151  1
  Au  Au251  1  0.66642887  0.00170415  0.66139283  1
  Au  Au252  1  -0.00036240  0.15806352  0.33078552  1
  Au  Au253  1  0.14959169  -0.00170703  0.82544892  1
  Au  Au254  1  0.00184471  0.32130806  0.83032303  1
  Au  Au255  1  0.16976104  0.49980917  0.66798353  1
  Au  Au256  1  -0.00136581  0.33639167  0.32456012  1
  Au  Au257  1  0.49947510  0.65546835  0.83154564  1
  Au  Au258  1  0.32839785  0.00610424  0.65454857  1
  Au  Au259  1  0.32921212  0.67361981  0.00219952  1
  Au  Au260  1  0.50090159  0.66578345  0.66388868  1
  Au  Au261  1  0.49785283  0.32881455  0.33235908  1
  Au  Au262  1  0.82553796  0.16430710  -0.00114969  1
  Au  Au263  1  0.66181540  0.32344053  0.50171681  1
  Au  Au264  1  0.49966525  0.16692768  0.16790130  1
  Au  Au265  1  0.83925911  0.00283973  0.67082917  1
  Au  Au266  1  0.67280262  0.67669987  0.00453948  1
  Au  Au267  1  0.33090566  0.83049973  0.49496805  1
  Au  Au268  1  0.67748185  -0.00013172  0.84543997  1
  Au  Au269  1  0.00143153  0.83584576  0.67334566  1
  Au  Au270  1  0.16793052  0.49759017  0.16263297  1
  Au  Au271  1  0.67016810  0.00148439  0.34639069  1
  Au  Au272  1  -0.00181365  0.66728558  0.67351871  1
  Au  Au273  1  0.33480450  0.49588263  0.66314935  1
  Au  Au274  1  0.82946715  0.32170240  0.50059100  1
  Au  Au275  1  0.84794241  -0.00442055  0.17457421  1
  Au  Au276  1  0.67445712  0.49772944  0.16479954  1
  Au  Au277  1  0.67377832  0.49723191  0.65391915  1
  Au  Au278  1  -0.00202409  0.66798398  0.32502188  1
  Au  Au279  1  0.67064965  0.50137228  0.33145617  1
  Au  Au280  1  0.84944566  0.50628143  0.82612300  1
  Au  Au281  1  0.33228281  0.49560419  0.83557578  1
  Au  Au282  1  0.17695212  -0.00093340  0.17706487  1
  Au  Au283  1  0.66764277  0.49126581  0.84699688  1
  Au  Au284  1  0.33843616  0.50058691  0.33193019  1
  Au  Au285  1  0.16877265  0.50212579  0.33558575  1
  Au  Au286  1  0.32648257  0.17330318  0.00085496  1
  Au  Au287  1  0.50060231  0.83778102  0.66208083  1
