# generated using pymatgen
data_Ca24Ti8Al207Au49
_symmetry_space_group_name_H-M   'P 1'
_cell_length_a   17.31984569
_cell_length_b   17.31926205
_cell_length_c   17.31946473
_cell_angle_alpha   89.99919368
_cell_angle_beta   90.00016733
_cell_angle_gamma   89.99914993
_symmetry_Int_Tables_number   1
_chemical_formula_structural   Ca24Ti8Al207Au49
_chemical_formula_sum   'Ca24 Ti8 Al207 Au49'
_cell_volume   5195.26694289
_cell_formula_units_Z   1
loop_
 _symmetry_equiv_pos_site_id
 _symmetry_equiv_pos_as_xyz
  1  'x, y, z'
loop_
 _atom_site_type_symbol
 _atom_site_label
 _atom_site_symmetry_multiplicity
 _atom_site_fract_x
 _atom_site_fract_y
 _atom_site_fract_z
 _atom_site_occupancy
  Ca  Ca0  1  0.24882325  0.00253099  0.00166040  1
  Ca  Ca1  1  0.25049764  0.00003618  0.49876415  1
  Ca  Ca2  1  0.24810996  0.49117768  0.00200660  1
  Ca  Ca3  1  0.25546118  0.50115451  0.49997264  1
  Ca  Ca4  1  0.74992195  0.00240713  -0.00177429  1
  Ca  Ca5  1  0.74755689  0.00067961  0.49950264  1
  Ca  Ca6  1  0.75380481  0.49427638  0.00466464  1
  Ca  Ca7  1  0.75208955  0.50242180  0.49666279  1
  Ca  Ca8  1  -0.00204700  0.24750272  0.00230413  1
  Ca  Ca9  1  0.00847554  0.25043375  0.49774597  1
  Ca  Ca10  1  -0.00207116  0.75227875  0.00378717  1
  Ca  Ca11  1  0.00509703  0.74727277  0.49912516  1
  Ca  Ca12  1  0.50123570  0.25092603  -0.00074637  1
  Ca  Ca13  1  0.49681981  0.25268309  0.49863520  1
  Ca  Ca14  1  0.49822414  0.75290111  -0.00031736  1
  Ca  Ca15  1  0.49212259  0.74501289  0.50014076  1
  Ca  Ca16  1  0.00558830  0.00518010  0.24357485  1
  Ca  Ca17  1  0.00352391  0.00293399  0.75676488  1
  Ca  Ca18  1  -0.00258883  0.49199523  0.24755421  1
  Ca  Ca19  1  0.00222826  0.49647001  0.75130692  1
  Ca  Ca20  1  0.49671395  0.00034619  0.24646542  1
  Ca  Ca21  1  0.49474928  -0.00039448  0.75346834  1
  Ca  Ca22  1  0.50637174  0.49899442  0.24918020  1
  Ca  Ca23  1  0.49757030  0.49833408  0.74890613  1
  Ti  Ti24  1  0.24948853  0.24906834  0.24844050  1
  Ti  Ti25  1  0.24808910  0.24692732  0.75092262  1
  Ti  Ti26  1  0.25117296  0.75165903  0.24845195  1
  Ti  Ti27  1  0.25105719  0.75337813  0.75062222  1
  Ti  Ti28  1  0.75016050  0.25069465  0.24790180  1
  Ti  Ti29  1  0.75192754  0.25146752  0.75253829  1
  Ti  Ti30  1  0.74967724  0.74794378  0.24572179  1
  Ti  Ti31  1  0.74875794  0.75055067  0.75408088  1
  Al  Al32  1  0.08862985  0.08039101  0.08787210  1
  Al  Al33  1  0.09914046  0.08738473  0.57979580  1
  Al  Al34  1  0.07221246  0.59770100  0.08388839  1
  Al  Al35  1  0.08457815  0.58154969  0.58078815  1
  Al  Al36  1  0.58477067  0.08704538  0.07280655  1
  Al  Al37  1  0.57052341  0.08743100  0.59272135  1
  Al  Al38  1  0.58934217  0.58088199  0.08567625  1
  Al  Al39  1  0.57256085  0.58109645  0.57987166  1
  Al  Al40  1  0.42171339  0.40057729  0.08630685  1
  Al  Al41  1  0.41925134  0.41724856  0.58000151  1
  Al  Al42  1  0.41699145  0.91782966  0.09102473  1
  Al  Al43  1  0.41213953  0.91603514  0.58364266  1
  Al  Al44  1  0.90939486  0.40947287  0.09125817  1
  Al  Al45  1  0.92026429  0.41879060  0.57712185  1
  Al  Al46  1  0.91881972  0.92440000  0.08871639  1
  Al  Al47  1  0.92983102  0.92179745  0.57758879  1
  Al  Al48  1  0.40850898  0.07937868  0.41742336  1
  Al  Al49  1  0.41323804  0.08999169  0.92127309  1
  Al  Al50  1  0.41027412  0.58226401  0.41646304  1
  Al  Al51  1  0.42407806  0.57529835  0.91841330  1
  Al  Al52  1  0.93102691  0.08398431  0.41247261  1
  Al  Al53  1  0.90792561  0.08851542  0.92251842  1
  Al  Al54  1  0.91069037  0.56978439  0.41358773  1
  Al  Al55  1  0.92166701  0.58104373  0.92147092  1
  Al  Al56  1  0.08180477  0.39897994  0.41203288  1
  Al  Al57  1  0.07926653  0.40748312  0.91783473  1
  Al  Al58  1  0.09120681  0.93312290  0.41268237  1
  Al  Al59  1  0.09175676  0.91322127  0.92610983  1
  Al  Al60  1  0.58827084  0.41986980  0.40805659  1
  Al  Al61  1  0.58647657  0.41432344  0.92983778  1
  Al  Al62  1  0.56761897  0.91801805  0.41806801  1
  Al  Al63  1  0.58645901  0.91958118  0.90492677  1
  Al  Al64  1  0.09743044  0.09291240  0.41450755  1
  Al  Al65  1  0.08380204  0.08420473  0.92210920  1
  Al  Al66  1  0.08049559  0.58121907  0.42084631  1
  Al  Al67  1  0.08059706  0.58483029  0.92234466  1
  Al  Al68  1  0.56981438  0.07819148  0.42147527  1
  Al  Al69  1  0.59433939  0.08388909  0.91313027  1
  Al  Al70  1  0.58498578  0.57605199  0.41333196  1
  Al  Al71  1  0.58279196  0.58539620  0.92311121  1
  Al  Al72  1  0.41119198  0.42061073  0.41088882  1
  Al  Al73  1  0.41178113  0.41176764  0.92644370  1
  Al  Al74  1  0.40829611  0.91627261  0.41162237  1
  Al  Al75  1  0.42487824  0.91554437  0.91326787  1
  Al  Al76  1  0.91821276  0.40999290  0.40069923  1
  Al  Al77  1  0.91582805  0.40530683  0.92321422  1
  Al  Al78  1  0.92435263  0.92568001  0.41730225  1
  Al  Al79  1  0.91898733  0.92534083  0.92134073  1
  Al  Al80  1  0.07233727  0.40353263  0.08125293  1
  Al  Al81  1  0.08895668  0.40742901  0.57528382  1
  Al  Al82  1  0.09229325  0.91482440  0.08822349  1
  Al  Al83  1  0.09099350  0.92727272  0.59200371  1
  Al  Al84  1  0.58665644  0.40776425  0.09038465  1
  Al  Al85  1  0.57681207  0.41652925  0.58184257  1
  Al  Al86  1  0.57783944  0.91317564  0.08588614  1
  Al  Al87  1  0.57225083  0.92083881  0.58545122  1
  Al  Al88  1  0.40760002  0.09000944  0.08177460  1
  Al  Al89  1  0.41260691  0.09059853  0.58850122  1
  Al  Al90  1  0.42700806  0.57764570  0.08320543  1
  Al  Al91  1  0.41194469  0.59075544  0.58024733  1
  Al  Al92  1  0.90660040  0.08620930  0.08523021  1
  Al  Al93  1  0.93400143  0.08095414  0.57884432  1
  Al  Al94  1  0.91355697  0.58039379  0.09501226  1
  Al  Al95  1  0.91787993  0.57707181  0.57951823  1
  Al  Al96  1  0.24832815  0.13543619  0.13371724  1
  Al  Al97  1  0.24712815  0.13001309  0.63174053  1
  Al  Al98  1  0.24872555  0.63564545  0.13640325  1
  Al  Al99  1  0.25317022  0.63651573  0.63518480  1
  Al  Al100  1  0.75717439  0.13599101  0.13374781  1
  Al  Al101  1  0.74724517  0.13604132  0.63787485  1
  Al  Al102  1  0.75145893  0.62618078  0.13505534  1
  Al  Al103  1  0.74932513  0.63807702  0.63737353  1
  Al  Al104  1  0.25150866  0.36397561  0.13667757  1
  Al  Al105  1  0.24502357  0.36052222  0.63282819  1
  Al  Al106  1  0.24721796  0.87195204  0.13268300  1
  Al  Al107  1  0.25131862  0.87086607  0.63618390  1
  Al  Al108  1  0.75039111  0.37065498  0.13888062  1
  Al  Al109  1  0.74975109  0.36241515  0.63607301  1
  Al  Al110  1  0.75169658  0.86434904  0.12899747  1
  Al  Al111  1  0.74718880  0.86491310  0.64222272  1
  Al  Al112  1  0.24578346  0.13919784  0.36890958  1
  Al  Al113  1  0.24884035  0.13209342  0.86932592  1
  Al  Al114  1  0.25236507  0.63092510  0.36153827  1
  Al  Al115  1  0.24774613  0.63933596  0.86281624  1
  Al  Al116  1  0.74932719  0.13748758  0.36039368  1
  Al  Al117  1  0.75239038  0.13797078  0.86674909  1
  Al  Al118  1  0.74820484  0.63358240  0.36108450  1
  Al  Al119  1  0.75323585  0.63339447  0.86769046  1
  Al  Al120  1  0.25043722  0.36001738  0.36403636  1
  Al  Al121  1  0.25102257  0.35991847  0.86783795  1
  Al  Al122  1  0.24877330  0.86629235  0.36361610  1
  Al  Al123  1  0.24975495  0.87227392  0.86416196  1
  Al  Al124  1  0.74795958  0.36291079  0.36095740  1
  Al  Al125  1  0.75006159  0.36445407  0.86897076  1
  Al  Al126  1  0.75032612  0.86823882  0.35807419  1
  Al  Al127  1  0.74417189  0.86549445  0.86977460  1
  Al  Al128  1  0.12918210  0.24683040  0.13634498  1
  Al  Al129  1  0.13557580  0.24673315  0.63187011  1
  Al  Al130  1  0.13716202  0.75526858  0.13586082  1
  Al  Al131  1  0.13683758  0.75099507  0.63731263  1
  Al  Al132  1  0.63400184  0.25676005  0.13329229  1
  Al  Al133  1  0.63425183  0.24957234  0.63603167  1
  Al  Al134  1  0.63229550  0.75192011  0.13634512  1
  Al  Al135  1  0.63283911  0.75316394  0.63934910  1
  Al  Al136  1  0.13274051  0.25183249  0.36307027  1
  Al  Al137  1  0.13030672  0.24425922  0.86636007  1
  Al  Al138  1  0.13983839  0.74765396  0.36093469  1
  Al  Al139  1  0.13682036  0.75728413  0.86340373  1
  Al  Al140  1  0.62827043  0.25479120  0.36196018  1
  Al  Al141  1  0.63605067  0.25087641  0.86894787  1
  Al  Al142  1  0.63633590  0.74915877  0.35769430  1
  Al  Al143  1  0.62724548  0.75254575  0.86575326  1
  Al  Al144  1  0.36642681  0.25068919  0.13195998  1
  Al  Al145  1  0.36204347  0.24421067  0.63279896  1
  Al  Al146  1  0.37029746  0.75405174  0.13692080  1
  Al  Al147  1  0.36382527  0.75293146  0.63715452  1
  Al  Al148  1  0.87083802  0.25086916  0.13649653  1
  Al  Al149  1  0.86698414  0.25009915  0.63638093  1
  Al  Al150  1  0.86347723  0.74671184  0.13033132  1
  Al  Al151  1  0.86819912  0.75073390  0.63853286  1
  Al  Al152  1  0.36934027  0.24812157  0.36476202  1
  Al  Al153  1  0.36306765  0.24541240  0.86782309  1
  Al  Al154  1  0.36273763  0.74878015  0.36279959  1
  Al  Al155  1  0.37179040  0.75663478  0.86263455  1
  Al  Al156  1  0.87243207  0.25177513  0.35844386  1
  Al  Al157  1  0.86882326  0.24771162  0.86965596  1
  Al  Al158  1  0.86188795  0.74647438  0.35867238  1
  Al  Al159  1  0.86105929  0.75427003  0.87461254  1
  Al  Al160  1  0.13288241  0.13465632  0.25082315  1
  Al  Al161  1  0.13535513  0.13012307  0.75111892  1
  Al  Al162  1  0.13285515  0.63550050  0.24562413  1
  Al  Al163  1  0.13656147  0.63322646  0.74854809  1
  Al  Al164  1  0.63390670  0.13675967  0.24452927  1
  Al  Al165  1  0.63768040  0.13698961  0.75414273  1
  Al  Al166  1  0.63554767  0.62727727  0.24570026  1
  Al  Al167  1  0.63435988  0.63622472  0.75585234  1
  Al  Al168  1  0.36237748  0.13535872  0.24757012  1
  Al  Al169  1  0.35850109  0.12808151  0.74863740  1
  Al  Al170  1  0.36503563  0.63259099  0.25015701  1
  Al  Al171  1  0.36472255  0.63598627  0.75299384  1
  Al  Al172  1  0.87294576  0.13616617  0.24653318  1
  Al  Al173  1  0.87159862  0.13830607  0.75376473  1
  Al  Al174  1  0.86521191  0.63017857  0.24239821  1
  Al  Al175  1  0.86347960  0.63569302  0.75254212  1
  Al  Al176  1  0.13222380  0.36437425  0.24794669  1
  Al  Al177  1  0.13244054  0.36183942  0.75546503  1
  Al  Al178  1  0.14009298  0.87263446  0.24736838  1
  Al  Al179  1  0.13703927  0.87383606  0.74869852  1
  Al  Al180  1  0.63229964  0.36858450  0.24843497  1
  Al  Al181  1  0.63576495  0.36222859  0.75133401  1
  Al  Al182  1  0.63552566  0.86777027  0.24442796  1
  Al  Al183  1  0.62626475  0.86547505  0.75576319  1
  Al  Al184  1  0.36983810  0.35976104  0.25101807  1
  Al  Al185  1  0.36129281  0.35911436  0.74929586  1
  Al  Al186  1  0.36142751  0.86862541  0.24616409  1
  Al  Al187  1  0.36642394  0.87103857  0.75033245  1
  Al  Al188  1  0.86762139  0.36484754  0.24633120  1
  Al  Al189  1  0.87041066  0.36136435  0.75767727  1
  Al  Al190  1  0.86515287  0.86611271  0.24475375  1
  Al  Al191  1  0.86922117  0.86229352  0.75416952  1
  Al  Al192  1  0.18090628  0.31567879  0.00180553  1
  Al  Al193  1  0.16960283  0.49914054  0.82397389  1
  Al  Al194  1  0.32374585  0.81501154  0.49901772  1
  Al  Al195  1  0.32445126  0.49859446  0.67395180  1
  Al  Al196  1  0.82419785  0.00228142  0.31289015  1
  Al  Al197  1  0.32259469  0.32297409  0.49912298  1
  Al  Al198  1  0.00074726  0.82286188  0.67940606  1
  Al  Al199  1  0.80922827  0.49758285  0.30882729  1
  Al  Al200  1  0.49906151  0.68091818  0.68344855  1
  Al  Al201  1  0.67041560  0.50165099  0.67290593  1
  Al  Al202  1  0.82949127  0.16898875  0.49890163  1
  Al  Al203  1  0.67153929  -0.00087060  0.68921779  1
  Al  Al204  1  0.49970976  0.67014960  0.32010548  1
  Al  Al205  1  0.67181708  0.67089374  0.50009753  1
  Al  Al206  1  -0.00304298  0.67032076  0.31439764  1
  Al  Al207  1  0.68274067  0.00211253  0.17359655  1
  Al  Al208  1  0.49752097  0.31434205  0.67616209  1
  Al  Al209  1  0.17171024  0.83312885  0.49999952  1
  Al  Al210  1  0.00832742  0.82823736  0.32855836  1
  Al  Al211  1  -0.00135088  0.32320037  0.67728642  1
  Al  Al212  1  0.17164568  0.68837307  -0.00024732  1
  Al  Al213  1  0.00006413  0.68255822  0.82192836  1
  Al  Al214  1  0.50046458  0.17690007  0.17415960  1
  Al  Al215  1  0.81543787  0.00053750  0.82650065  1
  Al  Al216  1  0.66841828  0.82899434  0.49871657  1
  Al  Al217  1  0.49857229  0.17265162  0.81216886  1
  Al  Al218  1  0.49747925  0.82658709  0.31227139  1
  Al  Al219  1  0.18069802  0.49591151  0.32838100  1
  Al  Al220  1  0.66705691  0.17950540  0.49968504  1
  Al  Al221  1  0.68144257  0.68092256  0.00161791  1
  Al  Al222  1  0.69088217  0.18926450  0.00143438  1
  Al  Al223  1  0.33142691  0.49470335  0.18189717  1
  Al  Al224  1  0.81087669  0.30872446  0.00394410  1
  Al  Al225  1  0.82802615  0.00143612  0.66957864  1
  Al  Al226  1  0.30882077  0.00247390  0.31828033  1
  Al  Al227  1  0.82641101  0.67151445  0.49828178  1
  Al  Al228  1  0.32631092  0.49687016  0.82714617  1
  Al  Al229  1  0.82390730  0.32683105  0.49621682  1
  Al  Al230  1  0.82881315  0.82901056  0.49857585  1
  Al  Al231  1  0.32795808  0.66745865  -0.00039585  1
  Al  Al232  1  0.00003093  0.81884163  0.17248154  1
  Al  Al233  1  0.49860203  0.32950957  0.83029563  1
  Al  Al234  1  0.18991499  0.67547474  0.49827250  1
  Al  Al235  1  0.82410930  0.49756752  0.67885101  1
  Al  Al236  1  0.31666935  0.82706850  -0.00017951  1
  Al  Al237  1  0.67841798  0.49821859  0.83143038  1
  Al  Al238  1  0.16648035  0.50014615  0.16671035  1
  Au  Au239  1  0.01028927  0.84419808  0.32219495  1
  Au  Au240  1  0.00663942  0.17818768  0.32968407  1
  Au  Au241  1  0.67302962  0.00242482  0.15995484  1
  Au  Au242  1  0.00981667  0.16746866  0.67085805  1
  Au  Au243  1  0.84475164  0.82281786  0.49773470  1
  Au  Au244  1  -0.00280646  0.65836671  0.67435268  1
  Au  Au245  1  0.84316003  0.49608849  0.82899793  1
  Au  Au246  1  0.32039029  0.16798881  0.49931604  1
  Au  Au247  1  0.50230237  0.18062876  0.16222106  1
  Au  Au248  1  0.66599231  0.49663838  0.82883702  1
  Au  Au249  1  0.49530162  0.82951641  0.67607317  1
  Au  Au250  1  0.33179370  0.83428683  -0.00022690  1
  Au  Au251  1  0.83169655  0.83890429  0.00372184  1
  Au  Au252  1  0.00084448  0.33241326  0.66907865  1
  Au  Au253  1  0.34703257  0.49225340  0.17650717  1
  Au  Au254  1  0.00307894  0.83185824  0.67067125  1
  Au  Au255  1  0.32307531  0.00317476  0.17105616  1
  Au  Au256  1  0.32397065  0.00095067  0.66573867  1
  Au  Au257  1  0.50007094  0.33916086  0.32501409  1
  Au  Au258  1  0.16448054  0.00019073  0.82957356  1
  Au  Au259  1  0.82949254  0.66065430  0.00382095  1
  Au  Au260  1  0.84348257  0.00183437  0.67728127  1
  Au  Au261  1  0.50118119  0.17431781  0.82847579  1
  Au  Au262  1  0.17870833  0.16879007  0.00284454  1
  Au  Au263  1  0.65734153  0.00156806  0.67938338  1
  Au  Au264  1  0.49545770  0.16564921  0.32796441  1
  Au  Au265  1  0.17337464  0.68064796  0.49811993  1
  Au  Au266  1  -0.00099521  0.17156863  0.16280576  1
  Au  Au267  1  0.67551575  0.49710865  0.17520466  1
  Au  Au268  1  0.84548996  0.17625780  0.49942372  1
  Au  Au269  1  0.31965734  0.33551319  0.50036142  1
  Au  Au270  1  -0.00221036  0.17341951  0.84082295  1
  Au  Au271  1  0.15410940  0.50025152  0.15715532  1
  Au  Au272  1  0.49835038  0.67336937  0.33214882  1
  Au  Au273  1  0.17261114  0.49903564  0.83653253  1
  Au  Au274  1  0.49841988  0.67334310  0.83386574  1
  Au  Au275  1  0.31829506  0.65269109  -0.00101451  1
  Au  Au276  1  0.83566367  0.00419270  0.32571929  1
  Au  Au277  1  0.17398341  0.49362027  0.34376246  1
  Au  Au278  1  0.33264624  0.00099299  0.83512664  1
  Au  Au279  1  0.66061197  0.16414328  0.50158869  1
  Au  Au280  1  0.50245165  0.67937501  0.16251429  1
  Au  Au281  1  0.65257623  0.82276238  0.49853929  1
  Au  Au282  1  -0.00660603  0.65578961  0.32286970  1
  Au  Au283  1  0.67476018  0.34514580  0.49973011  1
  Au  Au284  1  0.66218771  -0.00100714  0.33617759  1
  Au  Au285  1  0.00107324  0.82966627  0.84364737  1
  Au  Au286  1  0.65774131  0.82820586  -0.00322607  1
  Au  Au287  1  0.17590734  0.49586967  0.65936979  1
