# generated using pymatgen
data_Ca24Ti8Al207Au49
_symmetry_space_group_name_H-M   'P 1'
_cell_length_a   17.32269037
_cell_length_b   17.32232687
_cell_length_c   17.32280035
_cell_angle_alpha   89.99896862
_cell_angle_beta   89.99569922
_cell_angle_gamma   89.99617460
_symmetry_Int_Tables_number   1
_chemical_formula_structural   Ca24Ti8Al207Au49
_chemical_formula_sum   'Ca24 Ti8 Al207 Au49'
_cell_volume   5198.04063318
_cell_formula_units_Z   1
loop_
 _symmetry_equiv_pos_site_id
 _symmetry_equiv_pos_as_xyz
  1  'x, y, z'
loop_
 _atom_site_type_symbol
 _atom_site_label
 _atom_site_symmetry_multiplicity
 _atom_site_fract_x
 _atom_site_fract_y
 _atom_site_fract_z
 _atom_site_occupancy
  Ca  Ca0  1  0.24782792  0.00214716  -0.00374657  1
  Ca  Ca1  1  0.24747485  -0.00239747  0.50201519  1
  Ca  Ca2  1  0.24907287  0.49973185  -0.00186691  1
  Ca  Ca3  1  0.24582620  0.50120475  0.50282581  1
  Ca  Ca4  1  0.75005015  -0.00001694  0.00053019  1
  Ca  Ca5  1  0.74773894  0.00226815  0.49909878  1
  Ca  Ca6  1  0.74881288  0.50010234  0.00026089  1
  Ca  Ca7  1  0.75015306  0.49859393  0.49762616  1
  Ca  Ca8  1  0.00286941  0.25092021  0.00010846  1
  Ca  Ca9  1  0.00004079  0.25176528  0.50351528  1
  Ca  Ca10  1  -0.00089501  0.74888963  -0.00427210  1
  Ca  Ca11  1  0.00481445  0.74830516  0.50504070  1
  Ca  Ca12  1  0.49767374  0.25259820  0.00641964  1
  Ca  Ca13  1  0.50074434  0.24972660  0.49921156  1
  Ca  Ca14  1  0.50132489  0.74833130  0.00091993  1
  Ca  Ca15  1  0.49529300  0.75317968  0.49889142  1
  Ca  Ca16  1  -0.00241203  0.00605517  0.25292739  1
  Ca  Ca17  1  0.00328542  0.00128926  0.74580870  1
  Ca  Ca18  1  -0.00063028  0.49916453  0.25198810  1
  Ca  Ca19  1  0.00034445  0.50164457  0.74914647  1
  Ca  Ca20  1  0.50155751  0.00166883  0.25512382  1
  Ca  Ca21  1  0.49466788  -0.00184249  0.74901120  1
  Ca  Ca22  1  0.50177344  0.49743968  0.25125048  1
  Ca  Ca23  1  0.49972917  0.49845109  0.75079658  1
  Ti  Ti24  1  0.24946085  0.25048958  0.25013426  1
  Ti  Ti25  1  0.24838104  0.24964184  0.74866619  1
  Ti  Ti26  1  0.24995593  0.74862342  0.25114889  1
  Ti  Ti27  1  0.24917706  0.75039860  0.74944352  1
  Ti  Ti28  1  0.74967415  0.25033240  0.25212794  1
  Ti  Ti29  1  0.75137957  0.25045553  0.74780590  1
  Ti  Ti30  1  0.74985695  0.74970606  0.24884322  1
  Ti  Ti31  1  0.75009351  0.74992448  0.75125775  1
  Al  Al32  1  0.08989234  0.08766526  0.07808722  1
  Al  Al33  1  0.08382237  0.08637582  0.58897843  1
  Al  Al34  1  0.08204015  0.57651634  0.07238392  1
  Al  Al35  1  0.08771581  0.58731879  0.59582365  1
  Al  Al36  1  0.58240711  0.07745783  0.08022624  1
  Al  Al37  1  0.58000125  0.08536638  0.57937129  1
  Al  Al38  1  0.58331582  0.58135798  0.08317258  1
  Al  Al39  1  0.57513529  0.57176843  0.57874013  1
  Al  Al40  1  0.42732422  0.41947703  0.08506545  1
  Al  Al41  1  0.41036016  0.42235900  0.57813286  1
  Al  Al42  1  0.42692287  0.91660066  0.07519325  1
  Al  Al43  1  0.39915500  0.91819495  0.58990798  1
  Al  Al44  1  0.91351803  0.41912141  0.07915091  1
  Al  Al45  1  0.91231781  0.41933617  0.58898871  1
  Al  Al46  1  0.90734819  0.92241798  0.08079702  1
  Al  Al47  1  0.92613479  0.91696125  0.58596842  1
  Al  Al48  1  0.42028428  0.09362375  0.42707863  1
  Al  Al49  1  0.41100340  0.08641385  0.90079878  1
  Al  Al50  1  0.41698330  0.59278841  0.42253562  1
  Al  Al51  1  0.41614013  0.59104757  0.92246797  1
  Al  Al52  1  0.91474566  0.08168432  0.42178820  1
  Al  Al53  1  0.92730490  0.08092120  0.91541365  1
  Al  Al54  1  0.92081322  0.57447959  0.41767010  1
  Al  Al55  1  0.91565951  0.59517224  0.91149468  1
  Al  Al56  1  0.07700378  0.41689241  0.42312092  1
  Al  Al57  1  0.08468658  0.42014007  0.91304146  1
  Al  Al58  1  0.08654692  0.90889521  0.42369356  1
  Al  Al59  1  0.07856030  0.91390556  0.90893738  1
  Al  Al60  1  0.58957983  0.40848873  0.40971612  1
  Al  Al61  1  0.59251411  0.41145301  0.92557333  1
  Al  Al62  1  0.58467290  0.92772704  0.41188002  1
  Al  Al63  1  0.58321824  0.91546381  0.92233171  1
  Al  Al64  1  0.08175303  0.08088109  0.42417043  1
  Al  Al65  1  0.08717216  0.09073762  0.91704084  1
  Al  Al66  1  0.08372183  0.58152013  0.42807144  1
  Al  Al67  1  0.08026879  0.58718248  0.90576171  1
  Al  Al68  1  0.58488978  0.08660509  0.41130724  1
  Al  Al69  1  0.57250518  0.09119793  0.91003212  1
  Al  Al70  1  0.58064810  0.57072503  0.40586229  1
  Al  Al71  1  0.58049411  0.58250246  0.91968075  1
  Al  Al72  1  0.42489236  0.40762994  0.41367145  1
  Al  Al73  1  0.42373015  0.42177838  0.92389107  1
  Al  Al74  1  0.41382326  0.90919533  0.43178975  1
  Al  Al75  1  0.40868674  0.92327000  0.90951333  1
  Al  Al76  1  0.91600694  0.41494994  0.41687217  1
  Al  Al77  1  0.91453232  0.41654159  0.91765492  1
  Al  Al78  1  0.92237031  0.92054779  0.41553777  1
  Al  Al79  1  0.92095386  0.90759107  0.91346688  1
  Al  Al80  1  0.08127669  0.41677583  0.08008940  1
  Al  Al81  1  0.08552637  0.42303736  0.58836523  1
  Al  Al82  1  0.08034877  0.92822674  0.07380473  1
  Al  Al83  1  0.09100048  0.90941925  0.58408101  1
  Al  Al84  1  0.58960185  0.40853386  0.08517801  1
  Al  Al85  1  0.59667440  0.40938081  0.57182069  1
  Al  Al86  1  0.58598128  0.91114773  0.08286609  1
  Al  Al87  1  0.57412437  0.92210790  0.57857488  1
  Al  Al88  1  0.42394151  0.08211723  0.07113026  1
  Al  Al89  1  0.40213737  0.08220365  0.58835715  1
  Al  Al90  1  0.41294065  0.58722710  0.07933019  1
  Al  Al91  1  0.40625796  0.58573478  0.58049835  1
  Al  Al92  1  0.91609553  0.07819611  0.08943283  1
  Al  Al93  1  0.92276051  0.09189964  0.58533527  1
  Al  Al94  1  0.90566617  0.58261004  0.07145073  1
  Al  Al95  1  0.92437602  0.57938582  0.59754698  1
  Al  Al96  1  0.24602567  0.13693423  0.13224725  1
  Al  Al97  1  0.25390159  0.13307091  0.63606786  1
  Al  Al98  1  0.24887102  0.63505494  0.12937483  1
  Al  Al99  1  0.24788346  0.63859916  0.62939910  1
  Al  Al100  1  0.75301038  0.13344211  0.13740269  1
  Al  Al101  1  0.74630045  0.13007242  0.63820806  1
  Al  Al102  1  0.74900607  0.63467465  0.12994617  1
  Al  Al103  1  0.75890446  0.63117945  0.63855026  1
  Al  Al104  1  0.24747585  0.36227339  0.13128683  1
  Al  Al105  1  0.24855004  0.36244858  0.63667587  1
  Al  Al106  1  0.24980844  0.86117310  0.13338397  1
  Al  Al107  1  0.25144634  0.86357719  0.63296157  1
  Al  Al108  1  0.74713188  0.36395480  0.13686892  1
  Al  Al109  1  0.75151001  0.36489088  0.63564294  1
  Al  Al110  1  0.75419774  0.86760808  0.13445944  1
  Al  Al111  1  0.75138465  0.86692399  0.63442329  1
  Al  Al112  1  0.25004808  0.13373281  0.36570933  1
  Al  Al113  1  0.25133425  0.13396432  0.86304812  1
  Al  Al114  1  0.25262107  0.63765548  0.37564946  1
  Al  Al115  1  0.24758974  0.63746206  0.86675975  1
  Al  Al116  1  0.74547843  0.13309900  0.36462183  1
  Al  Al117  1  0.74568092  0.13137380  0.85884644  1
  Al  Al118  1  0.74735600  0.62751919  0.36357808  1
  Al  Al119  1  0.75252009  0.63206828  0.86881026  1
  Al  Al120  1  0.25199001  0.36386267  0.36620648  1
  Al  Al121  1  0.24866070  0.36062070  0.86949379  1
  Al  Al122  1  0.25032572  0.86469043  0.37165658  1
  Al  Al123  1  0.25344185  0.86717548  0.86385254  1
  Al  Al124  1  0.74752829  0.37162159  0.36598679  1
  Al  Al125  1  0.75141279  0.36948448  0.86208060  1
  Al  Al126  1  0.74864720  0.86666706  0.36834714  1
  Al  Al127  1  0.75100600  0.86837855  0.86418401  1
  Al  Al128  1  0.13069885  0.24912674  0.13013397  1
  Al  Al129  1  0.12974630  0.24908443  0.63561860  1
  Al  Al130  1  0.13467654  0.74563634  0.12886149  1
  Al  Al131  1  0.13843859  0.75127219  0.62747338  1
  Al  Al132  1  0.63704515  0.25129765  0.13813173  1
  Al  Al133  1  0.63669719  0.24894369  0.62975968  1
  Al  Al134  1  0.63742721  0.74877613  0.13608325  1
  Al  Al135  1  0.63662914  0.75226417  0.63315807  1
  Al  Al136  1  0.13478480  0.24780157  0.36659850  1
  Al  Al137  1  0.13628738  0.24961750  0.86840792  1
  Al  Al138  1  0.13881216  0.74923168  0.37390199  1
  Al  Al139  1  0.13587493  0.75054609  0.86791720  1
  Al  Al140  1  0.63713628  0.25376133  0.37299135  1
  Al  Al141  1  0.63870925  0.25027799  0.86275825  1
  Al  Al142  1  0.63684345  0.75185336  0.36370492  1
  Al  Al143  1  0.63764451  0.74954213  0.86438160  1
  Al  Al144  1  0.36380273  0.24831213  0.13244797  1
  Al  Al145  1  0.36411712  0.24566626  0.62788060  1
  Al  Al146  1  0.36316875  0.74468591  0.13056723  1
  Al  Al147  1  0.36269770  0.75251006  0.62816317  1
  Al  Al148  1  0.87025265  0.25074046  0.13796994  1
  Al  Al149  1  0.87053175  0.25303920  0.63705210  1
  Al  Al150  1  0.86275372  0.74627325  0.12773836  1
  Al  Al151  1  0.86668918  0.75024950  0.63823013  1
  Al  Al152  1  0.36246402  0.24970471  0.37216164  1
  Al  Al153  1  0.36686100  0.24565164  0.86262343  1
  Al  Al154  1  0.36328456  0.75124947  0.36930668  1
  Al  Al155  1  0.36382194  0.75049878  0.86578462  1
  Al  Al156  1  0.86141006  0.24809561  0.36559467  1
  Al  Al157  1  0.86338040  0.25246425  0.86119536  1
  Al  Al158  1  0.86030304  0.75089377  0.36638209  1
  Al  Al159  1  0.86269924  0.74922324  0.86820021  1
  Al  Al160  1  0.13171828  0.13725159  0.25043775  1
  Al  Al161  1  0.13543496  0.13566801  0.74641706  1
  Al  Al162  1  0.13706783  0.63903688  0.25300447  1
  Al  Al163  1  0.13508906  0.63789196  0.74468527  1
  Al  Al164  1  0.63551737  0.13453307  0.25218552  1
  Al  Al165  1  0.62803418  0.13563647  0.74745775  1
  Al  Al166  1  0.63658873  0.63452093  0.24933999  1
  Al  Al167  1  0.63762005  0.63173983  0.74798182  1
  Al  Al168  1  0.36382210  0.13705797  0.25322254  1
  Al  Al169  1  0.36598905  0.13372726  0.74868377  1
  Al  Al170  1  0.36120414  0.63796897  0.24980151  1
  Al  Al171  1  0.36117526  0.63980999  0.74584995  1
  Al  Al172  1  0.86864100  0.13503695  0.24931775  1
  Al  Al173  1  0.86674830  0.13523822  0.74585027  1
  Al  Al174  1  0.86468050  0.63729126  0.25415863  1
  Al  Al175  1  0.86545229  0.63222298  0.75328756  1
  Al  Al176  1  0.13506089  0.36199235  0.24717481  1
  Al  Al177  1  0.12882006  0.36157048  0.74862545  1
  Al  Al178  1  0.13884611  0.86187167  0.25508344  1
  Al  Al179  1  0.13701098  0.86368814  0.75059113  1
  Al  Al180  1  0.63364043  0.36513827  0.25743581  1
  Al  Al181  1  0.63616183  0.36532970  0.75039620  1
  Al  Al182  1  0.63695153  0.86776513  0.25099204  1
  Al  Al183  1  0.63320416  0.86888079  0.74966269  1
  Al  Al184  1  0.36525615  0.36209377  0.25440419  1
  Al  Al185  1  0.36415311  0.36158955  0.74735828  1
  Al  Al186  1  0.36219466  0.86431174  0.25164804  1
  Al  Al187  1  0.36618358  0.86433955  0.74820810  1
  Al  Al188  1  0.86191007  0.36507632  0.25223351  1
  Al  Al189  1  0.86710098  0.37184592  0.74863225  1
  Al  Al190  1  0.86211314  0.86532252  0.24871556  1
  Al  Al191  1  0.86699149  0.86450887  0.75177755  1
  Al  Al192  1  -0.00038096  0.32093825  0.32075763  1
  Al  Al193  1  0.67209892  0.18496794  0.00019430  1
  Al  Al194  1  0.83079565  0.67524107  0.50340644  1
  Al  Al195  1  0.50017474  0.17053970  0.17369532  1
  Al  Al196  1  0.32148597  0.82488309  -0.00064792  1
  Al  Al197  1  0.00132218  0.18123629  0.81428853  1
  Al  Al198  1  0.68412166  0.81646512  0.00042722  1
  Al  Al199  1  0.81546251  0.00103430  0.31573946  1
  Al  Al200  1  0.00231227  0.80872874  0.68959676  1
  Al  Al201  1  0.81894764  0.32780655  0.50063073  1
  Al  Al202  1  0.32372547  0.18040040  -0.00240439  1
  Al  Al203  1  0.32617803  0.50155773  0.32708901  1
  Al  Al204  1  0.50029909  0.32257794  0.18871323  1
  Al  Al205  1  0.18020689  0.00094882  0.82279599  1
  Al  Al206  1  0.82426530  0.50135173  0.17895361  1
  Al  Al207  1  0.17330575  0.50059677  0.17445063  1
  Al  Al208  1  0.82643497  0.17065771  -0.00074161  1
  Al  Al209  1  0.32645901  0.49862916  0.17138950  1
  Al  Al210  1  0.50049161  0.32261210  0.66944861  1
  Al  Al211  1  0.66849826  0.67300378  0.49664289  1
  Al  Al212  1  0.81868929  0.17594527  0.50289052  1
  Al  Al213  1  0.32095762  0.49840878  0.82607360  1
  Al  Al214  1  0.17012309  0.49913149  0.32810733  1
  Al  Al215  1  0.82804208  -0.00215295  0.82300867  1
  Al  Al216  1  0.00069009  0.83429113  0.17182003  1
  Al  Al217  1  0.68349857  0.00102204  0.18262085  1
  Al  Al218  1  0.50009881  0.81815953  0.17780658  1
  Al  Al219  1  0.49933178  0.83069732  0.33022568  1
  Al  Al220  1  0.49916075  0.67619037  0.66969947  1
  Al  Al221  1  0.50031139  0.68092903  0.82568858  1
  Al  Al222  1  0.50175234  0.31719230  0.82913227  1
  Al  Al223  1  0.81273151  0.32559299  0.00027681  1
  Al  Al224  1  0.00032689  0.69201733  0.80883324  1
  Al  Al225  1  0.33027284  0.00153057  0.17031442  1
  Al  Al226  1  0.18335807  0.17290523  0.50268553  1
  Al  Al227  1  0.49980195  0.67716755  0.31808937  1
  Al  Al228  1  0.17876884  0.32665079  0.50111564  1
  Al  Al229  1  0.00023859  0.81812118  0.32799974  1
  Al  Al230  1  0.68109164  0.50099253  0.67452560  1
  Al  Al231  1  0.17531503  -0.00023886  0.17973558  1
  Al  Al232  1  0.50001604  0.18956568  0.32495126  1
  Al  Al233  1  -0.00206597  0.66805381  0.17465804  1
  Al  Al234  1  0.30950499  0.50124821  0.67340022  1
  Al  Al235  1  0.32524157  -0.00007949  0.33561156  1
  Al  Al236  1  0.17330003  0.50002844  0.80916507  1
  Al  Al237  1  0.67238195  0.49837263  0.18192453  1
  Al  Al238  1  0.18572656  -0.00156755  0.67203790  1
  Au  Au239  1  0.32952083  -0.00336032  0.15480818  1
  Au  Au240  1  0.16275328  0.82967131  -0.00122117  1
  Au  Au241  1  0.49840681  0.66865239  0.16912808  1
  Au  Au242  1  0.84297682  0.17631370  0.00016185  1
  Au  Au243  1  -0.00326927  0.65870036  0.16135712  1
  Au  Au244  1  0.83654065  0.00008065  0.83188463  1
  Au  Au245  1  0.33143467  0.33506706  0.00430724  1
  Au  Au246  1  0.00521571  0.82163980  0.67850705  1
  Au  Au247  1  0.00395502  0.67069508  0.34007087  1
  Au  Au248  1  0.83619493  0.00308461  0.66594469  1
  Au  Au249  1  0.67410750  0.66754807  -0.00096013  1
  Au  Au250  1  0.00361545  0.16367381  0.17002610  1
  Au  Au251  1  0.83521916  0.83827053  0.50079570  1
  Au  Au252  1  0.49474167  0.15990427  0.67366251  1
  Au  Au253  1  0.65569700  0.18029319  -0.00046478  1
  Au  Au254  1  0.33616270  0.50145056  0.33693402  1
  Au  Au255  1  0.33365012  0.82148922  0.00087627  1
  Au  Au256  1  0.00069015  0.32772636  0.66508936  1
  Au  Au257  1  0.84365519  0.66497328  0.50677698  1
  Au  Au258  1  0.65411489  0.66569084  0.49400859  1
  Au  Au259  1  0.66739448  0.84096385  0.49748208  1
  Au  Au260  1  0.66549441  0.49929209  0.83107195  1
  Au  Au261  1  -0.00000247  0.85025267  0.17713068  1
  Au  Au262  1  0.83242406  0.82449732  -0.00090052  1
  Au  Au263  1  0.15744897  -0.00266585  0.32931851  1
  Au  Au264  1  0.33621884  0.00078834  0.34695791  1
  Au  Au265  1  0.16875337  0.00119803  0.83139110  1
  Au  Au266  1  -0.00368484  0.33837619  0.17224582  1
  Au  Au267  1  0.67215698  -0.00147412  0.17038561  1
  Au  Au268  1  0.32874335  0.32452740  0.50006546  1
  Au  Au269  1  0.67003666  0.17390655  0.49882377  1
  Au  Au270  1  0.16421224  0.32584128  -0.00154721  1
  Au  Au271  1  0.82625558  0.49880093  0.32818885  1
  Au  Au272  1  0.50125947  0.33734230  0.66135607  1
  Au  Au273  1  0.50343903  0.32154757  0.84571538  1
  Au  Au274  1  0.32677709  0.16808468  -0.00242721  1
  Au  Au275  1  0.82918277  -0.00014667  0.32601333  1
  Au  Au276  1  0.49969708  0.83065790  0.83685717  1
  Au  Au277  1  0.66279781  0.00243708  0.83485746  1
  Au  Au278  1  0.67278133  0.49885099  0.66502254  1
  Au  Au279  1  0.66546358  -0.00081625  0.66663936  1
  Au  Au280  1  -0.00139802  0.17493316  0.34269391  1
  Au  Au281  1  0.17486160  0.66102665  -0.00359036  1
  Au  Au282  1  -0.00130177  0.32701768  0.83368406  1
  Au  Au283  1  0.83712618  0.50205420  0.82684341  1
  Au  Au284  1  0.17377876  0.67156450  0.50269603  1
  Au  Au285  1  0.33681910  0.50452582  0.82728280  1
  Au  Au286  1  0.49862537  0.66373081  0.67311788  1
  Au  Au287  1  0.49525416  0.83216634  0.66425090  1
