# generated using pymatgen
data_Ca24Ti8Al207Au49
_symmetry_space_group_name_H-M   'P 1'
_cell_length_a   17.32358250
_cell_length_b   17.32322654
_cell_length_c   17.32396517
_cell_angle_alpha   90.00015949
_cell_angle_beta   90.00007864
_cell_angle_gamma   90.00148128
_symmetry_Int_Tables_number   1
_chemical_formula_structural   Ca24Ti8Al207Au49
_chemical_formula_sum   'Ca24 Ti8 Al207 Au49'
_cell_volume   5198.92790883
_cell_formula_units_Z   1
loop_
 _symmetry_equiv_pos_site_id
 _symmetry_equiv_pos_as_xyz
  1  'x, y, z'
loop_
 _atom_site_type_symbol
 _atom_site_label
 _atom_site_symmetry_multiplicity
 _atom_site_fract_x
 _atom_site_fract_y
 _atom_site_fract_z
 _atom_site_occupancy
  Ca  Ca0  1  0.24986007  -0.00300944  -0.00202214  1
  Ca  Ca1  1  0.24802916  -0.00337012  0.50050754  1
  Ca  Ca2  1  0.25246329  0.50291454  0.00241991  1
  Ca  Ca3  1  0.25217202  0.50107832  0.50083674  1
  Ca  Ca4  1  0.74820422  -0.00007865  0.00637513  1
  Ca  Ca5  1  0.75237237  0.00409375  0.49544422  1
  Ca  Ca6  1  0.74655933  0.50043127  -0.00155000  1
  Ca  Ca7  1  0.74682270  0.49584114  0.50291735  1
  Ca  Ca8  1  -0.00215055  0.24623005  0.00101936  1
  Ca  Ca9  1  -0.00198537  0.24826945  0.49888972  1
  Ca  Ca10  1  -0.00101533  0.75365591  0.00483977  1
  Ca  Ca11  1  -0.00136435  0.75109879  0.49772297  1
  Ca  Ca12  1  0.50048650  0.24556046  -0.00404079  1
  Ca  Ca13  1  0.50156232  0.25336888  0.50541250  1
  Ca  Ca14  1  0.49975038  0.75092480  0.00331025  1
  Ca  Ca15  1  0.49947457  0.74547871  0.50021966  1
  Ca  Ca16  1  -0.00362719  0.00000429  0.24648996  1
  Ca  Ca17  1  0.00156919  -0.00197866  0.75252572  1
  Ca  Ca18  1  0.00568225  0.49931851  0.24823831  1
  Ca  Ca19  1  -0.00620340  0.50084567  0.74984576  1
  Ca  Ca20  1  0.50509843  -0.00234932  0.24266966  1
  Ca  Ca21  1  0.49701644  0.00440318  0.75515155  1
  Ca  Ca22  1  0.49980457  0.50272912  0.24672509  1
  Ca  Ca23  1  0.50393715  0.49823798  0.74695605  1
  Ti  Ti24  1  0.24813162  0.24968330  0.24901259  1
  Ti  Ti25  1  0.25228074  0.24939822  0.75064655  1
  Ti  Ti26  1  0.24923203  0.75010551  0.24912421  1
  Ti  Ti27  1  0.24985449  0.75139130  0.75087554  1
  Ti  Ti28  1  0.75060802  0.24961570  0.25050640  1
  Ti  Ti29  1  0.74875958  0.25024280  0.74979482  1
  Ti  Ti30  1  0.74988352  0.75087370  0.24882596  1
  Ti  Ti31  1  0.75074943  0.74911219  0.75088778  1
  Al  Al32  1  0.07989264  0.07851076  0.07726395  1
  Al  Al33  1  0.07500632  0.08496880  0.59031909  1
  Al  Al34  1  0.08776809  0.58905923  0.09359984  1
  Al  Al35  1  0.08095880  0.58353734  0.58269991  1
  Al  Al36  1  0.58831572  0.07462537  0.08539617  1
  Al  Al37  1  0.58287193  0.09923886  0.58158292  1
  Al  Al38  1  0.58212691  0.59696445  0.08010836  1
  Al  Al39  1  0.58670448  0.57449556  0.58510076  1
  Al  Al40  1  0.41563618  0.42078151  0.08166490  1
  Al  Al41  1  0.41758880  0.41419433  0.58942421  1
  Al  Al42  1  0.42229974  0.90682551  0.08049691  1
  Al  Al43  1  0.41525509  0.92142230  0.58371829  1
  Al  Al44  1  0.91629368  0.41469863  0.07719154  1
  Al  Al45  1  0.91513482  0.41510858  0.58399004  1
  Al  Al46  1  0.91531151  0.91513842  0.09185466  1
  Al  Al47  1  0.92457410  0.91589005  0.58492487  1
  Al  Al48  1  0.42077733  0.07813263  0.42057915  1
  Al  Al49  1  0.40938786  0.08655660  0.90941134  1
  Al  Al50  1  0.41668618  0.58081154  0.41921555  1
  Al  Al51  1  0.41557997  0.58907257  0.92386037  1
  Al  Al52  1  0.90432085  0.08427766  0.41668191  1
  Al  Al53  1  0.91956023  0.09209232  0.92223798  1
  Al  Al54  1  0.92031691  0.58015892  0.41564376  1
  Al  Al55  1  0.91802435  0.58319581  0.91676974  1
  Al  Al56  1  0.08900712  0.42216282  0.40919354  1
  Al  Al57  1  0.08193425  0.41815103  0.92055163  1
  Al  Al58  1  0.07645487  0.91683806  0.41645982  1
  Al  Al59  1  0.08795197  0.90715482  0.91828989  1
  Al  Al60  1  0.58426564  0.41808195  0.42426120  1
  Al  Al61  1  0.58287243  0.41444341  0.90999652  1
  Al  Al62  1  0.58284211  0.92336671  0.40985848  1
  Al  Al63  1  0.58552857  0.91189369  0.92823020  1
  Al  Al64  1  0.07632562  0.07891230  0.41970206  1
  Al  Al65  1  0.08143605  0.08387723  0.91319393  1
  Al  Al66  1  0.09039311  0.58077760  0.40878494  1
  Al  Al67  1  0.07898982  0.58880896  0.92356340  1
  Al  Al68  1  0.59626513  0.08564303  0.41871657  1
  Al  Al69  1  0.57341592  0.08874835  0.91743397  1
  Al  Al70  1  0.58159782  0.58094323  0.42183550  1
  Al  Al71  1  0.58820329  0.58846250  0.91820251  1
  Al  Al72  1  0.41451096  0.42055971  0.42409099  1
  Al  Al73  1  0.42304807  0.41043025  0.91556256  1
  Al  Al74  1  0.42006844  0.91641030  0.41579138  1
  Al  Al75  1  0.40700844  0.92095174  0.91774895  1
  Al  Al76  1  0.91649537  0.41786679  0.41909238  1
  Al  Al77  1  0.91054435  0.41648672  0.91994367  1
  Al  Al78  1  0.91506824  0.92393348  0.40668977  1
  Al  Al79  1  0.92567613  0.90999142  0.91876546  1
  Al  Al80  1  0.09121224  0.42494385  0.08914502  1
  Al  Al81  1  0.08062096  0.41686856  0.58398792  1
  Al  Al82  1  0.08292723  0.90691764  0.08281548  1
  Al  Al83  1  0.07928002  0.91319500  0.58816243  1
  Al  Al84  1  0.58051012  0.41836597  0.07810111  1
  Al  Al85  1  0.58297387  0.41276585  0.59278300  1
  Al  Al86  1  0.58943486  0.90898127  0.08911287  1
  Al  Al87  1  0.57693765  0.92232098  0.57995804  1
  Al  Al88  1  0.41673069  0.08660722  0.07024886  1
  Al  Al89  1  0.42229801  0.08590877  0.59033463  1
  Al  Al90  1  0.41469647  0.59217469  0.08496760  1
  Al  Al91  1  0.41340454  0.57455723  0.58432872  1
  Al  Al92  1  0.90476655  0.07978429  0.08438727  1
  Al  Al93  1  0.91576149  0.09171613  0.57935478  1
  Al  Al94  1  0.92501733  0.59121324  0.08689948  1
  Al  Al95  1  0.91691717  0.58050426  0.58545649  1
  Al  Al96  1  0.24940590  0.13758798  0.12947626  1
  Al  Al97  1  0.25297093  0.13667619  0.63571989  1
  Al  Al98  1  0.24899130  0.63696328  0.13392910  1
  Al  Al99  1  0.25188914  0.63447573  0.63534122  1
  Al  Al100  1  0.75038617  0.13710800  0.13000329  1
  Al  Al101  1  0.74818835  0.13764387  0.63089739  1
  Al  Al102  1  0.74509462  0.63551693  0.13134185  1
  Al  Al103  1  0.74971455  0.63469366  0.63617901  1
  Al  Al104  1  0.24746360  0.36596559  0.13698666  1
  Al  Al105  1  0.25260769  0.36777538  0.63844039  1
  Al  Al106  1  0.24411492  0.86067621  0.13016539  1
  Al  Al107  1  0.24959029  0.86420295  0.63234422  1
  Al  Al108  1  0.74915007  0.36548351  0.13686704  1
  Al  Al109  1  0.74607866  0.36224549  0.63046768  1
  Al  Al110  1  0.74596210  0.86577310  0.13368023  1
  Al  Al111  1  0.75221354  0.86596414  0.63596716  1
  Al  Al112  1  0.24906717  0.13724332  0.36758969  1
  Al  Al113  1  0.25370242  0.13200193  0.86843127  1
  Al  Al114  1  0.24581708  0.63402537  0.36286877  1
  Al  Al115  1  0.25103438  0.63554014  0.86760493  1
  Al  Al116  1  0.75402201  0.13252757  0.36564381  1
  Al  Al117  1  0.74800814  0.13953729  0.87180415  1
  Al  Al118  1  0.75054664  0.63634508  0.36330711  1
  Al  Al119  1  0.74496161  0.63601483  0.86873592  1
  Al  Al120  1  0.24310312  0.36596318  0.36370066  1
  Al  Al121  1  0.25617337  0.36239526  0.86589655  1
  Al  Al122  1  0.24908080  0.86336825  0.36670766  1
  Al  Al123  1  0.24861361  0.86876601  0.86478656  1
  Al  Al124  1  0.74955486  0.36065782  0.37192523  1
  Al  Al125  1  0.74375783  0.36328270  0.86382492  1
  Al  Al126  1  0.75558039  0.86939389  0.36306292  1
  Al  Al127  1  0.74664227  0.86289382  0.86549687  1
  Al  Al128  1  0.12859870  0.25012448  0.13444382  1
  Al  Al129  1  0.13492986  0.24911005  0.63059767  1
  Al  Al130  1  0.12819042  0.74990314  0.13503427  1
  Al  Al131  1  0.13306473  0.75473856  0.63548679  1
  Al  Al132  1  0.63688292  0.25027905  0.12888020  1
  Al  Al133  1  0.63436386  0.25153286  0.63270942  1
  Al  Al134  1  0.63508702  0.75416316  0.13134586  1
  Al  Al135  1  0.63597434  0.74876520  0.63729667  1
  Al  Al136  1  0.12932528  0.25056442  0.36562940  1
  Al  Al137  1  0.13745800  0.24528784  0.86788963  1
  Al  Al138  1  0.13462464  0.75190471  0.36226653  1
  Al  Al139  1  0.13461522  0.75763022  0.87072509  1
  Al  Al140  1  0.63665505  0.24567169  0.36971022  1
  Al  Al141  1  0.62858363  0.24973811  0.86616798  1
  Al  Al142  1  0.63544950  0.75440785  0.36158215  1
  Al  Al143  1  0.63552141  0.74983420  0.86855175  1
  Al  Al144  1  0.36204892  0.25112639  0.12866438  1
  Al  Al145  1  0.36783191  0.25186180  0.63752500  1
  Al  Al146  1  0.36332027  0.74787416  0.13142598  1
  Al  Al147  1  0.36279521  0.75255474  0.63667400  1
  Al  Al148  1  0.86813941  0.24514406  0.13615859  1
  Al  Al149  1  0.86396224  0.24915513  0.62835923  1
  Al  Al150  1  0.86770644  0.75118197  0.13507988  1
  Al  Al151  1  0.86424237  0.75113386  0.63017525  1
  Al  Al152  1  0.36513249  0.25152203  0.36380699  1
  Al  Al153  1  0.37159070  0.24808832  0.86587867  1
  Al  Al154  1  0.36553311  0.75377801  0.36401911  1
  Al  Al155  1  0.36339542  0.75056062  0.86604825  1
  Al  Al156  1  0.86672019  0.24813164  0.36926680  1
  Al  Al157  1  0.86286636  0.24959903  0.86458545  1
  Al  Al158  1  0.86447364  0.75032128  0.36752827  1
  Al  Al159  1  0.86514445  0.75215688  0.86527038  1
  Al  Al160  1  0.12948984  0.13707465  0.24946405  1
  Al  Al161  1  0.13732122  0.13504667  0.75082048  1
  Al  Al162  1  0.13452233  0.63365808  0.24492593  1
  Al  Al163  1  0.13535501  0.64328101  0.75055088  1
  Al  Al164  1  0.63822149  0.13513368  0.24709879  1
  Al  Al165  1  0.63732582  0.13436201  0.75194457  1
  Al  Al166  1  0.63683922  0.63306392  0.24867304  1
  Al  Al167  1  0.63647163  0.63070477  0.75138532  1
  Al  Al168  1  0.36325574  0.13907633  0.24972081  1
  Al  Al169  1  0.36729200  0.13493619  0.75705973  1
  Al  Al170  1  0.36370206  0.63564634  0.25036608  1
  Al  Al171  1  0.36394940  0.63415732  0.74832149  1
  Al  Al172  1  0.86801219  0.13515843  0.25256233  1
  Al  Al173  1  0.86314713  0.13635950  0.74691653  1
  Al  Al174  1  0.86488311  0.63682623  0.24476520  1
  Al  Al175  1  0.86352979  0.63622489  0.74990593  1
  Al  Al176  1  0.13120585  0.36524898  0.24901190  1
  Al  Al177  1  0.13364571  0.35985289  0.74834277  1
  Al  Al178  1  0.13424935  0.86381858  0.24554724  1
  Al  Al179  1  0.13154641  0.86474968  0.75262847  1
  Al  Al180  1  0.63577196  0.36670160  0.25173627  1
  Al  Al181  1  0.63030482  0.36534381  0.74850673  1
  Al  Al182  1  0.63265029  0.87007646  0.24501800  1
  Al  Al183  1  0.63411908  0.86452235  0.75017155  1
  Al  Al184  1  0.36603833  0.36475361  0.24824286  1
  Al  Al185  1  0.37292721  0.36536278  0.74893496  1
  Al  Al186  1  0.36535238  0.86172313  0.24245632  1
  Al  Al187  1  0.36675508  0.86625226  0.75502538  1
  Al  Al188  1  0.87009561  0.36101734  0.24929710  1
  Al  Al189  1  0.86332782  0.36244318  0.74671909  1
  Al  Al190  1  0.86431533  0.86507551  0.24540400  1
  Al  Al191  1  0.86887357  0.86496027  0.75100497  1
  Al  Al192  1  0.32407570  -0.00119889  0.16768264  1
  Al  Al193  1  -0.00149683  0.82773020  0.31143719  1
  Al  Al194  1  0.17771972  0.50238118  0.67884835  1
  Al  Al195  1  0.32935387  0.50058892  0.82489715  1
  Al  Al196  1  0.49982394  0.67931645  0.82666356  1
  Al  Al197  1  0.68586420  0.00106199  0.31097605  1
  Al  Al198  1  0.31593502  0.50182784  0.17263677  1
  Al  Al199  1  0.18670195  0.68786878  0.00065893  1
  Al  Al200  1  0.83265314  0.00104765  0.82982641  1
  Al  Al201  1  0.00047726  0.68730885  0.82764568  1
  Al  Al202  1  -0.00128995  0.68640961  0.67572793  1
  Al  Al203  1  -0.00048124  0.18178277  0.81038529  1
  Al  Al204  1  0.32705650  0.00159415  0.68569653  1
  Al  Al205  1  0.17420736  0.67752419  0.49963433  1
  Al  Al206  1  0.00041510  0.67551839  0.31511948  1
  Al  Al207  1  0.17140762  -0.00109058  0.68172660  1
  Al  Al208  1  0.17881477  0.32116283  0.00468969  1
  Al  Al209  1  0.32153563  0.17497669  0.50077318  1
  Al  Al210  1  0.49914598  0.32243641  0.17804568  1
  Al  Al211  1  0.81840830  0.31172275  0.00108880  1
  Al  Al212  1  0.49997907  0.81799389  0.31724769  1
  Al  Al213  1  0.81862846  0.49980404  0.82572804  1
  Al  Al214  1  0.32028667  0.32217658  0.50174982  1
  Al  Al215  1  0.80681367  0.00151853  0.19218023  1
  Al  Al216  1  0.17193481  -0.00025862  0.17280802  1
  Al  Al217  1  0.49992506  0.17532490  0.17074501  1
  Al  Al218  1  0.81912500  0.67618362  0.00023803  1
  Al  Al219  1  0.67859678  0.83144155  0.49952861  1
  Al  Al220  1  0.32490749  -0.00040024  0.32425824  1
  Al  Al221  1  0.16886194  0.50331240  0.82189880  1
  Al  Al222  1  0.50303457  0.17541497  0.32695427  1
  Al  Al223  1  0.31348341  0.81386207  -0.00100509  1
  Al  Al224  1  0.50124644  0.19076563  0.69221359  1
  Al  Al225  1  0.67847341  0.67358596  0.50081183  1
  Al  Al226  1  -0.00124705  0.31794687  0.68175623  1
  Al  Al227  1  0.82575822  0.50020374  0.17111661  1
  Al  Al228  1  0.49897152  0.82532235  0.68252823  1
  Al  Al229  1  0.82328671  0.00084092  0.66984381  1
  Al  Al230  1  0.82031550  0.49787313  0.32542136  1
  Al  Al231  1  0.50011549  0.69130245  0.18178052  1
  Al  Al232  1  0.81418911  0.49777982  0.67414828  1
  Al  Al233  1  0.66750321  -0.00018801  0.82534888  1
  Al  Al234  1  0.17122520  -0.00032563  0.32638158  1
  Al  Al235  1  0.31400723  0.49915125  0.32427314  1
  Al  Al236  1  0.50031771  0.66942412  0.67190197  1
  Al  Al237  1  0.81677913  0.82853825  0.00107040  1
  Al  Al238  1  0.32720188  0.67854700  0.50032683  1
  Au  Au239  1  0.83159107  0.67280189  0.00108673  1
  Au  Au240  1  0.49892840  0.82993425  0.67064552  1
  Au  Au241  1  0.67236591  0.16440309  0.00160583  1
  Au  Au242  1  0.83018277  0.00071809  0.84218540  1
  Au  Au243  1  -0.00298027  0.16401303  0.16369548  1
  Au  Au244  1  0.83838857  0.50232544  0.17154851  1
  Au  Au245  1  0.49904449  0.32727482  0.16594019  1
  Au  Au246  1  0.17041335  0.32988808  0.00178694  1
  Au  Au247  1  0.33444716  0.32558815  -0.00053076  1
  Au  Au248  1  0.50102681  0.31866095  0.81966554  1
  Au  Au249  1  0.33408888  0.82894551  0.49966509  1
  Au  Au250  1  0.17521542  0.16365520  -0.00052184  1
  Au  Au251  1  -0.00024083  0.31592801  0.66914425  1
  Au  Au252  1  0.17669556  0.49902319  0.66672679  1
  Au  Au253  1  0.66965010  0.00135629  0.83755719  1
  Au  Au254  1  0.33938795  0.00435647  0.16878270  1
  Au  Au255  1  0.49835083  0.82870843  0.84436561  1
  Au  Au256  1  0.66284408  0.50485033  0.16341818  1
  Au  Au257  1  0.66411701  0.00725757  0.66114582  1
  Au  Au258  1  0.32626240  0.49911425  0.32814732  1
  Au  Au259  1  -0.00113232  0.67408040  0.67206399  1
  Au  Au260  1  0.49906248  0.33404404  0.33868445  1
  Au  Au261  1  0.17466510  -0.00059988  0.66956461  1
  Au  Au262  1  0.17294119  0.67834911  0.00216406  1
  Au  Au263  1  0.50375337  0.16322928  0.33058011  1
  Au  Au264  1  0.66975171  0.50137110  0.82534687  1
  Au  Au265  1  0.50016655  0.83046850  0.31974683  1
  Au  Au266  1  0.67261287  0.49978613  0.33749069  1
  Au  Au267  1  0.66483150  0.32325381  0.50401021  1
  Au  Au268  1  0.33355220  0.17065830  0.50059256  1
  Au  Au269  1  0.17172689  0.33890628  0.49804876  1
  Au  Au270  1  0.34202567  0.50094994  0.82273979  1
  Au  Au271  1  0.83449447  0.00059939  0.66424169  1
  Au  Au272  1  0.68320399  0.00096257  0.32366166  1
  Au  Au273  1  0.16578946  0.49892423  0.83318336  1
  Au  Au274  1  0.00156039  0.33417445  0.16472303  1
  Au  Au275  1  0.84247732  0.83291179  0.49662741  1
  Au  Au276  1  0.83239480  0.32416826  0.49866653  1
  Au  Au277  1  0.50150559  0.66370173  0.32835061  1
  Au  Au278  1  0.82664652  0.65874781  0.49928600  1
  Au  Au279  1  0.66248398  0.82563553  0.49945869  1
  Au  Au280  1  0.00095544  0.66697416  0.32664887  1
  Au  Au281  1  0.17327478  -0.00213786  0.83511559  1
  Au  Au282  1  -0.00362635  0.32650464  0.84054398  1
  Au  Au283  1  -0.00467116  0.16460462  0.33304135  1
  Au  Au284  1  0.67296978  0.33300078  -0.00154669  1
  Au  Au285  1  0.00026801  0.33539939  0.33143486  1
  Au  Au286  1  0.15905873  0.82599430  0.49866586  1
  Au  Au287  1  0.15974797  0.16797083  0.50178498  1
