# generated using pymatgen
data_Ca24Ti8Al207Au49
_symmetry_space_group_name_H-M   'P 1'
_cell_length_a   17.32052742
_cell_length_b   17.32128028
_cell_length_c   17.31971252
_cell_angle_alpha   89.99875366
_cell_angle_beta   89.99706560
_cell_angle_gamma   89.99736307
_symmetry_Int_Tables_number   1
_chemical_formula_structural   Ca24Ti8Al207Au49
_chemical_formula_sum   'Ca24 Ti8 Al207 Au49'
_cell_volume   5196.15119523
_cell_formula_units_Z   1
loop_
 _symmetry_equiv_pos_site_id
 _symmetry_equiv_pos_as_xyz
  1  'x, y, z'
loop_
 _atom_site_type_symbol
 _atom_site_label
 _atom_site_symmetry_multiplicity
 _atom_site_fract_x
 _atom_site_fract_y
 _atom_site_fract_z
 _atom_site_occupancy
  Ca  Ca0  1  0.24425159  -0.00073629  -0.00243460  1
  Ca  Ca1  1  0.25068362  -0.00118411  0.50569906  1
  Ca  Ca2  1  0.25255277  0.50334680  0.00203572  1
  Ca  Ca3  1  0.25056853  0.49872371  0.49987320  1
  Ca  Ca4  1  0.74838872  -0.00236349  -0.00320494  1
  Ca  Ca5  1  0.74234713  -0.00299155  0.50361561  1
  Ca  Ca6  1  0.74767603  0.50158107  0.00210296  1
  Ca  Ca7  1  0.74408753  0.50297072  0.49822746  1
  Ca  Ca8  1  0.00104816  0.24837283  -0.00178501  1
  Ca  Ca9  1  0.00083415  0.25068212  0.50097849  1
  Ca  Ca10  1  0.00654712  0.75016993  -0.00107903  1
  Ca  Ca11  1  -0.00066748  0.75085533  0.50350012  1
  Ca  Ca12  1  0.49522018  0.25052054  -0.00217115  1
  Ca  Ca13  1  0.49930275  0.25331117  0.50188812  1
  Ca  Ca14  1  0.49644728  0.74366535  0.00334075  1
  Ca  Ca15  1  0.50256585  0.74933388  0.49867987  1
  Ca  Ca16  1  0.00062359  -0.00046333  0.25089366  1
  Ca  Ca17  1  0.00269377  -0.00177518  0.74943459  1
  Ca  Ca18  1  -0.00119012  0.50123339  0.25153543  1
  Ca  Ca19  1  -0.00011305  0.50079602  0.74558609  1
  Ca  Ca20  1  0.49798780  -0.00208267  0.25039246  1
  Ca  Ca21  1  0.49926943  0.00061901  0.74426972  1
  Ca  Ca22  1  0.50056028  0.50437755  0.25039754  1
  Ca  Ca23  1  0.50068987  0.50201874  0.74541545  1
  Ti  Ti24  1  0.24979883  0.24823116  0.25029942  1
  Ti  Ti25  1  0.24986740  0.24962742  0.74994384  1
  Ti  Ti26  1  0.24978795  0.75041491  0.25052114  1
  Ti  Ti27  1  0.25051927  0.75044849  0.75080482  1
  Ti  Ti28  1  0.75034023  0.25257142  0.25069989  1
  Ti  Ti29  1  0.74980996  0.25074775  0.74802744  1
  Ti  Ti30  1  0.75023088  0.74790059  0.25062858  1
  Ti  Ti31  1  0.74806273  0.75030619  0.74760528  1
  Al  Al32  1  0.07949434  0.08716174  0.08761364  1
  Al  Al33  1  0.09813487  0.08686181  0.58480251  1
  Al  Al34  1  0.08697334  0.58222580  0.08018369  1
  Al  Al35  1  0.09026326  0.57294218  0.58546600  1
  Al  Al36  1  0.59104471  0.08527002  0.07729619  1
  Al  Al37  1  0.58205808  0.07379766  0.58867488  1
  Al  Al38  1  0.58644559  0.58488911  0.09127683  1
  Al  Al39  1  0.59270327  0.58308555  0.58239611  1
  Al  Al40  1  0.41916962  0.42200452  0.08928240  1
  Al  Al41  1  0.42519674  0.41370574  0.58970927  1
  Al  Al42  1  0.41692875  0.91184474  0.07872977  1
  Al  Al43  1  0.42170324  0.91745868  0.59334273  1
  Al  Al44  1  0.91701427  0.42958415  0.09140977  1
  Al  Al45  1  0.92213480  0.41353549  0.58882727  1
  Al  Al46  1  0.92353203  0.92368726  0.07866543  1
  Al  Al47  1  0.91957060  0.91685935  0.58857034  1
  Al  Al48  1  0.41358507  0.08187679  0.42018062  1
  Al  Al49  1  0.41256196  0.07702029  0.91399777  1
  Al  Al50  1  0.42173391  0.58885897  0.40211667  1
  Al  Al51  1  0.41235056  0.58507235  0.93007245  1
  Al  Al52  1  0.92512681  0.07756914  0.42195697  1
  Al  Al53  1  0.92757695  0.07460493  0.92328907  1
  Al  Al54  1  0.90870155  0.58455882  0.41186854  1
  Al  Al55  1  0.91494817  0.59279510  0.92220168  1
  Al  Al56  1  0.08938134  0.42201757  0.42358983  1
  Al  Al57  1  0.08531679  0.41183034  0.91940325  1
  Al  Al58  1  0.08872470  0.92545183  0.41338288  1
  Al  Al59  1  0.09226225  0.90907265  0.90721834  1
  Al  Al60  1  0.58382469  0.42597652  0.41824311  1
  Al  Al61  1  0.58118168  0.42138304  0.91203713  1
  Al  Al62  1  0.58400646  0.90163125  0.42503620  1
  Al  Al63  1  0.57850614  0.92576727  0.91303435  1
  Al  Al64  1  0.09826724  0.08751595  0.41978228  1
  Al  Al65  1  0.08963759  0.07372467  0.90959065  1
  Al  Al66  1  0.08091115  0.57782489  0.41482020  1
  Al  Al67  1  0.08339888  0.58636250  0.91853400  1
  Al  Al68  1  0.57317251  0.07522978  0.42727104  1
  Al  Al69  1  0.59320789  0.08517259  0.91787782  1
  Al  Al70  1  0.58629615  0.59383136  0.41113967  1
  Al  Al71  1  0.58807676  0.57890173  0.92232515  1
  Al  Al72  1  0.41203382  0.42827215  0.41212963  1
  Al  Al73  1  0.41927141  0.41941405  0.91860997  1
  Al  Al74  1  0.42215122  0.91479816  0.41633979  1
  Al  Al75  1  0.40917919  0.91716406  0.91381514  1
  Al  Al76  1  0.90927087  0.42719069  0.41380327  1
  Al  Al77  1  0.93046682  0.42665419  0.91481467  1
  Al  Al78  1  0.92263932  0.91592489  0.42232166  1
  Al  Al79  1  0.93050127  0.91156067  0.90911549  1
  Al  Al80  1  0.08672726  0.41754396  0.08031290  1
  Al  Al81  1  0.08630499  0.41169447  0.59307607  1
  Al  Al82  1  0.08696021  0.91295923  0.07344605  1
  Al  Al83  1  0.08856784  0.92320309  0.59499909  1
  Al  Al84  1  0.58358687  0.42391984  0.09402193  1
  Al  Al85  1  0.58730816  0.41719969  0.59286445  1
  Al  Al86  1  0.57587226  0.92355839  0.08496013  1
  Al  Al87  1  0.58563623  0.90944593  0.58923267  1
  Al  Al88  1  0.42249232  0.08119892  0.07698870  1
  Al  Al89  1  0.41051910  0.07859094  0.59000720  1
  Al  Al90  1  0.41408196  0.58708792  0.09037118  1
  Al  Al91  1  0.42109725  0.57752704  0.57784755  1
  Al  Al92  1  0.92224786  0.08919126  0.09182099  1
  Al  Al93  1  0.92066116  0.07773228  0.58653316  1
  Al  Al94  1  0.90202215  0.58731067  0.08363656  1
  Al  Al95  1  0.91599440  0.57948162  0.57511733  1
  Al  Al96  1  0.24824898  0.13419102  0.12832115  1
  Al  Al97  1  0.24777914  0.13503331  0.63188049  1
  Al  Al98  1  0.25131393  0.63776599  0.12943328  1
  Al  Al99  1  0.25232154  0.63166985  0.63559223  1
  Al  Al100  1  0.74962954  0.13538588  0.13534562  1
  Al  Al101  1  0.74832023  0.13653809  0.63583966  1
  Al  Al102  1  0.74888931  0.63312524  0.13659854  1
  Al  Al103  1  0.74329326  0.63358574  0.63266082  1
  Al  Al104  1  0.24945166  0.36307471  0.13737785  1
  Al  Al105  1  0.24951997  0.37131626  0.63823237  1
  Al  Al106  1  0.24626203  0.86662425  0.13210119  1
  Al  Al107  1  0.25058899  0.86890264  0.63510242  1
  Al  Al108  1  0.74892000  0.36449915  0.13344964  1
  Al  Al109  1  0.74797712  0.36724128  0.63521371  1
  Al  Al110  1  0.75508195  0.86442148  0.13614179  1
  Al  Al111  1  0.74173568  0.86648457  0.63384500  1
  Al  Al112  1  0.24820254  0.12974631  0.36815365  1
  Al  Al113  1  0.25017216  0.12984279  0.86571345  1
  Al  Al114  1  0.25220468  0.63408553  0.36798581  1
  Al  Al115  1  0.24846949  0.63695491  0.87126707  1
  Al  Al116  1  0.75451556  0.13552069  0.36156344  1
  Al  Al117  1  0.74672816  0.13573083  0.86326790  1
  Al  Al118  1  0.74760249  0.62863347  0.36396271  1
  Al  Al119  1  0.74888627  0.63655841  0.86396083  1
  Al  Al120  1  0.25008627  0.36386880  0.36404059  1
  Al  Al121  1  0.25276914  0.36751277  0.86275589  1
  Al  Al122  1  0.25142848  0.86716953  0.37036062  1
  Al  Al123  1  0.24865945  0.87169973  0.86532823  1
  Al  Al124  1  0.75283416  0.37324785  0.36214633  1
  Al  Al125  1  0.74721926  0.36468495  0.86284833  1
  Al  Al126  1  0.74399176  0.86185951  0.36717883  1
  Al  Al127  1  0.74757229  0.86375745  0.86173216  1
  Al  Al128  1  0.13294748  0.24384986  0.13649840  1
  Al  Al129  1  0.13294388  0.24767912  0.63683854  1
  Al  Al130  1  0.13752107  0.75111940  0.12971120  1
  Al  Al131  1  0.13891192  0.75386757  0.63449037  1
  Al  Al132  1  0.63679763  0.24768430  0.13551836  1
  Al  Al133  1  0.63342603  0.25334487  0.63427868  1
  Al  Al134  1  0.63633811  0.74721323  0.13771755  1
  Al  Al135  1  0.63330791  0.75161304  0.62914718  1
  Al  Al136  1  0.13611161  0.24572831  0.36590508  1
  Al  Al137  1  0.13765668  0.24719402  0.86080950  1
  Al  Al138  1  0.13912459  0.75235699  0.36918902  1
  Al  Al139  1  0.13420489  0.75413565  0.86795728  1
  Al  Al140  1  0.63435299  0.25425503  0.36231071  1
  Al  Al141  1  0.63491250  0.25006472  0.86353584  1
  Al  Al142  1  0.63593119  0.74332164  0.36721307  1
  Al  Al143  1  0.63163898  0.74903778  0.86044202  1
  Al  Al144  1  0.36310261  0.24830311  0.13223475  1
  Al  Al145  1  0.36150965  0.24934128  0.63654737  1
  Al  Al146  1  0.36422353  0.74957207  0.13407041  1
  Al  Al147  1  0.36459636  0.75428983  0.63360518  1
  Al  Al148  1  0.86486383  0.24644036  0.13500599  1
  Al  Al149  1  0.86942169  0.25256981  0.63458187  1
  Al  Al150  1  0.86424071  0.74630533  0.13521441  1
  Al  Al151  1  0.86277044  0.75076252  0.63636640  1
  Al  Al152  1  0.36267257  0.24440963  0.36716417  1
  Al  Al153  1  0.36159478  0.25080072  0.86784557  1
  Al  Al154  1  0.36333024  0.75002107  0.37071542  1
  Al  Al155  1  0.36570667  0.74991195  0.86301540  1
  Al  Al156  1  0.86952427  0.25434973  0.36262427  1
  Al  Al157  1  0.86394699  0.24882336  0.86355946  1
  Al  Al158  1  0.86305445  0.75058076  0.36404302  1
  Al  Al159  1  0.86456308  0.75001281  0.86278205  1
  Al  Al160  1  0.13844109  0.12906932  0.25005893  1
  Al  Al161  1  0.13807498  0.12796369  0.74679721  1
  Al  Al162  1  0.13854630  0.63706290  0.24788244  1
  Al  Al163  1  0.13831227  0.63618195  0.75117611  1
  Al  Al164  1  0.63354631  0.13632490  0.25018778  1
  Al  Al165  1  0.63518020  0.13377800  0.74444431  1
  Al  Al166  1  0.63631555  0.62815371  0.25144679  1
  Al  Al167  1  0.63302427  0.63575185  0.74632431  1
  Al  Al168  1  0.36470877  0.13367347  0.25183730  1
  Al  Al169  1  0.35965435  0.12708412  0.74794651  1
  Al  Al170  1  0.36524205  0.63623838  0.25446807  1
  Al  Al171  1  0.36544362  0.63305442  0.74830035  1
  Al  Al172  1  0.86603073  0.13195870  0.24846640  1
  Al  Al173  1  0.86595706  0.13526869  0.74734578  1
  Al  Al174  1  0.86371535  0.63262970  0.25375191  1
  Al  Al175  1  0.86350899  0.63707838  0.74901464  1
  Al  Al176  1  0.13192010  0.36172851  0.25145171  1
  Al  Al177  1  0.13402125  0.36636936  0.74374667  1
  Al  Al178  1  0.13811049  0.86959542  0.25205235  1
  Al  Al179  1  0.13855710  0.86868886  0.75267637  1
  Al  Al180  1  0.63801356  0.37327504  0.25035995  1
  Al  Al181  1  0.62880544  0.36384215  0.74606649  1
  Al  Al182  1  0.63457881  0.86053827  0.25040234  1
  Al  Al183  1  0.62954282  0.86540600  0.74179591  1
  Al  Al184  1  0.36403101  0.36433978  0.25320768  1
  Al  Al185  1  0.36699191  0.36765297  0.74805119  1
  Al  Al186  1  0.36322422  0.86401449  0.25142679  1
  Al  Al187  1  0.36117394  0.87181525  0.74958114  1
  Al  Al188  1  0.86838715  0.36635083  0.24965194  1
  Al  Al189  1  0.86540857  0.36578412  0.74641306  1
  Al  Al190  1  0.86509254  0.86738952  0.25182763  1
  Al  Al191  1  0.86300509  0.86475381  0.74893605  1
  Al  Al192  1  0.31890165  0.50150455  0.18902519  1
  Al  Al193  1  0.17670459  0.67392355  0.49897002  1
  Al  Al194  1  0.81559091  0.50206967  0.67539115  1
  Al  Al195  1  0.67618570  0.50026167  0.81178142  1
  Al  Al196  1  0.68416227  0.67394934  0.00100498  1
  Al  Al197  1  0.80827590  0.49942651  0.19119822  1
  Al  Al198  1  0.82804185  0.17681519  0.50025127  1
  Al  Al199  1  0.31171414  0.81244576  -0.00180009  1
  Al  Al200  1  0.00128182  0.67872111  0.32651297  1
  Al  Al201  1  -0.00040021  0.66794223  0.17265144  1
  Al  Al202  1  0.49799844  0.18022804  0.67099399  1
  Al  Al203  1  0.67508103  -0.00004321  0.33234984  1
  Al  Al204  1  0.00163009  0.67110223  0.66912251  1
  Al  Al205  1  -0.00032454  0.31625864  0.17504472  1
  Al  Al206  1  0.50308211  0.17830774  0.32506431  1
  Al  Al207  1  0.50010826  0.32032358  0.18204750  1
  Al  Al208  1  0.00110653  0.68639866  0.82219476  1
  Al  Al209  1  0.81277445  -0.00044042  0.67724657  1
  Al  Al210  1  0.00088737  0.17046861  0.81783142  1
  Al  Al211  1  0.81107269  0.82832681  0.50123668  1
  Al  Al212  1  0.66948832  0.17266052  0.49970573  1
  Al  Al213  1  0.49843669  0.17884308  0.82632139  1
  Al  Al214  1  0.83022016  -0.00058322  0.82918190  1
  Al  Al215  1  0.18205511  0.31745164  -0.00064266  1
  Al  Al216  1  0.17347493  0.31675627  0.50252295  1
  Al  Al217  1  0.50025823  0.80842441  0.32164870  1
  Al  Al218  1  0.81473808  0.16939839  -0.00159244  1
  Al  Al219  1  0.00240027  0.17444883  0.31667951  1
  Al  Al220  1  0.81250639  0.67396339  0.49898468  1
  Al  Al221  1  0.32705046  0.32175596  0.49998647  1
  Al  Al222  1  0.67790296  -0.00063439  0.81095807  1
  Al  Al223  1  0.50026097  0.68097326  0.18879556  1
  Al  Al224  1  0.49805039  0.82403280  0.81361065  1
  Al  Al225  1  0.17730860  0.49869609  0.81750751  1
  Al  Al226  1  0.67929376  -0.00067186  0.17546035  1
  Al  Al227  1  0.18762126  0.49981809  0.31833166  1
  Al  Al228  1  0.67721578  0.32805520  0.49828969  1
  Al  Al229  1  0.66773639  0.31921876  0.00144998  1
  Al  Al230  1  0.83053376  0.33156848  -0.00222428  1
  Al  Al231  1  0.00097323  0.32644444  0.81579217  1
  Al  Al232  1  0.00176401  0.82419797  0.68898108  1
  Al  Al233  1  0.67074193  0.83016393  -0.00013898  1
  Al  Al234  1  0.82764662  0.50172589  0.83087781  1
  Al  Al235  1  0.31956752  0.00004850  0.17786177  1
  Al  Al236  1  0.83032634  0.81643124  -0.00118328  1
  Al  Al237  1  0.50021682  0.68255718  0.67533549  1
  Al  Al238  1  0.00171188  0.82369450  0.17889965  1
  Au  Au239  1  0.00435579  0.16229586  0.32817472  1
  Au  Au240  1  0.32281638  -0.00284555  0.33980564  1
  Au  Au241  1  0.82755964  0.82659709  0.50440937  1
  Au  Au242  1  0.49768006  0.33943762  0.81913756  1
  Au  Au243  1  0.50091573  0.16977641  0.33412060  1
  Au  Au244  1  0.82762190  0.50235975  0.67062688  1
  Au  Au245  1  0.33311115  0.00025349  0.16763836  1
  Au  Au246  1  0.65480349  0.82464219  -0.00004562  1
  Au  Au247  1  0.33896367  0.83438408  0.50634596  1
  Au  Au248  1  0.50080224  0.67287538  0.66192404  1
  Au  Au249  1  0.82694200  0.34190674  0.49895039  1
  Au  Au250  1  0.00135627  0.34116565  0.33839371  1
  Au  Au251  1  0.32045432  0.00038120  0.82354865  1
  Au  Au252  1  0.32474718  0.82387038  -0.00177024  1
  Au  Au253  1  0.50418634  0.17261115  0.15978871  1
  Au  Au254  1  -0.00078038  0.17428799  0.82963641  1
  Au  Au255  1  0.49896548  0.66472959  0.84300469  1
  Au  Au256  1  0.33032749  0.16801808  -0.00231490  1
  Au  Au257  1  0.33412739  0.66352871  0.49593817  1
  Au  Au258  1  0.82903581  0.00024785  0.16404261  1
  Au  Au259  1  0.00111876  0.67440510  0.82699463  1
  Au  Au260  1  0.00416167  0.17122348  0.66374637  1
  Au  Au261  1  0.50280524  0.16291992  0.82552344  1
  Au  Au262  1  0.00570972  0.82799005  0.33548306  1
  Au  Au263  1  0.15876389  -0.00106244  0.17327634  1
  Au  Au264  1  0.49967457  0.34278450  0.32878458  1
  Au  Au265  1  0.16292791  0.49803491  0.82612929  1
  Au  Au266  1  0.17154494  0.50034063  0.17166226  1
  Au  Au267  1  0.82254841  0.16072470  0.50057644  1
  Au  Au268  1  0.16203909  0.16961148  -0.00192183  1
  Au  Au269  1  0.32819398  0.49895246  0.66463487  1
  Au  Au270  1  0.65362547  0.32841737  0.00239166  1
  Au  Au271  1  0.65887408  -0.00509650  0.33098271  1
  Au  Au272  1  0.84482100  0.82432542  -0.00455635  1
  Au  Au273  1  0.49768620  0.83908597  0.82141532  1
  Au  Au274  1  0.32160005  0.16123070  0.50392207  1
  Au  Au275  1  0.00098771  0.82781046  0.16686293  1
  Au  Au276  1  0.32929322  0.33776565  0.50055394  1
  Au  Au277  1  0.16824806  0.83948582  0.50301992  1
  Au  Au278  1  0.67719733  0.50091461  0.32437866  1
  Au  Au279  1  0.83781851  0.34587695  -0.00326615  1
  Au  Au280  1  0.32908719  0.33989796  0.00438193  1
  Au  Au281  1  0.82957469  0.16112942  -0.00180237  1
  Au  Au282  1  0.33629488  0.50633975  0.83156826  1
  Au  Au283  1  0.16776917  0.66550509  0.50104785  1
  Au  Au284  1  -0.00018230  0.32534525  0.16077672  1
  Au  Au285  1  0.50011683  0.82927276  0.17559736  1
  Au  Au286  1  0.17447295  0.67488266  0.00082335  1
  Au  Au287  1  0.83735683  -0.00280453  0.33189675  1
