# generated using pymatgen
data_Ca24Ti8Al207Au49
_symmetry_space_group_name_H-M   'P 1'
_cell_length_a   17.32632459
_cell_length_b   17.32623573
_cell_length_c   17.32745089
_cell_angle_alpha   89.99733246
_cell_angle_beta   90.00033286
_cell_angle_gamma   90.00139972
_symmetry_Int_Tables_number   1
_chemical_formula_structural   Ca24Ti8Al207Au49
_chemical_formula_sum   'Ca24 Ti8 Al207 Au49'
_cell_volume   5201.70047659
_cell_formula_units_Z   1
loop_
 _symmetry_equiv_pos_site_id
 _symmetry_equiv_pos_as_xyz
  1  'x, y, z'
loop_
 _atom_site_type_symbol
 _atom_site_label
 _atom_site_symmetry_multiplicity
 _atom_site_fract_x
 _atom_site_fract_y
 _atom_site_fract_z
 _atom_site_occupancy
  Ca  Ca0  1  0.25298146  -0.00234829  0.00211547  1
  Ca  Ca1  1  0.25075051  0.00114942  0.49786892  1
  Ca  Ca2  1  0.25482501  0.50197737  0.00067384  1
  Ca  Ca3  1  0.25029153  0.49320128  0.49898209  1
  Ca  Ca4  1  0.74741364  0.00178911  -0.00230165  1
  Ca  Ca5  1  0.75227745  0.00008680  0.50518025  1
  Ca  Ca6  1  0.74905459  0.49821597  -0.00350003  1
  Ca  Ca7  1  0.75313149  0.49768568  0.50083272  1
  Ca  Ca8  1  -0.00288943  0.25054704  -0.00127940  1
  Ca  Ca9  1  0.00142152  0.25425707  0.50011642  1
  Ca  Ca10  1  0.00153554  0.75112238  0.00136896  1
  Ca  Ca11  1  -0.00170702  0.75236001  0.49746873  1
  Ca  Ca12  1  0.49942300  0.25211304  -0.00192243  1
  Ca  Ca13  1  0.49712496  0.25486872  0.50243300  1
  Ca  Ca14  1  0.49506181  0.74791181  0.00089981  1
  Ca  Ca15  1  0.50259019  0.75061175  0.49750502  1
  Ca  Ca16  1  0.00345705  -0.00163149  0.25048615  1
  Ca  Ca17  1  -0.00043853  -0.00024183  0.74895811  1
  Ca  Ca18  1  0.00352472  0.49940632  0.25425198  1
  Ca  Ca19  1  -0.00144033  0.49908542  0.74562215  1
  Ca  Ca20  1  0.49535479  0.00011484  0.24850393  1
  Ca  Ca21  1  0.49849207  0.00214536  0.75226520  1
  Ca  Ca22  1  0.49828921  0.49521868  0.24999401  1
  Ca  Ca23  1  0.49979647  0.49588075  0.75218381  1
  Ti  Ti24  1  0.25005477  0.25030751  0.25046036  1
  Ti  Ti25  1  0.24947386  0.24904376  0.74922228  1
  Ti  Ti26  1  0.24958304  0.74957535  0.24967493  1
  Ti  Ti27  1  0.24965586  0.75095266  0.75142147  1
  Ti  Ti28  1  0.74999189  0.25060749  0.25011516  1
  Ti  Ti29  1  0.75066282  0.24993861  0.74957905  1
  Ti  Ti30  1  0.75102369  0.74975350  0.25044816  1
  Ti  Ti31  1  0.75039902  0.75071188  0.74953008  1
  Al  Al32  1  0.08386605  0.07886244  0.08344215  1
  Al  Al33  1  0.08247246  0.08600944  0.58078616  1
  Al  Al34  1  0.08830655  0.58571998  0.08146709  1
  Al  Al35  1  0.07959730  0.57558725  0.58436966  1
  Al  Al36  1  0.58672714  0.08748273  0.07751799  1
  Al  Al37  1  0.58658000  0.07962877  0.58892612  1
  Al  Al38  1  0.57966499  0.58261861  0.07824654  1
  Al  Al39  1  0.58978175  0.58425842  0.57604869  1
  Al  Al40  1  0.41464688  0.41673182  0.09149561  1
  Al  Al41  1  0.40491635  0.41251841  0.58570445  1
  Al  Al42  1  0.40719320  0.91600474  0.08355993  1
  Al  Al43  1  0.41273013  0.92418497  0.58590733  1
  Al  Al44  1  0.91894358  0.41726759  0.08439001  1
  Al  Al45  1  0.91847889  0.41566502  0.58867296  1
  Al  Al46  1  0.92004831  0.91108150  0.08235322  1
  Al  Al47  1  0.91319744  0.92236713  0.58999274  1
  Al  Al48  1  0.40995372  0.08170664  0.41206162  1
  Al  Al49  1  0.42182807  0.08429364  0.91444932  1
  Al  Al50  1  0.42132840  0.57622551  0.41515457  1
  Al  Al51  1  0.41175431  0.58524108  0.92037170  1
  Al  Al52  1  0.92333658  0.08615277  0.41565792  1
  Al  Al53  1  0.91294417  0.08560270  0.91817965  1
  Al  Al54  1  0.91810620  0.58177749  0.41763873  1
  Al  Al55  1  0.91509795  0.58004290  0.91169692  1
  Al  Al56  1  0.08471277  0.40675347  0.41920354  1
  Al  Al57  1  0.07922623  0.41657326  0.91821136  1
  Al  Al58  1  0.08200160  0.91420914  0.41077158  1
  Al  Al59  1  0.08670265  0.91736233  0.91807097  1
  Al  Al60  1  0.57513558  0.41367204  0.41399999  1
  Al  Al61  1  0.57974494  0.40905692  0.91541115  1
  Al  Al62  1  0.57960458  0.91914016  0.42131476  1
  Al  Al63  1  0.58273208  0.92012873  0.91711705  1
  Al  Al64  1  0.08308714  0.08701224  0.41319942  1
  Al  Al65  1  0.08260157  0.07798587  0.91664183  1
  Al  Al66  1  0.07986561  0.57964491  0.41656803  1
  Al  Al67  1  0.08206037  0.58800074  0.92313108  1
  Al  Al68  1  0.57789380  0.08016784  0.42136612  1
  Al  Al69  1  0.58529483  0.09117390  0.91619340  1
  Al  Al70  1  0.58351551  0.58768751  0.41883849  1
  Al  Al71  1  0.58024973  0.58371989  0.92050958  1
  Al  Al72  1  0.41299341  0.40665648  0.41341949  1
  Al  Al73  1  0.41926929  0.41469157  0.91452770  1
  Al  Al74  1  0.41274180  0.92297220  0.41222699  1
  Al  Al75  1  0.40932757  0.91298814  0.92190467  1
  Al  Al76  1  0.92188104  0.41388541  0.41586861  1
  Al  Al77  1  0.91443919  0.42045140  0.91058781  1
  Al  Al78  1  0.92429529  0.91430465  0.41160865  1
  Al  Al79  1  0.91422678  0.91659623  0.91958473  1
  Al  Al80  1  0.08355945  0.41866634  0.08486299  1
  Al  Al81  1  0.08664114  0.40869783  0.58406202  1
  Al  Al82  1  0.08454845  0.91297537  0.08605960  1
  Al  Al83  1  0.08042403  0.91983540  0.58034790  1
  Al  Al84  1  0.57631156  0.40948360  0.08397652  1
  Al  Al85  1  0.57736289  0.41961339  0.58215880  1
  Al  Al86  1  0.58035673  0.92071005  0.08066956  1
  Al  Al87  1  0.59064803  0.92125172  0.58732773  1
  Al  Al88  1  0.41484704  0.07620722  0.08732559  1
  Al  Al89  1  0.41125080  0.08202988  0.58741673  1
  Al  Al90  1  0.40690653  0.58051277  0.08301850  1
  Al  Al91  1  0.41132436  0.57132431  0.58605628  1
  Al  Al92  1  0.91474365  0.08465919  0.07861594  1
  Al  Al93  1  0.91284304  0.08126988  0.59036273  1
  Al  Al94  1  0.91819976  0.58219991  0.08270156  1
  Al  Al95  1  0.91300913  0.57707436  0.58748184  1
  Al  Al96  1  0.24982926  0.13013468  0.13691739  1
  Al  Al97  1  0.25028499  0.13606659  0.63360614  1
  Al  Al98  1  0.25180443  0.63118633  0.13513144  1
  Al  Al99  1  0.25109392  0.63303390  0.63617054  1
  Al  Al100  1  0.74876399  0.13730340  0.13431413  1
  Al  Al101  1  0.75141001  0.13426761  0.63633231  1
  Al  Al102  1  0.75095995  0.63818243  0.13511417  1
  Al  Al103  1  0.75080999  0.63327313  0.63418964  1
  Al  Al104  1  0.25054185  0.37249526  0.13973641  1
  Al  Al105  1  0.25043434  0.36205500  0.63307580  1
  Al  Al106  1  0.24973484  0.86707320  0.13270798  1
  Al  Al107  1  0.25136510  0.86612679  0.63608487  1
  Al  Al108  1  0.74981044  0.36049402  0.13574122  1
  Al  Al109  1  0.75424777  0.36485976  0.63797657  1
  Al  Al110  1  0.75171022  0.86333536  0.13663221  1
  Al  Al111  1  0.74992418  0.86881751  0.63572452  1
  Al  Al112  1  0.25011923  0.13228711  0.36494349  1
  Al  Al113  1  0.25305302  0.13703847  0.86244611  1
  Al  Al114  1  0.24947070  0.62812010  0.36227593  1
  Al  Al115  1  0.25382611  0.63676209  0.86767188  1
  Al  Al116  1  0.75062005  0.13785634  0.36629017  1
  Al  Al117  1  0.74705623  0.13440066  0.86341972  1
  Al  Al118  1  0.74703008  0.63588285  0.36718759  1
  Al  Al119  1  0.75078102  0.63594463  0.86347611  1
  Al  Al120  1  0.25039502  0.36890866  0.36595490  1
  Al  Al121  1  0.25044772  0.36135799  0.86186656  1
  Al  Al122  1  0.24990144  0.86952927  0.36166115  1
  Al  Al123  1  0.25308736  0.86339224  0.87241414  1
  Al  Al124  1  0.74809959  0.36424812  0.36392757  1
  Al  Al125  1  0.74837327  0.36317315  0.86049414  1
  Al  Al126  1  0.75121405  0.86222510  0.36608786  1
  Al  Al127  1  0.74901198  0.86700613  0.86385099  1
  Al  Al128  1  0.13730740  0.25138959  0.13786354  1
  Al  Al129  1  0.13331586  0.25173634  0.63017835  1
  Al  Al130  1  0.13806928  0.75100027  0.13565139  1
  Al  Al131  1  0.13660931  0.75197822  0.63685113  1
  Al  Al132  1  0.63442383  0.25024918  0.13506938  1
  Al  Al133  1  0.63114779  0.25013087  0.63847297  1
  Al  Al134  1  0.63173756  0.75196895  0.13558251  1
  Al  Al135  1  0.63700162  0.74861304  0.63432527  1
  Al  Al136  1  0.13890004  0.25286958  0.36875753  1
  Al  Al137  1  0.13051290  0.24897004  0.86449857  1
  Al  Al138  1  0.13099500  0.74951658  0.36060463  1
  Al  Al139  1  0.13648265  0.75373981  0.86665506  1
  Al  Al140  1  0.63221543  0.25357452  0.36433280  1
  Al  Al141  1  0.63472744  0.24944862  0.86303358  1
  Al  Al142  1  0.63561888  0.74708122  0.36695978  1
  Al  Al143  1  0.63546790  0.75395649  0.86325189  1
  Al  Al144  1  0.36431297  0.25638668  0.13816919  1
  Al  Al145  1  0.36808391  0.25343506  0.63183457  1
  Al  Al146  1  0.36356932  0.75023521  0.13259831  1
  Al  Al147  1  0.36333456  0.75136053  0.63832136  1
  Al  Al148  1  0.86649170  0.24989973  0.13486187  1
  Al  Al149  1  0.87090825  0.24946005  0.63740581  1
  Al  Al150  1  0.86698507  0.74826385  0.13572523  1
  Al  Al151  1  0.86228688  0.75118459  0.63210461  1
  Al  Al152  1  0.36398526  0.25675071  0.36726299  1
  Al  Al153  1  0.36647222  0.25328573  0.86279897  1
  Al  Al154  1  0.36136239  0.74949584  0.35958125  1
  Al  Al155  1  0.36318513  0.75124527  0.86790624  1
  Al  Al156  1  0.86670849  0.25156460  0.36492702  1
  Al  Al157  1  0.86948812  0.24947779  0.86096992  1
  Al  Al158  1  0.86992158  0.74891370  0.36523859  1
  Al  Al159  1  0.86443025  0.75200513  0.86175691  1
  Al  Al160  1  0.13790874  0.13040509  0.25196886  1
  Al  Al161  1  0.12943270  0.13696324  0.74570778  1
  Al  Al162  1  0.13276563  0.63159515  0.24818357  1
  Al  Al163  1  0.13510394  0.63772605  0.74995059  1
  Al  Al164  1  0.63474453  0.13640023  0.25000081  1
  Al  Al165  1  0.63633210  0.13148639  0.74832011  1
  Al  Al166  1  0.63608242  0.63388315  0.25005412  1
  Al  Al167  1  0.63604489  0.63369418  0.75125266  1
  Al  Al168  1  0.36283245  0.13388944  0.25027145  1
  Al  Al169  1  0.36421926  0.13222050  0.74841989  1
  Al  Al170  1  0.36263627  0.62880592  0.24589594  1
  Al  Al171  1  0.36392152  0.63613559  0.75099060  1
  Al  Al172  1  0.86406824  0.13426311  0.24942284  1
  Al  Al173  1  0.86875932  0.13348955  0.74790560  1
  Al  Al174  1  0.87045618  0.63714212  0.25173190  1
  Al  Al175  1  0.86460301  0.63487257  0.74797557  1
  Al  Al176  1  0.13467304  0.36876802  0.25505089  1
  Al  Al177  1  0.12844165  0.36087673  0.74586514  1
  Al  Al178  1  0.13741467  0.87056186  0.25041511  1
  Al  Al179  1  0.13198091  0.86580991  0.74990285  1
  Al  Al180  1  0.63012906  0.36513857  0.25015175  1
  Al  Al181  1  0.62873654  0.36462557  0.74993221  1
  Al  Al182  1  0.63541366  0.86344903  0.24945321  1
  Al  Al183  1  0.63736908  0.87010110  0.74855994  1
  Al  Al184  1  0.36490563  0.36899052  0.25121954  1
  Al  Al185  1  0.36761420  0.36359539  0.74572102  1
  Al  Al186  1  0.36176222  0.86943685  0.24711602  1
  Al  Al187  1  0.36251725  0.87154046  0.75352751  1
  Al  Al188  1  0.86836000  0.36351674  0.25377210  1
  Al  Al189  1  0.86988082  0.36452688  0.74767444  1
  Al  Al190  1  0.86703707  0.86541227  0.25313919  1
  Al  Al191  1  0.86777005  0.86729827  0.74579743  1
  Al  Al192  1  0.32915663  0.49864710  0.81524966  1
  Al  Al193  1  0.49989268  0.67108670  0.67085143  1
  Al  Al194  1  0.00172186  0.81997851  0.18693237  1
  Al  Al195  1  0.18354272  -0.00007953  0.82529683  1
  Al  Al196  1  0.17675261  0.49671094  0.82723990  1
  Al  Al197  1  -0.00093382  0.67761141  0.67290976  1
  Al  Al198  1  0.81742399  0.49925483  0.81000401  1
  Al  Al199  1  0.82648378  0.32871117  -0.00237296  1
  Al  Al200  1  0.67965885  0.17154209  0.50175271  1
  Al  Al201  1  0.18298395  0.00110019  0.67347504  1
  Al  Al202  1  0.32233771  0.32829151  0.00119584  1
  Al  Al203  1  0.82172193  0.49974655  0.32621445  1
  Al  Al204  1  0.49805209  0.18298295  0.17017750  1
  Al  Al205  1  0.67837188  0.82037192  0.49782321  1
  Al  Al206  1  0.32683350  0.67025857  0.49793281  1
  Al  Al207  1  0.49903557  0.67865563  0.82815896  1
  Al  Al208  1  0.18445826  0.49723497  0.67274493  1
  Al  Al209  1  0.82760187  0.32250862  0.50121309  1
  Al  Al210  1  0.82314493  0.49956316  0.17916540  1
  Al  Al211  1  0.49667095  0.82123358  0.17352351  1
  Al  Al212  1  0.00016171  0.67892041  0.82595132  1
  Al  Al213  1  0.81833243  0.81686026  -0.00005818  1
  Al  Al214  1  0.49692962  0.18190392  0.32687250  1
  Al  Al215  1  0.67811577  0.49829477  0.17139801  1
  Al  Al216  1  0.49879984  0.82631846  0.32921265  1
  Al  Al217  1  0.81153352  0.17802408  -0.00199724  1
  Al  Al218  1  0.32223377  0.17971692  0.50220295  1
  Al  Al219  1  0.50022145  0.18676569  0.82005244  1
  Al  Al220  1  0.49788364  0.83158223  0.67820684  1
  Al  Al221  1  0.17424240  0.67206352  0.50005616  1
  Al  Al222  1  0.18754899  0.68227314  0.00098249  1
  Al  Al223  1  0.68084718  0.68305095  -0.00051077  1
  Al  Al224  1  0.82222947  0.67632035  0.50104303  1
  Al  Al225  1  0.00473143  0.31914906  0.18438761  1
  Al  Al226  1  0.32714919  0.82924217  0.49852406  1
  Al  Al227  1  0.32962295  0.17382588  0.00114330  1
  Al  Al228  1  0.67097312  -0.00047941  0.32663416  1
  Al  Al229  1  0.17424373  0.82758976  0.49766193  1
  Al  Al230  1  0.00272634  0.19097771  0.31729609  1
  Al  Al231  1  0.68518886  0.49875271  0.67883375  1
  Al  Al232  1  0.67828228  0.00109687  0.17343268  1
  Al  Al233  1  0.17289335  0.18011460  -0.00125263  1
  Al  Al234  1  0.82666317  0.00039122  0.32071085  1
  Al  Al235  1  0.67299725  0.32762818  0.50159506  1
  Al  Al236  1  0.82122732  -0.00255529  0.81798686  1
  Al  Al237  1  0.49882732  0.67385687  0.31841626  1
  Al  Al238  1  0.67422914  0.31249284  -0.00090081  1
  Au  Au239  1  0.49943743  0.16273771  0.67457537  1
  Au  Au240  1  0.16638684  0.49552233  0.33388478  1
  Au  Au241  1  0.00021799  0.82823226  0.83713578  1
  Au  Au242  1  0.17311563  0.33553662  0.00042598  1
  Au  Au243  1  0.50163395  0.17074979  0.33016907  1
  Au  Au244  1  0.83085426  0.66793617  -0.00369499  1
  Au  Au245  1  0.50243053  0.83529028  0.66701684  1
  Au  Au246  1  -0.00162343  0.33492452  0.82399218  1
  Au  Au247  1  0.83038994  0.00128929  0.33271961  1
  Au  Au248  1  0.49542107  0.83329516  0.16995165  1
  Au  Au249  1  0.49751597  0.33494218  0.67294181  1
  Au  Au250  1  0.00094076  0.16730105  0.83322161  1
  Au  Au251  1  0.83870331  0.17230150  0.50169553  1
  Au  Au252  1  0.67036238  0.83236069  0.00123973  1
  Au  Au253  1  -0.00038291  0.67543310  0.33245649  1
  Au  Au254  1  0.16166105  0.67229060  0.50275736  1
  Au  Au255  1  0.17500885  0.00012028  0.33476075  1
  Au  Au256  1  0.67038502  0.49892261  0.84096114  1
  Au  Au257  1  -0.00071117  0.82747161  0.66424260  1
  Au  Au258  1  0.33304654  0.00151675  0.83007546  1
  Au  Au259  1  0.66704833  0.17427611  0.50144089  1
  Au  Au260  1  0.17622249  0.82931510  0.00106529  1
  Au  Au261  1  0.49658229  0.17116511  0.16689918  1
  Au  Au262  1  0.33555922  0.49752299  0.32587995  1
  Au  Au263  1  0.50047676  0.65844666  0.67295580  1
  Au  Au264  1  0.17743343  -0.00151956  0.16739303  1
  Au  Au265  1  0.66958511  0.82913594  0.50028933  1
  Au  Au266  1  0.82717946  -0.00259530  0.15857758  1
  Au  Au267  1  0.17599331  0.16768981  -0.00220420  1
  Au  Au268  1  0.67036791  0.49897714  0.34227462  1
  Au  Au269  1  0.00178159  0.32812709  0.17561178  1
  Au  Au270  1  0.83017292  0.00026645  0.82662682  1
  Au  Au271  1  0.16602738  0.17933307  0.49801712  1
  Au  Au272  1  0.16832504  0.51063958  0.82680801  1
  Au  Au273  1  0.33939275  0.67294430  0.49866959  1
  Au  Au274  1  -0.00018614  0.17454009  0.66608911  1
  Au  Au275  1  0.66806839  0.49833974  0.16797070  1
  Au  Au276  1  0.49702650  0.82769650  0.84004461  1
  Au  Au277  1  0.00312834  0.67398055  0.16521374  1
  Au  Au278  1  0.49521058  0.66054131  0.16934444  1
  Au  Au279  1  0.83273737  0.49957354  0.17044775  1
  Au  Au280  1  -0.00052736  0.16261307  0.17272347  1
  Au  Au281  1  0.17626399  0.50246657  0.16526021  1
  Au  Au282  1  0.82217653  0.66374148  0.50339213  1
  Au  Au283  1  0.83360558  0.83738999  0.49950231  1
  Au  Au284  1  0.67881339  0.49868120  0.66335918  1
  Au  Au285  1  0.66433363  0.00295983  0.82296879  1
  Au  Au286  1  0.33094669  0.17106095  0.49957616  1
  Au  Au287  1  0.17066316  0.00096555  0.66982265  1
