# generated using pymatgen
data_Ca24Ti8Al207Au49
_symmetry_space_group_name_H-M   'P 1'
_cell_length_a   17.32110040
_cell_length_b   17.32155053
_cell_length_c   17.32107053
_cell_angle_alpha   89.99824442
_cell_angle_beta   89.99993958
_cell_angle_gamma   89.99766136
_symmetry_Int_Tables_number   1
_chemical_formula_structural   Ca24Ti8Al207Au49
_chemical_formula_sum   'Ca24 Ti8 Al207 Au49'
_cell_volume   5196.81161315
_cell_formula_units_Z   1
loop_
 _symmetry_equiv_pos_site_id
 _symmetry_equiv_pos_as_xyz
  1  'x, y, z'
loop_
 _atom_site_type_symbol
 _atom_site_label
 _atom_site_symmetry_multiplicity
 _atom_site_fract_x
 _atom_site_fract_y
 _atom_site_fract_z
 _atom_site_occupancy
  Ca  Ca0  1  0.24915874  0.00488325  0.00478821  1
  Ca  Ca1  1  0.25222106  0.00127732  0.49624228  1
  Ca  Ca2  1  0.25193736  0.49937080  0.00073994  1
  Ca  Ca3  1  0.24914355  0.49873640  0.49910336  1
  Ca  Ca4  1  0.74958946  0.00138831  -0.00344007  1
  Ca  Ca5  1  0.75295167  -0.00101709  0.50184565  1
  Ca  Ca6  1  0.74713954  0.49954457  0.00203648  1
  Ca  Ca7  1  0.75362757  0.49775535  0.49764232  1
  Ca  Ca8  1  0.00028698  0.24727595  0.00357937  1
  Ca  Ca9  1  -0.00558761  0.24684222  0.49815417  1
  Ca  Ca10  1  0.00137945  0.74387927  0.00314369  1
  Ca  Ca11  1  0.00049719  0.75361339  0.49985259  1
  Ca  Ca12  1  0.50201096  0.25041087  -0.00243941  1
  Ca  Ca13  1  0.50282126  0.24795193  0.50245188  1
  Ca  Ca14  1  0.50144507  0.74883334  0.00394188  1
  Ca  Ca15  1  0.49522165  0.75412787  0.49590470  1
  Ca  Ca16  1  0.00164154  0.00493347  0.25598821  1
  Ca  Ca17  1  -0.00685944  0.00117265  0.74478677  1
  Ca  Ca18  1  -0.00193060  0.49672246  0.24883295  1
  Ca  Ca19  1  0.00354021  0.50059475  0.74630185  1
  Ca  Ca20  1  0.49703074  -0.00378641  0.25331152  1
  Ca  Ca21  1  0.50553011  0.00157258  0.74450424  1
  Ca  Ca22  1  0.50047267  0.50438688  0.24574311  1
  Ca  Ca23  1  0.49669176  0.49797073  0.75375393  1
  Ti  Ti24  1  0.24944742  0.24842650  0.24954964  1
  Ti  Ti25  1  0.24862981  0.24811301  0.75030256  1
  Ti  Ti26  1  0.25086267  0.75046445  0.25239897  1
  Ti  Ti27  1  0.24933039  0.74999738  0.74703783  1
  Ti  Ti28  1  0.74896714  0.25122293  0.25126200  1
  Ti  Ti29  1  0.74955372  0.24813656  0.74840006  1
  Ti  Ti30  1  0.74879796  0.74818947  0.25294707  1
  Ti  Ti31  1  0.75149522  0.75424141  0.74774549  1
  Al  Al32  1  0.08909781  0.08957124  0.08353517  1
  Al  Al33  1  0.08414814  0.08884132  0.56958122  1
  Al  Al34  1  0.08467452  0.57594030  0.09139067  1
  Al  Al35  1  0.08247851  0.58517342  0.58005663  1
  Al  Al36  1  0.58455667  0.08030694  0.08053954  1
  Al  Al37  1  0.58817529  0.08763860  0.58958748  1
  Al  Al38  1  0.58363739  0.57972005  0.08258799  1
  Al  Al39  1  0.57770819  0.58128093  0.57293970  1
  Al  Al40  1  0.41826039  0.41526298  0.07906583  1
  Al  Al41  1  0.42058816  0.41123937  0.58989796  1
  Al  Al42  1  0.41590094  0.91630931  0.08625598  1
  Al  Al43  1  0.41811088  0.91827470  0.56844738  1
  Al  Al44  1  0.90938690  0.42255192  0.08765690  1
  Al  Al45  1  0.91390319  0.41323725  0.57443030  1
  Al  Al46  1  0.92171676  0.92191710  0.08780029  1
  Al  Al47  1  0.90814879  0.91143037  0.58862391  1
  Al  Al48  1  0.40489637  0.07440162  0.41779502  1
  Al  Al49  1  0.42212821  0.08480170  0.92192394  1
  Al  Al50  1  0.40532621  0.59239662  0.41504015  1
  Al  Al51  1  0.41258808  0.57774445  0.90982891  1
  Al  Al52  1  0.91771398  0.09037025  0.41797456  1
  Al  Al53  1  0.91528660  0.08697173  0.90499696  1
  Al  Al54  1  0.91679346  0.58430837  0.41606215  1
  Al  Al55  1  0.92500205  0.58506406  0.92662865  1
  Al  Al56  1  0.07689609  0.41286614  0.41478523  1
  Al  Al57  1  0.08813420  0.41746326  0.91778955  1
  Al  Al58  1  0.08344686  0.92024998  0.41972164  1
  Al  Al59  1  0.07227084  0.92231599  0.92477023  1
  Al  Al60  1  0.58984084  0.41772095  0.42617483  1
  Al  Al61  1  0.58292582  0.41176572  0.92227729  1
  Al  Al62  1  0.57865441  0.90760959  0.41923415  1
  Al  Al63  1  0.59236404  0.92138305  0.91501850  1
  Al  Al64  1  0.08503500  0.09578366  0.41047720  1
  Al  Al65  1  0.07805056  0.09534996  0.91991710  1
  Al  Al66  1  0.08288304  0.58489434  0.41782586  1
  Al  Al67  1  0.08314114  0.57853621  0.91324076  1
  Al  Al68  1  0.58486422  0.08166035  0.43190380  1
  Al  Al69  1  0.59189438  0.07999046  0.91184982  1
  Al  Al70  1  0.58136893  0.58537340  0.41531075  1
  Al  Al71  1  0.57520354  0.57734301  0.92045719  1
  Al  Al72  1  0.41689763  0.42924812  0.42541591  1
  Al  Al73  1  0.41158373  0.41767382  0.91511142  1
  Al  Al74  1  0.40786724  0.90999151  0.40763343  1
  Al  Al75  1  0.42268053  0.91884669  0.92506285  1
  Al  Al76  1  0.91354741  0.40578253  0.41521454  1
  Al  Al77  1  0.92342735  0.41765431  0.92272580  1
  Al  Al78  1  0.91054016  0.91474409  0.42594439  1
  Al  Al79  1  0.91124264  0.92607240  0.90967250  1
  Al  Al80  1  0.09042411  0.41953235  0.08764404  1
  Al  Al81  1  0.07664824  0.42121336  0.57615408  1
  Al  Al82  1  0.07951942  0.92772492  0.08977891  1
  Al  Al83  1  0.07225401  0.90998913  0.58404038  1
  Al  Al84  1  0.58807981  0.41029371  0.08017556  1
  Al  Al85  1  0.58087941  0.39827366  0.58540657  1
  Al  Al86  1  0.58246159  0.91955380  0.08078348  1
  Al  Al87  1  0.59452433  0.91790231  0.57981624  1
  Al  Al88  1  0.41374063  0.08187919  0.08507048  1
  Al  Al89  1  0.41805031  0.09138249  0.57922899  1
  Al  Al90  1  0.41752906  0.58001569  0.08182776  1
  Al  Al91  1  0.40688509  0.58279493  0.57338881  1
  Al  Al92  1  0.92288463  0.08441770  0.08119472  1
  Al  Al93  1  0.90763138  0.07804704  0.58246184  1
  Al  Al94  1  0.91253134  0.57976431  0.08851438  1
  Al  Al95  1  0.91883186  0.58369303  0.57916346  1
  Al  Al96  1  0.24879084  0.13602824  0.13059579  1
  Al  Al97  1  0.24997505  0.13601553  0.63097693  1
  Al  Al98  1  0.25313772  0.63180649  0.13486876  1
  Al  Al99  1  0.25176973  0.63706608  0.62882502  1
  Al  Al100  1  0.75156022  0.13573050  0.13685699  1
  Al  Al101  1  0.75062841  0.12783854  0.63594230  1
  Al  Al102  1  0.74732476  0.62918411  0.14024239  1
  Al  Al103  1  0.75429964  0.64083050  0.63035344  1
  Al  Al104  1  0.24702766  0.37092473  0.13582685  1
  Al  Al105  1  0.24812993  0.36161845  0.63112081  1
  Al  Al106  1  0.25373414  0.86473001  0.14228288  1
  Al  Al107  1  0.24956370  0.86245814  0.62653718  1
  Al  Al108  1  0.75079843  0.36966984  0.13574775  1
  Al  Al109  1  0.75157068  0.36102643  0.62557072  1
  Al  Al110  1  0.75072314  0.86223140  0.13799751  1
  Al  Al111  1  0.75479424  0.87440967  0.63562153  1
  Al  Al112  1  0.24701254  0.13032956  0.36639160  1
  Al  Al113  1  0.25134293  0.13687304  0.87234075  1
  Al  Al114  1  0.25351498  0.63885068  0.37164386  1
  Al  Al115  1  0.25078390  0.63628271  0.87011926  1
  Al  Al116  1  0.74596131  0.13203428  0.36503996  1
  Al  Al117  1  0.74655361  0.13331438  0.86450945  1
  Al  Al118  1  0.74939180  0.62989096  0.36542694  1
  Al  Al119  1  0.74737831  0.63862566  0.86190841  1
  Al  Al120  1  0.24975870  0.36284764  0.36716802  1
  Al  Al121  1  0.25166659  0.36360154  0.86519787  1
  Al  Al122  1  0.25367068  0.86626962  0.37115823  1
  Al  Al123  1  0.24599342  0.86461859  0.86284353  1
  Al  Al124  1  0.74936920  0.36656321  0.37099739  1
  Al  Al125  1  0.74624964  0.36108879  0.86602700  1
  Al  Al126  1  0.74736254  0.86174938  0.37046704  1
  Al  Al127  1  0.75100821  0.86703731  0.86464332  1
  Al  Al128  1  0.13763255  0.24992551  0.12963058  1
  Al  Al129  1  0.13535850  0.24632951  0.63048962  1
  Al  Al130  1  0.13789280  0.74640468  0.13684405  1
  Al  Al131  1  0.13137195  0.74810751  0.62887331  1
  Al  Al132  1  0.64022327  0.25093802  0.12838394  1
  Al  Al133  1  0.64078735  0.24458151  0.62760685  1
  Al  Al134  1  0.63184919  0.74590870  0.13954140  1
  Al  Al135  1  0.64143417  0.76180863  0.62786758  1
  Al  Al136  1  0.13793478  0.24652567  0.37165598  1
  Al  Al137  1  0.13743706  0.24978649  0.87333131  1
  Al  Al138  1  0.13430465  0.75002093  0.37097525  1
  Al  Al139  1  0.13506297  0.74685654  0.86547819  1
  Al  Al140  1  0.63631100  0.24834821  0.37146185  1
  Al  Al141  1  0.63498759  0.24829841  0.86979970  1
  Al  Al142  1  0.62925243  0.74995345  0.36635561  1
  Al  Al143  1  0.63676182  0.75491144  0.86056430  1
  Al  Al144  1  0.36471574  0.24482374  0.13739816  1
  Al  Al145  1  0.36439328  0.24817116  0.63309085  1
  Al  Al146  1  0.36948461  0.74951770  0.13939657  1
  Al  Al147  1  0.36325135  0.74908627  0.62861223  1
  Al  Al148  1  0.86363340  0.25234745  0.13686171  1
  Al  Al149  1  0.86415233  0.24870794  0.63309589  1
  Al  Al150  1  0.86383492  0.74749278  0.13743840  1
  Al  Al151  1  0.86943849  0.75594272  0.62983897  1
  Al  Al152  1  0.36093004  0.23851786  0.36844705  1
  Al  Al153  1  0.36887860  0.24992762  0.86472866  1
  Al  Al154  1  0.36801262  0.75312101  0.36534688  1
  Al  Al155  1  0.36341615  0.75044279  0.86490178  1
  Al  Al156  1  0.86212166  0.24928114  0.36628810  1
  Al  Al157  1  0.86491566  0.24705538  0.86531724  1
  Al  Al158  1  0.86673260  0.74897569  0.36808457  1
  Al  Al159  1  0.86492088  0.75281822  0.86383223  1
  Al  Al160  1  0.13501191  0.13707236  0.25413372  1
  Al  Al161  1  0.13288327  0.13657659  0.75110657  1
  Al  Al162  1  0.13926624  0.63545002  0.25210540  1
  Al  Al163  1  0.13872238  0.63642387  0.74657526  1
  Al  Al164  1  0.63122983  0.14004375  0.24927203  1
  Al  Al165  1  0.63797598  0.13028996  0.74819184  1
  Al  Al166  1  0.63073978  0.63109989  0.25371682  1
  Al  Al167  1  0.63673038  0.63955236  0.74429186  1
  Al  Al168  1  0.36091323  0.12573210  0.25200425  1
  Al  Al169  1  0.36238669  0.13562849  0.74940774  1
  Al  Al170  1  0.36903543  0.63689048  0.25106540  1
  Al  Al171  1  0.36066470  0.63657987  0.75320017  1
  Al  Al172  1  0.86508964  0.13795170  0.25314942  1
  Al  Al173  1  0.86524068  0.13542090  0.74827599  1
  Al  Al174  1  0.86310649  0.62921935  0.25344877  1
  Al  Al175  1  0.86487671  0.63978926  0.74424222  1
  Al  Al176  1  0.13518967  0.35914562  0.25024648  1
  Al  Al177  1  0.13763632  0.36095940  0.75240997  1
  Al  Al178  1  0.13793639  0.86592054  0.25934309  1
  Al  Al179  1  0.13618587  0.86514575  0.74204444  1
  Al  Al180  1  0.63913926  0.37012307  0.25141927  1
  Al  Al181  1  0.63459861  0.35772217  0.74316482  1
  Al  Al182  1  0.62933084  0.86187825  0.25376982  1
  Al  Al183  1  0.63608163  0.87441061  0.74757545  1
  Al  Al184  1  0.36143991  0.36239684  0.24717638  1
  Al  Al185  1  0.36301349  0.36140932  0.74763095  1
  Al  Al186  1  0.36978997  0.86708297  0.25355457  1
  Al  Al187  1  0.36573555  0.86226833  0.74784315  1
  Al  Al188  1  0.86254245  0.36784181  0.25319500  1
  Al  Al189  1  0.86175062  0.36286496  0.75220981  1
  Al  Al190  1  0.86324299  0.86261859  0.25375926  1
  Al  Al191  1  0.86768814  0.86742729  0.74376958  1
  Al  Al192  1  0.18726600  0.50005556  0.82376590  1
  Al  Al193  1  0.67178189  0.49849583  0.82597760  1
  Al  Al194  1  0.50173845  0.31963833  0.17226638  1
  Al  Al195  1  0.31979753  0.31825041  0.00122638  1
  Al  Al196  1  0.67326180  0.81775768  0.00278440  1
  Al  Al197  1  0.68063911  0.67941880  0.49838056  1
  Al  Al198  1  0.81711177  0.67139964  0.00225742  1
  Al  Al199  1  0.82782406  -0.00021788  0.32276338  1
  Al  Al200  1  0.16921992  0.00128731  0.66968971  1
  Al  Al201  1  -0.00087366  0.32713060  0.67292104  1
  Al  Al202  1  -0.00088450  0.32990010  0.17192191  1
  Al  Al203  1  0.49583106  0.66598134  0.67069472  1
  Al  Al204  1  0.81690441  0.32727685  0.00091953  1
  Al  Al205  1  0.17043301  0.82597113  0.00328252  1
  Al  Al206  1  0.49966110  0.82837425  0.67476834  1
  Al  Al207  1  0.82162071  0.17308867  -0.00052225  1
  Al  Al208  1  0.68199438  -0.00102730  0.17713833  1
  Al  Al209  1  0.17128997  0.49775460  0.67195486  1
  Al  Al210  1  0.32179374  0.31551773  0.49879702  1
  Al  Al211  1  0.49953715  0.32228255  0.81925931  1
  Al  Al212  1  0.49787164  0.16511163  0.32842217  1
  Al  Al213  1  0.32538760  0.82011490  0.00223483  1
  Al  Al214  1  0.00134220  0.17783876  0.18589994  1
  Al  Al215  1  0.32392471  0.50064958  0.31759120  1
  Al  Al216  1  0.32850590  -0.00054465  0.66911989  1
  Al  Al217  1  0.00297956  0.82576760  0.18173092  1
  Al  Al218  1  0.00159589  0.83294901  0.81264923  1
  Al  Al219  1  0.80860432  0.18461564  0.50021712  1
  Al  Al220  1  0.49789850  0.33128525  0.32999752  1
  Al  Al221  1  0.50148670  0.18942347  0.67906865  1
  Al  Al222  1  0.00033299  0.67513440  0.81816377  1
  Al  Al223  1  0.32870317  0.49988831  0.68783703  1
  Al  Al224  1  0.18132222  0.00192436  0.18483625  1
  Al  Al225  1  -0.00037912  0.67141767  0.17915549  1
  Al  Al226  1  0.00204869  0.31206887  0.83083407  1
  Al  Al227  1  0.50078383  0.67915126  0.82606768  1
  Al  Al228  1  0.82957210  0.82757465  0.00087475  1
  Al  Al229  1  0.80771106  0.00127292  0.80520506  1
  Al  Al230  1  -0.00046704  0.17110030  0.67746049  1
  Al  Al231  1  0.67430029  -0.00334333  0.33468928  1
  Al  Al232  1  0.00008168  0.30700702  0.32252802  1
  Al  Al233  1  0.82705481  0.49823693  0.67191388  1
  Al  Al234  1  0.82505199  0.50181450  0.83134170  1
  Al  Al235  1  0.67481121  0.49980426  0.66798785  1
  Al  Al236  1  0.16722661  0.49715611  0.31404670  1
  Al  Al237  1  0.16961141  0.00693001  0.83037712  1
  Al  Al238  1  0.32496267  -0.00092819  0.82920645  1
  Au  Au239  1  0.50249570  0.83630820  0.17483403  1
  Au  Au240  1  0.50488334  0.15988454  0.82320617  1
  Au  Au241  1  0.33850350  0.67097741  -0.00240512  1
  Au  Au242  1  0.32899910  0.49689470  0.16740751  1
  Au  Au243  1  0.32882891  -0.00210798  0.17457753  1
  Au  Au244  1  0.15882772  0.32112393  0.50198855  1
  Au  Au245  1  0.82913034  0.33130169  0.00050503  1
  Au  Au246  1  0.83325342  0.00505698  0.17056081  1
  Au  Au247  1  -0.00407524  0.83915515  0.33071880  1
  Au  Au248  1  -0.00054030  0.16687028  0.66531918  1
  Au  Au249  1  0.49937368  0.83368306  0.66350790  1
  Au  Au250  1  0.00045990  0.82706819  0.82887231  1
  Au  Au251  1  0.49846477  0.67699244  0.66516472  1
  Au  Au252  1  0.67075697  0.17032061  -0.00040085  1
  Au  Au253  1  0.17864675  0.66575699  0.50049477  1
  Au  Au254  1  0.65884760  0.49429677  0.67055248  1
  Au  Au255  1  0.33673957  0.32384182  0.49883962  1
  Au  Au256  1  0.49772353  0.16782082  0.34087972  1
  Au  Au257  1  0.66816138  0.67975797  0.50096580  1
  Au  Au258  1  0.50241360  0.17001553  0.16386997  1
  Au  Au259  1  0.49950279  0.33424367  0.82401654  1
  Au  Au260  1  0.67876986  0.31688374  0.49927269  1
  Au  Au261  1  0.83999111  0.50927284  0.82816480  1
  Au  Au262  1  0.00070682  0.66902906  0.32725389  1
  Au  Au263  1  0.67101964  0.50030855  0.33338525  1
  Au  Au264  1  0.66747115  0.66730631  -0.00468582  1
  Au  Au265  1  0.17288771  0.84197154  0.00820445  1
  Au  Au266  1  0.17150429  0.00011843  0.65721133  1
  Au  Au267  1  0.83366758  0.67910707  0.50007920  1
  Au  Au268  1  0.49693329  0.67653591  0.33612614  1
  Au  Au269  1  0.66164583  -0.00196333  0.33225977  1
  Au  Au270  1  0.68061119  0.00109501  0.67547160  1
  Au  Au271  1  0.00261920  0.32856257  0.82608456  1
  Au  Au272  1  0.50097704  0.66778844  0.16946953  1
  Au  Au273  1  0.17234402  0.00223214  0.33370522  1
  Au  Au274  1  0.32709138  0.17002023  0.00089587  1
  Au  Au275  1  0.17288351  0.49678593  0.33007387  1
  Au  Au276  1  0.16605145  0.65919173  0.00288719  1
  Au  Au277  1  0.17332319  0.83230911  0.50005179  1
  Au  Au278  1  0.00026998  0.67088613  0.66856468  1
  Au  Au279  1  0.67429814  0.49682882  0.16454372  1
  Au  Au280  1  0.49851530  0.34682350  0.32351327  1
  Au  Au281  1  0.83771120  0.49669731  0.32760892  1
  Au  Au282  1  0.83765250  0.83565697  -0.00435709  1
  Au  Au283  1  0.15870938  0.00189820  0.83406919  1
  Au  Au284  1  0.17156268  0.32904340  0.00291480  1
  Au  Au285  1  0.32347888  0.49917629  0.67148889  1
  Au  Au286  1  0.50360535  0.82904927  0.84143702  1
  Au  Au287  1  0.33754325  -0.00138184  0.82667798  1
