# generated using pymatgen
data_Ca24Ti8Al207Au49
_symmetry_space_group_name_H-M   'P 1'
_cell_length_a   17.32222189
_cell_length_b   17.32034109
_cell_length_c   17.32150609
_cell_angle_alpha   89.99790171
_cell_angle_beta   90.00117042
_cell_angle_gamma   90.00258506
_symmetry_Int_Tables_number   1
_chemical_formula_structural   Ca24Ti8Al207Au49
_chemical_formula_sum   'Ca24 Ti8 Al207 Au49'
_cell_volume   5196.91588680
_cell_formula_units_Z   1
loop_
 _symmetry_equiv_pos_site_id
 _symmetry_equiv_pos_as_xyz
  1  'x, y, z'
loop_
 _atom_site_type_symbol
 _atom_site_label
 _atom_site_symmetry_multiplicity
 _atom_site_fract_x
 _atom_site_fract_y
 _atom_site_fract_z
 _atom_site_occupancy
  Ca  Ca0  1  0.24749193  -0.00256120  -0.00386001  1
  Ca  Ca1  1  0.25008789  -0.00089130  0.50071320  1
  Ca  Ca2  1  0.24950346  0.50277318  0.00150511  1
  Ca  Ca3  1  0.25150374  0.50363441  0.49919012  1
  Ca  Ca4  1  0.75139527  0.00168256  0.00248206  1
  Ca  Ca5  1  0.75042647  -0.00105468  0.49681473  1
  Ca  Ca6  1  0.75150808  0.49904867  0.00573028  1
  Ca  Ca7  1  0.74952884  0.50056677  0.49564907  1
  Ca  Ca8  1  -0.00453271  0.24946444  -0.00073327  1
  Ca  Ca9  1  0.00108863  0.24909074  0.49952074  1
  Ca  Ca10  1  -0.00148321  0.74772631  0.00237158  1
  Ca  Ca11  1  -0.00414530  0.75114916  0.49754823  1
  Ca  Ca12  1  0.50284763  0.24820882  0.00430403  1
  Ca  Ca13  1  0.50118927  0.24478394  0.49632182  1
  Ca  Ca14  1  0.49888989  0.74489336  0.00134997  1
  Ca  Ca15  1  0.50284591  0.74759501  0.49576753  1
  Ca  Ca16  1  0.00016808  -0.00453896  0.25190532  1
  Ca  Ca17  1  0.00398233  0.00030397  0.74485788  1
  Ca  Ca18  1  -0.00367066  0.50583359  0.24794969  1
  Ca  Ca19  1  -0.00305470  0.50028064  0.75612951  1
  Ca  Ca20  1  0.50042444  0.00318503  0.24985903  1
  Ca  Ca21  1  0.49822990  -0.00147777  0.74670055  1
  Ca  Ca22  1  0.50400222  0.49528533  0.24963857  1
  Ca  Ca23  1  0.49880155  0.50544331  0.75435868  1
  Ti  Ti24  1  0.25068409  0.24848187  0.24928181  1
  Ti  Ti25  1  0.24919597  0.24842114  0.74979624  1
  Ti  Ti26  1  0.24726073  0.74979060  0.25138496  1
  Ti  Ti27  1  0.24867358  0.75015095  0.74914513  1
  Ti  Ti28  1  0.75056400  0.24944475  0.24775655  1
  Ti  Ti29  1  0.75096775  0.24956354  0.75392834  1
  Ti  Ti30  1  0.75269092  0.75022595  0.25005388  1
  Ti  Ti31  1  0.75326885  0.74986745  0.74915018  1
  Al  Al32  1  0.08747374  0.08703353  0.07357823  1
  Al  Al33  1  0.08746610  0.08007106  0.58171811  1
  Al  Al34  1  0.07661224  0.58786463  0.08688344  1
  Al  Al35  1  0.07656322  0.58563426  0.58001832  1
  Al  Al36  1  0.58238777  0.09774672  0.08950458  1
  Al  Al37  1  0.58683837  0.08946406  0.57117263  1
  Al  Al38  1  0.58727448  0.57745560  0.09284995  1
  Al  Al39  1  0.57659143  0.59475874  0.58293482  1
  Al  Al40  1  0.42607675  0.41866382  0.09029119  1
  Al  Al41  1  0.42001135  0.42137603  0.57528275  1
  Al  Al42  1  0.41471264  0.92289988  0.07796586  1
  Al  Al43  1  0.41384243  0.92278450  0.58249295  1
  Al  Al44  1  0.90772259  0.41737586  0.08149581  1
  Al  Al45  1  0.92623522  0.41419561  0.58298613  1
  Al  Al46  1  0.91931539  0.91100229  0.08436574  1
  Al  Al47  1  0.91399966  0.90557746  0.58212684  1
  Al  Al48  1  0.41829637  0.09022238  0.41926480  1
  Al  Al49  1  0.40779569  0.07625020  0.91267977  1
  Al  Al50  1  0.41110164  0.57902930  0.41309299  1
  Al  Al51  1  0.42374308  0.59153736  0.91248752  1
  Al  Al52  1  0.91491969  0.07898056  0.41942792  1
  Al  Al53  1  0.92321842  0.08838316  0.92131876  1
  Al  Al54  1  0.90369763  0.59123967  0.41147471  1
  Al  Al55  1  0.91684788  0.59008262  0.92480570  1
  Al  Al56  1  0.07737782  0.42434638  0.42316235  1
  Al  Al57  1  0.07041889  0.41366067  0.91312854  1
  Al  Al58  1  0.07307868  0.91030076  0.41535981  1
  Al  Al59  1  0.08894449  0.92186714  0.90829412  1
  Al  Al60  1  0.59459174  0.41963649  0.40995772  1
  Al  Al61  1  0.58645550  0.41964456  0.92274879  1
  Al  Al62  1  0.59189058  0.92425115  0.41145615  1
  Al  Al63  1  0.57529111  0.91732618  0.92704043  1
  Al  Al64  1  0.08388295  0.08151080  0.42062871  1
  Al  Al65  1  0.09564021  0.08698392  0.91046998  1
  Al  Al66  1  0.07709335  0.58666985  0.41595438  1
  Al  Al67  1  0.07640239  0.58770451  0.91784501  1
  Al  Al68  1  0.59280104  0.08787798  0.40981443  1
  Al  Al69  1  0.58576200  0.08877450  0.93125172  1
  Al  Al70  1  0.59408909  0.57939328  0.41091600  1
  Al  Al71  1  0.58091787  0.58472697  0.91143626  1
  Al  Al72  1  0.41055479  0.42101841  0.41182230  1
  Al  Al73  1  0.42683407  0.42708035  0.92319173  1
  Al  Al74  1  0.42054116  0.92171766  0.42142390  1
  Al  Al75  1  0.40698744  0.91870842  0.91242207  1
  Al  Al76  1  0.90937313  0.42992505  0.40922123  1
  Al  Al77  1  0.91266318  0.40776879  0.91997458  1
  Al  Al78  1  0.91168259  0.90258870  0.41782278  1
  Al  Al79  1  0.92415280  0.91138770  0.92117482  1
  Al  Al80  1  0.07746818  0.42739022  0.07943753  1
  Al  Al81  1  0.07838919  0.40832043  0.58627976  1
  Al  Al82  1  0.08140513  0.91518477  0.08332784  1
  Al  Al83  1  0.07675898  0.91305748  0.58758499  1
  Al  Al84  1  0.59015273  0.41437009  0.09339731  1
  Al  Al85  1  0.57870852  0.41694780  0.57005454  1
  Al  Al86  1  0.58107435  0.91933670  0.08098103  1
  Al  Al87  1  0.58317638  0.91603918  0.57467734  1
  Al  Al88  1  0.42006194  0.08516770  0.08941858  1
  Al  Al89  1  0.40781739  0.08417633  0.58047311  1
  Al  Al90  1  0.42298761  0.58147339  0.08527886  1
  Al  Al91  1  0.42091035  0.59004590  0.58754504  1
  Al  Al92  1  0.91839617  0.08429284  0.08029144  1
  Al  Al93  1  0.91548216  0.07816123  0.57816387  1
  Al  Al94  1  0.91198068  0.58961635  0.08831375  1
  Al  Al95  1  0.91328766  0.59708231  0.57288109  1
  Al  Al96  1  0.24815931  0.13513566  0.13020981  1
  Al  Al97  1  0.25048051  0.13266504  0.63457180  1
  Al  Al98  1  0.24907706  0.63704803  0.13846789  1
  Al  Al99  1  0.24716444  0.63446940  0.63323222  1
  Al  Al100  1  0.74942572  0.13543299  0.12734745  1
  Al  Al101  1  0.74707103  0.13517517  0.63475592  1
  Al  Al102  1  0.75384357  0.63618161  0.13567355  1
  Al  Al103  1  0.76098722  0.64003320  0.63153004  1
  Al  Al104  1  0.25255358  0.36391505  0.13491674  1
  Al  Al105  1  0.25065779  0.36890920  0.63814322  1
  Al  Al106  1  0.24208077  0.86404970  0.13726981  1
  Al  Al107  1  0.24822065  0.86399488  0.63534443  1
  Al  Al108  1  0.74822376  0.36559490  0.13129000  1
  Al  Al109  1  0.75213481  0.36427296  0.63900794  1
  Al  Al110  1  0.75759327  0.86634393  0.13725397  1
  Al  Al111  1  0.75153236  0.86042961  0.62717655  1
  Al  Al112  1  0.25252955  0.12916878  0.36334757  1
  Al  Al113  1  0.24805012  0.13265899  0.86930255  1
  Al  Al114  1  0.24851279  0.63836502  0.36911805  1
  Al  Al115  1  0.24987514  0.63430148  0.86302831  1
  Al  Al116  1  0.74610610  0.12697776  0.36135835  1
  Al  Al117  1  0.74896244  0.13714234  0.87386674  1
  Al  Al118  1  0.75481417  0.63324510  0.36462363  1
  Al  Al119  1  0.75401281  0.63713839  0.86789939  1
  Al  Al120  1  0.25615542  0.36518556  0.36167179  1
  Al  Al121  1  0.24899660  0.36876282  0.86469752  1
  Al  Al122  1  0.24673753  0.86772140  0.36315157  1
  Al  Al123  1  0.24735496  0.86645105  0.86232080  1
  Al  Al124  1  0.74727842  0.37099988  0.36149257  1
  Al  Al125  1  0.75283527  0.36318056  0.87499169  1
  Al  Al126  1  0.75505192  0.86445781  0.36660552  1
  Al  Al127  1  0.75255826  0.86190100  0.86375550  1
  Al  Al128  1  0.13393196  0.24690614  0.13427335  1
  Al  Al129  1  0.13584005  0.24648763  0.63726267  1
  Al  Al130  1  0.12631072  0.74987663  0.13888419  1
  Al  Al131  1  0.13084436  0.75203574  0.63573584  1
  Al  Al132  1  0.63748786  0.24883629  0.12924994  1
  Al  Al133  1  0.63589301  0.24835881  0.63597416  1
  Al  Al134  1  0.63843314  0.74942185  0.13810495  1
  Al  Al135  1  0.63557191  0.74531552  0.63291262  1
  Al  Al136  1  0.13645194  0.24778537  0.36253038  1
  Al  Al137  1  0.13760146  0.24775341  0.86565017  1
  Al  Al138  1  0.12680217  0.74793213  0.36291249  1
  Al  Al139  1  0.13383660  0.75018975  0.86416380  1
  Al  Al140  1  0.63878021  0.24762874  0.36224477  1
  Al  Al141  1  0.63811885  0.25090686  0.87433460  1
  Al  Al142  1  0.63760582  0.74933217  0.36416014  1
  Al  Al143  1  0.63571340  0.74612983  0.86294562  1
  Al  Al144  1  0.36585215  0.24433455  0.13445154  1
  Al  Al145  1  0.36318549  0.24623478  0.63565631  1
  Al  Al146  1  0.36228498  0.75126156  0.13882062  1
  Al  Al147  1  0.36358118  0.74630726  0.63608150  1
  Al  Al148  1  0.86266991  0.25293417  0.12874234  1
  Al  Al149  1  0.86306633  0.24785047  0.63630083  1
  Al  Al150  1  0.87038923  0.74953845  0.13414572  1
  Al  Al151  1  0.86956081  0.75443193  0.63181217  1
  Al  Al152  1  0.36491076  0.24605460  0.36298582  1
  Al  Al153  1  0.36018804  0.24615826  0.86718212  1
  Al  Al154  1  0.36769192  0.74506457  0.36301009  1
  Al  Al155  1  0.36282437  0.74949513  0.86404765  1
  Al  Al156  1  0.86306627  0.24653782  0.35974735  1
  Al  Al157  1  0.86773609  0.25053887  0.87217136  1
  Al  Al158  1  0.86807215  0.75023232  0.36592944  1
  Al  Al159  1  0.86866268  0.75045717  0.87075584  1
  Al  Al160  1  0.13738368  0.12726870  0.25157946  1
  Al  Al161  1  0.13844262  0.12496256  0.75227083  1
  Al  Al162  1  0.12812289  0.63477359  0.25134256  1
  Al  Al163  1  0.13217352  0.63505719  0.75122894  1
  Al  Al164  1  0.63588063  0.13609712  0.24668835  1
  Al  Al165  1  0.64048765  0.13467058  0.75037256  1
  Al  Al166  1  0.64162730  0.62932435  0.25177679  1
  Al  Al167  1  0.63894668  0.63640986  0.74852736  1
  Al  Al168  1  0.36487602  0.13407929  0.24815561  1
  Al  Al169  1  0.36051902  0.13128457  0.75479556  1
  Al  Al170  1  0.36230695  0.62794626  0.25205134  1
  Al  Al171  1  0.36739199  0.63726478  0.75035805  1
  Al  Al172  1  0.86142986  0.12870720  0.24925359  1
  Al  Al173  1  0.86493670  0.13758626  0.75261739  1
  Al  Al174  1  0.87042354  0.63698471  0.25010150  1
  Al  Al175  1  0.86820519  0.63659458  0.75664975  1
  Al  Al176  1  0.13271300  0.36308446  0.24937941  1
  Al  Al177  1  0.13423454  0.36590692  0.75274711  1
  Al  Al178  1  0.12813176  0.86632735  0.25266862  1
  Al  Al179  1  0.13465014  0.86867358  0.74893110  1
  Al  Al180  1  0.63776931  0.36636958  0.24775984  1
  Al  Al181  1  0.63844082  0.36062652  0.75352712  1
  Al  Al182  1  0.63749171  0.86770145  0.25450194  1
  Al  Al183  1  0.63802822  0.86550276  0.74286760  1
  Al  Al184  1  0.36558399  0.36771456  0.24776217  1
  Al  Al185  1  0.36491156  0.36225958  0.75004138  1
  Al  Al186  1  0.36622775  0.86416080  0.25391223  1
  Al  Al187  1  0.36580932  0.86599382  0.75261250  1
  Al  Al188  1  0.86234299  0.36695157  0.25071598  1
  Al  Al189  1  0.86370141  0.36715376  0.75921086  1
  Al  Al190  1  0.87182212  0.86435829  0.25347786  1
  Al  Al191  1  0.86816943  0.86188520  0.74623830  1
  Al  Al192  1  0.17340013  0.68057761  0.00198445  1
  Al  Al193  1  0.32867964  0.32232592  -0.00017884  1
  Al  Al194  1  0.49958962  0.81382773  0.67221245  1
  Al  Al195  1  0.81593259  0.50124315  0.18324679  1
  Al  Al196  1  -0.00136634  0.31529104  0.69411122  1
  Al  Al197  1  0.31753279  0.82471307  0.00072751  1
  Al  Al198  1  0.31809168  -0.00134492  0.68457678  1
  Al  Al199  1  0.32038435  -0.00146487  0.18037232  1
  Al  Al200  1  0.67218368  0.31269693  0.49917902  1
  Al  Al201  1  0.50065159  0.81699601  0.82813076  1
  Al  Al202  1  0.50165384  0.67932636  0.18124577  1
  Al  Al203  1  0.32550869  0.50061747  0.67661500  1
  Al  Al204  1  0.68172317  0.82296406  0.00127925  1
  Al  Al205  1  0.18655536  0.49984157  0.33245587  1
  Al  Al206  1  0.00465681  0.18365145  0.82071989  1
  Al  Al207  1  0.50138985  0.17680407  0.31372388  1
  Al  Al208  1  0.82104993  0.32365410  0.49784568  1
  Al  Al209  1  0.17240451  0.32633324  0.49893105  1
  Al  Al210  1  0.17118596  0.49857808  0.82635464  1
  Al  Al211  1  0.68097463  0.49953089  0.82607737  1
  Al  Al212  1  0.50103379  0.32914633  0.82684406  1
  Al  Al213  1  0.32812371  0.67124988  0.00159757  1
  Al  Al214  1  -0.00201318  0.17530923  0.32343613  1
  Al  Al215  1  0.50047403  0.32675029  0.67117022  1
  Al  Al216  1  0.00097142  0.81466958  0.81394124  1
  Al  Al217  1  -0.00194540  0.68475032  0.68574934  1
  Al  Al218  1  0.50311566  0.17208793  0.82285765  1
  Al  Al219  1  0.32955649  0.31129697  0.49932736  1
  Al  Al220  1  0.17084831  0.32150065  0.00059870  1
  Al  Al221  1  0.66739206  -0.00103947  0.82535047  1
  Al  Al222  1  0.16999684  0.82314981  0.49907592  1
  Al  Al223  1  0.18759888  0.17462344  0.49876483  1
  Al  Al224  1  -0.00025932  0.32646084  0.17588023  1
  Al  Al225  1  0.66664825  0.49997947  0.66965520  1
  Al  Al226  1  0.82909961  -0.00011734  0.82957965  1
  Al  Al227  1  0.67786121  0.00097622  0.17921134  1
  Al  Al228  1  0.50222180  0.82722118  0.32130872  1
  Al  Al229  1  0.68346467  0.67655555  0.50127014  1
  Al  Al230  1  0.81139921  0.17246475  0.49793700  1
  Al  Al231  1  0.32445736  0.82313690  0.49907983  1
  Al  Al232  1  0.18083709  0.50084637  0.17486661  1
  Al  Al233  1  0.67831723  0.66705747  0.00130741  1
  Al  Al234  1  0.49920514  0.17108684  0.67062986  1
  Al  Al235  1  0.50170310  0.31001956  0.17893915  1
  Al  Al236  1  0.82066921  -0.00284005  0.67137549  1
  Al  Al237  1  0.50092901  0.32895249  0.32956000  1
  Al  Al238  1  0.83267292  0.50199802  0.67658994  1
  Au  Au239  1  0.16507585  0.67485901  0.49971168  1
  Au  Au240  1  0.15457312  0.32595822  -0.00034659  1
  Au  Au241  1  0.82980834  0.50197741  0.84584415  1
  Au  Au242  1  0.49622549  0.82661275  0.15756082  1
  Au  Au243  1  0.67177659  0.32935502  0.00216256  1
  Au  Au244  1  -0.00222718  0.67646861  0.67099864  1
  Au  Au245  1  0.83808484  0.50227726  0.66127702  1
  Au  Au246  1  0.49805278  0.17376476  0.83847096  1
  Au  Au247  1  0.16908518  0.83038800  -0.00305146  1
  Au  Au248  1  0.83845061  -0.00054420  0.17096435  1
  Au  Au249  1  -0.00407549  0.67384744  0.32808937  1
  Au  Au250  1  0.50213034  0.83206940  0.33290991  1
  Au  Au251  1  0.33613246  0.50082784  0.66992635  1
  Au  Au252  1  0.33623033  0.00308250  0.33079066  1
  Au  Au253  1  0.65118536  0.49835870  0.67428430  1
  Au  Au254  1  0.16243940  0.50058518  0.83523589  1
  Au  Au255  1  0.16994263  -0.00404566  0.67446604  1
  Au  Au256  1  -0.00172144  0.17178421  0.65797137  1
  Au  Au257  1  0.32320322  0.15619175  0.00195487  1
  Au  Au258  1  0.82682388  -0.00486797  0.33821099  1
  Au  Au259  1  0.66987171  0.00282953  0.65679539  1
  Au  Au260  1  0.16241908  0.49895900  0.66262675  1
  Au  Au261  1  0.33811627  0.67419107  0.49932350  1
  Au  Au262  1  0.67590766  0.66680988  0.49880288  1
  Au  Au263  1  0.17241997  0.00266265  0.16059334  1
  Au  Au264  1  0.83451925  0.33304778  0.49674663  1
  Au  Au265  1  0.82995573  0.82649864  0.00090012  1
  Au  Au266  1  -0.00103323  0.16560951  0.33139432  1
  Au  Au267  1  0.33691370  0.50196255  0.83226619  1
  Au  Au268  1  0.32393479  0.32745041  0.49849111  1
  Au  Au269  1  0.84535513  0.00028838  0.82318493  1
  Au  Au270  1  0.68110820  0.83311335  0.49536657  1
  Au  Au271  1  0.66663164  0.67218459  -0.00050030  1
  Au  Au272  1  0.00009469  0.17991551  0.83225523  1
  Au  Au273  1  0.00363418  0.82658226  0.82553421  1
  Au  Au274  1  0.66593749  -0.00105423  0.84245650  1
  Au  Au275  1  0.00295409  0.16944519  0.16651916  1
  Au  Au276  1  0.33321452  0.50067189  0.17288112  1
  Au  Au277  1  0.50146049  0.65513989  0.32547655  1
  Au  Au278  1  0.66312659  0.00160244  0.17137194  1
  Au  Au279  1  0.82560597  0.17216381  0.00113957  1
  Au  Au280  1  0.34340684  0.33103774  0.00088232  1
  Au  Au281  1  0.49797292  0.82440886  0.65903624  1
  Au  Au282  1  -0.00214933  0.33521737  0.16703597  1
  Au  Au283  1  0.49882135  0.82130605  0.84394717  1
  Au  Au284  1  -0.00003870  0.82531141  0.17526198  1
  Au  Au285  1  0.16449291  -0.00652077  0.33465281  1
  Au  Au286  1  -0.00169201  0.33938829  0.33185902  1
  Au  Au287  1  0.17013679  0.49895679  0.32725515  1
