# generated using pymatgen
data_Ca24Ti8Al207Au49
_symmetry_space_group_name_H-M   'P 1'
_cell_length_a   17.32006109
_cell_length_b   17.32174605
_cell_length_c   17.32024523
_cell_angle_alpha   90.00089309
_cell_angle_beta   89.99827659
_cell_angle_gamma   90.00298947
_symmetry_Int_Tables_number   1
_chemical_formula_structural   Ca24Ti8Al207Au49
_chemical_formula_sum   'Ca24 Ti8 Al207 Au49'
_cell_volume   5196.31084184
_cell_formula_units_Z   1
loop_
 _symmetry_equiv_pos_site_id
 _symmetry_equiv_pos_as_xyz
  1  'x, y, z'
loop_
 _atom_site_type_symbol
 _atom_site_label
 _atom_site_symmetry_multiplicity
 _atom_site_fract_x
 _atom_site_fract_y
 _atom_site_fract_z
 _atom_site_occupancy
  Ca  Ca0  1  0.24934803  -0.00147505  0.00073657  1
  Ca  Ca1  1  0.25318181  0.00298244  0.49734371  1
  Ca  Ca2  1  0.24940170  0.50104066  0.00131171  1
  Ca  Ca3  1  0.24929273  0.49602023  0.50378368  1
  Ca  Ca4  1  0.75107893  -0.00185410  0.00420248  1
  Ca  Ca5  1  0.75213924  0.00205421  0.49258531  1
  Ca  Ca6  1  0.75047098  0.50169462  0.00186241  1
  Ca  Ca7  1  0.75940402  0.50099615  0.49725391  1
  Ca  Ca8  1  -0.00265145  0.24631037  0.00225633  1
  Ca  Ca9  1  0.00336382  0.24981890  0.49591579  1
  Ca  Ca10  1  -0.00146399  0.75103488  0.00397362  1
  Ca  Ca11  1  0.00027157  0.74626050  0.49747285  1
  Ca  Ca12  1  0.50019485  0.25027072  -0.00168958  1
  Ca  Ca13  1  0.49728510  0.25028631  0.49812035  1
  Ca  Ca14  1  0.50053685  0.75290834  0.00153581  1
  Ca  Ca15  1  0.49826962  0.75380214  0.49601235  1
  Ca  Ca16  1  -0.00218236  -0.00141392  0.24850252  1
  Ca  Ca17  1  -0.00199234  -0.00002496  0.74773178  1
  Ca  Ca18  1  -0.00053239  0.50069710  0.25089941  1
  Ca  Ca19  1  0.00255525  0.49875866  0.74584628  1
  Ca  Ca20  1  0.50189967  -0.00045965  0.25095203  1
  Ca  Ca21  1  0.50152393  -0.00156899  0.75035801  1
  Ca  Ca22  1  0.49821518  0.49900389  0.25351927  1
  Ca  Ca23  1  0.49575340  0.49927780  0.75059748  1
  Ti  Ti24  1  0.24951024  0.25040835  0.25088833  1
  Ti  Ti25  1  0.25107567  0.25045613  0.74865849  1
  Ti  Ti26  1  0.25075503  0.75008123  0.24881861  1
  Ti  Ti27  1  0.25007152  0.74964281  0.74952692  1
  Ti  Ti28  1  0.75111702  0.24917501  0.25148862  1
  Ti  Ti29  1  0.74912083  0.24828691  0.74900493  1
  Ti  Ti30  1  0.74945583  0.75074015  0.24946485  1
  Ti  Ti31  1  0.75202643  0.75172165  0.75112337  1
  Al  Al32  1  0.07825874  0.07842710  0.09603188  1
  Al  Al33  1  0.09276241  0.08839149  0.57560027  1
  Al  Al34  1  0.07994211  0.59335429  0.08649502  1
  Al  Al35  1  0.08103044  0.58299646  0.59380339  1
  Al  Al36  1  0.58523215  0.07887540  0.09205584  1
  Al  Al37  1  0.57575665  0.07946246  0.58299541  1
  Al  Al38  1  0.58253031  0.59250359  0.08648346  1
  Al  Al39  1  0.57799733  0.57680560  0.57632651  1
  Al  Al40  1  0.42245838  0.41885387  0.08591614  1
  Al  Al41  1  0.40955525  0.41987088  0.58849344  1
  Al  Al42  1  0.41554765  0.91716971  0.08004977  1
  Al  Al43  1  0.41049384  0.91656820  0.58951939  1
  Al  Al44  1  0.91745814  0.42247432  0.08469396  1
  Al  Al45  1  0.91486573  0.42477102  0.57976750  1
  Al  Al46  1  0.90937293  0.91867383  0.08982467  1
  Al  Al47  1  0.90923116  0.92239762  0.58590234  1
  Al  Al48  1  0.42652457  0.08887804  0.41345871  1
  Al  Al49  1  0.41977570  0.08758693  0.91056492  1
  Al  Al50  1  0.41223162  0.58879473  0.42082466  1
  Al  Al51  1  0.41402205  0.57407864  0.91197974  1
  Al  Al52  1  0.91371053  0.08125905  0.40667219  1
  Al  Al53  1  0.91664399  0.07611966  0.92172408  1
  Al  Al54  1  0.91563048  0.57765094  0.40760724  1
  Al  Al55  1  0.91600284  0.58373600  0.92412168  1
  Al  Al56  1  0.07919390  0.41376166  0.41059651  1
  Al  Al57  1  0.08669982  0.42354369  0.91615276  1
  Al  Al58  1  0.07769354  0.92532103  0.41220213  1
  Al  Al59  1  0.09150245  0.91433713  0.93085379  1
  Al  Al60  1  0.57765972  0.41430339  0.40910800  1
  Al  Al61  1  0.57656545  0.41057980  0.91135619  1
  Al  Al62  1  0.59080209  0.92342829  0.41310500  1
  Al  Al63  1  0.57889554  0.90901570  0.91488812  1
  Al  Al64  1  0.08954929  0.08826550  0.41381452  1
  Al  Al65  1  0.07483587  0.07522088  0.92227843  1
  Al  Al66  1  0.07713471  0.57824474  0.41493948  1
  Al  Al67  1  0.09174974  0.58192682  0.92162624  1
  Al  Al68  1  0.58619882  0.08251213  0.40097889  1
  Al  Al69  1  0.57605388  0.08744077  0.91140143  1
  Al  Al70  1  0.57871567  0.57891327  0.41413303  1
  Al  Al71  1  0.58363959  0.57886750  0.92791728  1
  Al  Al72  1  0.41800941  0.41010662  0.41486566  1
  Al  Al73  1  0.41677704  0.41354974  0.90062634  1
  Al  Al74  1  0.42157339  0.91945045  0.42512491  1
  Al  Al75  1  0.41732368  0.91122092  0.91482017  1
  Al  Al76  1  0.91713710  0.41462247  0.40831929  1
  Al  Al77  1  0.92039641  0.42070876  0.92138236  1
  Al  Al78  1  0.91025021  0.92073537  0.40544137  1
  Al  Al79  1  0.90479940  0.91521052  0.92968140  1
  Al  Al80  1  0.07932784  0.42029333  0.08169503  1
  Al  Al81  1  0.08789939  0.42200900  0.58410396  1
  Al  Al82  1  0.09000202  0.91626957  0.08985620  1
  Al  Al83  1  0.07786424  0.92941244  0.57958625  1
  Al  Al84  1  0.57765161  0.41659999  0.08323306  1
  Al  Al85  1  0.57467030  0.41833045  0.58409067  1
  Al  Al86  1  0.59024191  0.91700100  0.08817654  1
  Al  Al87  1  0.57713562  0.91621204  0.57882018  1
  Al  Al88  1  0.42051940  0.08046751  0.08665553  1
  Al  Al89  1  0.41159120  0.07835007  0.59132655  1
  Al  Al90  1  0.42439843  0.58726715  0.08972502  1
  Al  Al91  1  0.40046051  0.58139031  0.58215135  1
  Al  Al92  1  0.91486279  0.08178113  0.09795628  1
  Al  Al93  1  0.91414284  0.07888180  0.58556278  1
  Al  Al94  1  0.91851776  0.59061393  0.09273091  1
  Al  Al95  1  0.91953828  0.58340682  0.59410162  1
  Al  Al96  1  0.24566140  0.13410742  0.14201552  1
  Al  Al97  1  0.25256164  0.13785823  0.63617417  1
  Al  Al98  1  0.24962382  0.63056619  0.13939025  1
  Al  Al99  1  0.25147915  0.63274284  0.63424396  1
  Al  Al100  1  0.75479721  0.13052644  0.14186752  1
  Al  Al101  1  0.75244865  0.13392442  0.63403699  1
  Al  Al102  1  0.75226772  0.63808599  0.13643228  1
  Al  Al103  1  0.75695900  0.63273107  0.63406141  1
  Al  Al104  1  0.25033432  0.36900076  0.13805844  1
  Al  Al105  1  0.24773266  0.36387808  0.63662017  1
  Al  Al106  1  0.24527194  0.86453171  0.13642641  1
  Al  Al107  1  0.25266474  0.86588047  0.63517210  1
  Al  Al108  1  0.75252666  0.36238712  0.13973772  1
  Al  Al109  1  0.75051975  0.36370948  0.63667835  1
  Al  Al110  1  0.75148994  0.86338173  0.13265232  1
  Al  Al111  1  0.75541238  0.86508704  0.63459833  1
  Al  Al112  1  0.24509034  0.13817570  0.36224799  1
  Al  Al113  1  0.25662957  0.13574018  0.85985589  1
  Al  Al114  1  0.25466588  0.63631222  0.36426501  1
  Al  Al115  1  0.25021816  0.63574619  0.86338654  1
  Al  Al116  1  0.75368548  0.13156579  0.36060231  1
  Al  Al117  1  0.75037982  0.12867042  0.85935056  1
  Al  Al118  1  0.75284766  0.63049294  0.36122305  1
  Al  Al119  1  0.75474462  0.63596778  0.86528056  1
  Al  Al120  1  0.24773832  0.36257918  0.36555729  1
  Al  Al121  1  0.25285578  0.36396957  0.86277877  1
  Al  Al122  1  0.25060686  0.86276850  0.35974473  1
  Al  Al123  1  0.25007281  0.86606087  0.86400349  1
  Al  Al124  1  0.75184413  0.36791163  0.36374253  1
  Al  Al125  1  0.74938413  0.36103456  0.86245375  1
  Al  Al126  1  0.75123583  0.87066593  0.35846142  1
  Al  Al127  1  0.75148644  0.86966664  0.86849404  1
  Al  Al128  1  0.13223641  0.24829877  0.13876486  1
  Al  Al129  1  0.13503811  0.25021233  0.62708966  1
  Al  Al130  1  0.12934748  0.75244268  0.13689144  1
  Al  Al131  1  0.13400743  0.74250035  0.63328495  1
  Al  Al132  1  0.63519732  0.24634256  0.13994466  1
  Al  Al133  1  0.62901113  0.24891842  0.63655628  1
  Al  Al134  1  0.63127986  0.75379642  0.13629733  1
  Al  Al135  1  0.63873417  0.75052024  0.63716851  1
  Al  Al136  1  0.13007334  0.25094541  0.36616121  1
  Al  Al137  1  0.13348836  0.24955428  0.86222546  1
  Al  Al138  1  0.13483116  0.74935069  0.36374735  1
  Al  Al139  1  0.13578470  0.75009907  0.86235668  1
  Al  Al140  1  0.63278620  0.24797125  0.36231308  1
  Al  Al141  1  0.63214223  0.24873257  0.86228298  1
  Al  Al142  1  0.63086114  0.75076064  0.36185366  1
  Al  Al143  1  0.63748980  0.75642718  0.86696233  1
  Al  Al144  1  0.36324369  0.24985626  0.13731852  1
  Al  Al145  1  0.37224311  0.24974014  0.63850103  1
  Al  Al146  1  0.36857652  0.74963418  0.13774319  1
  Al  Al147  1  0.35979497  0.74910682  0.63657800  1
  Al  Al148  1  0.86706016  0.24638850  0.13859293  1
  Al  Al149  1  0.86922868  0.24551999  0.63622456  1
  Al  Al150  1  0.86821319  0.75222588  0.13368467  1
  Al  Al151  1  0.86545369  0.74810262  0.63052949  1
  Al  Al152  1  0.36720887  0.24910915  0.36361888  1
  Al  Al153  1  0.36995568  0.25080116  0.86268816  1
  Al  Al154  1  0.37098945  0.74801595  0.36160520  1
  Al  Al155  1  0.36851165  0.75715980  0.85980121  1
  Al  Al156  1  0.87205960  0.24625170  0.36193200  1
  Al  Al157  1  0.86723664  0.24874753  0.86220797  1
  Al  Al158  1  0.86162185  0.75241202  0.36895075  1
  Al  Al159  1  0.86340696  0.75168576  0.87023514  1
  Al  Al160  1  0.12635178  0.13748505  0.25141164  1
  Al  Al161  1  0.13145100  0.13850473  0.74803340  1
  Al  Al162  1  0.13321215  0.63616170  0.24611652  1
  Al  Al163  1  0.13571697  0.63154305  0.74544378  1
  Al  Al164  1  0.63128998  0.13263570  0.25241882  1
  Al  Al165  1  0.62981756  0.13353785  0.75033818  1
  Al  Al166  1  0.62917158  0.63731228  0.24991806  1
  Al  Al167  1  0.63878293  0.63675744  0.75190494  1
  Al  Al168  1  0.37062818  0.13539328  0.25004961  1
  Al  Al169  1  0.36899921  0.13275704  0.74960403  1
  Al  Al170  1  0.36865886  0.63181641  0.24896373  1
  Al  Al171  1  0.36585455  0.63306296  0.75520876  1
  Al  Al172  1  0.87197587  0.13211692  0.24960570  1
  Al  Al173  1  0.86752103  0.13003838  0.75067506  1
  Al  Al174  1  0.86639875  0.63864273  0.24927508  1
  Al  Al175  1  0.86772890  0.63643260  0.74661319  1
  Al  Al176  1  0.13186650  0.36459377  0.25175658  1
  Al  Al177  1  0.13387132  0.36525635  0.74780211  1
  Al  Al178  1  0.12800719  0.86481828  0.24739570  1
  Al  Al179  1  0.13519989  0.86299652  0.74451023  1
  Al  Al180  1  0.63478883  0.36700435  0.25299629  1
  Al  Al181  1  0.62831737  0.36350163  0.74928249  1
  Al  Al182  1  0.63112794  0.86588088  0.25152899  1
  Al  Al183  1  0.63677970  0.86686862  0.75200966  1
  Al  Al184  1  0.36408431  0.36897544  0.25396757  1
  Al  Al185  1  0.36891750  0.36430355  0.75091013  1
  Al  Al186  1  0.37189190  0.86367449  0.24811486  1
  Al  Al187  1  0.36347059  0.86992991  0.74878154  1
  Al  Al188  1  0.86940626  0.36519339  0.25679705  1
  Al  Al189  1  0.86577778  0.36425082  0.74804205  1
  Al  Al190  1  0.86800860  0.86638352  0.24746945  1
  Al  Al191  1  0.86503120  0.86936336  0.75008099  1
  Al  Al192  1  0.82897679  0.32004752  0.49845947  1
  Al  Al193  1  0.32732445  0.81601147  0.49813074  1
  Al  Al194  1  0.67469733  0.16858732  0.49686339  1
  Al  Al195  1  -0.00039009  0.67899446  0.31579233  1
  Al  Al196  1  0.17225733  0.32577196  0.00075445  1
  Al  Al197  1  0.68328844  0.68298123  0.00098623  1
  Al  Al198  1  -0.00055539  0.81608460  0.66968059  1
  Al  Al199  1  0.83174821  0.49944582  0.81582675  1
  Al  Al200  1  0.31861065  0.32347700  0.50212464  1
  Al  Al201  1  0.32705932  0.32648164  -0.00018359  1
  Al  Al202  1  0.31623084  0.16895052  0.49746981  1
  Al  Al203  1  0.17794767  0.50075655  0.31921397  1
  Al  Al204  1  -0.00121600  0.31852339  0.18359840  1
  Al  Al205  1  0.67941149  0.67052881  0.49782466  1
  Al  Al206  1  0.32935621  0.00083696  0.33102404  1
  Al  Al207  1  0.67349890  0.32841939  0.00059579  1
  Al  Al208  1  0.18903241  0.50042956  0.80921804  1
  Al  Al209  1  0.49678992  0.67158902  0.67006717  1
  Al  Al210  1  0.67933045  0.17426017  -0.00057499  1
  Al  Al211  1  0.30867346  0.49858236  0.69087037  1
  Al  Al212  1  0.67265568  0.49894748  0.82707916  1
  Al  Al213  1  0.32749956  0.17066194  0.00073044  1
  Al  Al214  1  0.67164897  0.50040832  0.17927509  1
  Al  Al215  1  0.17921006  0.00074319  0.82677328  1
  Al  Al216  1  0.17552930  0.16744824  -0.00027889  1
  Al  Al217  1  0.67847250  0.82778106  0.49796230  1
  Al  Al218  1  0.68748378  -0.00210254  0.18939999  1
  Al  Al219  1  0.31407269  -0.00150536  0.17758664  1
  Al  Al220  1  0.68301506  -0.00152671  0.67477903  1
  Al  Al221  1  0.50397580  0.68501535  0.83165922  1
  Al  Al222  1  0.31307017  0.82615435  0.00043354  1
  Al  Al223  1  0.82937899  0.17173277  0.00206400  1
  Al  Al224  1  0.82776139  0.50051686  0.18575401  1
  Al  Al225  1  0.17195065  0.83225200  0.49896275  1
  Al  Al226  1  0.50031433  0.82677816  0.68360343  1
  Al  Al227  1  -0.00245650  0.32636951  0.67353684  1
  Al  Al228  1  0.18133221  0.66762237  0.49894493  1
  Al  Al229  1  0.17678794  0.00054080  0.30998618  1
  Al  Al230  1  -0.00140097  0.83052883  0.83342175  1
  Al  Al231  1  0.67020992  0.32450696  0.49997494  1
  Al  Al232  1  0.68408942  0.50031278  0.66807425  1
  Al  Al233  1  0.33121515  0.67785452  -0.00192985  1
  Al  Al234  1  0.17385014  0.68950585  0.00160184  1
  Al  Al235  1  0.18433172  0.00237916  0.67172094  1
  Al  Al236  1  0.00203689  0.67053299  0.81605132  1
  Al  Al237  1  0.49946177  0.31867897  0.18710749  1
  Al  Al238  1  0.82677125  0.32681406  0.00136039  1
  Au  Au239  1  -0.00001107  0.83074861  0.66095264  1
  Au  Au240  1  0.50477852  0.66953227  0.83848591  1
  Au  Au241  1  0.84236158  0.66453025  0.49982208  1
  Au  Au242  1  0.32563125  0.49885110  0.34234325  1
  Au  Au243  1  0.00372709  0.16168012  0.66631353  1
  Au  Au244  1  0.66368529  -0.00105315  0.83441162  1
  Au  Au245  1  0.83817898  0.16866199  0.49862858  1
  Au  Au246  1  0.00356562  0.65877130  0.82818258  1
  Au  Au247  1  -0.00062223  0.33496044  0.66460748  1
  Au  Au248  1  -0.00208501  0.83458374  0.84851833  1
  Au  Au249  1  0.16075770  0.17051018  0.00781839  1
  Au  Au250  1  0.34190031  -0.00013673  0.82273391  1
  Au  Au251  1  0.49303081  0.67646943  0.65511143  1
  Au  Au252  1  0.33693471  0.33639355  -0.00095937  1
  Au  Au253  1  0.17255931  0.65402464  0.50043078  1
  Au  Au254  1  0.16318266  0.50277746  0.16962284  1
  Au  Au255  1  -0.00167713  0.82680652  0.16304978  1
  Au  Au256  1  0.66356072  0.17062773  -0.00019141  1
  Au  Au257  1  0.18618601  0.49858666  0.82623355  1
  Au  Au258  1  0.49910229  0.82513172  0.16241380  1
  Au  Au259  1  0.49871009  0.16356877  0.67844391  1
  Au  Au260  1  0.83356279  -0.00148889  0.82794462  1
  Au  Au261  1  0.67346614  0.83145092  -0.00014977  1
  Au  Au262  1  0.67577426  0.49945174  0.33318807  1
  Au  Au263  1  0.50014377  0.17153560  0.17728601  1
  Au  Au264  1  0.66758794  0.50080773  0.67363965  1
  Au  Au265  1  0.83219015  0.67537739  0.00480605  1
  Au  Au266  1  0.16281337  -0.00254207  0.82325427  1
  Au  Au267  1  0.17868102  0.84650559  0.49751966  1
  Au  Au268  1  0.49720919  0.66386123  0.32391389  1
  Au  Au269  1  0.00099020  0.17120183  0.32812672  1
  Au  Au270  1  0.66232717  0.17056760  0.49641484  1
  Au  Au271  1  0.00251315  0.33096204  0.83838744  1
  Au  Au272  1  -0.00371527  0.16580519  0.83462888  1
  Au  Au273  1  0.67657072  -0.00356669  0.65937929  1
  Au  Au274  1  0.16800938  0.33291358  0.49696072  1
  Au  Au275  1  0.49655491  0.33231529  0.67533892  1
  Au  Au276  1  0.67353991  0.33676694  0.49936827  1
  Au  Au277  1  0.82602266  0.49864880  0.83203504  1
  Au  Au278  1  0.33731226  0.50098340  0.17320554  1
  Au  Au279  1  -0.00152994  0.32610184  0.16835268  1
  Au  Au280  1  0.32599180  -0.00130448  0.17275733  1
  Au  Au281  1  0.32362174  0.66342472  0.00219618  1
  Au  Au282  1  -0.00159983  0.82616977  0.33335364  1
  Au  Au283  1  0.82616097  0.84188372  0.49658227  1
  Au  Au284  1  0.33260528  0.16869989  0.49962582  1
  Au  Au285  1  0.67481816  0.50033670  0.16690854  1
  Au  Au286  1  0.66344845  0.67639098  0.49763186  1
  Au  Au287  1  0.50213279  0.83645902  0.33252981  1
