# generated using pymatgen
data_Ca24Ti8Al207Au49
_symmetry_space_group_name_H-M   'P 1'
_cell_length_a   17.32464697
_cell_length_b   17.32505188
_cell_length_c   17.32687449
_cell_angle_alpha   89.99948767
_cell_angle_beta   89.99702356
_cell_angle_gamma   90.00339213
_symmetry_Int_Tables_number   1
_chemical_formula_structural   Ca24Ti8Al207Au49
_chemical_formula_sum   'Ca24 Ti8 Al207 Au49'
_cell_volume   5200.66842684
_cell_formula_units_Z   1
loop_
 _symmetry_equiv_pos_site_id
 _symmetry_equiv_pos_as_xyz
  1  'x, y, z'
loop_
 _atom_site_type_symbol
 _atom_site_label
 _atom_site_symmetry_multiplicity
 _atom_site_fract_x
 _atom_site_fract_y
 _atom_site_fract_z
 _atom_site_occupancy
  Ca  Ca0  1  0.24995936  0.00273343  -0.00265325  1
  Ca  Ca1  1  0.25375660  -0.00288894  0.50065318  1
  Ca  Ca2  1  0.25072036  0.50044549  -0.00290135  1
  Ca  Ca3  1  0.25183225  0.49686044  0.50163309  1
  Ca  Ca4  1  0.74995705  0.00057378  -0.00400626  1
  Ca  Ca5  1  0.74667318  -0.00111899  0.50268840  1
  Ca  Ca6  1  0.75117923  0.49855043  -0.00144899  1
  Ca  Ca7  1  0.75175145  0.50051791  0.50069905  1
  Ca  Ca8  1  0.00290190  0.25014446  0.00046508  1
  Ca  Ca9  1  0.00302415  0.24905748  0.49978631  1
  Ca  Ca10  1  0.00036040  0.74891541  -0.00212194  1
  Ca  Ca11  1  -0.00326726  0.75153056  0.50017319  1
  Ca  Ca12  1  0.49763812  0.24648837  -0.00252224  1
  Ca  Ca13  1  0.50005325  0.24482981  0.50255712  1
  Ca  Ca14  1  0.49853310  0.74933633  -0.00214082  1
  Ca  Ca15  1  0.50042311  0.75473982  0.50199964  1
  Ca  Ca16  1  -0.00008167  0.00221277  0.25376637  1
  Ca  Ca17  1  0.00047872  0.00348570  0.75285219  1
  Ca  Ca18  1  -0.00309000  0.49640603  0.24975694  1
  Ca  Ca19  1  0.00123709  0.49554519  0.75120446  1
  Ca  Ca20  1  0.50021236  -0.00044601  0.25271396  1
  Ca  Ca21  1  0.50140579  0.00076930  0.74768315  1
  Ca  Ca22  1  0.50039163  0.50376473  0.24914228  1
  Ca  Ca23  1  0.49995960  0.50078046  0.75038189  1
  Ti  Ti24  1  0.24858516  0.24885163  0.25009907  1
  Ti  Ti25  1  0.25068868  0.24972157  0.74963034  1
  Ti  Ti26  1  0.25273862  0.74952305  0.25014309  1
  Ti  Ti27  1  0.25150081  0.75062828  0.74989430  1
  Ti  Ti28  1  0.75001640  0.25057600  0.25066887  1
  Ti  Ti29  1  0.74927435  0.25035716  0.74973398  1
  Ti  Ti30  1  0.74721679  0.74935929  0.25050649  1
  Ti  Ti31  1  0.74861722  0.75115204  0.74935322  1
  Al  Al32  1  0.08782424  0.09738418  0.07919833  1
  Al  Al33  1  0.08571313  0.08381713  0.58014263  1
  Al  Al34  1  0.08828478  0.58879458  0.07523242  1
  Al  Al35  1  0.08270981  0.57822789  0.57930019  1
  Al  Al36  1  0.57981324  0.07568754  0.08008304  1
  Al  Al37  1  0.58416327  0.08137867  0.59494276  1
  Al  Al38  1  0.58064689  0.58406359  0.08004502  1
  Al  Al39  1  0.58374632  0.58333019  0.58308447  1
  Al  Al40  1  0.41805386  0.41730659  0.07668728  1
  Al  Al41  1  0.40868831  0.41390109  0.58246497  1
  Al  Al42  1  0.41919350  0.91135561  0.08137266  1
  Al  Al43  1  0.41739198  0.91030768  0.58664082  1
  Al  Al44  1  0.91304882  0.40903137  0.07678286  1
  Al  Al45  1  0.92127678  0.41840729  0.58173297  1
  Al  Al46  1  0.91779740  0.92318043  0.07408792  1
  Al  Al47  1  0.90930937  0.91998255  0.58033515  1
  Al  Al48  1  0.41964204  0.07903553  0.42523355  1
  Al  Al49  1  0.40128349  0.08469205  0.91056632  1
  Al  Al50  1  0.41746060  0.58393115  0.42412391  1
  Al  Al51  1  0.41269112  0.59111796  0.91859292  1
  Al  Al52  1  0.91492863  0.08156343  0.42023370  1
  Al  Al53  1  0.91923123  0.07994218  0.91685480  1
  Al  Al54  1  0.90931591  0.58872887  0.42309472  1
  Al  Al55  1  0.91146082  0.57423266  0.91212339  1
  Al  Al56  1  0.08424609  0.40717273  0.42071362  1
  Al  Al57  1  0.08100232  0.41562923  0.91959519  1
  Al  Al58  1  0.09067291  0.91172134  0.41889070  1
  Al  Al59  1  0.09233027  0.92718881  0.91239205  1
  Al  Al60  1  0.58422269  0.42280231  0.41743233  1
  Al  Al61  1  0.58458583  0.41859145  0.91694103  1
  Al  Al62  1  0.58529363  0.91961514  0.41406587  1
  Al  Al63  1  0.58516358  0.92498690  0.91077367  1
  Al  Al64  1  0.08677766  0.08343994  0.42126616  1
  Al  Al65  1  0.09797561  0.08901804  0.91580103  1
  Al  Al66  1  0.07946712  0.58073762  0.42097850  1
  Al  Al67  1  0.09122436  0.58712549  0.92079634  1
  Al  Al68  1  0.58610584  0.07750193  0.41576645  1
  Al  Al69  1  0.58551058  0.08043354  0.90761891  1
  Al  Al70  1  0.58511993  0.58261590  0.41568937  1
  Al  Al71  1  0.58077324  0.58380193  0.91770532  1
  Al  Al72  1  0.41096540  0.41143979  0.42559500  1
  Al  Al73  1  0.41566379  0.41849407  0.91911419  1
  Al  Al74  1  0.41353318  0.91095059  0.42415637  1
  Al  Al75  1  0.40836593  0.92242090  0.91457676  1
  Al  Al76  1  0.92298997  0.41819152  0.41692475  1
  Al  Al77  1  0.90618084  0.41332701  0.91509697  1
  Al  Al78  1  0.91396478  0.91606844  0.42003053  1
  Al  Al79  1  0.91462144  0.91939258  0.91750471  1
  Al  Al80  1  0.07977169  0.41386259  0.07922752  1
  Al  Al81  1  0.09150401  0.40838538  0.57890577  1
  Al  Al82  1  0.08098124  0.92348536  0.07796138  1
  Al  Al83  1  0.09292436  0.91349259  0.57740577  1
  Al  Al84  1  0.58147493  0.41861200  0.07970838  1
  Al  Al85  1  0.58004206  0.42060591  0.58468081  1
  Al  Al86  1  0.57670331  0.91261598  0.09268708  1
  Al  Al87  1  0.58115714  0.91787632  0.59312519  1
  Al  Al88  1  0.41299402  0.08625587  0.07200418  1
  Al  Al89  1  0.42080627  0.08591088  0.58860299  1
  Al  Al90  1  0.41166229  0.59306299  0.07699995  1
  Al  Al91  1  0.41341693  0.58301721  0.58394027  1
  Al  Al92  1  0.92673551  0.08757807  0.08999265  1
  Al  Al93  1  0.91215684  0.08198485  0.58505781  1
  Al  Al94  1  0.91924400  0.57696263  0.07666259  1
  Al  Al95  1  0.91131315  0.58719884  0.57972794  1
  Al  Al96  1  0.24679958  0.13587475  0.12801841  1
  Al  Al97  1  0.25401041  0.13231271  0.63487114  1
  Al  Al98  1  0.25417518  0.63485625  0.13234025  1
  Al  Al99  1  0.25035087  0.63637268  0.63531660  1
  Al  Al100  1  0.74987347  0.13679555  0.13578790  1
  Al  Al101  1  0.74296198  0.13287912  0.63700229  1
  Al  Al102  1  0.74948378  0.62976231  0.13835074  1
  Al  Al103  1  0.75385824  0.63715736  0.63373414  1
  Al  Al104  1  0.24861876  0.36352606  0.13276348  1
  Al  Al105  1  0.24991759  0.36242421  0.63242830  1
  Al  Al106  1  0.25273166  0.86525014  0.13515743  1
  Al  Al107  1  0.25494104  0.86611647  0.63140367  1
  Al  Al108  1  0.75125520  0.36676782  0.13036119  1
  Al  Al109  1  0.74947143  0.36299386  0.63118333  1
  Al  Al110  1  0.74750884  0.86581545  0.13848736  1
  Al  Al111  1  0.74411580  0.86619259  0.63634274  1
  Al  Al112  1  0.25048983  0.13488250  0.36615344  1
  Al  Al113  1  0.25123632  0.13450573  0.86717008  1
  Al  Al114  1  0.24967039  0.63514885  0.36489033  1
  Al  Al115  1  0.25318333  0.63134020  0.86600150  1
  Al  Al116  1  0.74522568  0.13403468  0.36558748  1
  Al  Al117  1  0.74699048  0.12826380  0.85915171  1
  Al  Al118  1  0.75169902  0.63606085  0.36634644  1
  Al  Al119  1  0.75009085  0.62952380  0.86242051  1
  Al  Al120  1  0.24796356  0.36291394  0.36927933  1
  Al  Al121  1  0.24994712  0.36780685  0.86369561  1
  Al  Al122  1  0.25200867  0.86279027  0.36772010  1
  Al  Al123  1  0.25174837  0.86893724  0.86441998  1
  Al  Al124  1  0.75163831  0.36468464  0.36935211  1
  Al  Al125  1  0.74795568  0.36877602  0.86657810  1
  Al  Al126  1  0.74370486  0.86373527  0.36512548  1
  Al  Al127  1  0.74615576  0.87179913  0.86104544  1
  Al  Al128  1  0.12832238  0.24733516  0.13438764  1
  Al  Al129  1  0.13747866  0.25233427  0.63591642  1
  Al  Al130  1  0.13811900  0.74569890  0.13255445  1
  Al  Al131  1  0.13866598  0.75605512  0.63863737  1
  Al  Al132  1  0.63649300  0.25157032  0.13573959  1
  Al  Al133  1  0.63093014  0.24626512  0.63267610  1
  Al  Al134  1  0.62881132  0.75340778  0.13757226  1
  Al  Al135  1  0.62654785  0.75166415  0.63694661  1
  Al  Al136  1  0.13555200  0.24994552  0.36700254  1
  Al  Al137  1  0.13826514  0.24805297  0.86511795  1
  Al  Al138  1  0.13698928  0.75272186  0.36492998  1
  Al  Al139  1  0.14042748  0.74462112  0.86212468  1
  Al  Al140  1  0.63740278  0.25110584  0.37156797  1
  Al  Al141  1  0.63083917  0.24901584  0.86271494  1
  Al  Al142  1  0.62673094  0.74970756  0.36451946  1
  Al  Al143  1  0.63676738  0.75092766  0.86199421  1
  Al  Al144  1  0.36210370  0.24639590  0.13400438  1
  Al  Al145  1  0.36577553  0.24685763  0.63285696  1
  Al  Al146  1  0.36823078  0.74911731  0.13492796  1
  Al  Al147  1  0.37065476  0.75311381  0.63771866  1
  Al  Al148  1  0.86806932  0.25364214  0.13471902  1
  Al  Al149  1  0.86409123  0.25297794  0.63712797  1
  Al  Al150  1  0.86351950  0.74644841  0.13712801  1
  Al  Al151  1  0.86336241  0.75089178  0.63597866  1
  Al  Al152  1  0.36166277  0.25145062  0.37394192  1
  Al  Al153  1  0.36854389  0.24394270  0.86351695  1
  Al  Al154  1  0.37085778  0.75379460  0.36533585  1
  Al  Al155  1  0.36288260  0.75007247  0.86416044  1
  Al  Al156  1  0.86287644  0.24850398  0.36497834  1
  Al  Al157  1  0.86051068  0.25581348  0.86830321  1
  Al  Al158  1  0.86214452  0.74762303  0.36488154  1
  Al  Al159  1  0.86118692  0.74869439  0.86256975  1
  Al  Al160  1  0.13281996  0.13693306  0.24689522  1
  Al  Al161  1  0.13827960  0.13136413  0.75395065  1
  Al  Al162  1  0.13640464  0.63489729  0.24974377  1
  Al  Al163  1  0.13908196  0.62881309  0.75042581  1
  Al  Al164  1  0.63608816  0.13150149  0.25141031  1
  Al  Al165  1  0.62939413  0.13474171  0.74809042  1
  Al  Al166  1  0.62900899  0.63768816  0.24860311  1
  Al  Al167  1  0.63566858  0.63630919  0.74826952  1
  Al  Al168  1  0.36182726  0.13723856  0.24984052  1
  Al  Al169  1  0.36569851  0.13094561  0.75068666  1
  Al  Al170  1  0.37088162  0.63819562  0.24927723  1
  Al  Al171  1  0.36438596  0.63664866  0.74872654  1
  Al  Al172  1  0.86656949  0.13617508  0.24849413  1
  Al  Al173  1  0.86439374  0.13692267  0.75087042  1
  Al  Al174  1  0.86321233  0.62887713  0.25085339  1
  Al  Al175  1  0.86382823  0.63346708  0.75059219  1
  Al  Al176  1  0.13639513  0.36501094  0.24776121  1
  Al  Al177  1  0.13308511  0.36629467  0.75138899  1
  Al  Al178  1  0.13792110  0.86276710  0.24786107  1
  Al  Al179  1  0.13864348  0.86875291  0.75398486  1
  Al  Al180  1  0.63791604  0.36476497  0.24964754  1
  Al  Al181  1  0.63443780  0.36406137  0.75183931  1
  Al  Al182  1  0.63041502  0.86752647  0.25202250  1
  Al  Al183  1  0.63242164  0.86946810  0.74735383  1
  Al  Al184  1  0.35983940  0.36164134  0.25040669  1
  Al  Al185  1  0.36588499  0.36143934  0.75015084  1
  Al  Al186  1  0.37092326  0.86237967  0.24874119  1
  Al  Al187  1  0.36353390  0.86958634  0.74872296  1
  Al  Al188  1  0.86218356  0.36965105  0.24660828  1
  Al  Al189  1  0.86691995  0.36763253  0.75356242  1
  Al  Al190  1  0.86236642  0.86353224  0.25238788  1
  Al  Al191  1  0.86356019  0.86543968  0.75111534  1
  Al  Al192  1  0.00122766  0.67066035  0.18013035  1
  Al  Al193  1  0.67352106  0.82676133  -0.00022405  1
  Al  Al194  1  0.32852695  0.49997968  0.32843823  1
  Al  Al195  1  0.68105874  0.67315563  0.00037820  1
  Al  Al196  1  0.32626506  0.31430781  -0.00212785  1
  Al  Al197  1  0.32794320  -0.00119940  0.32786233  1
  Al  Al198  1  0.49799970  0.83028686  0.81429792  1
  Al  Al199  1  0.31985637  0.49858722  0.67984702  1
  Al  Al200  1  0.00022316  0.67504125  0.82450993  1
  Al  Al201  1  0.67745956  0.49962148  0.68221752  1
  Al  Al202  1  0.68308405  0.68110049  0.50194888  1
  Al  Al203  1  0.32392085  0.00032425  0.16989253  1
  Al  Al204  1  0.00002680  0.17445460  0.31954499  1
  Al  Al205  1  0.81492846  -0.00053958  0.32932803  1
  Al  Al206  1  0.32490857  0.50084094  0.17229315  1
  Al  Al207  1  -0.00048576  0.82665636  0.67378646  1
  Al  Al208  1  0.49834181  0.32391742  0.67657884  1
  Al  Al209  1  0.18362535  0.18510969  0.50155654  1
  Al  Al210  1  0.00068509  0.17835856  0.82759689  1
  Al  Al211  1  0.49829341  0.32496657  0.17107376  1
  Al  Al212  1  0.82469004  0.49928984  0.68148872  1
  Al  Al213  1  0.32635837  0.68757202  0.50079922  1
  Al  Al214  1  0.83026085  0.17832234  0.00009861  1
  Al  Al215  1  0.68170093  0.50152017  0.31875397  1
  Al  Al216  1  0.49897903  0.32439280  0.32430753  1
  Al  Al217  1  0.17518191  0.31499221  -0.00015772  1
  Al  Al218  1  0.81934325  0.00048598  0.17198700  1
  Al  Al219  1  0.81622759  0.81169118  0.50011153  1
  Al  Al220  1  0.17485583  -0.00074374  0.32160337  1
  Al  Al221  1  0.49959738  0.16974677  0.32653318  1
  Al  Al222  1  0.82702112  0.81705282  -0.00032615  1
  Al  Al223  1  0.16984393  0.69115927  0.50193805  1
  Al  Al224  1  0.81798313  0.17815717  0.50191373  1
  Al  Al225  1  0.16993837  0.81433260  -0.00342096  1
  Al  Al226  1  -0.00086036  0.32131894  0.31588965  1
  Al  Al227  1  0.18208078  0.00001429  0.67547018  1
  Al  Al228  1  0.50046375  0.67661190  0.81913816  1
  Al  Al229  1  0.00190588  0.67191736  0.66987194  1
  Al  Al230  1  0.32670748  0.81588912  -0.00016697  1
  Al  Al231  1  0.00098513  0.17642301  0.67337446  1
  Al  Al232  1  -0.00098104  0.82795565  0.17276996  1
  Al  Al233  1  -0.00050683  0.82283085  0.32941556  1
  Al  Al234  1  0.17075276  0.49686205  0.32430644  1
  Al  Al235  1  0.00251146  0.83071656  0.82937470  1
  Al  Al236  1  0.81233239  0.00053838  0.68155846  1
  Al  Al237  1  0.49928709  0.17185584  0.17185032  1
  Al  Al238  1  0.67619197  0.17274499  -0.00226571  1
  Au  Au239  1  0.00309321  0.83771512  0.16547151  1
  Au  Au240  1  0.49663809  0.15908143  0.82361606  1
  Au  Au241  1  0.16951546  0.00206900  0.67618219  1
  Au  Au242  1  0.00034869  0.66485363  0.83457738  1
  Au  Au243  1  -0.00353951  0.67316296  0.34070522  1
  Au  Au244  1  0.83143669  -0.00109469  0.17510116  1
  Au  Au245  1  0.17622051  0.83013881  -0.00410066  1
  Au  Au246  1  0.16797199  0.50050063  0.16010344  1
  Au  Au247  1  0.82876977  0.49967084  0.33798970  1
  Au  Au248  1  0.83980761  0.32480691  0.49783852  1
  Au  Au249  1  0.82502137  -0.00021980  0.82889913  1
  Au  Au250  1  0.67175282  0.50238729  0.83125475  1
  Au  Au251  1  0.49771749  0.66597811  0.33140342  1
  Au  Au252  1  0.49625991  0.32310214  0.66417197  1
  Au  Au253  1  0.66169644  0.50091499  0.17231538  1
  Au  Au254  1  0.33782391  0.50245675  0.82767849  1
  Au  Au255  1  0.00139148  0.66588737  0.16846399  1
  Au  Au256  1  0.33652784  0.00010891  0.17243267  1
  Au  Au257  1  0.66388514  0.17505598  -0.00232859  1
  Au  Au258  1  0.17196947  0.49492538  0.33698849  1
  Au  Au259  1  -0.00023102  0.83677800  0.66359952  1
  Au  Au260  1  0.84146177  0.17535338  0.00503874  1
  Au  Au261  1  0.00292224  0.32506001  0.66368881  1
  Au  Au262  1  0.83080339  0.49621360  0.16396894  1
  Au  Au263  1  0.67555957  0.33540385  0.00048122  1
  Au  Au264  1  0.82944564  0.66615943  -0.00211268  1
  Au  Au265  1  0.49770560  0.83538390  0.83001291  1
  Au  Au266  1  0.49936597  0.83831681  0.32693111  1
  Au  Au267  1  0.33864968  -0.00099349  0.67673568  1
  Au  Au268  1  0.00002978  0.17020320  0.33171943  1
  Au  Au269  1  0.49891331  0.32807387  0.83614913  1
  Au  Au270  1  0.49882437  0.33464467  0.33445284  1
  Au  Au271  1  -0.00119251  0.32574992  0.16643019  1
  Au  Au272  1  -0.00264203  0.32733198  0.83680026  1
  Au  Au273  1  0.50005533  0.67907214  0.16009915  1
  Au  Au274  1  0.66357185  0.83703712  0.00002711  1
  Au  Au275  1  0.67027066  0.33781929  0.50228804  1
  Au  Au276  1  0.82894818  0.49921645  0.66925293  1
  Au  Au277  1  0.67397416  0.67221405  0.49954812  1
  Au  Au278  1  0.66340603  0.00007828  0.17891834  1
  Au  Au279  1  0.49823806  0.66962557  0.66839131  1
  Au  Au280  1  0.17215884  0.49716250  0.66414916  1
  Au  Au281  1  0.16056771  0.00750718  0.17109155  1
  Au  Au282  1  0.33133694  0.17356232  0.50158833  1
  Au  Au283  1  0.66923509  0.83797536  0.50378047  1
  Au  Au284  1  0.33698896  0.50191705  0.16877102  1
  Au  Au285  1  0.17579644  0.67517716  0.50217975  1
  Au  Au286  1  0.17017868  0.49799192  0.83527311  1
  Au  Au287  1  0.66870604  0.16105027  0.50286751  1
