# generated using pymatgen
data_Ca24Ti8Al207Au49
_symmetry_space_group_name_H-M   'P 1'
_cell_length_a   17.31943064
_cell_length_b   17.31709650
_cell_length_c   17.31874698
_cell_angle_alpha   89.99486006
_cell_angle_beta   89.99848434
_cell_angle_gamma   89.99879065
_symmetry_Int_Tables_number   1
_chemical_formula_structural   Ca24Ti8Al207Au49
_chemical_formula_sum   'Ca24 Ti8 Al207 Au49'
_cell_volume   5194.27756807
_cell_formula_units_Z   1
loop_
 _symmetry_equiv_pos_site_id
 _symmetry_equiv_pos_as_xyz
  1  'x, y, z'
loop_
 _atom_site_type_symbol
 _atom_site_label
 _atom_site_symmetry_multiplicity
 _atom_site_fract_x
 _atom_site_fract_y
 _atom_site_fract_z
 _atom_site_occupancy
  Ca  Ca0  1  0.24868166  -0.00129535  0.00029468  1
  Ca  Ca1  1  0.24900686  0.00148590  0.49872353  1
  Ca  Ca2  1  0.24912180  0.49986832  0.00403559  1
  Ca  Ca3  1  0.24706208  0.49985065  0.49755981  1
  Ca  Ca4  1  0.75643360  -0.00149644  -0.00207418  1
  Ca  Ca5  1  0.75037439  -0.00123115  0.49925587  1
  Ca  Ca6  1  0.75496493  0.50115222  -0.00107904  1
  Ca  Ca7  1  0.74738348  0.49878608  0.50259140  1
  Ca  Ca8  1  0.00290631  0.25431615  0.00338831  1
  Ca  Ca9  1  -0.00162010  0.24677218  0.49813924  1
  Ca  Ca10  1  0.00085361  0.75467793  0.00467629  1
  Ca  Ca11  1  -0.00033470  0.75500881  0.49613327  1
  Ca  Ca12  1  0.49945405  0.24900449  -0.00217972  1
  Ca  Ca13  1  0.49980124  0.25093864  0.50128570  1
  Ca  Ca14  1  0.50126273  0.75949622  -0.00440145  1
  Ca  Ca15  1  0.50152840  0.75203110  0.50078877  1
  Ca  Ca16  1  -0.00015531  -0.00422404  0.24776786  1
  Ca  Ca17  1  -0.00146219  0.00416290  0.75554979  1
  Ca  Ca18  1  0.00121146  0.50298596  0.24843879  1
  Ca  Ca19  1  -0.00299709  0.49696101  0.75202898  1
  Ca  Ca20  1  0.49821123  -0.00028166  0.25032064  1
  Ca  Ca21  1  0.49776134  -0.00075679  0.75095309  1
  Ca  Ca22  1  0.49500623  0.50002054  0.24908671  1
  Ca  Ca23  1  0.50441241  0.50098917  0.74611283  1
  Ti  Ti24  1  0.25071907  0.24960699  0.24851025  1
  Ti  Ti25  1  0.25051281  0.24950476  0.75155911  1
  Ti  Ti26  1  0.24969847  0.75094257  0.24975991  1
  Ti  Ti27  1  0.25065216  0.75204741  0.75031647  1
  Ti  Ti28  1  0.74974204  0.24726313  0.25025221  1
  Ti  Ti29  1  0.74980097  0.24978101  0.74861018  1
  Ti  Ti30  1  0.75122128  0.75458908  0.25036702  1
  Ti  Ti31  1  0.75083937  0.75352478  0.75032697  1
  Al  Al32  1  0.07853422  0.08598929  0.08611914  1
  Al  Al33  1  0.10090190  0.08605705  0.58635591  1
  Al  Al34  1  0.08716342  0.59830574  0.09097346  1
  Al  Al35  1  0.08320643  0.57734325  0.56445308  1
  Al  Al36  1  0.58513057  0.07136878  0.09407212  1
  Al  Al37  1  0.58103162  0.07961738  0.58643801  1
  Al  Al38  1  0.57090284  0.57780758  0.07481730  1
  Al  Al39  1  0.59234922  0.57603167  0.58992511  1
  Al  Al40  1  0.41115162  0.40454596  0.07828762  1
  Al  Al41  1  0.42599165  0.41560484  0.58180595  1
  Al  Al42  1  0.42287061  0.91224535  0.08518530  1
  Al  Al43  1  0.41114990  0.91415514  0.58151946  1
  Al  Al44  1  0.91860867  0.40885900  0.08541402  1
  Al  Al45  1  0.91536617  0.41284580  0.59143737  1
  Al  Al46  1  0.91152338  0.90451796  0.08331500  1
  Al  Al47  1  0.90746168  0.91765944  0.58481544  1
  Al  Al48  1  0.40677899  0.08763624  0.42316760  1
  Al  Al49  1  0.41720486  0.08463512  0.91379552  1
  Al  Al50  1  0.41298474  0.58129544  0.42064524  1
  Al  Al51  1  0.41700889  0.59654131  0.91848568  1
  Al  Al52  1  0.92763824  0.07161713  0.42154782  1
  Al  Al53  1  0.91471917  0.07346534  0.90851432  1
  Al  Al54  1  0.92015061  0.59947117  0.41697210  1
  Al  Al55  1  0.92358712  0.57568090  0.92593708  1
  Al  Al56  1  0.08634098  0.42431026  0.40782921  1
  Al  Al57  1  0.07808948  0.41085006  0.92660368  1
  Al  Al58  1  0.07935390  0.91249903  0.41327494  1
  Al  Al59  1  0.07441839  0.91346476  0.91213482  1
  Al  Al60  1  0.59021719  0.41050720  0.42657692  1
  Al  Al61  1  0.57789786  0.41386613  0.90342909  1
  Al  Al62  1  0.58424354  0.91669925  0.41780271  1
  Al  Al63  1  0.58334862  0.91601341  0.90994038  1
  Al  Al64  1  0.09150544  0.08688495  0.42482917  1
  Al  Al65  1  0.07851390  0.07907044  0.91841370  1
  Al  Al66  1  0.08827192  0.58841235  0.40565476  1
  Al  Al67  1  0.08331245  0.58850371  0.93185599  1
  Al  Al68  1  0.57817937  0.07944400  0.41662748  1
  Al  Al69  1  0.57714911  0.07596164  0.90683619  1
  Al  Al70  1  0.57881867  0.57219789  0.43044145  1
  Al  Al71  1  0.57622692  0.57698881  0.90792320  1
  Al  Al72  1  0.42047703  0.41665361  0.41823933  1
  Al  Al73  1  0.41816938  0.40054481  0.91707560  1
  Al  Al74  1  0.41064445  0.91301915  0.42216176  1
  Al  Al75  1  0.41951807  0.91339934  0.91310685  1
  Al  Al76  1  0.92529986  0.41305382  0.42114753  1
  Al  Al77  1  0.91153207  0.41029100  0.92487398  1
  Al  Al78  1  0.91950465  0.90723508  0.41081625  1
  Al  Al79  1  0.91037975  0.91071744  0.90998994  1
  Al  Al80  1  0.08172040  0.40899758  0.08779842  1
  Al  Al81  1  0.07157663  0.41013861  0.58503824  1
  Al  Al82  1  0.07417274  0.91035512  0.08931447  1
  Al  Al83  1  0.09100345  0.92516356  0.58497923  1
  Al  Al84  1  0.57149820  0.41650041  0.07895291  1
  Al  Al85  1  0.59588830  0.41329969  0.58864122  1
  Al  Al86  1  0.58511797  0.91300013  0.09778370  1
  Al  Al87  1  0.58407864  0.91870082  0.58324762  1
  Al  Al88  1  0.41975571  0.07945771  0.07789196  1
  Al  Al89  1  0.40502582  0.08832323  0.58167759  1
  Al  Al90  1  0.40728706  0.59010619  0.07453920  1
  Al  Al91  1  0.42325047  0.58262558  0.57720355  1
  Al  Al92  1  0.92170399  0.08056196  0.08855424  1
  Al  Al93  1  0.91517569  0.07370410  0.59222303  1
  Al  Al94  1  0.92942451  0.58505901  0.09061835  1
  Al  Al95  1  0.90397152  0.58036099  0.57400316  1
  Al  Al96  1  0.25055089  0.13658840  0.12824449  1
  Al  Al97  1  0.25007208  0.13674826  0.63097586  1
  Al  Al98  1  0.24936487  0.63107588  0.13747509  1
  Al  Al99  1  0.25358369  0.63278481  0.63511703  1
  Al  Al100  1  0.74910972  0.12820109  0.13530283  1
  Al  Al101  1  0.75319244  0.13013584  0.63617030  1
  Al  Al102  1  0.75067386  0.64279438  0.13469301  1
  Al  Al103  1  0.75022593  0.63612392  0.63568596  1
  Al  Al104  1  0.25105139  0.37014185  0.13688693  1
  Al  Al105  1  0.25592253  0.36879656  0.64061135  1
  Al  Al106  1  0.24745718  0.86137126  0.12955192  1
  Al  Al107  1  0.24623121  0.86550824  0.63077890  1
  Al  Al108  1  0.75449855  0.36074973  0.13071332  1
  Al  Al109  1  0.74598197  0.36389131  0.63090053  1
  Al  Al110  1  0.75056039  0.86835620  0.13289944  1
  Al  Al111  1  0.75622837  0.87292214  0.63851824  1
  Al  Al112  1  0.25093437  0.13695643  0.36708778  1
  Al  Al113  1  0.24665879  0.13720075  0.87261899  1
  Al  Al114  1  0.24835297  0.63567295  0.36415638  1
  Al  Al115  1  0.25492709  0.63690161  0.86757548  1
  Al  Al116  1  0.74816008  0.12834358  0.36293052  1
  Al  Al117  1  0.75413017  0.13554054  0.86447888  1
  Al  Al118  1  0.75521365  0.64061442  0.36353781  1
  Al  Al119  1  0.75022744  0.63898628  0.86469895  1
  Al  Al120  1  0.24478662  0.36405261  0.36525801  1
  Al  Al121  1  0.25684681  0.36550581  0.86448107  1
  Al  Al122  1  0.24967656  0.86295216  0.36844674  1
  Al  Al123  1  0.24697831  0.86481266  0.87388952  1
  Al  Al124  1  0.75152825  0.36237201  0.36789269  1
  Al  Al125  1  0.75085080  0.36477929  0.86210873  1
  Al  Al126  1  0.75265605  0.87348440  0.36112928  1
  Al  Al127  1  0.75333557  0.86740557  0.87138224  1
  Al  Al128  1  0.13593360  0.25211029  0.13598565  1
  Al  Al129  1  0.13860787  0.24817095  0.63361364  1
  Al  Al130  1  0.12853056  0.74918843  0.13976530  1
  Al  Al131  1  0.13302121  0.75527379  0.63556695  1
  Al  Al132  1  0.63622206  0.24502895  0.13405373  1
  Al  Al133  1  0.62986552  0.25207547  0.63601155  1
  Al  Al134  1  0.63385298  0.75878431  0.13545507  1
  Al  Al135  1  0.63848722  0.75402365  0.63537977  1
  Al  Al136  1  0.13233246  0.24719097  0.36405657  1
  Al  Al137  1  0.13493790  0.25303462  0.86410749  1
  Al  Al138  1  0.13262675  0.75488837  0.36418965  1
  Al  Al139  1  0.13362629  0.75482105  0.86447550  1
  Al  Al140  1  0.63077001  0.25055440  0.36315748  1
  Al  Al141  1  0.63557189  0.25113683  0.86481821  1
  Al  Al142  1  0.63603001  0.75676760  0.36342708  1
  Al  Al143  1  0.63648315  0.75879314  0.86583752  1
  Al  Al144  1  0.36224721  0.25156697  0.12723480  1
  Al  Al145  1  0.36954569  0.24651339  0.63666135  1
  Al  Al146  1  0.36038116  0.75067186  0.12845988  1
  Al  Al147  1  0.36055061  0.75542863  0.62864236  1
  Al  Al148  1  0.86343790  0.24930039  0.13332213  1
  Al  Al149  1  0.86404712  0.25519978  0.63404883  1
  Al  Al150  1  0.86891284  0.75652318  0.13649482  1
  Al  Al151  1  0.86395559  0.75224659  0.63132384  1
  Al  Al152  1  0.36787027  0.24833084  0.36446892  1
  Al  Al153  1  0.36445691  0.24937287  0.86995376  1
  Al  Al154  1  0.36366846  0.75110259  0.37050956  1
  Al  Al155  1  0.36335703  0.75438407  0.86981431  1
  Al  Al156  1  0.86602868  0.25043961  0.36410474  1
  Al  Al157  1  0.86481697  0.25488998  0.86467220  1
  Al  Al158  1  0.86626761  0.75594681  0.36534928  1
  Al  Al159  1  0.86728659  0.75760901  0.86876667  1
  Al  Al160  1  0.13850936  0.13514148  0.24930166  1
  Al  Al161  1  0.14083970  0.12685225  0.74856493  1
  Al  Al162  1  0.13618863  0.63143826  0.25012903  1
  Al  Al163  1  0.13738750  0.63615325  0.74975010  1
  Al  Al164  1  0.63027868  0.13221530  0.25152225  1
  Al  Al165  1  0.63459227  0.13418998  0.74577973  1
  Al  Al166  1  0.63746480  0.63917193  0.24929037  1
  Al  Al167  1  0.63689129  0.63875896  0.74968530  1
  Al  Al168  1  0.36721810  0.13766977  0.24720167  1
  Al  Al169  1  0.36041125  0.13440461  0.75051949  1
  Al  Al170  1  0.36552414  0.63556540  0.24898449  1
  Al  Al171  1  0.36457729  0.63694649  0.75145150  1
  Al  Al172  1  0.86340077  0.12915485  0.24852359  1
  Al  Al173  1  0.86591472  0.13587571  0.74847115  1
  Al  Al174  1  0.86814673  0.64023450  0.24642297  1
  Al  Al175  1  0.86632872  0.64115544  0.75283751  1
  Al  Al176  1  0.13562426  0.36955851  0.24723204  1
  Al  Al177  1  0.12782660  0.36103627  0.74592593  1
  Al  Al178  1  0.13156674  0.86299197  0.24932382  1
  Al  Al179  1  0.13880649  0.87160488  0.75189562  1
  Al  Al180  1  0.63921737  0.36331589  0.24920357  1
  Al  Al181  1  0.63407606  0.36433784  0.74843130  1
  Al  Al182  1  0.63387371  0.87136529  0.24914188  1
  Al  Al183  1  0.63595726  0.86819934  0.74977571  1
  Al  Al184  1  0.36525256  0.36491775  0.25249459  1
  Al  Al185  1  0.37468659  0.36067151  0.75210042  1
  Al  Al186  1  0.36771414  0.86013286  0.24994051  1
  Al  Al187  1  0.36312741  0.86404501  0.75077344  1
  Al  Al188  1  0.86729105  0.36223780  0.24478668  1
  Al  Al189  1  0.86963204  0.36342596  0.74796279  1
  Al  Al190  1  0.86817596  0.86941602  0.24709057  1
  Al  Al191  1  0.86591298  0.86941534  0.75515962  1
  Al  Al192  1  0.68332825  0.82583237  0.50039927  1
  Al  Al193  1  0.83264481  0.50060704  0.32539033  1
  Al  Al194  1  0.67588321  0.50079911  0.81198663  1
  Al  Al195  1  0.18242466  0.68442238  0.49902107  1
  Al  Al196  1  -0.00018590  0.66925559  0.66596851  1
  Al  Al197  1  0.17284794  -0.00077388  0.32611311  1
  Al  Al198  1  0.31738060  -0.00029562  0.82631395  1
  Al  Al199  1  0.66752723  0.67772155  -0.00235214  1
  Al  Al200  1  0.68027943  0.67209014  0.49892503  1
  Al  Al201  1  0.50058247  0.69141450  0.82302506  1
  Al  Al202  1  0.67966494  0.32993762  -0.00218738  1
  Al  Al203  1  0.49923860  0.82781927  0.68309689  1
  Al  Al204  1  0.32540325  -0.00061175  0.32608244  1
  Al  Al205  1  0.67454500  0.50073813  0.16814426  1
  Al  Al206  1  0.17359671  0.49947538  0.82831305  1
  Al  Al207  1  0.00092871  0.18217294  0.66863631  1
  Al  Al208  1  0.49849162  0.68677321  0.16986257  1
  Al  Al209  1  0.82691298  0.50092522  0.17196071  1
  Al  Al210  1  0.00076875  0.83482996  0.68462058  1
  Al  Al211  1  0.32292748  0.31364400  0.50149534  1
  Al  Al212  1  0.49922108  0.18555399  0.81896309  1
  Al  Al213  1  0.18725307  0.32042703  0.00100624  1
  Al  Al214  1  0.00006162  0.68578164  0.83052282  1
  Al  Al215  1  0.82782411  0.50156610  0.83163429  1
  Al  Al216  1  -0.00055417  0.19040503  0.18497393  1
  Al  Al217  1  0.00296613  0.32075101  0.31656605  1
  Al  Al218  1  0.80951007  0.49935492  0.67607354  1
  Al  Al219  1  0.32667171  -0.00234360  0.17295304  1
  Al  Al220  1  0.50257878  0.67707703  0.33091061  1
  Al  Al221  1  0.00168212  0.68837918  0.31284636  1
  Al  Al222  1  0.66908123  0.16683067  -0.00132384  1
  Al  Al223  1  0.83120486  0.17581224  0.49991632  1
  Al  Al224  1  0.67544077  0.50071758  0.32896291  1
  Al  Al225  1  0.31413297  0.49905818  0.32117433  1
  Al  Al226  1  0.33420314  0.49621650  0.82764975  1
  Al  Al227  1  0.83216938  0.68582726  0.00247721  1
  Al  Al228  1  0.00089923  0.18070639  0.82464412  1
  Al  Al229  1  0.50166650  0.67230272  0.67174890  1
  Al  Al230  1  0.83266256  0.17966590  -0.00192530  1
  Al  Al231  1  0.68700025  0.00066650  0.81803583  1
  Al  Al232  1  0.17280075  -0.00128122  0.17211406  1
  Al  Al233  1  0.18898811  0.68440851  0.00226708  1
  Al  Al234  1  0.17186041  0.31986931  0.50006388  1
  Al  Al235  1  0.31401269  -0.00083438  0.67221989  1
  Al  Al236  1  0.17185038  0.49757347  0.66924286  1
  Al  Al237  1  0.49948964  0.31741223  0.17895350  1
  Al  Al238  1  0.67308498  0.18387618  0.50000311  1
  Au  Au239  1  0.83101925  0.82488232  0.49863478  1
  Au  Au240  1  0.33905714  0.31947926  0.50182191  1
  Au  Au241  1  0.66683642  0.66150952  -0.00796417  1
  Au  Au242  1  -0.00115133  0.66504874  0.65048314  1
  Au  Au243  1  0.83264276  0.15822437  0.50010923  1
  Au  Au244  1  0.00311600  0.15964420  0.32842809  1
  Au  Au245  1  0.50703140  0.33918718  0.32673858  1
  Au  Au246  1  0.67203553  0.34446569  -0.00438327  1
  Au  Au247  1  0.16041318  0.82896454  0.00155938  1
  Au  Au248  1  0.33358107  0.49860629  0.16108649  1
  Au  Au249  1  0.15932375  0.50036392  0.17318162  1
  Au  Au250  1  0.84787535  0.17357862  -0.00273842  1
  Au  Au251  1  -0.00299548  0.33154386  0.83090687  1
  Au  Au252  1  0.00110314  0.84989010  0.67798106  1
  Au  Au253  1  0.15555735  0.32478455  0.49745773  1
  Au  Au254  1  0.84014451  0.67166530  0.00713210  1
  Au  Au255  1  0.16696014  -0.00066803  0.82813158  1
  Au  Au256  1  0.33117247  0.67643602  0.50234380  1
  Au  Au257  1  0.32039230  0.49787120  0.33721982  1
  Au  Au258  1  0.66562168  0.00073057  0.32447555  1
  Au  Au259  1  0.49476565  0.68146708  0.15422372  1
  Au  Au260  1  0.82608889  0.50069942  0.67962556  1
  Au  Au261  1  0.33888667  0.50082396  0.83827428  1
  Au  Au262  1  0.65781147  0.17645750  0.50025106  1
  Au  Au263  1  0.82637824  -0.00323786  0.16204869  1
  Au  Au264  1  0.16153911  0.17396505  0.00028489  1
  Au  Au265  1  0.16376712  0.50003867  0.84274681  1
  Au  Au266  1  0.83576153  -0.00093018  0.32945933  1
  Au  Au267  1  0.00150564  0.66935297  0.83532092  1
  Au  Au268  1  0.16008351  0.49453827  0.66631063  1
  Au  Au269  1  0.33602123  0.82631373  0.00014907  1
  Au  Au270  1  0.33558092  0.50180004  0.66281731  1
  Au  Au271  1  0.66321128  0.15223575  -0.00127980  1
  Au  Au272  1  0.49377348  0.16700987  0.33377197  1
  Au  Au273  1  0.67234467  0.84362167  0.00195528  1
  Au  Au274  1  0.00464476  0.16581462  0.67039891  1
  Au  Au275  1  0.82706667  0.33503780  0.50087754  1
  Au  Au276  1  0.50458421  0.33405486  0.67793285  1
  Au  Au277  1  0.49502770  0.16286858  0.67355902  1
  Au  Au278  1  0.83119991  0.50610174  0.34074691  1
  Au  Au279  1  0.49714251  0.83900429  0.32796286  1
  Au  Au280  1  0.33352701  0.17467710  -0.00118198  1
  Au  Au281  1  0.00506752  0.33350167  0.31667410  1
  Au  Au282  1  0.49775412  0.82322683  0.67100977  1
  Au  Au283  1  0.67888890  0.00042305  0.67013309  1
  Au  Au284  1  0.50750587  0.66061868  0.33213518  1
  Au  Au285  1  0.17140552  0.83356910  0.49917468  1
  Au  Au286  1  0.49942522  0.16949916  0.16555512  1
  Au  Au287  1  0.65899682  0.50057786  0.17556976  1
