# generated using pymatgen
data_Ca24Ti8Al207Au49
_symmetry_space_group_name_H-M   'P 1'
_cell_length_a   17.32352415
_cell_length_b   17.32394302
_cell_length_c   17.32332468
_cell_angle_alpha   89.99806197
_cell_angle_beta   90.00334555
_cell_angle_gamma   89.99713212
_symmetry_Int_Tables_number   1
_chemical_formula_structural   Ca24Ti8Al207Au49
_chemical_formula_sum   'Ca24 Ti8 Al207 Au49'
_cell_volume   5198.93318437
_cell_formula_units_Z   1
loop_
 _symmetry_equiv_pos_site_id
 _symmetry_equiv_pos_as_xyz
  1  'x, y, z'
loop_
 _atom_site_type_symbol
 _atom_site_label
 _atom_site_symmetry_multiplicity
 _atom_site_fract_x
 _atom_site_fract_y
 _atom_site_fract_z
 _atom_site_occupancy
  Ca  Ca0  1  0.24748884  -0.00271023  0.00226943  1
  Ca  Ca1  1  0.25185669  -0.00591485  0.50090684  1
  Ca  Ca2  1  0.25596655  0.50244944  -0.00441634  1
  Ca  Ca3  1  0.25674032  0.50247366  0.50001601  1
  Ca  Ca4  1  0.75055195  0.00353737  0.00453751  1
  Ca  Ca5  1  0.74550764  -0.00286243  0.49570540  1
  Ca  Ca6  1  0.74711506  0.49664430  -0.00006644  1
  Ca  Ca7  1  0.74625900  0.49825885  0.49723811  1
  Ca  Ca8  1  -0.00125540  0.24479273  0.00696881  1
  Ca  Ca9  1  0.00163552  0.24793832  0.49774561  1
  Ca  Ca10  1  0.00176939  0.75150674  0.00236827  1
  Ca  Ca11  1  0.00413229  0.74901056  0.49598121  1
  Ca  Ca12  1  0.50202855  0.25212612  -0.00057918  1
  Ca  Ca13  1  0.50160389  0.25093110  0.50585205  1
  Ca  Ca14  1  0.49704056  0.74958138  -0.00075714  1
  Ca  Ca15  1  0.49762158  0.74726082  0.50141550  1
  Ca  Ca16  1  0.00375334  -0.00386900  0.24622658  1
  Ca  Ca17  1  0.00024547  -0.00326528  0.75595127  1
  Ca  Ca18  1  -0.00310536  0.50196948  0.24478732  1
  Ca  Ca19  1  0.00162375  0.50036388  0.75525834  1
  Ca  Ca20  1  0.49540264  0.00066325  0.24749833  1
  Ca  Ca21  1  0.49901165  0.00101489  0.75274206  1
  Ca  Ca22  1  0.49993275  0.50210315  0.24708497  1
  Ca  Ca23  1  0.49800518  0.49577716  0.75338164  1
  Ti  Ti24  1  0.24921582  0.24916098  0.24522272  1
  Ti  Ti25  1  0.25293154  0.24826522  0.75406133  1
  Ti  Ti26  1  0.24903821  0.75201754  0.24981380  1
  Ti  Ti27  1  0.25266498  0.75169730  0.75048484  1
  Ti  Ti28  1  0.75007191  0.25148527  0.24842448  1
  Ti  Ti29  1  0.74790257  0.25115115  0.75245870  1
  Ti  Ti30  1  0.75219625  0.74991358  0.24904269  1
  Ti  Ti31  1  0.74725946  0.74957420  0.75299669  1
  Al  Al32  1  0.07909343  0.08323929  0.08990990  1
  Al  Al33  1  0.08027474  0.07166557  0.58158453  1
  Al  Al34  1  0.08466129  0.59509956  0.07617417  1
  Al  Al35  1  0.08468551  0.58187997  0.58148368  1
  Al  Al36  1  0.58848536  0.09155056  0.07900506  1
  Al  Al37  1  0.57672797  0.08759940  0.59033223  1
  Al  Al38  1  0.58775709  0.57253402  0.08814880  1
  Al  Al39  1  0.57862511  0.58540290  0.59463340  1
  Al  Al40  1  0.41290237  0.41575255  0.07698156  1
  Al  Al41  1  0.42307627  0.41598257  0.59310610  1
  Al  Al42  1  0.40937359  0.91260970  0.07989394  1
  Al  Al43  1  0.41690486  0.91037166  0.58665656  1
  Al  Al44  1  0.90726720  0.40992227  0.08464271  1
  Al  Al45  1  0.91741048  0.42464305  0.57825227  1
  Al  Al46  1  0.92433071  0.91219242  0.08853524  1
  Al  Al47  1  0.92692252  0.92218192  0.57892940  1
  Al  Al48  1  0.41718745  0.07094968  0.42449629  1
  Al  Al49  1  0.42165018  0.08703683  0.91542265  1
  Al  Al50  1  0.41358959  0.58425584  0.41044355  1
  Al  Al51  1  0.41402618  0.58436544  0.91799192  1
  Al  Al52  1  0.92195467  0.07964585  0.41522974  1
  Al  Al53  1  0.91703839  0.08753009  0.92564288  1
  Al  Al54  1  0.91816613  0.59023019  0.41199821  1
  Al  Al55  1  0.91605197  0.58975504  0.92123585  1
  Al  Al56  1  0.07599600  0.42134329  0.41499105  1
  Al  Al57  1  0.08266755  0.42544128  0.92715883  1
  Al  Al58  1  0.09602880  0.91052927  0.41147938  1
  Al  Al59  1  0.09518232  0.91229029  0.92509386  1
  Al  Al60  1  0.57913773  0.42317723  0.40960143  1
  Al  Al61  1  0.58135157  0.40207725  0.91821510  1
  Al  Al62  1  0.57221256  0.91270191  0.40787121  1
  Al  Al63  1  0.58035443  0.91758371  0.91843528  1
  Al  Al64  1  0.08806565  0.07086132  0.40733467  1
  Al  Al65  1  0.07981866  0.07467406  0.91958733  1
  Al  Al66  1  0.07690844  0.59087254  0.41106323  1
  Al  Al67  1  0.08497322  0.59374903  0.91880564  1
  Al  Al68  1  0.58088392  0.07388444  0.42243480  1
  Al  Al69  1  0.58650580  0.09439782  0.91743552  1
  Al  Al70  1  0.58029716  0.58195750  0.41092651  1
  Al  Al71  1  0.57731353  0.57962118  0.91977456  1
  Al  Al72  1  0.41707384  0.42580811  0.40547185  1
  Al  Al73  1  0.41657382  0.40847753  0.91346621  1
  Al  Al74  1  0.41493268  0.91049537  0.41008691  1
  Al  Al75  1  0.41109490  0.90665858  0.92035595  1
  Al  Al76  1  0.91893432  0.42190310  0.41316548  1
  Al  Al77  1  0.90851403  0.41599144  0.93025601  1
  Al  Al78  1  0.92862581  0.91940184  0.41066478  1
  Al  Al79  1  0.91860030  0.91851471  0.92357304  1
  Al  Al80  1  0.07954838  0.41342936  0.08173676  1
  Al  Al81  1  0.08444517  0.42620601  0.58145919  1
  Al  Al82  1  0.08742724  0.90490777  0.08773797  1
  Al  Al83  1  0.09290849  0.90861652  0.57388310  1
  Al  Al84  1  0.59652100  0.41127737  0.08124867  1
  Al  Al85  1  0.57973173  0.41741618  0.59445576  1
  Al  Al86  1  0.57839280  0.92019220  0.07864522  1
  Al  Al87  1  0.57134456  0.91673386  0.59325423  1
  Al  Al88  1  0.42064656  0.08014823  0.08252871  1
  Al  Al89  1  0.42189723  0.08671179  0.58628914  1
  Al  Al90  1  0.41241783  0.58194787  0.07820783  1
  Al  Al91  1  0.42006958  0.59062317  0.58699412  1
  Al  Al92  1  0.91675558  0.09085683  0.08703361  1
  Al  Al93  1  0.91932757  0.07987349  0.58048438  1
  Al  Al94  1  0.91094350  0.58805613  0.08143865  1
  Al  Al95  1  0.91897644  0.58369011  0.57583801  1
  Al  Al96  1  0.24711954  0.13737110  0.12462089  1
  Al  Al97  1  0.25277481  0.12835778  0.63854535  1
  Al  Al98  1  0.24641834  0.64159105  0.13403552  1
  Al  Al99  1  0.25246589  0.63948185  0.63460454  1
  Al  Al100  1  0.74868418  0.13699815  0.13275501  1
  Al  Al101  1  0.75000267  0.13638738  0.63591094  1
  Al  Al102  1  0.75180361  0.63102863  0.13700528  1
  Al  Al103  1  0.74435900  0.63836148  0.63753244  1
  Al  Al104  1  0.25018734  0.36297647  0.12779711  1
  Al  Al105  1  0.25316657  0.36250520  0.63590429  1
  Al  Al106  1  0.24529913  0.86391764  0.13203330  1
  Al  Al107  1  0.25516489  0.86824940  0.63365667  1
  Al  Al108  1  0.74950031  0.36619758  0.12880702  1
  Al  Al109  1  0.74747446  0.36239835  0.63271039  1
  Al  Al110  1  0.75522032  0.86422895  0.13701173  1
  Al  Al111  1  0.74510164  0.86024634  0.63849545  1
  Al  Al112  1  0.24601902  0.13453902  0.36150849  1
  Al  Al113  1  0.25545281  0.13543054  0.87238006  1
  Al  Al114  1  0.25191566  0.63799273  0.36462556  1
  Al  Al115  1  0.25052342  0.63872618  0.86435434  1
  Al  Al116  1  0.74900383  0.12963074  0.36279528  1
  Al  Al117  1  0.74635219  0.13939154  0.86883669  1
  Al  Al118  1  0.75026663  0.63739928  0.36208759  1
  Al  Al119  1  0.74993415  0.63511928  0.86542269  1
  Al  Al120  1  0.25258796  0.36593317  0.36218441  1
  Al  Al121  1  0.25358869  0.36381182  0.87108881  1
  Al  Al122  1  0.24648345  0.86398177  0.36957550  1
  Al  Al123  1  0.25410556  0.86209458  0.87013303  1
  Al  Al124  1  0.75147867  0.36571472  0.36377061  1
  Al  Al125  1  0.74722858  0.36577190  0.87170207  1
  Al  Al126  1  0.75536621  0.86957302  0.35692757  1
  Al  Al127  1  0.75122489  0.86478168  0.86465683  1
  Al  Al128  1  0.13102183  0.24974246  0.13128467  1
  Al  Al129  1  0.13843992  0.24934952  0.63595530  1
  Al  Al130  1  0.13203054  0.75342624  0.13334699  1
  Al  Al131  1  0.13860630  0.75468408  0.63181156  1
  Al  Al132  1  0.63878056  0.25226759  0.12633015  1
  Al  Al133  1  0.63416311  0.24834070  0.63384784  1
  Al  Al134  1  0.63654588  0.75212566  0.13668554  1
  Al  Al135  1  0.62745250  0.74796985  0.63724152  1
  Al  Al136  1  0.13702403  0.25267893  0.36190879  1
  Al  Al137  1  0.13992590  0.24877684  0.87203644  1
  Al  Al138  1  0.13107939  0.75345514  0.36336905  1
  Al  Al139  1  0.13926860  0.75225520  0.87244986  1
  Al  Al140  1  0.63732855  0.25201922  0.36575460  1
  Al  Al141  1  0.63320001  0.25261293  0.87168227  1
  Al  Al142  1  0.63723673  0.75032357  0.36653804  1
  Al  Al143  1  0.62627837  0.74893811  0.86561484  1
  Al  Al144  1  0.36410950  0.25179229  0.12851512  1
  Al  Al145  1  0.36522127  0.24667977  0.63739196  1
  Al  Al146  1  0.36193824  0.75423442  0.13216746  1
  Al  Al147  1  0.36975983  0.75492146  0.63624574  1
  Al  Al148  1  0.86692646  0.25357969  0.13567252  1
  Al  Al149  1  0.86503976  0.24938820  0.63579832  1
  Al  Al150  1  0.86480207  0.74794760  0.13084440  1
  Al  Al151  1  0.86560299  0.75007826  0.63726803  1
  Al  Al152  1  0.36029806  0.24983144  0.35988765  1
  Al  Al153  1  0.36799288  0.25167235  0.87238564  1
  Al  Al154  1  0.36533792  0.75582950  0.36428174  1
  Al  Al155  1  0.37203823  0.75183497  0.86410176  1
  Al  Al156  1  0.86380303  0.24816539  0.36308143  1
  Al  Al157  1  0.86090574  0.25418214  0.86753824  1
  Al  Al158  1  0.87307592  0.74837378  0.35995386  1
  Al  Al159  1  0.86174706  0.75035594  0.87439800  1
  Al  Al160  1  0.13886765  0.13034244  0.24393202  1
  Al  Al161  1  0.13802794  0.13600899  0.74995557  1
  Al  Al162  1  0.13120148  0.63918278  0.25474301  1
  Al  Al163  1  0.13684675  0.63960841  0.75038475  1
  Al  Al164  1  0.63769422  0.13747089  0.24790571  1
  Al  Al165  1  0.63445958  0.13677798  0.75137529  1
  Al  Al166  1  0.63515224  0.63600450  0.24757525  1
  Al  Al167  1  0.62839506  0.63593814  0.75289165  1
  Al  Al168  1  0.36081491  0.13525375  0.24545595  1
  Al  Al169  1  0.36619179  0.13060024  0.75232017  1
  Al  Al170  1  0.36276693  0.63780331  0.25046144  1
  Al  Al171  1  0.37115224  0.63940426  0.74712641  1
  Al  Al172  1  0.86599242  0.13678371  0.24618156  1
  Al  Al173  1  0.86252093  0.13653934  0.75488185  1
  Al  Al174  1  0.86656022  0.63020035  0.24929485  1
  Al  Al175  1  0.86333074  0.63529190  0.74965697  1
  Al  Al176  1  0.13550727  0.36456818  0.24565043  1
  Al  Al177  1  0.13893029  0.36351817  0.75142420  1
  Al  Al178  1  0.13390363  0.86792722  0.24935396  1
  Al  Al179  1  0.13645607  0.86271213  0.75148070  1
  Al  Al180  1  0.63546482  0.36619110  0.24067888  1
  Al  Al181  1  0.63381757  0.36258337  0.75601716  1
  Al  Al182  1  0.63251424  0.86335246  0.25346037  1
  Al  Al183  1  0.62946704  0.86269685  0.75224861  1
  Al  Al184  1  0.36272846  0.36391156  0.24461272  1
  Al  Al185  1  0.36590104  0.36242988  0.75393828  1
  Al  Al186  1  0.36363977  0.86571846  0.24963946  1
  Al  Al187  1  0.36824861  0.86906363  0.75123969  1
  Al  Al188  1  0.86179155  0.37286642  0.24432708  1
  Al  Al189  1  0.86023788  0.36923621  0.74818568  1
  Al  Al190  1  0.87572326  0.86075686  0.24808052  1
  Al  Al191  1  0.86817247  0.86100490  0.75495926  1
  Al  Al192  1  0.82923200  -0.00054814  0.17693726  1
  Al  Al193  1  0.82405563  0.49905622  0.82686847  1
  Al  Al194  1  0.50041329  0.30901831  0.69248638  1
  Al  Al195  1  0.32467367  0.50032663  0.81981409  1
  Al  Al196  1  0.68407981  0.66682531  0.00247206  1
  Al  Al197  1  0.66912016  -0.00074808  0.67652199  1
  Al  Al198  1  0.00132463  0.32095733  0.67008436  1
  Al  Al199  1  0.49855647  0.16691861  0.32577608  1
  Al  Al200  1  0.82636791  -0.00307362  0.67884372  1
  Al  Al201  1  0.18455391  0.50118429  0.67776595  1
  Al  Al202  1  -0.00083195  0.68345707  0.82240779  1
  Al  Al203  1  0.31570223  0.68511827  -0.00170757  1
  Al  Al204  1  0.32783158  0.33046494  0.49924117  1
  Al  Al205  1  0.49997108  0.19297688  0.81093296  1
  Al  Al206  1  0.00542349  0.82230076  0.67669384  1
  Al  Al207  1  0.67814422  0.49972821  0.68413922  1
  Al  Al208  1  -0.00182472  0.32526128  0.31594995  1
  Al  Al209  1  0.32711126  0.50152563  0.18181437  1
  Al  Al210  1  0.17139879  0.68226580  0.49779782  1
  Al  Al211  1  0.18582827  0.50120215  0.33009041  1
  Al  Al212  1  0.66633110  0.82456300  0.50238585  1
  Al  Al213  1  0.50119841  0.18311054  0.17347751  1
  Al  Al214  1  0.32683838  0.17323375  0.49970586  1
  Al  Al215  1  0.00113916  0.17317963  0.82411431  1
  Al  Al216  1  0.81594347  0.18727582  0.00226541  1
  Al  Al217  1  -0.00004754  0.68502733  0.18302002  1
  Al  Al218  1  0.31681589  0.00042288  0.17242166  1
  Al  Al219  1  0.17182019  0.50338820  0.17069773  1
  Al  Al220  1  0.32736464  0.68137647  0.50005443  1
  Al  Al221  1  0.49879289  0.82547502  0.18260478  1
  Al  Al222  1  0.67990519  0.50013025  0.31048309  1
  Al  Al223  1  0.49996475  0.32594065  0.31462573  1
  Al  Al224  1  0.18003706  -0.00022285  0.82175117  1
  Al  Al225  1  0.67369937  -0.00044493  0.17458214  1
  Al  Al226  1  0.49953665  0.68586410  0.32365706  1
  Al  Al227  1  0.67715333  0.00083541  0.82972458  1
  Al  Al228  1  -0.00016814  0.32971899  0.83472520  1
  Al  Al229  1  0.16918102  0.17243123  0.49907183  1
  Al  Al230  1  0.17147363  0.50169577  0.82989338  1
  Al  Al231  1  0.49864656  0.66989215  0.17059290  1
  Al  Al232  1  0.82461212  0.32235378  0.49484360  1
  Al  Al233  1  0.81851551  0.67421549  0.49889178  1
  Al  Al234  1  0.00428572  0.16746438  0.31072901  1
  Al  Al235  1  0.82930227  0.82973169  0.49606888  1
  Al  Al236  1  0.67693226  0.17427999  0.50316068  1
  Al  Al237  1  0.31607030  -0.00009792  0.32602255  1
  Al  Al238  1  0.68215220  0.82530783  0.00012622  1
  Au  Au239  1  -0.00090982  0.65846328  0.67486783  1
  Au  Au240  1  0.81963973  0.50009183  0.16081743  1
  Au  Au241  1  0.49995353  0.83464737  0.82577732  1
  Au  Au242  1  0.00085885  0.33765056  0.66647108  1
  Au  Au243  1  -0.00164144  0.32698640  0.16665533  1
  Au  Au244  1  0.84503519  0.82347884  0.49578608  1
  Au  Au245  1  0.82056400  -0.00344798  0.66268721  1
  Au  Au246  1  0.50018889  0.33457458  0.16302903  1
  Au  Au247  1  0.00282979  0.83139061  0.66857531  1
  Au  Au248  1  0.32972196  0.83017470  0.49962953  1
  Au  Au249  1  -0.00093604  0.67466279  0.16954927  1
  Au  Au250  1  0.16255302  0.33569400  0.49785918  1
  Au  Au251  1  0.83308041  0.82822507  0.00500256  1
  Au  Au252  1  0.34409538  0.33017516  0.49478859  1
  Au  Au253  1  0.00123493  0.15799069  0.67545600  1
  Au  Au254  1  -0.00072567  0.32435477  0.85067127  1
  Au  Au255  1  0.65932902  0.49403372  0.83176288  1
  Au  Au256  1  0.00552671  0.82869400  0.32318351  1
  Au  Au257  1  0.16259749  0.16636211  -0.00027438  1
  Au  Au258  1  0.00456971  0.83022059  0.84174398  1
  Au  Au259  1  0.50256226  0.17889524  0.81969838  1
  Au  Au260  1  0.16744320  -0.00597026  0.67271557  1
  Au  Au261  1  0.49736648  0.66514907  0.82391701  1
  Au  Au262  1  0.66055041  -0.00279585  0.32299462  1
  Au  Au263  1  0.16750079  -0.00239979  0.17332823  1
  Au  Au264  1  0.66833511  0.16538016  0.50083845  1
  Au  Au265  1  0.66774381  0.67150964  0.00370291  1
  Au  Au266  1  0.32683075  -0.00189273  0.84227327  1
  Au  Au267  1  0.16853564  0.50170420  0.33087746  1
  Au  Au268  1  0.82583632  0.00507956  0.84412194  1
  Au  Au269  1  0.83362480  0.33088406  0.49717490  1
  Au  Au270  1  0.33767994  0.17404445  0.00221913  1
  Au  Au271  1  0.82412413  0.50468371  0.66154803  1
  Au  Au272  1  0.83370940  0.16668370  0.49796410  1
  Au  Au273  1  0.49906789  0.83022951  0.17058634  1
  Au  Au274  1  0.17183217  0.66939302  0.49992831  1
  Au  Au275  1  0.33318907  0.50388119  0.67052834  1
  Au  Au276  1  0.83424226  -0.00068482  0.32570166  1
  Au  Au277  1  0.00512086  0.17276535  0.32693210  1
  Au  Au278  1  0.17887986  0.50461202  0.15432273  1
  Au  Au279  1  0.83299164  0.50088539  0.83553622  1
  Au  Au280  1  0.82786747  0.50408838  0.33083324  1
  Au  Au281  1  0.65933039  0.33865358  0.49860905  1
  Au  Au282  1  0.17550765  0.15651953  0.49866702  1
  Au  Au283  1  0.17825076  0.33446614  -0.00095277  1
  Au  Au284  1  0.33806155  0.00172780  0.67046517  1
  Au  Au285  1  0.49243063  0.17463695  0.33957031  1
  Au  Au286  1  0.66894787  0.65547767  0.50208870  1
  Au  Au287  1  0.65247710  0.83287491  0.50355258  1
