# generated using pymatgen
data_Ca24Ti8Al207Au49
_symmetry_space_group_name_H-M   'P 1'
_cell_length_a   17.32063824
_cell_length_b   17.32150973
_cell_length_c   17.32024189
_cell_angle_alpha   89.99899829
_cell_angle_beta   89.99872231
_cell_angle_gamma   90.00079817
_symmetry_Int_Tables_number   1
_chemical_formula_structural   Ca24Ti8Al207Au49
_chemical_formula_sum   'Ca24 Ti8 Al207 Au49'
_cell_volume   5196.41210579
_cell_formula_units_Z   1
loop_
 _symmetry_equiv_pos_site_id
 _symmetry_equiv_pos_as_xyz
  1  'x, y, z'
loop_
 _atom_site_type_symbol
 _atom_site_label
 _atom_site_symmetry_multiplicity
 _atom_site_fract_x
 _atom_site_fract_y
 _atom_site_fract_z
 _atom_site_occupancy
  Ca  Ca0  1  0.24978207  -0.00252855  0.00213931  1
  Ca  Ca1  1  0.24950294  -0.00070553  0.49705227  1
  Ca  Ca2  1  0.25086492  0.50230339  -0.00222202  1
  Ca  Ca3  1  0.25033661  0.50077449  0.49909623  1
  Ca  Ca4  1  0.75597460  -0.00326396  0.00116519  1
  Ca  Ca5  1  0.75373327  -0.00276976  0.50018449  1
  Ca  Ca6  1  0.74718963  0.50097928  0.00056108  1
  Ca  Ca7  1  0.75082984  0.50150707  0.50076087  1
  Ca  Ca8  1  -0.00439681  0.24582089  -0.00158621  1
  Ca  Ca9  1  0.00495544  0.24809456  0.50018937  1
  Ca  Ca10  1  -0.00177440  0.75123550  -0.00009225  1
  Ca  Ca11  1  0.00226549  0.75048763  0.50005065  1
  Ca  Ca12  1  0.50314835  0.25570220  0.00142279  1
  Ca  Ca13  1  0.49323071  0.24907541  0.49776578  1
  Ca  Ca14  1  0.50021770  0.74834543  -0.00177634  1
  Ca  Ca15  1  0.49670598  0.74909844  0.50464036  1
  Ca  Ca16  1  0.00184304  -0.00278077  0.24873147  1
  Ca  Ca17  1  -0.00005806  -0.00260309  0.74773667  1
  Ca  Ca18  1  0.00035548  0.50392668  0.24896907  1
  Ca  Ca19  1  0.00273974  0.50465288  0.75040791  1
  Ca  Ca20  1  0.49729217  0.00195500  0.24895385  1
  Ca  Ca21  1  0.49818363  -0.00037473  0.74583346  1
  Ca  Ca22  1  0.50079706  0.49903519  0.24967601  1
  Ca  Ca23  1  0.49566822  0.49822685  0.75122791  1
  Ti  Ti24  1  0.25017157  0.24825948  0.25084021  1
  Ti  Ti25  1  0.24965303  0.25020812  0.74928002  1
  Ti  Ti26  1  0.24750747  0.75099845  0.25024247  1
  Ti  Ti27  1  0.24989630  0.75036894  0.75022639  1
  Ti  Ti28  1  0.74807624  0.25007160  0.24797861  1
  Ti  Ti29  1  0.74881427  0.24998117  0.75220803  1
  Ti  Ti30  1  0.75352563  0.74934864  0.24892746  1
  Ti  Ti31  1  0.75086184  0.75100592  0.74937868  1
  Al  Al32  1  0.08552019  0.07232909  0.09253595  1
  Al  Al33  1  0.08256911  0.09185775  0.58230858  1
  Al  Al34  1  0.07692905  0.57855655  0.08556130  1
  Al  Al35  1  0.09017627  0.59058543  0.58302998  1
  Al  Al36  1  0.58366135  0.08644888  0.08428323  1
  Al  Al37  1  0.57758773  0.07568223  0.57747265  1
  Al  Al38  1  0.58274228  0.58002510  0.07730130  1
  Al  Al39  1  0.57706559  0.59311307  0.58817517  1
  Al  Al40  1  0.42730061  0.41720885  0.09217324  1
  Al  Al41  1  0.41350129  0.41206478  0.58923074  1
  Al  Al42  1  0.40547763  0.91351428  0.08238342  1
  Al  Al43  1  0.41374057  0.91143360  0.59198458  1
  Al  Al44  1  0.91205419  0.42347181  0.09150072  1
  Al  Al45  1  0.92965956  0.41647406  0.57775523  1
  Al  Al46  1  0.91574589  0.90709842  0.08571680  1
  Al  Al47  1  0.90762866  0.91494821  0.58539974  1
  Al  Al48  1  0.40852524  0.07987488  0.41518997  1
  Al  Al49  1  0.42116529  0.07456522  0.91507219  1
  Al  Al50  1  0.40780912  0.57895734  0.41346178  1
  Al  Al51  1  0.41346692  0.58021905  0.90922836  1
  Al  Al52  1  0.92422343  0.07293270  0.41894470  1
  Al  Al53  1  0.91664019  0.08116374  0.91510763  1
  Al  Al54  1  0.91726730  0.58319961  0.41602355  1
  Al  Al55  1  0.91374479  0.60102314  0.92018888  1
  Al  Al56  1  0.09348629  0.42275236  0.41233671  1
  Al  Al57  1  0.08047773  0.42619961  0.91914050  1
  Al  Al58  1  0.08907078  0.91975237  0.41211747  1
  Al  Al59  1  0.07556720  0.91343568  0.91739628  1
  Al  Al60  1  0.57198096  0.42123224  0.41990105  1
  Al  Al61  1  0.58885309  0.41256630  0.91049901  1
  Al  Al62  1  0.58241410  0.92339097  0.42074335  1
  Al  Al63  1  0.57824691  0.91642624  0.92017797  1
  Al  Al64  1  0.09556869  0.08283896  0.41894634  1
  Al  Al65  1  0.07496045  0.08002480  0.91607915  1
  Al  Al66  1  0.09756268  0.58573328  0.41751998  1
  Al  Al67  1  0.07512027  0.58848192  0.90685605  1
  Al  Al68  1  0.58362997  0.07953486  0.41725067  1
  Al  Al69  1  0.58333557  0.08405966  0.92193138  1
  Al  Al70  1  0.57772383  0.58218178  0.42725215  1
  Al  Al71  1  0.58591473  0.57625899  0.90958626  1
  Al  Al72  1  0.40853390  0.42020760  0.41075472  1
  Al  Al73  1  0.42594137  0.41969417  0.90105532  1
  Al  Al74  1  0.41000775  0.92266842  0.41996297  1
  Al  Al75  1  0.41052147  0.90912909  0.91958262  1
  Al  Al76  1  0.92160213  0.42522211  0.41361754  1
  Al  Al77  1  0.92223256  0.42276089  0.92556071  1
  Al  Al78  1  0.91362478  0.90938277  0.42231183  1
  Al  Al79  1  0.91324826  0.90588866  0.91784093  1
  Al  Al80  1  0.07698385  0.42030907  0.08839294  1
  Al  Al81  1  0.08843235  0.41963774  0.58314807  1
  Al  Al82  1  0.08007560  0.91218312  0.09311597  1
  Al  Al83  1  0.07984910  0.91664471  0.57832592  1
  Al  Al84  1  0.58783759  0.40880341  0.07613261  1
  Al  Al85  1  0.56985094  0.41052688  0.59259693  1
  Al  Al86  1  0.58241223  0.91922734  0.08046785  1
  Al  Al87  1  0.57632069  0.90878861  0.59058116  1
  Al  Al88  1  0.41862096  0.07547114  0.09242144  1
  Al  Al89  1  0.40824926  0.07379928  0.58390894  1
  Al  Al90  1  0.41843955  0.57850998  0.07663403  1
  Al  Al91  1  0.41709393  0.58879109  0.58846463  1
  Al  Al92  1  0.91787049  0.07222146  0.07989508  1
  Al  Al93  1  0.92053726  0.07800847  0.59585083  1
  Al  Al94  1  0.90463707  0.58830513  0.08372063  1
  Al  Al95  1  0.92872659  0.59291912  0.57962163  1
  Al  Al96  1  0.25110057  0.12778409  0.13812673  1
  Al  Al97  1  0.25080067  0.13500738  0.63469768  1
  Al  Al98  1  0.24615410  0.63843634  0.13249260  1
  Al  Al99  1  0.24969417  0.63673442  0.63432892  1
  Al  Al100  1  0.74365885  0.13441066  0.13587505  1
  Al  Al101  1  0.75093837  0.12951433  0.63899774  1
  Al  Al102  1  0.75453564  0.63328720  0.13114721  1
  Al  Al103  1  0.75247386  0.63761831  0.63737499  1
  Al  Al104  1  0.24866973  0.36337616  0.13682226  1
  Al  Al105  1  0.24954030  0.36677486  0.63441439  1
  Al  Al106  1  0.24723997  0.87033225  0.13804925  1
  Al  Al107  1  0.25087697  0.86713058  0.63530835  1
  Al  Al108  1  0.74706199  0.36836648  0.13375463  1
  Al  Al109  1  0.75253178  0.36395977  0.63732426  1
  Al  Al110  1  0.75787008  0.86042706  0.12907845  1
  Al  Al111  1  0.75289187  0.86971165  0.63558506  1
  Al  Al112  1  0.25105178  0.13285091  0.36349729  1
  Al  Al113  1  0.25157868  0.13065832  0.86217844  1
  Al  Al114  1  0.24589417  0.63168646  0.36401294  1
  Al  Al115  1  0.25287258  0.62968486  0.86368225  1
  Al  Al116  1  0.75172125  0.13744320  0.36396301  1
  Al  Al117  1  0.74664370  0.13657357  0.86422310  1
  Al  Al118  1  0.75750561  0.63871876  0.36397080  1
  Al  Al119  1  0.74898344  0.63790166  0.86812876  1
  Al  Al120  1  0.24880531  0.36937368  0.36355729  1
  Al  Al121  1  0.25125349  0.37324863  0.86189513  1
  Al  Al122  1  0.24611421  0.86450860  0.36534810  1
  Al  Al123  1  0.25200459  0.86860824  0.86411447  1
  Al  Al124  1  0.75018310  0.36504588  0.36213284  1
  Al  Al125  1  0.74347251  0.36822882  0.87025096  1
  Al  Al126  1  0.75689384  0.86234297  0.36403283  1
  Al  Al127  1  0.75457599  0.86197411  0.86826441  1
  Al  Al128  1  0.13821818  0.24687149  0.13410564  1
  Al  Al129  1  0.13891918  0.24878517  0.62826080  1
  Al  Al130  1  0.12743664  0.75250737  0.13650569  1
  Al  Al131  1  0.13839550  0.75099469  0.62873731  1
  Al  Al132  1  0.63203839  0.25128130  0.12970678  1
  Al  Al133  1  0.63354985  0.25495855  0.64068363  1
  Al  Al134  1  0.63771646  0.74763906  0.13350568  1
  Al  Al135  1  0.63361911  0.75057686  0.63528615  1
  Al  Al136  1  0.13980204  0.24832938  0.37205898  1
  Al  Al137  1  0.13989396  0.24878382  0.86658344  1
  Al  Al138  1  0.13269048  0.74926651  0.36918555  1
  Al  Al139  1  0.13794064  0.74805411  0.86875505  1
  Al  Al140  1  0.63360034  0.25384427  0.36244846  1
  Al  Al141  1  0.63454380  0.25374614  0.87116651  1
  Al  Al142  1  0.63911531  0.74790682  0.36415704  1
  Al  Al143  1  0.63460724  0.75077193  0.86475577  1
  Al  Al144  1  0.36771655  0.24759943  0.13695193  1
  Al  Al145  1  0.36342884  0.25306099  0.63727978  1
  Al  Al146  1  0.36047671  0.75296458  0.13414310  1
  Al  Al147  1  0.36771703  0.75074133  0.63746470  1
  Al  Al148  1  0.86212074  0.24954524  0.13604222  1
  Al  Al149  1  0.86529646  0.24776190  0.63703784  1
  Al  Al150  1  0.86928446  0.74927959  0.13162779  1
  Al  Al151  1  0.86351798  0.75337238  0.62688741  1
  Al  Al152  1  0.36476130  0.24950729  0.36364007  1
  Al  Al153  1  0.36445602  0.25540986  0.85942867  1
  Al  Al154  1  0.36040703  0.74966451  0.36481328  1
  Al  Al155  1  0.36259386  0.75251916  0.86324194  1
  Al  Al156  1  0.86770782  0.25407951  0.36261572  1
  Al  Al157  1  0.86231137  0.25044214  0.86476250  1
  Al  Al158  1  0.87287564  0.74957410  0.36705849  1
  Al  Al159  1  0.86512712  0.74942879  0.86899198  1
  Al  Al160  1  0.13312043  0.13368489  0.24841940  1
  Al  Al161  1  0.13359107  0.13556716  0.74566685  1
  Al  Al162  1  0.13002911  0.63719168  0.25230632  1
  Al  Al163  1  0.13553158  0.63670251  0.75319351  1
  Al  Al164  1  0.62768951  0.13826552  0.24754050  1
  Al  Al165  1  0.63235932  0.13548786  0.74821040  1
  Al  Al166  1  0.63877301  0.63423591  0.24476181  1
  Al  Al167  1  0.63708189  0.63545980  0.75062075  1
  Al  Al168  1  0.36650972  0.12918508  0.25002413  1
  Al  Al169  1  0.36491810  0.12806463  0.74821369  1
  Al  Al170  1  0.36117336  0.63705814  0.25240097  1
  Al  Al171  1  0.36363480  0.63237707  0.74698325  1
  Al  Al172  1  0.86612584  0.13447444  0.25187544  1
  Al  Al173  1  0.86374623  0.13376479  0.74873763  1
  Al  Al174  1  0.87190985  0.63848760  0.24569922  1
  Al  Al175  1  0.86765121  0.63905579  0.75505138  1
  Al  Al176  1  0.13631859  0.36357012  0.25410793  1
  Al  Al177  1  0.13674665  0.36433645  0.74951923  1
  Al  Al178  1  0.12983979  0.86302250  0.25059148  1
  Al  Al179  1  0.13600321  0.86530863  0.74991920  1
  Al  Al180  1  0.62911706  0.36547150  0.24048633  1
  Al  Al181  1  0.63230369  0.36634281  0.75627085  1
  Al  Al182  1  0.63968095  0.86293329  0.24842171  1
  Al  Al183  1  0.63473270  0.86440613  0.74351944  1
  Al  Al184  1  0.36450638  0.36563495  0.25114796  1
  Al  Al185  1  0.36399541  0.36987146  0.74725303  1
  Al  Al186  1  0.35948353  0.87163267  0.25127497  1
  Al  Al187  1  0.36469359  0.87070622  0.74510894  1
  Al  Al188  1  0.86330068  0.36661257  0.24635387  1
  Al  Al189  1  0.86293915  0.36601516  0.75446545  1
  Al  Al190  1  0.87431707  0.86002608  0.24857674  1
  Al  Al191  1  0.86553872  0.86233946  0.74745983  1
  Al  Al192  1  0.31830612  0.67275184  0.49939356  1
  Al  Al193  1  0.67651627  0.81844016  0.00004195  1
  Al  Al194  1  0.00248606  0.68455993  0.68665085  1
  Al  Al195  1  0.68168227  0.00075237  0.31932204  1
  Al  Al196  1  0.67037799  0.50227540  0.32345225  1
  Al  Al197  1  0.49957254  0.67110437  0.81497986  1
  Al  Al198  1  0.81982886  0.17146756  0.00038805  1
  Al  Al199  1  0.81838914  0.32746526  0.00117074  1
  Al  Al200  1  0.16914854  0.32317463  0.00078337  1
  Al  Al201  1  0.00048330  0.32692743  0.82948932  1
  Al  Al202  1  -0.00121443  0.17462360  0.81408184  1
  Al  Al203  1  0.32890573  0.33405453  -0.00298679  1
  Al  Al204  1  0.18011406  0.00205886  0.67512168  1
  Al  Al205  1  0.68444841  0.83096642  0.50027167  1
  Al  Al206  1  0.49833139  0.67183911  0.17254629  1
  Al  Al207  1  0.32339796  0.17190557  0.00028601  1
  Al  Al208  1  0.18342256  0.82325114  0.00186722  1
  Al  Al209  1  0.00427009  0.17564529  0.32566623  1
  Al  Al210  1  0.50018719  0.18823434  0.82419814  1
  Al  Al211  1  0.49824265  0.82560837  0.17104627  1
  Al  Al212  1  0.82838794  -0.00211055  0.81820242  1
  Al  Al213  1  0.00001168  0.31815204  0.17969195  1
  Al  Al214  1  0.49812447  0.18299741  0.66982591  1
  Al  Al215  1  0.66808633  0.49948401  0.68086309  1
  Al  Al216  1  0.81714759  0.50241644  0.83310547  1
  Al  Al217  1  0.67203140  -0.00196381  0.81906659  1
  Al  Al218  1  0.31980422  0.82530111  0.50105864  1
  Al  Al219  1  0.18239195  0.50220062  0.68014917  1
  Al  Al220  1  0.32062967  0.32521838  0.49867308  1
  Al  Al221  1  0.83240303  0.17421565  0.50206290  1
  Al  Al222  1  0.68191470  0.67360489  0.50118278  1
  Al  Al223  1  0.32527741  0.67984440  -0.00223670  1
  Al  Al224  1  0.49782252  0.31982668  0.32167567  1
  Al  Al225  1  0.17386258  0.50072973  0.18631620  1
  Al  Al226  1  0.00268559  0.30987333  0.67322918  1
  Al  Al227  1  0.31642769  0.17212150  0.50024817  1
  Al  Al228  1  0.49905251  0.82803669  0.81148986  1
  Al  Al229  1  0.82707139  0.50279700  0.31259949  1
  Al  Al230  1  0.18990591  -0.00072766  0.30911088  1
  Al  Al231  1  0.67468132  0.17329968  0.50118819  1
  Al  Al232  1  0.50040858  0.67113410  0.32733178  1
  Al  Al233  1  0.67324468  0.33144355  0.50288098  1
  Al  Al234  1  0.00088948  0.80997418  0.81847741  1
  Al  Al235  1  0.83022619  0.50197789  0.67270589  1
  Al  Al236  1  0.32812060  0.50112607  0.18880242  1
  Al  Al237  1  0.49998390  0.82366068  0.32827531  1
  Al  Al238  1  0.81905525  -0.00250228  0.18190491  1
  Au  Au239  1  0.83292491  0.50403200  0.83908434  1
  Au  Au240  1  0.33258153  0.50146696  0.67321939  1
  Au  Au241  1  0.83064719  0.33139334  0.00119627  1
  Au  Au242  1  0.33252310  0.15791916  0.00162407  1
  Au  Au243  1  0.67464935  0.66536909  -0.00353869  1
  Au  Au244  1  0.16652776  -0.00051342  0.83466183  1
  Au  Au245  1  0.00273482  0.16757997  0.33517687  1
  Au  Au246  1  0.67158334  0.17478414  0.00100898  1
  Au  Au247  1  0.83064216  0.15806513  0.50677120  1
  Au  Au248  1  0.17209172  0.32926969  0.49852844  1
  Au  Au249  1  0.00261678  0.32642950  0.67779170  1
  Au  Au250  1  0.66742783  -0.00197334  0.17173178  1
  Au  Au251  1  0.16329090  0.66067299  -0.00016097  1
  Au  Au252  1  0.49821855  0.16411172  0.33346132  1
  Au  Au253  1  0.16484382  0.33488253  -0.00053626  1
  Au  Au254  1  0.17021354  0.82539684  0.49829028  1
  Au  Au255  1  0.49985694  0.17789378  0.83788429  1
  Au  Au256  1  0.49468419  0.83914447  0.32634972  1
  Au  Au257  1  0.83293745  0.67344452  0.49858377  1
  Au  Au258  1  0.83549124  0.33798699  0.49488836  1
  Au  Au259  1  0.49923089  0.17814684  0.16532101  1
  Au  Au260  1  0.16923495  0.50206569  0.82822273  1
  Au  Au261  1  0.00101414  0.83584173  0.32782945  1
  Au  Au262  1  0.00273684  0.34080728  0.32642860  1
  Au  Au263  1  0.66831535  0.82569606  0.50008440  1
  Au  Au264  1  0.83930040  0.50307989  0.65795176  1
  Au  Au265  1  0.67720775  0.50518103  0.33868308  1
  Au  Au266  1  0.67708788  -0.00096747  0.83552066  1
  Au  Au267  1  -0.00369723  0.16928284  0.16089937  1
  Au  Au268  1  0.17282461  0.83613303  0.00265851  1
  Au  Au269  1  0.33491881  -0.00303118  0.82501580  1
  Au  Au270  1  0.65731575  0.32491979  0.50388789  1
  Au  Au271  1  -0.00233905  0.67443143  0.16251130  1
  Au  Au272  1  0.32614915  0.50199446  0.17184162  1
  Au  Au273  1  0.49638694  0.17295412  0.65653047  1
  Au  Au274  1  0.33769158  0.67386722  -0.00251365  1
  Au  Au275  1  0.00525189  0.66624892  0.33432164  1
  Au  Au276  1  0.83032358  -0.00481765  0.33179341  1
  Au  Au277  1  0.67772991  0.83083474  0.00222520  1
  Au  Au278  1  0.49857744  0.82190215  0.82759674  1
  Au  Au279  1  0.34513408  0.34012985  -0.00515724  1
  Au  Au280  1  0.67313045  0.00009078  0.66090911  1
  Au  Au281  1  0.15982147  0.16050062  0.00215796  1
  Au  Au282  1  0.32057158  -0.00237003  0.17975266  1
  Au  Au283  1  0.67338405  0.49762572  0.16073603  1
  Au  Au284  1  0.49684895  0.33218866  0.32418500  1
  Au  Au285  1  -0.00263769  0.83124256  0.67049704  1
  Au  Au286  1  0.17345804  0.00280056  0.66005429  1
  Au  Au287  1  0.65227444  0.50003506  0.67647986  1
