# generated using pymatgen
data_Ca24Ti8Al207Au49
_symmetry_space_group_name_H-M   'P 1'
_cell_length_a   17.32397754
_cell_length_b   17.32394072
_cell_length_c   17.32503691
_cell_angle_alpha   90.00526885
_cell_angle_beta   89.99954482
_cell_angle_gamma   90.00123337
_symmetry_Int_Tables_number   1
_chemical_formula_structural   Ca24Ti8Al207Au49
_chemical_formula_sum   'Ca24 Ti8 Al207 Au49'
_cell_volume   5199.58243176
_cell_formula_units_Z   1
loop_
 _symmetry_equiv_pos_site_id
 _symmetry_equiv_pos_as_xyz
  1  'x, y, z'
loop_
 _atom_site_type_symbol
 _atom_site_label
 _atom_site_symmetry_multiplicity
 _atom_site_fract_x
 _atom_site_fract_y
 _atom_site_fract_z
 _atom_site_occupancy
  Ca  Ca0  1  0.24910706  -0.00282556  0.00088492  1
  Ca  Ca1  1  0.25274015  -0.00037264  0.49670613  1
  Ca  Ca2  1  0.24625453  0.50268995  -0.00184937  1
  Ca  Ca3  1  0.24797618  0.50004928  0.50367618  1
  Ca  Ca4  1  0.75197981  -0.00161241  0.00119779  1
  Ca  Ca5  1  0.74576778  -0.00130109  0.49647313  1
  Ca  Ca6  1  0.75215119  0.50131406  0.00224313  1
  Ca  Ca7  1  0.74679614  0.50121467  0.49440879  1
  Ca  Ca8  1  -0.00095397  0.24445344  -0.00012450  1
  Ca  Ca9  1  -0.00144708  0.25049275  0.50121196  1
  Ca  Ca10  1  -0.00129151  0.75291350  0.00524243  1
  Ca  Ca11  1  -0.00224961  0.74866672  0.49635090  1
  Ca  Ca12  1  0.49942435  0.24616944  0.00421383  1
  Ca  Ca13  1  0.50254396  0.25316748  0.49535168  1
  Ca  Ca14  1  0.49982705  0.75738874  -0.00076050  1
  Ca  Ca15  1  0.50211257  0.75000213  0.50048309  1
  Ca  Ca16  1  -0.00405396  -0.00422594  0.24341461  1
  Ca  Ca17  1  -0.00098877  -0.00225524  0.75475394  1
  Ca  Ca18  1  -0.00497208  0.50591652  0.25000859  1
  Ca  Ca19  1  -0.00605508  0.50049042  0.74748892  1
  Ca  Ca20  1  0.50561849  -0.00006317  0.25036871  1
  Ca  Ca21  1  0.50299537  -0.00234025  0.75347411  1
  Ca  Ca22  1  0.50379117  0.50076497  0.25597801  1
  Ca  Ca23  1  0.50391274  0.50453902  0.74434208  1
  Ti  Ti24  1  0.24911167  0.24896521  0.24830477  1
  Ti  Ti25  1  0.24976650  0.24920410  0.75059034  1
  Ti  Ti26  1  0.25041658  0.75203977  0.24942957  1
  Ti  Ti27  1  0.24972507  0.75327400  0.75029482  1
  Ti  Ti28  1  0.75069293  0.25008920  0.25023905  1
  Ti  Ti29  1  0.74982974  0.25004765  0.74915685  1
  Ti  Ti30  1  0.74937164  0.74999075  0.24902122  1
  Ti  Ti31  1  0.75053260  0.75123283  0.75133255  1
  Al  Al32  1  0.08342018  0.07760825  0.08057572  1
  Al  Al33  1  0.08399663  0.07921651  0.58267085  1
  Al  Al34  1  0.08099625  0.60200280  0.08710877  1
  Al  Al35  1  0.07766727  0.58333040  0.57954774  1
  Al  Al36  1  0.58632003  0.08022223  0.08248013  1
  Al  Al37  1  0.58497594  0.07366860  0.57721800  1
  Al  Al38  1  0.58756202  0.58322326  0.08735449  1
  Al  Al39  1  0.58594014  0.58146704  0.57509813  1
  Al  Al40  1  0.41832914  0.40974416  0.07865119  1
  Al  Al41  1  0.42115349  0.42406366  0.57707718  1
  Al  Al42  1  0.40950964  0.92068075  0.08840863  1
  Al  Al43  1  0.41517215  0.90836187  0.57681720  1
  Al  Al44  1  0.90744212  0.42329191  0.08750291  1
  Al  Al45  1  0.91694000  0.42036937  0.57764110  1
  Al  Al46  1  0.91884031  0.91650036  0.09051813  1
  Al  Al47  1  0.91598400  0.91558676  0.58096157  1
  Al  Al48  1  0.42446151  0.09026952  0.41307907  1
  Al  Al49  1  0.41028814  0.08181379  0.93104490  1
  Al  Al50  1  0.41555502  0.59730035  0.42275419  1
  Al  Al51  1  0.41919973  0.59564436  0.92006583  1
  Al  Al52  1  0.91124299  0.07397035  0.40608478  1
  Al  Al53  1  0.90921018  0.08618540  0.92431863  1
  Al  Al54  1  0.91311502  0.58655638  0.39980676  1
  Al  Al55  1  0.92097582  0.58222238  0.92202695  1
  Al  Al56  1  0.08217711  0.42482392  0.41929797  1
  Al  Al57  1  0.07582371  0.41653036  0.92372889  1
  Al  Al58  1  0.07603047  0.90918530  0.41821607  1
  Al  Al59  1  0.08406148  0.90401199  0.91882383  1
  Al  Al60  1  0.59330970  0.41160688  0.41024976  1
  Al  Al61  1  0.58028545  0.42362808  0.92054066  1
  Al  Al62  1  0.58459560  0.90759464  0.41408682  1
  Al  Al63  1  0.58778534  0.91228060  0.91009007  1
  Al  Al64  1  0.07572598  0.08061382  0.42505249  1
  Al  Al65  1  0.07977387  0.07772593  0.92264013  1
  Al  Al66  1  0.07679563  0.58871340  0.41095240  1
  Al  Al67  1  0.08591712  0.59480455  0.92696079  1
  Al  Al68  1  0.58265666  0.08280422  0.41007304  1
  Al  Al69  1  0.59722474  0.07180277  0.91901420  1
  Al  Al70  1  0.59191517  0.58446391  0.41333193  1
  Al  Al71  1  0.57952030  0.58738204  0.91499369  1
  Al  Al72  1  0.42992188  0.41231362  0.41794550  1
  Al  Al73  1  0.41511684  0.41232793  0.92421933  1
  Al  Al74  1  0.42079753  0.89990435  0.41456739  1
  Al  Al75  1  0.42369769  0.91172649  0.91630747  1
  Al  Al76  1  0.90600337  0.42584009  0.41053357  1
  Al  Al77  1  0.91732549  0.41527890  0.92473886  1
  Al  Al78  1  0.91151977  0.91513184  0.40689097  1
  Al  Al79  1  0.92298000  0.91471289  0.91514381  1
  Al  Al80  1  0.07955257  0.42024550  0.08134842  1
  Al  Al81  1  0.08012195  0.42008128  0.58066159  1
  Al  Al82  1  0.08333879  0.90287378  0.08243861  1
  Al  Al83  1  0.08493486  0.91482778  0.58248485  1
  Al  Al84  1  0.58423243  0.42316268  0.08732151  1
  Al  Al85  1  0.59173609  0.41827773  0.57272217  1
  Al  Al86  1  0.58640448  0.91991558  0.08179277  1
  Al  Al87  1  0.58720695  0.91019566  0.57818280  1
  Al  Al88  1  0.40765216  0.08310601  0.09001924  1
  Al  Al89  1  0.41888905  0.07331519  0.57284765  1
  Al  Al90  1  0.42010114  0.58920476  0.07553279  1
  Al  Al91  1  0.41235979  0.58826337  0.57787294  1
  Al  Al92  1  0.90139694  0.07913515  0.08512377  1
  Al  Al93  1  0.92161398  0.07420472  0.58393891  1
  Al  Al94  1  0.91781380  0.58558614  0.09912350  1
  Al  Al95  1  0.91945102  0.58381451  0.57905637  1
  Al  Al96  1  0.25010874  0.13146152  0.13096388  1
  Al  Al97  1  0.25179229  0.13594659  0.63405567  1
  Al  Al98  1  0.24497382  0.63795511  0.13476024  1
  Al  Al99  1  0.25387874  0.63862887  0.63208944  1
  Al  Al100  1  0.75388337  0.13219783  0.13691666  1
  Al  Al101  1  0.74499822  0.13456099  0.63242080  1
  Al  Al102  1  0.75217033  0.63037723  0.13554291  1
  Al  Al103  1  0.75330456  0.63655158  0.63518882  1
  Al  Al104  1  0.24799374  0.36461785  0.13460952  1
  Al  Al105  1  0.25023006  0.36515300  0.63254629  1
  Al  Al106  1  0.25138836  0.86513753  0.13233407  1
  Al  Al107  1  0.25333890  0.86237457  0.63124054  1
  Al  Al108  1  0.75215754  0.37346147  0.13981294  1
  Al  Al109  1  0.74817430  0.36555211  0.63070257  1
  Al  Al110  1  0.75597527  0.86724064  0.13597565  1
  Al  Al111  1  0.74361830  0.86554514  0.63505883  1
  Al  Al112  1  0.25008424  0.13407611  0.36336656  1
  Al  Al113  1  0.25287465  0.13582363  0.87185339  1
  Al  Al114  1  0.25420590  0.64180657  0.36789827  1
  Al  Al115  1  0.24473385  0.64059756  0.86789271  1
  Al  Al116  1  0.75052190  0.12837207  0.36423354  1
  Al  Al117  1  0.74979476  0.13361054  0.86505765  1
  Al  Al118  1  0.75026070  0.63222518  0.36188902  1
  Al  Al119  1  0.75205968  0.63474828  0.87107143  1
  Al  Al120  1  0.24957650  0.36104980  0.36925033  1
  Al  Al121  1  0.25040379  0.36231918  0.86571436  1
  Al  Al122  1  0.25351508  0.86358609  0.36867138  1
  Al  Al123  1  0.24804250  0.86296116  0.87339574  1
  Al  Al124  1  0.74809812  0.36863448  0.36612195  1
  Al  Al125  1  0.75115895  0.37168856  0.86157361  1
  Al  Al126  1  0.74853258  0.86679113  0.36305338  1
  Al  Al127  1  0.74900084  0.86688684  0.86480126  1
  Al  Al128  1  0.13306376  0.24883057  0.12860716  1
  Al  Al129  1  0.13667651  0.25174842  0.63545421  1
  Al  Al130  1  0.13503200  0.75337157  0.13026812  1
  Al  Al131  1  0.13555614  0.75287835  0.63122241  1
  Al  Al132  1  0.63577423  0.24727793  0.14114276  1
  Al  Al133  1  0.63425434  0.25484013  0.63384648  1
  Al  Al134  1  0.63693717  0.74988042  0.13689013  1
  Al  Al135  1  0.63605449  0.75206535  0.63589062  1
  Al  Al136  1  0.13163551  0.25073638  0.36115661  1
  Al  Al137  1  0.13629505  0.24746068  0.87171731  1
  Al  Al138  1  0.13361170  0.75123328  0.36514975  1
  Al  Al139  1  0.13262396  0.75555918  0.87000093  1
  Al  Al140  1  0.63944265  0.25286678  0.36435624  1
  Al  Al141  1  0.63721570  0.24960047  0.86175918  1
  Al  Al142  1  0.63338892  0.74953828  0.36300324  1
  Al  Al143  1  0.63570017  0.75336311  0.86518582  1
  Al  Al144  1  0.36541545  0.24322274  0.13329462  1
  Al  Al145  1  0.36648898  0.25510044  0.63417826  1
  Al  Al146  1  0.36903558  0.75405848  0.13356801  1
  Al  Al147  1  0.36618896  0.75127371  0.62963218  1
  Al  Al148  1  0.86505318  0.24665386  0.13805299  1
  Al  Al149  1  0.86089403  0.25067053  0.63198199  1
  Al  Al150  1  0.86382805  0.75012194  0.13251125  1
  Al  Al151  1  0.86350637  0.75511955  0.63323110  1
  Al  Al152  1  0.36572536  0.24903190  0.36256099  1
  Al  Al153  1  0.36789711  0.24812951  0.86427412  1
  Al  Al154  1  0.37036089  0.75293619  0.36531797  1
  Al  Al155  1  0.36412728  0.75433551  0.86799463  1
  Al  Al156  1  0.86284790  0.24982463  0.36384520  1
  Al  Al157  1  0.86105247  0.24787409  0.86472124  1
  Al  Al158  1  0.86476133  0.74654834  0.36434026  1
  Al  Al159  1  0.86253905  0.75350053  0.87229661  1
  Al  Al160  1  0.13507985  0.13352609  0.24314903  1
  Al  Al161  1  0.13853075  0.13575961  0.75201941  1
  Al  Al162  1  0.13496078  0.63999019  0.24959344  1
  Al  Al163  1  0.13632523  0.64196201  0.74940679  1
  Al  Al164  1  0.63460716  0.13367659  0.25536852  1
  Al  Al165  1  0.63620735  0.12775598  0.74970609  1
  Al  Al166  1  0.63603670  0.62838385  0.25115891  1
  Al  Al167  1  0.63815167  0.63761799  0.75254897  1
  Al  Al168  1  0.36427257  0.13296115  0.24817534  1
  Al  Al169  1  0.36342952  0.13367126  0.74854685  1
  Al  Al170  1  0.36559639  0.63986521  0.25111692  1
  Al  Al171  1  0.36249018  0.64230967  0.75102020  1
  Al  Al172  1  0.86334424  0.12813977  0.25012734  1
  Al  Al173  1  0.86225596  0.13476883  0.74960448  1
  Al  Al174  1  0.86373964  0.63274011  0.24995335  1
  Al  Al175  1  0.86291329  0.63162222  0.75438186  1
  Al  Al176  1  0.13554615  0.36451089  0.24767037  1
  Al  Al177  1  0.13673541  0.36141201  0.75097653  1
  Al  Al178  1  0.13397585  0.86586898  0.24339407  1
  Al  Al179  1  0.12914500  0.86193839  0.75122890  1
  Al  Al180  1  0.63878257  0.37347003  0.25151476  1
  Al  Al181  1  0.63188634  0.36481269  0.75122947  1
  Al  Al182  1  0.63048156  0.86386741  0.25308605  1
  Al  Al183  1  0.63246325  0.87070629  0.75319938  1
  Al  Al184  1  0.36427350  0.36234063  0.24745639  1
  Al  Al185  1  0.36910045  0.36155903  0.75083591  1
  Al  Al186  1  0.36839926  0.86351660  0.24832509  1
  Al  Al187  1  0.36578692  0.86509865  0.75264760  1
  Al  Al188  1  0.86409086  0.36790844  0.25058874  1
  Al  Al189  1  0.86144918  0.36853250  0.74890185  1
  Al  Al190  1  0.86440777  0.86524150  0.24887128  1
  Al  Al191  1  0.86960857  0.86285680  0.75242241  1
  Al  Al192  1  -0.00125710  0.68289672  0.67482829  1
  Al  Al193  1  0.32890053  -0.00026636  0.82303602  1
  Al  Al194  1  0.68064077  0.32837690  0.00095285  1
  Al  Al195  1  0.32382968  0.50188646  0.16857233  1
  Al  Al196  1  0.17393281  0.17869867  0.49942287  1
  Al  Al197  1  0.82010158  -0.00139114  0.67657985  1
  Al  Al198  1  0.17415789  0.67885822  0.49914257  1
  Al  Al199  1  0.50021892  0.82379359  0.68484256  1
  Al  Al200  1  0.00060359  0.17571359  0.32178484  1
  Al  Al201  1  0.49954880  0.69224445  0.82204112  1
  Al  Al202  1  0.50086386  0.17742817  0.17774386  1
  Al  Al203  1  0.50281485  0.17009483  0.83402198  1
  Al  Al204  1  0.31953258  0.30999030  0.00022911  1
  Al  Al205  1  0.82134826  -0.00071475  0.82899393  1
  Al  Al206  1  -0.00142498  0.69470000  0.19220961  1
  Al  Al207  1  0.50150748  0.66835760  0.67134479  1
  Al  Al208  1  0.33104288  0.49959693  0.33152169  1
  Al  Al209  1  -0.00132662  0.69163469  0.82960322  1
  Al  Al210  1  -0.00207353  0.32350759  0.82655180  1
  Al  Al211  1  0.50288484  0.31098179  0.31884970  1
  Al  Al212  1  0.33336707  -0.00279960  0.32172916  1
  Al  Al213  1  0.17082210  -0.00301238  0.82898055  1
  Al  Al214  1  0.82769161  0.31308213  0.00235219  1
  Al  Al215  1  -0.00524089  0.32462033  0.17678168  1
  Al  Al216  1  0.81695001  0.82373726  0.49900350  1
  Al  Al217  1  0.32753760  0.17722572  0.49828622  1
  Al  Al218  1  0.68150155  0.82191361  0.00151993  1
  Al  Al219  1  -0.00087021  0.81175901  0.30691317  1
  Al  Al220  1  0.33066962  0.50315363  0.82946498  1
  Al  Al221  1  0.68748601  0.17210893  0.00211936  1
  Al  Al222  1  0.00016924  0.17290858  0.67517939  1
  Al  Al223  1  0.49964710  0.17814207  0.66918574  1
  Al  Al224  1  0.17242677  0.50248043  0.67312177  1
  Al  Al225  1  -0.00166193  0.32704627  0.67381736  1
  Al  Al226  1  0.17869651  -0.00165929  0.67630603  1
  Al  Al227  1  0.31300471  0.68365947  0.00132274  1
  Al  Al228  1  0.82358749  0.32264114  0.49771705  1
  Al  Al229  1  0.16789979  0.50122706  0.82900908  1
  Al  Al230  1  0.68687192  -0.00067570  0.18125374  1
  Al  Al231  1  0.68267125  0.68935623  0.49938833  1
  Al  Al232  1  0.17450915  0.50289215  0.32038189  1
  Al  Al233  1  0.32648178  0.50113184  0.67349193  1
  Al  Al234  1  -0.00066716  0.17032617  0.82830511  1
  Al  Al235  1  0.17090469  -0.00014719  0.32106049  1
  Al  Al236  1  0.67768040  0.18475115  0.49782484  1
  Al  Al237  1  0.68074619  0.50098802  0.67674546  1
  Al  Al238  1  0.49831779  0.67940792  0.17942098  1
  Au  Au239  1  0.50285910  0.67567065  0.33527435  1
  Au  Au240  1  0.50006605  0.33644664  0.83191312  1
  Au  Au241  1  0.15557152  0.50691199  0.17205648  1
  Au  Au242  1  0.17674081  0.66648699  0.50079765  1
  Au  Au243  1  0.34876431  -0.00330450  0.32735243  1
  Au  Au244  1  0.81976597  0.33519146  0.49813662  1
  Au  Au245  1  -0.00081110  0.83389436  0.67242279  1
  Au  Au246  1  0.83045945  0.50254386  0.66629674  1
  Au  Au247  1  0.32617903  -0.00152804  0.83548183  1
  Au  Au248  1  0.82889181  0.66131907  0.49533981  1
  Au  Au249  1  0.17385005  -0.00633607  0.15966962  1
  Au  Au250  1  0.83739244  0.15921291  0.50061735  1
  Au  Au251  1  0.50153712  0.84280201  0.17383036  1
  Au  Au252  1  -0.00306732  0.33301610  0.16771765  1
  Au  Au253  1  0.32929576  0.50139352  0.15320434  1
  Au  Au254  1  0.32735873  0.83076588  0.00169672  1
  Au  Au255  1  0.50008389  0.82852217  0.67287706  1
  Au  Au256  1  0.17423307  0.33523326  0.00016651  1
  Au  Au257  1  0.66465850  0.67377340  -0.00103244  1
  Au  Au258  1  0.34692502  0.50432978  0.82559745  1
  Au  Au259  1  0.18002199  0.83419157  0.49960437  1
  Au  Au260  1  0.83291414  0.66367508  0.00729947  1
  Au  Au261  1  0.83308571  0.49826942  0.83691512  1
  Au  Au262  1  0.66462250  0.32247766  0.00158508  1
  Au  Au263  1  0.83257740  0.83678990  0.00162844  1
  Au  Au264  1  -0.00146600  0.34207657  0.33141612  1
  Au  Au265  1  -0.00058625  0.67472469  0.83072198  1
  Au  Au266  1  0.50539781  0.34192270  0.66418298  1
  Au  Au267  1  0.50399209  0.16281054  0.84856567  1
  Au  Au268  1  0.16053660  -0.00034051  0.33367709  1
  Au  Au269  1  0.81659750  0.83640209  0.49672447  1
  Au  Au270  1  0.66285102  0.50337343  0.82572987  1
  Au  Au271  1  0.15170127  0.50077312  0.82468834  1
  Au  Au272  1  0.17747744  0.16518463  -0.00065600  1
  Au  Au273  1  0.33859904  0.32587410  0.50006030  1
  Au  Au274  1  0.66332194  0.17610275  0.49699318  1
  Au  Au275  1  0.50073616  0.67052939  0.17089563  1
  Au  Au276  1  0.49796546  0.16273064  0.66252533  1
  Au  Au277  1  0.67745203  0.50159850  0.17611773  1
  Au  Au278  1  0.50211728  0.16491972  0.18000080  1
  Au  Au279  1  0.32660540  0.49968775  0.34779089  1
  Au  Au280  1  0.67184025  -0.00292677  0.67158656  1
  Au  Au281  1  0.32570465  -0.00253355  0.65836871  1
  Au  Au282  1  -0.00475208  0.15956599  0.16574543  1
  Au  Au283  1  -0.00134648  0.16693298  0.33052853  1
  Au  Au284  1  -0.00290591  0.82117441  0.32119064  1
  Au  Au285  1  0.67170206  -0.00438336  0.32914227  1
  Au  Au286  1  0.50052851  0.33717776  0.17567051  1
  Au  Au287  1  0.16395043  0.32847253  0.49930319  1
