# generated using pymatgen
data_Ca24Ti8Al207Au49
_symmetry_space_group_name_H-M   'P 1'
_cell_length_a   17.32471470
_cell_length_b   17.32385016
_cell_length_c   17.32418363
_cell_angle_alpha   90.00078220
_cell_angle_beta   89.99296775
_cell_angle_gamma   90.00639285
_symmetry_Int_Tables_number   1
_chemical_formula_structural   Ca24Ti8Al207Au49
_chemical_formula_sum   'Ca24 Ti8 Al207 Au49'
_cell_volume   5199.52035390
_cell_formula_units_Z   1
loop_
 _symmetry_equiv_pos_site_id
 _symmetry_equiv_pos_as_xyz
  1  'x, y, z'
loop_
 _atom_site_type_symbol
 _atom_site_label
 _atom_site_symmetry_multiplicity
 _atom_site_fract_x
 _atom_site_fract_y
 _atom_site_fract_z
 _atom_site_occupancy
  Ca  Ca0  1  0.25315841  -0.00397379  0.00406819  1
  Ca  Ca1  1  0.24611802  -0.00315597  0.49731429  1
  Ca  Ca2  1  0.25072067  0.50538883  0.00033196  1
  Ca  Ca3  1  0.24826373  0.50475189  0.50194301  1
  Ca  Ca4  1  0.74613769  -0.00358149  0.00122152  1
  Ca  Ca5  1  0.75051295  -0.00495749  0.49964028  1
  Ca  Ca6  1  0.74590567  0.50379075  -0.00464161  1
  Ca  Ca7  1  0.75087117  0.50232755  0.50503763  1
  Ca  Ca8  1  -0.00066155  0.25177853  0.00391239  1
  Ca  Ca9  1  -0.00095567  0.25183862  0.49975613  1
  Ca  Ca10  1  0.00051069  0.74887019  0.00084564  1
  Ca  Ca11  1  0.00171858  0.75166136  0.50193495  1
  Ca  Ca12  1  0.50350439  0.25138628  -0.00302444  1
  Ca  Ca13  1  0.50156308  0.25364241  0.50442783  1
  Ca  Ca14  1  0.49993791  0.74959709  -0.00030259  1
  Ca  Ca15  1  0.49763425  0.75094111  0.49860427  1
  Ca  Ca16  1  -0.00130188  -0.00288367  0.24588213  1
  Ca  Ca17  1  -0.00116756  -0.00663541  0.74887732  1
  Ca  Ca18  1  0.00454610  0.50063359  0.24834195  1
  Ca  Ca19  1  -0.00191132  0.50628755  0.75075838  1
  Ca  Ca20  1  0.49957320  -0.00868873  0.24677238  1
  Ca  Ca21  1  0.50118298  -0.00315791  0.75388013  1
  Ca  Ca22  1  0.49665656  0.50817610  0.24608401  1
  Ca  Ca23  1  0.50442153  0.50342930  0.75582428  1
  Ti  Ti24  1  0.24960223  0.24846654  0.24957060  1
  Ti  Ti25  1  0.25029899  0.25176507  0.75048355  1
  Ti  Ti26  1  0.25105423  0.75092712  0.24858611  1
  Ti  Ti27  1  0.24943500  0.74893064  0.75323264  1
  Ti  Ti28  1  0.75066842  0.24918781  0.24902827  1
  Ti  Ti29  1  0.74983517  0.25400646  0.74992259  1
  Ti  Ti30  1  0.74912503  0.75134380  0.24609057  1
  Ti  Ti31  1  0.74982874  0.74773736  0.75254476  1
  Al  Al32  1  0.08543433  0.07602930  0.08723489  1
  Al  Al33  1  0.08122701  0.07476249  0.57355445  1
  Al  Al34  1  0.08497343  0.59457181  0.07630795  1
  Al  Al35  1  0.08638648  0.58832966  0.59004411  1
  Al  Al36  1  0.58778058  0.08271241  0.07594926  1
  Al  Al37  1  0.58576956  0.08067031  0.58390928  1
  Al  Al38  1  0.58528185  0.59854873  0.07955248  1
  Al  Al39  1  0.58312263  0.58332995  0.58918218  1
  Al  Al40  1  0.41086471  0.42777678  0.07822051  1
  Al  Al41  1  0.41333028  0.42509124  0.58562118  1
  Al  Al42  1  0.41677712  0.90877115  0.09247293  1
  Al  Al43  1  0.41820653  0.91177008  0.57809643  1
  Al  Al44  1  0.92133574  0.41535381  0.08075720  1
  Al  Al45  1  0.90227850  0.42273889  0.58354935  1
  Al  Al46  1  0.91984858  0.90162122  0.08634459  1
  Al  Al47  1  0.91699274  0.91697601  0.58234724  1
  Al  Al48  1  0.41660273  0.07102811  0.41998992  1
  Al  Al49  1  0.42561375  0.07539936  0.92326350  1
  Al  Al50  1  0.41192445  0.58458560  0.40617805  1
  Al  Al51  1  0.42608824  0.59176485  0.91466515  1
  Al  Al52  1  0.91965323  0.08557234  0.41585066  1
  Al  Al53  1  0.91527334  0.08422397  0.92730419  1
  Al  Al54  1  0.92259908  0.57962601  0.42695600  1
  Al  Al55  1  0.91849244  0.59156129  0.90836366  1
  Al  Al56  1  0.08363922  0.42102898  0.41479025  1
  Al  Al57  1  0.07925755  0.42785417  0.91929731  1
  Al  Al58  1  0.08427036  0.90886065  0.41549541  1
  Al  Al59  1  0.07954131  0.90925801  0.92390061  1
  Al  Al60  1  0.58503359  0.42247570  0.42438394  1
  Al  Al61  1  0.58808856  0.42379018  0.90938668  1
  Al  Al62  1  0.58788524  0.90759027  0.41376722  1
  Al  Al63  1  0.58299792  0.90782859  0.91276769  1
  Al  Al64  1  0.07907033  0.08348070  0.41413363  1
  Al  Al65  1  0.07681402  0.07557820  0.92430900  1
  Al  Al66  1  0.08818645  0.58091247  0.42346763  1
  Al  Al67  1  0.08504574  0.59569588  0.91298592  1
  Al  Al68  1  0.58501894  0.06987201  0.42103893  1
  Al  Al69  1  0.59233451  0.08213921  0.91898000  1
  Al  Al70  1  0.57654253  0.58587411  0.41633027  1
  Al  Al71  1  0.58997520  0.59345694  0.91389461  1
  Al  Al72  1  0.40914183  0.42795601  0.41565074  1
  Al  Al73  1  0.42275213  0.41639525  0.91921384  1
  Al  Al74  1  0.41714171  0.90866376  0.41432505  1
  Al  Al75  1  0.42390513  0.90908127  0.91664064  1
  Al  Al76  1  0.91221108  0.40952509  0.42445452  1
  Al  Al77  1  0.91537468  0.42519135  0.91763278  1
  Al  Al78  1  0.92021033  0.91348287  0.41598064  1
  Al  Al79  1  0.91308547  0.90310502  0.92631670  1
  Al  Al80  1  0.07773423  0.41996092  0.08356432  1
  Al  Al81  1  0.08748069  0.42788505  0.58539375  1
  Al  Al82  1  0.08413387  0.90916570  0.08863517  1
  Al  Al83  1  0.08731293  0.91019478  0.57602853  1
  Al  Al84  1  0.58249065  0.42796291  0.07202344  1
  Al  Al85  1  0.59059510  0.41949593  0.58811036  1
  Al  Al86  1  0.57903327  0.90570101  0.08474197  1
  Al  Al87  1  0.58967897  0.90593420  0.57734819  1
  Al  Al88  1  0.41240617  0.07050192  0.08507546  1
  Al  Al89  1  0.42139115  0.07509944  0.57914707  1
  Al  Al90  1  0.42133800  0.59075553  0.08915407  1
  Al  Al91  1  0.41576802  0.58178986  0.59127080  1
  Al  Al92  1  0.91236017  0.08561119  0.08207766  1
  Al  Al93  1  0.91342287  0.07778544  0.57913627  1
  Al  Al94  1  0.92127004  0.58843204  0.07747332  1
  Al  Al95  1  0.91540881  0.58385214  0.59108945  1
  Al  Al96  1  0.25204094  0.13160722  0.13415517  1
  Al  Al97  1  0.25001729  0.13531503  0.63630606  1
  Al  Al98  1  0.25255346  0.64002508  0.12828291  1
  Al  Al99  1  0.24632080  0.63682860  0.63797133  1
  Al  Al100  1  0.74876178  0.12718635  0.13452079  1
  Al  Al101  1  0.74953559  0.13638895  0.63500320  1
  Al  Al102  1  0.74878722  0.63900705  0.12415020  1
  Al  Al103  1  0.74720582  0.62939813  0.63850892  1
  Al  Al104  1  0.24781300  0.36682903  0.13545018  1
  Al  Al105  1  0.24847929  0.36688190  0.63396925  1
  Al  Al106  1  0.25519771  0.86362892  0.13325753  1
  Al  Al107  1  0.24900873  0.86198173  0.63879532  1
  Al  Al108  1  0.74960121  0.36471984  0.12745796  1
  Al  Al109  1  0.75021463  0.37289312  0.63339687  1
  Al  Al110  1  0.74833342  0.86551828  0.12584479  1
  Al  Al111  1  0.74749183  0.85984542  0.63261317  1
  Al  Al112  1  0.24886525  0.12784457  0.36293607  1
  Al  Al113  1  0.25094235  0.13655238  0.86532969  1
  Al  Al114  1  0.25388473  0.63793601  0.36312645  1
  Al  Al115  1  0.24911630  0.63698329  0.87268788  1
  Al  Al116  1  0.75459167  0.13360217  0.36680515  1
  Al  Al117  1  0.74806033  0.13453853  0.86366070  1
  Al  Al118  1  0.74460689  0.63541401  0.36142322  1
  Al  Al119  1  0.75062454  0.63220255  0.87041231  1
  Al  Al120  1  0.25056697  0.36647960  0.36465277  1
  Al  Al121  1  0.24720040  0.36990682  0.86467146  1
  Al  Al122  1  0.24996616  0.87193957  0.35982208  1
  Al  Al123  1  0.24923482  0.85826221  0.86610412  1
  Al  Al124  1  0.75217914  0.36782510  0.37008199  1
  Al  Al125  1  0.74937449  0.37315380  0.86895419  1
  Al  Al126  1  0.75117430  0.86267532  0.36757726  1
  Al  Al127  1  0.75034138  0.85765742  0.87299146  1
  Al  Al128  1  0.13681352  0.24918705  0.13472709  1
  Al  Al129  1  0.13329210  0.25107181  0.63508918  1
  Al  Al130  1  0.13638824  0.74979861  0.13380194  1
  Al  Al131  1  0.13376480  0.75343519  0.63501835  1
  Al  Al132  1  0.63832450  0.24936019  0.12752461  1
  Al  Al133  1  0.63499149  0.25539311  0.63449588  1
  Al  Al134  1  0.63419787  0.74916439  0.12589048  1
  Al  Al135  1  0.63307760  0.74741425  0.63866207  1
  Al  Al136  1  0.13613597  0.25169515  0.36303386  1
  Al  Al137  1  0.13577249  0.25030023  0.86699817  1
  Al  Al138  1  0.13676381  0.75458660  0.36594713  1
  Al  Al139  1  0.12880480  0.74545333  0.86700624  1
  Al  Al140  1  0.63684931  0.25242843  0.36536767  1
  Al  Al141  1  0.64062603  0.25219186  0.86920590  1
  Al  Al142  1  0.63501970  0.75186457  0.36725210  1
  Al  Al143  1  0.63539355  0.74518792  0.87241182  1
  Al  Al144  1  0.36209022  0.24951481  0.13676630  1
  Al  Al145  1  0.36498487  0.25180013  0.63896771  1
  Al  Al146  1  0.37040111  0.75041533  0.13053286  1
  Al  Al147  1  0.36480804  0.74831867  0.63635490  1
  Al  Al148  1  0.86218771  0.24677861  0.13506806  1
  Al  Al149  1  0.86134255  0.25679688  0.62995332  1
  Al  Al150  1  0.86176151  0.75423870  0.12485408  1
  Al  Al151  1  0.86365296  0.75105674  0.63783574  1
  Al  Al152  1  0.36234890  0.24839700  0.36074972  1
  Al  Al153  1  0.36642045  0.24885409  0.86354321  1
  Al  Al154  1  0.36493990  0.75259979  0.36319494  1
  Al  Al155  1  0.36824022  0.74841059  0.87125673  1
  Al  Al156  1  0.86284402  0.25161406  0.36977673  1
  Al  Al157  1  0.86112672  0.25283724  0.86326776  1
  Al  Al158  1  0.86457563  0.75322557  0.36395791  1
  Al  Al159  1  0.86683742  0.74547537  0.86825200  1
  Al  Al160  1  0.13544820  0.13392147  0.24900749  1
  Al  Al161  1  0.13231050  0.14015778  0.74868771  1
  Al  Al162  1  0.13518855  0.63904471  0.25030195  1
  Al  Al163  1  0.13340352  0.63696631  0.75079087  1
  Al  Al164  1  0.63964637  0.13489222  0.24775937  1
  Al  Al165  1  0.63563534  0.13764001  0.74987503  1
  Al  Al166  1  0.62783165  0.64394256  0.24519539  1
  Al  Al167  1  0.63366946  0.63202356  0.75674756  1
  Al  Al168  1  0.36330997  0.12562535  0.24789258  1
  Al  Al169  1  0.36657564  0.13409818  0.75057919  1
  Al  Al170  1  0.36911213  0.64158435  0.24725035  1
  Al  Al171  1  0.36841621  0.63807976  0.75556244  1
  Al  Al172  1  0.86241615  0.12832911  0.24764713  1
  Al  Al173  1  0.86734383  0.14268892  0.74544628  1
  Al  Al174  1  0.86251197  0.64131389  0.24571978  1
  Al  Al175  1  0.86120453  0.63096265  0.75201641  1
  Al  Al176  1  0.13615631  0.36676431  0.25138867  1
  Al  Al177  1  0.13585456  0.36938386  0.74507506  1
  Al  Al178  1  0.13463606  0.86310219  0.24655816  1
  Al  Al179  1  0.12715808  0.85881669  0.75420755  1
  Al  Al180  1  0.63873541  0.36480906  0.24964649  1
  Al  Al181  1  0.64008446  0.37355841  0.75148304  1
  Al  Al182  1  0.63542141  0.86072458  0.24234110  1
  Al  Al183  1  0.63259750  0.85686158  0.75706715  1
  Al  Al184  1  0.36293833  0.36697996  0.25033518  1
  Al  Al185  1  0.36442735  0.36674932  0.75217657  1
  Al  Al186  1  0.36592682  0.86806477  0.24493018  1
  Al  Al187  1  0.36719277  0.86023062  0.75494531  1
  Al  Al188  1  0.86287027  0.36333072  0.25134120  1
  Al  Al189  1  0.85911282  0.37501670  0.74987377  1
  Al  Al190  1  0.86040697  0.86797621  0.24420900  1
  Al  Al191  1  0.86882144  0.85906696  0.75495849  1
  Al  Al192  1  0.50074638  0.81893762  0.31194757  1
  Al  Al193  1  0.80830488  0.18054046  -0.00013689  1
  Al  Al194  1  0.00185801  0.67173418  0.32486954  1
  Al  Al195  1  -0.00245592  0.68039079  0.68720303  1
  Al  Al196  1  0.83362799  0.00040881  0.82694517  1
  Al  Al197  1  0.32911924  0.67104030  0.50104540  1
  Al  Al198  1  0.17957603  0.81271818  0.00050121  1
  Al  Al199  1  -0.00189611  0.18319779  0.31672924  1
  Al  Al200  1  0.30902648  0.82292641  0.49893909  1
  Al  Al201  1  0.50203134  0.82153357  0.67954876  1
  Al  Al202  1  0.32738221  0.17057057  0.49931897  1
  Al  Al203  1  0.68141805  -0.00377773  0.31846885  1
  Al  Al204  1  0.17773697  0.68781745  0.50067833  1
  Al  Al205  1  0.18637450  -0.00322234  0.18002683  1
  Al  Al206  1  0.32217419  0.50455923  0.18725457  1
  Al  Al207  1  0.50127894  0.33190520  0.32680067  1
  Al  Al208  1  0.67094945  0.50546241  0.17525867  1
  Al  Al209  1  0.17823425  0.17604335  -0.00223968  1
  Al  Al210  1  0.81834751  -0.00218803  0.67605490  1
  Al  Al211  1  0.17157699  -0.00044541  0.82185884  1
  Al  Al212  1  -0.00051610  0.32889551  0.82717783  1
  Al  Al213  1  0.50396189  0.32030065  0.82028654  1
  Al  Al214  1  0.49702299  0.17752495  0.67661282  1
  Al  Al215  1  0.17360862  -0.00201087  0.67131730  1
  Al  Al216  1  0.49770703  0.17217269  0.17226803  1
  Al  Al217  1  0.17343460  0.17785550  0.49870122  1
  Al  Al218  1  -0.00186302  0.69082252  0.17335694  1
  Al  Al219  1  0.30771585  0.50273701  0.68530857  1
  Al  Al220  1  0.19005526  0.50338601  0.32254199  1
  Al  Al221  1  0.82893392  0.50093046  0.17349394  1
  Al  Al222  1  0.67879350  0.17789836  0.49592824  1
  Al  Al223  1  0.17060954  0.50530947  0.17011385  1
  Al  Al224  1  0.32747541  -0.00295013  0.67221346  1
  Al  Al225  1  -0.00343341  0.32887294  0.67122639  1
  Al  Al226  1  0.82588676  0.68084049  0.50219317  1
  Al  Al227  1  -0.00190097  0.82407597  0.30932852  1
  Al  Al228  1  -0.00011910  0.31648365  0.18302066  1
  Al  Al229  1  0.50115323  0.17106498  0.33123873  1
  Al  Al230  1  0.50051602  0.33410859  0.17158046  1
  Al  Al231  1  0.67111981  0.68138037  0.50158213  1
  Al  Al232  1  0.31997752  0.32842458  0.50052133  1
  Al  Al233  1  -0.00150967  0.17196984  0.82636531  1
  Al  Al234  1  0.32911967  -0.00227188  0.82772473  1
  Al  Al235  1  0.31930120  0.31959122  -0.00100978  1
  Al  Al236  1  0.82472352  0.50002533  0.32907759  1
  Al  Al237  1  0.67410065  -0.00374047  0.81685860  1
  Al  Al238  1  0.17829854  0.50145529  0.81642768  1
  Au  Au239  1  0.49772063  0.67278622  0.32132069  1
  Au  Au240  1  0.00186765  0.15459654  0.66767652  1
  Au  Au241  1  0.82857835  0.50274623  0.82746954  1
  Au  Au242  1  -0.00184295  0.33269860  0.33157137  1
  Au  Au243  1  0.00090059  0.82883150  0.66643714  1
  Au  Au244  1  0.33202179  0.32509050  0.50238899  1
  Au  Au245  1  0.16398724  0.33014068  0.50056815  1
  Au  Au246  1  0.17435964  -0.00734812  0.83727150  1
  Au  Au247  1  0.49933436  0.16901537  0.66763131  1
  Au  Au248  1  0.67405814  0.66891509  0.49988905  1
  Au  Au249  1  0.16889009  0.50436772  0.82470013  1
  Au  Au250  1  0.67556277  0.50274238  0.67833676  1
  Au  Au251  1  0.82645739  0.50079544  0.16090596  1
  Au  Au252  1  0.16172869  -0.00130865  0.32666633  1
  Au  Au253  1  0.50114854  0.15885449  0.32869575  1
  Au  Au254  1  -0.00238746  0.81735036  0.83772867  1
  Au  Au255  1  0.49864291  0.34300380  0.67446300  1
  Au  Au256  1  0.82857813  0.50560201  0.33956447  1
  Au  Au257  1  -0.00678393  0.34502863  0.67115670  1
  Au  Au258  1  0.16944212  0.16726426  0.00012790  1
  Au  Au259  1  0.83638971  0.17779234  0.50105682  1
  Au  Au260  1  0.34289809  0.50196677  0.82908602  1
  Au  Au261  1  0.50001042  0.83073057  0.67134015  1
  Au  Au262  1  0.83236291  -0.00668386  0.16074079  1
  Au  Au263  1  0.33601857  0.16862613  -0.00003168  1
  Au  Au264  1  0.50028598  0.33216558  0.15906934  1
  Au  Au265  1  0.32942096  0.66511363  0.00020071  1
  Au  Au266  1  0.50472543  0.17111366  0.84014722  1
  Au  Au267  1  0.82741800  0.83041890  0.50055716  1
  Au  Au268  1  0.49635930  0.33544731  0.33786303  1
  Au  Au269  1  0.00455161  0.67189346  0.33735422  1
  Au  Au270  1  0.67004857  0.16925409  0.49834494  1
  Au  Au271  1  0.82993733  -0.00055196  0.33573432  1
  Au  Au272  1  -0.00230314  0.17529330  0.83900626  1
  Au  Au273  1  0.82573557  -0.00661946  0.83999188  1
  Au  Au274  1  0.32802088  0.83420986  -0.00029106  1
  Au  Au275  1  0.66011058  0.50213142  0.32441934  1
  Au  Au276  1  -0.00011963  0.16701661  0.16874704  1
  Au  Au277  1  0.66993178  -0.00736610  0.66623321  1
  Au  Au278  1  0.66753851  0.32924968  -0.00313948  1
  Au  Au279  1  0.17120036  0.34143782  0.00062565  1
  Au  Au280  1  0.33366789  -0.00391342  0.32221759  1
  Au  Au281  1  0.67969410  0.33547834  0.50132436  1
  Au  Au282  1  0.67011371  0.82592404  -0.00162818  1
  Au  Au283  1  0.50260413  0.16177548  0.16767893  1
  Au  Au284  1  0.49882742  0.66544558  0.68202634  1
  Au  Au285  1  0.83741743  0.32530440  -0.00172805  1
  Au  Au286  1  0.66157228  -0.00381749  0.17034107  1
  Au  Au287  1  0.83077847  0.67401183  -0.00228158  1
