# generated using pymatgen
data_Ca24Ti8Al207Au49
_symmetry_space_group_name_H-M   'P 1'
_cell_length_a   17.31929790
_cell_length_b   17.32024787
_cell_length_c   17.32013836
_cell_angle_alpha   90.00678486
_cell_angle_beta   89.99751130
_cell_angle_gamma   90.00162191
_symmetry_Int_Tables_number   1
_chemical_formula_structural   Ca24Ti8Al207Au49
_chemical_formula_sum   'Ca24 Ti8 Al207 Au49'
_cell_volume   5195.60036288
_cell_formula_units_Z   1
loop_
 _symmetry_equiv_pos_site_id
 _symmetry_equiv_pos_as_xyz
  1  'x, y, z'
loop_
 _atom_site_type_symbol
 _atom_site_label
 _atom_site_symmetry_multiplicity
 _atom_site_fract_x
 _atom_site_fract_y
 _atom_site_fract_z
 _atom_site_occupancy
  Ca  Ca0  1  0.25203707  0.00044544  0.00282979  1
  Ca  Ca1  1  0.25306467  0.00513854  0.49828040  1
  Ca  Ca2  1  0.24946848  0.49825062  0.00241107  1
  Ca  Ca3  1  0.25183524  0.49376767  0.49662895  1
  Ca  Ca4  1  0.74541562  -0.00151272  0.00209837  1
  Ca  Ca5  1  0.74764744  0.00247259  0.49748764  1
  Ca  Ca6  1  0.75034278  0.50321154  0.00214299  1
  Ca  Ca7  1  0.75027172  0.49848241  0.49675295  1
  Ca  Ca8  1  0.00385610  0.25553597  0.00464550  1
  Ca  Ca9  1  0.00284692  0.25469159  0.49060918  1
  Ca  Ca10  1  0.00290518  0.74700726  0.00669340  1
  Ca  Ca11  1  -0.00338527  0.74754329  0.49255724  1
  Ca  Ca12  1  0.49624041  0.24954908  -0.00140379  1
  Ca  Ca13  1  0.49478750  0.25122201  0.49958795  1
  Ca  Ca14  1  0.50025921  0.75092238  0.00124815  1
  Ca  Ca15  1  0.50770272  0.74503818  0.49753404  1
  Ca  Ca16  1  0.00342853  0.00108182  0.24887896  1
  Ca  Ca17  1  0.00039931  0.00299799  0.74866383  1
  Ca  Ca18  1  0.00018772  0.49862740  0.24801786  1
  Ca  Ca19  1  -0.00288384  0.49984521  0.75397231  1
  Ca  Ca20  1  0.49640108  0.00236265  0.25087458  1
  Ca  Ca21  1  0.50006970  0.00167590  0.75236627  1
  Ca  Ca22  1  0.50102449  0.49838451  0.25684676  1
  Ca  Ca23  1  0.50243263  0.49860218  0.74992318  1
  Ti  Ti24  1  0.24957081  0.25123444  0.24721562  1
  Ti  Ti25  1  0.25177060  0.25124725  0.75220926  1
  Ti  Ti26  1  0.25186417  0.74946849  0.24936123  1
  Ti  Ti27  1  0.25248543  0.74856049  0.75287227  1
  Ti  Ti28  1  0.75217080  0.25144599  0.25045981  1
  Ti  Ti29  1  0.74924773  0.25029244  0.75007819  1
  Ti  Ti30  1  0.74969425  0.74851204  0.25082625  1
  Ti  Ti31  1  0.74797400  0.75005211  0.74880671  1
  Al  Al32  1  0.08909968  0.08795700  0.10067490  1
  Al  Al33  1  0.08703934  0.08348799  0.57445908  1
  Al  Al34  1  0.08539032  0.58900323  0.08528042  1
  Al  Al35  1  0.07532795  0.56556300  0.57512688  1
  Al  Al36  1  0.57338879  0.07766402  0.08038523  1
  Al  Al37  1  0.58523977  0.08895543  0.57960260  1
  Al  Al38  1  0.59010846  0.58155068  0.08184026  1
  Al  Al39  1  0.59031584  0.58797700  0.57828502  1
  Al  Al40  1  0.40802987  0.41859388  0.08047205  1
  Al  Al41  1  0.41421270  0.40611630  0.58244182  1
  Al  Al42  1  0.41415715  0.91614513  0.08139700  1
  Al  Al43  1  0.41502331  0.93072916  0.58912952  1
  Al  Al44  1  0.91892455  0.41505896  0.08540819  1
  Al  Al45  1  0.91990209  0.42114236  0.58110614  1
  Al  Al46  1  0.92286896  0.91138090  0.08763535  1
  Al  Al47  1  0.90755152  0.92138172  0.56992329  1
  Al  Al48  1  0.40880665  0.09116777  0.42067798  1
  Al  Al49  1  0.41323956  0.08691583  0.92328635  1
  Al  Al50  1  0.41545385  0.56903063  0.41241042  1
  Al  Al51  1  0.41767432  0.59113268  0.91326618  1
  Al  Al52  1  0.91948801  0.09775912  0.41032276  1
  Al  Al53  1  0.91528221  0.08100928  0.92247720  1
  Al  Al54  1  0.90203804  0.58125929  0.41037680  1
  Al  Al55  1  0.91017381  0.57027953  0.91973783  1
  Al  Al56  1  0.08787122  0.40909925  0.40251684  1
  Al  Al57  1  0.09370119  0.41629160  0.92018723  1
  Al  Al58  1  0.08037105  0.92663045  0.39728141  1
  Al  Al59  1  0.09051786  0.92171444  0.93015033  1
  Al  Al60  1  0.58636657  0.42098101  0.41501910  1
  Al  Al61  1  0.57801096  0.41950576  0.91448798  1
  Al  Al62  1  0.58613106  0.92062873  0.41689290  1
  Al  Al63  1  0.59155158  0.91660442  0.91677550  1
  Al  Al64  1  0.08474190  0.09098284  0.39951298  1
  Al  Al65  1  0.08452065  0.08087918  0.92721950  1
  Al  Al66  1  0.07940220  0.56973308  0.40468245  1
  Al  Al67  1  0.09931024  0.57689282  0.92448367  1
  Al  Al68  1  0.58897271  0.08586477  0.41802075  1
  Al  Al69  1  0.58639997  0.07643529  0.91321391  1
  Al  Al70  1  0.60129347  0.58269002  0.41618822  1
  Al  Al71  1  0.58174923  0.59048873  0.91182812  1
  Al  Al72  1  0.40256173  0.40772365  0.41788986  1
  Al  Al73  1  0.41476364  0.41215180  0.91589769  1
  Al  Al74  1  0.42097118  0.92627530  0.41680804  1
  Al  Al75  1  0.41386733  0.91768104  0.92311402  1
  Al  Al76  1  0.91847045  0.41775752  0.40361811  1
  Al  Al77  1  0.91176940  0.41559352  0.91917912  1
  Al  Al78  1  0.91910615  0.90938573  0.41223779  1
  Al  Al79  1  0.90953832  0.92336027  0.92651296  1
  Al  Al80  1  0.08785660  0.41119313  0.08349107  1
  Al  Al81  1  0.08238406  0.40984932  0.57758726  1
  Al  Al82  1  0.08826325  0.90947019  0.09654653  1
  Al  Al83  1  0.08305719  0.93103904  0.58003726  1
  Al  Al84  1  0.58868751  0.42498618  0.08397665  1
  Al  Al85  1  0.57671031  0.41309579  0.58495847  1
  Al  Al86  1  0.58290707  0.91138441  0.07751679  1
  Al  Al87  1  0.58298332  0.92097881  0.57764446  1
  Al  Al88  1  0.41157400  0.08797599  0.08218323  1
  Al  Al89  1  0.40595497  0.09102330  0.58406174  1
  Al  Al90  1  0.41066999  0.58104590  0.08000904  1
  Al  Al91  1  0.42974963  0.57002084  0.58111123  1
  Al  Al92  1  0.92736186  0.08860235  0.09132325  1
  Al  Al93  1  0.90915348  0.08258457  0.57050113  1
  Al  Al94  1  0.92305864  0.58139289  0.08838410  1
  Al  Al95  1  0.90027288  0.58362151  0.57195434  1
  Al  Al96  1  0.24817231  0.13002484  0.13913236  1
  Al  Al97  1  0.25609377  0.13798268  0.63181418  1
  Al  Al98  1  0.24856675  0.62881814  0.13484665  1
  Al  Al99  1  0.24941222  0.63246911  0.63623935  1
  Al  Al100  1  0.75251259  0.13635457  0.13301711  1
  Al  Al101  1  0.74617484  0.13621590  0.63234896  1
  Al  Al102  1  0.75060130  0.63508144  0.13748587  1
  Al  Al103  1  0.74953250  0.63397381  0.63006375  1
  Al  Al104  1  0.24705807  0.36806155  0.13230851  1
  Al  Al105  1  0.25182000  0.36546166  0.63340159  1
  Al  Al106  1  0.25081448  0.87089487  0.13631337  1
  Al  Al107  1  0.25414658  0.86488692  0.63343328  1
  Al  Al108  1  0.75378264  0.36611998  0.14007796  1
  Al  Al109  1  0.75186735  0.36618524  0.62994329  1
  Al  Al110  1  0.74578905  0.86841358  0.13559835  1
  Al  Al111  1  0.74579956  0.86552136  0.63127357  1
  Al  Al112  1  0.24722647  0.13040238  0.35778080  1
  Al  Al113  1  0.25602368  0.13656434  0.87200183  1
  Al  Al114  1  0.25292696  0.63225452  0.36338164  1
  Al  Al115  1  0.24979575  0.62653506  0.86841453  1
  Al  Al116  1  0.75387431  0.13711422  0.36233150  1
  Al  Al117  1  0.74605637  0.13142208  0.86643946  1
  Al  Al118  1  0.74973000  0.63207085  0.36838964  1
  Al  Al119  1  0.75141232  0.63461365  0.86526673  1
  Al  Al120  1  0.24898822  0.36614893  0.36141250  1
  Al  Al121  1  0.25381934  0.37033533  0.86988950  1
  Al  Al122  1  0.24580163  0.87311427  0.35925383  1
  Al  Al123  1  0.25483507  0.86433713  0.87208072  1
  Al  Al124  1  0.75403357  0.36831111  0.36511447  1
  Al  Al125  1  0.75028016  0.36601726  0.86448091  1
  Al  Al126  1  0.75091097  0.86249063  0.36509849  1
  Al  Al127  1  0.74586986  0.86840531  0.86770052  1
  Al  Al128  1  0.12965480  0.25095012  0.13991583  1
  Al  Al129  1  0.13882494  0.25103079  0.63523728  1
  Al  Al130  1  0.13811206  0.74824288  0.13657394  1
  Al  Al131  1  0.13681516  0.74721152  0.64060526  1
  Al  Al132  1  0.63781275  0.25183310  0.13419911  1
  Al  Al133  1  0.63441157  0.25092578  0.63428621  1
  Al  Al134  1  0.63419036  0.74941247  0.13699364  1
  Al  Al135  1  0.63720577  0.74735613  0.62880592  1
  Al  Al136  1  0.13178065  0.25082638  0.35908167  1
  Al  Al137  1  0.13701417  0.25633725  0.87162554  1
  Al  Al138  1  0.13724663  0.74781809  0.35947127  1
  Al  Al139  1  0.13918681  0.74420678  0.87152011  1
  Al  Al140  1  0.63661047  0.24659284  0.36719695  1
  Al  Al141  1  0.63611366  0.25085624  0.86507860  1
  Al  Al142  1  0.63498445  0.74683941  0.37044892  1
  Al  Al143  1  0.63532371  0.74987118  0.86341124  1
  Al  Al144  1  0.35931103  0.25065500  0.12990163  1
  Al  Al145  1  0.36452781  0.25384155  0.63222646  1
  Al  Al146  1  0.36291505  0.75066623  0.13490673  1
  Al  Al147  1  0.36367017  0.74636293  0.63815377  1
  Al  Al148  1  0.87331932  0.25054437  0.14178349  1
  Al  Al149  1  0.86212157  0.25164036  0.63626064  1
  Al  Al150  1  0.86382700  0.75165203  0.13916580  1
  Al  Al151  1  0.86117068  0.74633585  0.63559094  1
  Al  Al152  1  0.35973780  0.24910761  0.36654871  1
  Al  Al153  1  0.36359645  0.25241090  0.87066202  1
  Al  Al154  1  0.36866364  0.75081736  0.36152902  1
  Al  Al155  1  0.36589843  0.74863473  0.86672908  1
  Al  Al156  1  0.87054760  0.25306740  0.36074752  1
  Al  Al157  1  0.86638439  0.25066973  0.86409828  1
  Al  Al158  1  0.86423717  0.74196419  0.36512675  1
  Al  Al159  1  0.86139292  0.75259849  0.86277014  1
  Al  Al160  1  0.13163033  0.13606953  0.24960134  1
  Al  Al161  1  0.14061774  0.13954381  0.75569974  1
  Al  Al162  1  0.13704227  0.62775092  0.24980788  1
  Al  Al163  1  0.13643141  0.62990261  0.75590847  1
  Al  Al164  1  0.63650329  0.13679438  0.25057386  1
  Al  Al165  1  0.63557882  0.13190944  0.74885737  1
  Al  Al166  1  0.63373310  0.63310418  0.25682615  1
  Al  Al167  1  0.63663509  0.63580707  0.75030408  1
  Al  Al168  1  0.36268648  0.13172501  0.25197433  1
  Al  Al169  1  0.36230400  0.13149984  0.74862118  1
  Al  Al170  1  0.36496762  0.62950367  0.24926271  1
  Al  Al171  1  0.36579578  0.63342366  0.75700706  1
  Al  Al172  1  0.87173174  0.13495276  0.25074247  1
  Al  Al173  1  0.86066194  0.13261299  0.75419002  1
  Al  Al174  1  0.86121639  0.62455250  0.25328273  1
  Al  Al175  1  0.86123762  0.62779474  0.74950195  1
  Al  Al176  1  0.13164166  0.36947804  0.24898053  1
  Al  Al177  1  0.13839909  0.36738266  0.75811118  1
  Al  Al178  1  0.13473036  0.86641450  0.24575043  1
  Al  Al179  1  0.14006586  0.86171217  0.75495725  1
  Al  Al180  1  0.63680962  0.36533217  0.25617615  1
  Al  Al181  1  0.63610939  0.36505105  0.74680075  1
  Al  Al182  1  0.63460881  0.86213915  0.25309771  1
  Al  Al183  1  0.63522577  0.87033132  0.75177238  1
  Al  Al184  1  0.36086122  0.36974574  0.25058630  1
  Al  Al185  1  0.36457569  0.36282040  0.75043926  1
  Al  Al186  1  0.36221771  0.87309870  0.25104411  1
  Al  Al187  1  0.36477170  0.87125270  0.75290759  1
  Al  Al188  1  0.87254549  0.36921903  0.25171438  1
  Al  Al189  1  0.86190958  0.37057298  0.75150899  1
  Al  Al190  1  0.86578238  0.86367094  0.25016493  1
  Al  Al191  1  0.86037683  0.86706676  0.74949862  1
  Al  Al192  1  0.49900125  0.17266456  0.82884865  1
  Al  Al193  1  0.33121789  0.66948105  0.50135720  1
  Al  Al194  1  0.50019458  0.82467381  0.82814762  1
  Al  Al195  1  0.49727403  0.17366275  0.18220621  1
  Al  Al196  1  0.68009263  0.50068301  0.82675363  1
  Al  Al197  1  0.82100192  0.00115825  0.67978314  1
  Al  Al198  1  0.16729794  0.66774326  0.49715236  1
  Al  Al199  1  0.68287020  0.50074229  0.18924255  1
  Al  Al200  1  0.18388721  0.18476126  0.00508431  1
  Al  Al201  1  0.00033674  0.68777615  0.18319925  1
  Al  Al202  1  0.81984747  0.32038048  0.00283966  1
  Al  Al203  1  0.50091851  0.32450341  0.81345623  1
  Al  Al204  1  0.68215851  0.00070459  0.31875419  1
  Al  Al205  1  0.18428186  0.32561444  0.49638144  1
  Al  Al206  1  0.67805673  0.32046616  0.50011515  1
  Al  Al207  1  0.00037546  0.32592544  0.68169637  1
  Al  Al208  1  0.49849696  0.67139204  0.17550137  1
  Al  Al209  1  0.81056933  0.18565563  0.49783006  1
  Al  Al210  1  0.18482240  0.81620920  0.00485428  1
  Al  Al211  1  0.32886245  0.82652231  0.50169668  1
  Al  Al212  1  0.82807997  0.00281557  0.17991764  1
  Al  Al213  1  -0.00281511  0.66877674  0.66817090  1
  Al  Al214  1  0.49979421  0.82775372  0.67507025  1
  Al  Al215  1  0.00139777  0.66841271  0.83647538  1
  Al  Al216  1  0.18130676  0.00076225  0.82688037  1
  Al  Al217  1  0.49779315  0.32069806  0.32914632  1
  Al  Al218  1  0.00086008  0.82831286  0.83275713  1
  Al  Al219  1  0.67485385  0.17538261  0.00319611  1
  Al  Al220  1  0.67728993  0.49969162  0.67225412  1
  Al  Al221  1  0.32828321  0.49918557  0.68013568  1
  Al  Al222  1  0.31032070  0.68633678  0.00096407  1
  Al  Al223  1  0.17221799  0.49700830  0.68151241  1
  Al  Al224  1  0.82937378  0.67018086  0.00185587  1
  Al  Al225  1  0.50054311  0.67031439  0.68347696  1
  Al  Al226  1  0.81959232  0.81136061  0.49821311  1
  Al  Al227  1  0.00120871  0.17796651  0.83173849  1
  Al  Al228  1  0.00075937  0.81575099  0.30948127  1
  Al  Al229  1  -0.00185711  0.16913347  0.66945746  1
  Al  Al230  1  0.18588531  0.00302091  0.67279140  1
  Al  Al231  1  0.49960744  0.32363084  0.17586857  1
  Al  Al232  1  0.19146352  0.17341919  0.49501202  1
  Al  Al233  1  0.49861814  0.18988366  0.67386054  1
  Al  Al234  1  0.49732154  0.82745347  0.17872759  1
  Al  Al235  1  0.67646503  0.68682388  -0.00003308  1
  Al  Al236  1  0.16730875  0.83191808  0.49549730  1
  Al  Al237  1  -0.00118587  0.82992967  0.67115136  1
  Al  Al238  1  0.81496985  0.82442538  0.00249705  1
  Au  Au239  1  0.00099309  0.16550894  0.82961830  1
  Au  Au240  1  -0.00304562  0.66649569  0.32936320  1
  Au  Au241  1  0.50026695  0.82175145  0.84066650  1
  Au  Au242  1  0.84141918  0.17504650  0.00677038  1
  Au  Au243  1  0.16494007  0.49974758  0.17268367  1
  Au  Au244  1  0.66545764  0.00200245  0.67194318  1
  Au  Au245  1  0.33819477  0.83479261  0.50009402  1
  Au  Au246  1  0.33576783  0.00245079  0.82939667  1
  Au  Au247  1  0.50130656  0.83900594  0.32725664  1
  Au  Au248  1  0.32229047  0.00289992  0.33426920  1
  Au  Au249  1  0.50036576  0.33664115  0.16574800  1
  Au  Au250  1  0.83253221  0.00178192  0.33612276  1
  Au  Au251  1  0.82760119  0.49845020  0.67149100  1
  Au  Au252  1  0.65906801  -0.00247450  0.17178761  1
  Au  Au253  1  0.81905259  0.00093828  0.83662476  1
  Au  Au254  1  0.50248522  0.66145252  0.33836526  1
  Au  Au255  1  0.00170475  0.34228900  0.83144771  1
  Au  Au256  1  0.00319015  0.65441335  0.84433076  1
  Au  Au257  1  0.00152847  0.32568266  0.17226769  1
  Au  Au258  1  0.83020765  0.49906221  0.17451774  1
  Au  Au259  1  0.84149059  0.32975419  0.49501026  1
  Au  Au260  1  0.32348942  0.32579331  0.00020757  1
  Au  Au261  1  0.49760623  0.17358998  0.67140534  1
  Au  Au262  1  0.32427840  0.67682421  -0.00074800  1
  Au  Au263  1  0.50024041  0.16919256  0.33601745  1
  Au  Au264  1  -0.00305310  0.84364573  0.66087001  1
  Au  Au265  1  0.67315135  0.82669152  0.49768226  1
  Au  Au266  1  0.33209835  0.50013145  0.83057200  1
  Au  Au267  1  0.17454005  0.82650646  0.00548461  1
  Au  Au268  1  0.16832716  0.49553027  0.66934755  1
  Au  Au269  1  0.49904862  0.82439081  0.66281344  1
  Au  Au270  1  0.32440792  0.00083560  0.16312171  1
  Au  Au271  1  -0.00396761  0.66496122  0.65258056  1
  Au  Au272  1  0.50293265  0.66806495  0.16406124  1
  Au  Au273  1  0.16974287  0.00079921  0.82142230  1
  Au  Au274  1  0.33039972  0.49964854  0.17804494  1
  Au  Au275  1  0.17495699  0.17241281  0.49435393  1
  Au  Au276  1  0.82579612  0.00134183  0.66817127  1
  Au  Au277  1  0.66597574  0.16668193  0.00126446  1
  Au  Au278  1  -0.00050039  0.84465389  0.83894622  1
  Au  Au279  1  0.17206636  0.17249184  0.00692730  1
  Au  Au280  1  0.67284295  0.34070013  -0.00236098  1
  Au  Au281  1  0.16739061  0.65240251  0.49277284  1
  Au  Au282  1  0.16576562  0.84804122  0.48964814  1
  Au  Au283  1  0.34072371  0.66154711  0.49974990  1
  Au  Au284  1  0.66624149  0.32555740  0.50038809  1
  Au  Au285  1  -0.00330200  0.17590594  0.65361457  1
  Au  Au286  1  0.83809144  -0.00247130  0.17470650  1
  Au  Au287  1  0.82708372  0.81996132  0.00403297  1
