# generated using pymatgen
data_Ca24Ti8Al207Au49
_symmetry_space_group_name_H-M   'P 1'
_cell_length_a   17.31926700
_cell_length_b   17.31793974
_cell_length_c   17.31820530
_cell_angle_alpha   89.99999286
_cell_angle_beta   89.99768885
_cell_angle_gamma   89.99195377
_symmetry_Int_Tables_number   1
_chemical_formula_structural   Ca24Ti8Al207Au49
_chemical_formula_sum   'Ca24 Ti8 Al207 Au49'
_cell_volume   5194.31891966
_cell_formula_units_Z   1
loop_
 _symmetry_equiv_pos_site_id
 _symmetry_equiv_pos_as_xyz
  1  'x, y, z'
loop_
 _atom_site_type_symbol
 _atom_site_label
 _atom_site_symmetry_multiplicity
 _atom_site_fract_x
 _atom_site_fract_y
 _atom_site_fract_z
 _atom_site_occupancy
  Ca  Ca0  1  0.25061946  0.00032893  -0.00242667  1
  Ca  Ca1  1  0.25116293  -0.00550830  0.49818530  1
  Ca  Ca2  1  0.24801715  0.50380971  -0.00144888  1
  Ca  Ca3  1  0.24795264  0.50432206  0.50063689  1
  Ca  Ca4  1  0.75341897  0.00057474  0.00207222  1
  Ca  Ca5  1  0.74952307  -0.00505842  0.50129304  1
  Ca  Ca6  1  0.75005157  0.50188874  0.00025402  1
  Ca  Ca7  1  0.75078445  0.51009995  0.49842412  1
  Ca  Ca8  1  -0.00059569  0.24881562  -0.00569863  1
  Ca  Ca9  1  0.00013522  0.25169966  0.50033755  1
  Ca  Ca10  1  0.00081155  0.74611591  0.00717919  1
  Ca  Ca11  1  0.00491207  0.74534359  0.49181715  1
  Ca  Ca12  1  0.49754261  0.24702438  0.00340562  1
  Ca  Ca13  1  0.50332305  0.24324247  0.49912122  1
  Ca  Ca14  1  0.49669772  0.74746500  0.00194745  1
  Ca  Ca15  1  0.49699235  0.74428783  0.49481121  1
  Ca  Ca16  1  0.00193598  -0.00498208  0.25092000  1
  Ca  Ca17  1  -0.00070571  0.00214943  0.75324673  1
  Ca  Ca18  1  -0.00157297  0.50422864  0.24854833  1
  Ca  Ca19  1  0.00012688  0.49766507  0.75273450  1
  Ca  Ca20  1  0.49870864  -0.00670718  0.25159965  1
  Ca  Ca21  1  0.50077462  -0.00391999  0.75232163  1
  Ca  Ca22  1  0.50130133  0.50479357  0.25135022  1
  Ca  Ca23  1  0.50039656  0.50342658  0.75255233  1
  Ti  Ti24  1  0.24852510  0.25065982  0.24822997  1
  Ti  Ti25  1  0.24974598  0.25084878  0.75161255  1
  Ti  Ti26  1  0.24971602  0.75008024  0.25026444  1
  Ti  Ti27  1  0.25159035  0.74858655  0.75018364  1
  Ti  Ti28  1  0.75171861  0.25232401  0.25031006  1
  Ti  Ti29  1  0.75115560  0.25117682  0.75027668  1
  Ti  Ti30  1  0.74914784  0.74797031  0.25016919  1
  Ti  Ti31  1  0.74790505  0.74768228  0.74935089  1
  Al  Al32  1  0.08129580  0.07982635  0.08196622  1
  Al  Al33  1  0.07279332  0.08126055  0.58645384  1
  Al  Al34  1  0.08259810  0.58912772  0.08787454  1
  Al  Al35  1  0.08826988  0.57889813  0.58253078  1
  Al  Al36  1  0.58247707  0.07779690  0.08133376  1
  Al  Al37  1  0.57986709  0.07668360  0.57628432  1
  Al  Al38  1  0.57916223  0.58460427  0.08778953  1
  Al  Al39  1  0.59508972  0.59065226  0.58011040  1
  Al  Al40  1  0.40654443  0.43213113  0.08527620  1
  Al  Al41  1  0.41888772  0.42814333  0.58268852  1
  Al  Al42  1  0.41188823  0.91531297  0.09057594  1
  Al  Al43  1  0.41894983  0.90673431  0.58605920  1
  Al  Al44  1  0.91860467  0.42019384  0.08037982  1
  Al  Al45  1  0.91893068  0.41384633  0.58534425  1
  Al  Al46  1  0.92254975  0.91055131  0.09138872  1
  Al  Al47  1  0.92032277  0.92349783  0.57429723  1
  Al  Al48  1  0.42006643  0.08475664  0.41130895  1
  Al  Al49  1  0.41207467  0.07825960  0.90934062  1
  Al  Al50  1  0.41680496  0.59652577  0.41288549  1
  Al  Al51  1  0.40564566  0.58891356  0.91816757  1
  Al  Al52  1  0.91649938  0.09251127  0.42432732  1
  Al  Al53  1  0.92180679  0.08918211  0.91512213  1
  Al  Al54  1  0.91205941  0.59517018  0.41236608  1
  Al  Al55  1  0.91623890  0.58163104  0.92373370  1
  Al  Al56  1  0.07812204  0.42733535  0.41703881  1
  Al  Al57  1  0.08845758  0.41430746  0.90689306  1
  Al  Al58  1  0.09303632  0.90584589  0.40695043  1
  Al  Al59  1  0.09639092  0.92517103  0.91943229  1
  Al  Al60  1  0.58710218  0.43359527  0.41014505  1
  Al  Al61  1  0.59355729  0.42272376  0.91602685  1
  Al  Al62  1  0.57813859  0.91592024  0.41242128  1
  Al  Al63  1  0.57787404  0.91113151  0.92328664  1
  Al  Al64  1  0.08501575  0.06843548  0.40987126  1
  Al  Al65  1  0.08536731  0.08533107  0.90377884  1
  Al  Al66  1  0.07882976  0.58967947  0.41065051  1
  Al  Al67  1  0.09429419  0.57761076  0.91206821  1
  Al  Al68  1  0.57902598  0.08233225  0.40954801  1
  Al  Al69  1  0.57464336  0.08334525  0.92114787  1
  Al  Al70  1  0.59067569  0.59398165  0.41074222  1
  Al  Al71  1  0.58253229  0.58192413  0.91156367  1
  Al  Al72  1  0.42369167  0.42644056  0.42139918  1
  Al  Al73  1  0.40831946  0.42743481  0.91380338  1
  Al  Al74  1  0.41867447  0.90933576  0.41143727  1
  Al  Al75  1  0.40884686  0.91766969  0.91017661  1
  Al  Al76  1  0.91355351  0.42065180  0.42154548  1
  Al  Al77  1  0.92305978  0.41291897  0.91020259  1
  Al  Al78  1  0.93180850  0.90873444  0.41380697  1
  Al  Al79  1  0.91892868  0.92602198  0.92726023  1
  Al  Al80  1  0.08474330  0.42062296  0.07771711  1
  Al  Al81  1  0.07819199  0.41814178  0.59915738  1
  Al  Al82  1  0.08296868  0.90972808  0.08390984  1
  Al  Al83  1  0.09065975  0.91461097  0.56821743  1
  Al  Al84  1  0.59113629  0.42606188  0.07575158  1
  Al  Al85  1  0.58675879  0.43282052  0.58873837  1
  Al  Al86  1  0.57994452  0.91055241  0.08361501  1
  Al  Al87  1  0.57482770  0.90839297  0.58562717  1
  Al  Al88  1  0.41021774  0.07357603  0.08516711  1
  Al  Al89  1  0.41968813  0.07434557  0.57587846  1
  Al  Al90  1  0.40773158  0.59217637  0.08598625  1
  Al  Al91  1  0.41038516  0.58891745  0.57676864  1
  Al  Al92  1  0.91909123  0.08356883  0.07986622  1
  Al  Al93  1  0.91271173  0.09740917  0.58439640  1
  Al  Al94  1  0.91882007  0.59115682  0.08537806  1
  Al  Al95  1  0.91067128  0.58676401  0.57481225  1
  Al  Al96  1  0.25201418  0.13201920  0.13073794  1
  Al  Al97  1  0.24446063  0.13472221  0.63776060  1
  Al  Al98  1  0.25179120  0.63120965  0.13181334  1
  Al  Al99  1  0.25170716  0.63538522  0.62933882  1
  Al  Al100  1  0.74657130  0.13652720  0.13733183  1
  Al  Al101  1  0.75554746  0.13090605  0.63537524  1
  Al  Al102  1  0.74897809  0.63579430  0.13674728  1
  Al  Al103  1  0.74567211  0.63150083  0.63358404  1
  Al  Al104  1  0.24911987  0.37244370  0.13699139  1
  Al  Al105  1  0.24920632  0.36622922  0.63409105  1
  Al  Al106  1  0.25334335  0.86728471  0.13789614  1
  Al  Al107  1  0.24834006  0.86447255  0.63294864  1
  Al  Al108  1  0.75334217  0.36728304  0.13731570  1
  Al  Al109  1  0.74859066  0.36766874  0.63746496  1
  Al  Al110  1  0.74919180  0.86189752  0.13999578  1
  Al  Al111  1  0.74767037  0.86859024  0.63624271  1
  Al  Al112  1  0.24729452  0.13280087  0.36239187  1
  Al  Al113  1  0.24844294  0.13249647  0.86890119  1
  Al  Al114  1  0.25130780  0.63845834  0.37156872  1
  Al  Al115  1  0.25317384  0.63207888  0.86876758  1
  Al  Al116  1  0.75602907  0.13703722  0.36381168  1
  Al  Al117  1  0.75049677  0.13626388  0.86395188  1
  Al  Al118  1  0.74733968  0.63157565  0.36453581  1
  Al  Al119  1  0.74508948  0.62914911  0.86249582  1
  Al  Al120  1  0.24846078  0.36454755  0.36395004  1
  Al  Al121  1  0.24972893  0.36918358  0.86469305  1
  Al  Al122  1  0.24729180  0.86646582  0.36695119  1
  Al  Al123  1  0.25369811  0.86796037  0.86503674  1
  Al  Al124  1  0.75190920  0.37010539  0.36291404  1
  Al  Al125  1  0.75148039  0.37004825  0.86116116  1
  Al  Al126  1  0.74570492  0.85985010  0.36384321  1
  Al  Al127  1  0.75017247  0.86226034  0.86240092  1
  Al  Al128  1  0.13873529  0.24744815  0.13481879  1
  Al  Al129  1  0.13424494  0.25557584  0.63617196  1
  Al  Al130  1  0.13830269  0.74826894  0.13518556  1
  Al  Al131  1  0.14031121  0.74733442  0.62935413  1
  Al  Al132  1  0.63370783  0.25214297  0.13710227  1
  Al  Al133  1  0.63620586  0.24616965  0.63679583  1
  Al  Al134  1  0.63247864  0.74750879  0.13669551  1
  Al  Al135  1  0.63572576  0.74785539  0.63251428  1
  Al  Al136  1  0.12974648  0.25388336  0.36388732  1
  Al  Al137  1  0.13608096  0.24749191  0.86511207  1
  Al  Al138  1  0.13673281  0.75058819  0.36993977  1
  Al  Al139  1  0.14090762  0.74588187  0.86733177  1
  Al  Al140  1  0.63493384  0.24328656  0.36351315  1
  Al  Al141  1  0.63735631  0.25048787  0.86259758  1
  Al  Al142  1  0.63110954  0.74478326  0.36507297  1
  Al  Al143  1  0.63429573  0.74879232  0.86279677  1
  Al  Al144  1  0.36164797  0.24959138  0.12859456  1
  Al  Al145  1  0.36735391  0.25203099  0.64142596  1
  Al  Al146  1  0.36246365  0.75017763  0.12904628  1
  Al  Al147  1  0.36496653  0.74987989  0.63500926  1
  Al  Al148  1  0.86638124  0.25471581  0.13630650  1
  Al  Al149  1  0.86502555  0.25098960  0.63649789  1
  Al  Al150  1  0.86733599  0.74772998  0.13815042  1
  Al  Al151  1  0.86057957  0.74395197  0.63264403  1
  Al  Al152  1  0.36455124  0.24862518  0.36141971  1
  Al  Al153  1  0.35987552  0.25052343  0.87151770  1
  Al  Al154  1  0.36621098  0.74896386  0.36462194  1
  Al  Al155  1  0.36105523  0.75018050  0.87262929  1
  Al  Al156  1  0.87018071  0.25165026  0.36342534  1
  Al  Al157  1  0.86529859  0.25145291  0.86411722  1
  Al  Al158  1  0.86253364  0.74376517  0.36517124  1
  Al  Al159  1  0.86279362  0.74929777  0.86279612  1
  Al  Al160  1  0.13641846  0.13194017  0.25196455  1
  Al  Al161  1  0.13209020  0.13434553  0.75525669  1
  Al  Al162  1  0.13667143  0.63739599  0.24732783  1
  Al  Al163  1  0.13909505  0.63637457  0.75163291  1
  Al  Al164  1  0.63440293  0.13468825  0.25067615  1
  Al  Al165  1  0.63724724  0.13258484  0.74570584  1
  Al  Al166  1  0.63219426  0.63314279  0.25512310  1
  Al  Al167  1  0.63331014  0.63027155  0.74705208  1
  Al  Al168  1  0.36154220  0.13361363  0.24947493  1
  Al  Al169  1  0.36012380  0.13401875  0.75404707  1
  Al  Al170  1  0.36272166  0.63621416  0.24890999  1
  Al  Al171  1  0.36348074  0.62989567  0.75003169  1
  Al  Al172  1  0.86733411  0.13805464  0.24934027  1
  Al  Al173  1  0.86780742  0.13598473  0.75141436  1
  Al  Al174  1  0.86331394  0.62808016  0.25081581  1
  Al  Al175  1  0.86297018  0.63308243  0.75005153  1
  Al  Al176  1  0.12898918  0.36489947  0.24604312  1
  Al  Al177  1  0.13643458  0.36686628  0.75368650  1
  Al  Al178  1  0.13540993  0.86668470  0.25395198  1
  Al  Al179  1  0.13848321  0.86389274  0.75736769  1
  Al  Al180  1  0.63461162  0.36660362  0.25489779  1
  Al  Al181  1  0.63561019  0.37005682  0.74927429  1
  Al  Al182  1  0.62696614  0.85847019  0.25197171  1
  Al  Al183  1  0.62710034  0.86041335  0.74721400  1
  Al  Al184  1  0.36530910  0.36638526  0.24686867  1
  Al  Al185  1  0.36053546  0.37373134  0.75046326  1
  Al  Al186  1  0.36733910  0.86168925  0.25161054  1
  Al  Al187  1  0.36811470  0.86020372  0.75212866  1
  Al  Al188  1  0.87023381  0.37078091  0.25353869  1
  Al  Al189  1  0.86707753  0.36793032  0.74791901  1
  Al  Al190  1  0.86742884  0.86049493  0.25394349  1
  Al  Al191  1  0.86379991  0.86330321  0.74409000  1
  Al  Al192  1  0.82961480  -0.00081427  0.32646740  1
  Al  Al193  1  0.32266403  0.32795975  0.49826921  1
  Al  Al194  1  0.17807503  0.32118513  -0.00061351  1
  Al  Al195  1  0.68651254  0.17267461  0.49946518  1
  Al  Al196  1  0.49691500  0.16929052  0.18339208  1
  Al  Al197  1  0.32666380  0.17293298  0.50038656  1
  Al  Al198  1  0.00076493  0.19181343  0.69095086  1
  Al  Al199  1  0.82693773  0.31539793  0.50056467  1
  Al  Al200  1  0.67155823  0.81712529  0.49731060  1
  Al  Al201  1  0.49996313  0.33157138  0.82963570  1
  Al  Al202  1  0.32821058  0.50200891  0.31885493  1
  Al  Al203  1  0.31674131  0.81481767  0.49890573  1
  Al  Al204  1  0.49857070  0.17558995  0.81850295  1
  Al  Al205  1  0.00152290  0.17871733  0.17816854  1
  Al  Al206  1  0.00036667  0.69035914  0.30829788  1
  Al  Al207  1  0.66935814  -0.00177301  0.82593580  1
  Al  Al208  1  0.00388670  0.82599448  0.66709123  1
  Al  Al209  1  0.68432795  0.32130698  -0.00055314  1
  Al  Al210  1  0.00342353  0.80918288  0.19059039  1
  Al  Al211  1  0.00052303  0.66911615  0.67295633  1
  Al  Al212  1  0.32580760  -0.00260602  0.68541407  1
  Al  Al213  1  0.49968709  0.33222316  0.16840457  1
  Al  Al214  1  0.17229504  -0.00110691  0.68759716  1
  Al  Al215  1  0.68009266  0.50101521  0.18612489  1
  Al  Al216  1  0.18081718  0.50127682  0.68908194  1
  Al  Al217  1  0.81794317  0.18018379  0.00085609  1
  Al  Al218  1  0.00139023  0.30980922  0.80841292  1
  Al  Al219  1  0.18294033  0.81913291  0.00126903  1
  Al  Al220  1  0.68155122  0.81519859  0.00052564  1
  Al  Al221  1  0.67166354  0.33477080  0.49924699  1
  Al  Al222  1  0.50100421  0.31629554  0.32819515  1
  Al  Al223  1  0.82833830  -0.00012750  0.82070875  1
  Al  Al224  1  0.18235348  -0.00004510  0.18205084  1
  Al  Al225  1  0.16774850  0.17169731  0.49777847  1
  Al  Al226  1  0.17538180  0.50184807  0.31797320  1
  Al  Al227  1  0.81661999  0.68441788  -0.00065937  1
  Al  Al228  1  0.82301293  0.00040213  0.17416910  1
  Al  Al229  1  0.00062365  0.82955959  0.83228030  1
  Al  Al230  1  0.67329870  -0.00258714  0.31695524  1
  Al  Al231  1  0.00079463  0.67151528  0.82841849  1
  Al  Al232  1  0.82530741  0.81618272  0.50020405  1
  Al  Al233  1  0.49635003  0.68099471  0.82563547  1
  Al  Al234  1  0.82411047  0.50096554  0.67628080  1
  Al  Al235  1  0.50007759  0.68008682  0.66963522  1
  Al  Al236  1  0.50331949  0.32446451  0.66788698  1
  Al  Al237  1  0.31761217  -0.00112582  0.31741284  1
  Al  Al238  1  0.49766377  0.68051653  0.18620341  1
  Au  Au239  1  0.15851947  0.34180821  0.50326130  1
  Au  Au240  1  0.82885641  0.83453735  0.00375392  1
  Au  Au241  1  0.33912778  0.32667793  0.50299525  1
  Au  Au242  1  0.00471681  0.81995119  0.65149798  1
  Au  Au243  1  0.49592567  0.15332451  0.17818170  1
  Au  Au244  1  0.82786489  0.50304721  0.16384461  1
  Au  Au245  1  0.17036969  -0.00254839  0.17048052  1
  Au  Au246  1  0.49693828  0.82826951  0.17764008  1
  Au  Au247  1  0.00540487  0.82942978  0.84780654  1
  Au  Au248  1  0.66647570  0.66557735  -0.00118649  1
  Au  Au249  1  0.50169568  0.32736723  0.84684832  1
  Au  Au250  1  0.00064613  0.18484469  0.67542413  1
  Au  Au251  1  0.66460967  -0.00542639  0.66453739  1
  Au  Au252  1  0.84119831  0.81809091  0.49482206  1
  Au  Au253  1  0.33187269  0.82296420  0.49889489  1
  Au  Au254  1  -0.00140278  0.33600352  0.33290342  1
  Au  Au255  1  0.67786284  0.15869159  0.49525332  1
  Au  Au256  1  0.32402645  0.34319091  0.00146973  1
  Au  Au257  1  0.17050550  0.66926926  0.49896953  1
  Au  Au258  1  0.49773191  0.83075685  0.82787686  1
  Au  Au259  1  0.17407827  0.15565590  0.49676539  1
  Au  Au260  1  0.83336419  0.32973872  -0.00343499  1
  Au  Au261  1  0.83067068  -0.00455382  0.34283447  1
  Au  Au262  1  0.67899078  0.34996756  0.49975956  1
  Au  Au263  1  0.50009102  0.66789175  0.66586221  1
  Au  Au264  1  0.00308685  0.32706099  0.15991283  1
  Au  Au265  1  0.17091276  0.50146155  0.16828002  1
  Au  Au266  1  0.82487309  0.50153237  0.83757034  1
  Au  Au267  1  0.82335043  0.50203159  0.33708010  1
  Au  Au268  1  0.82279482  0.50268252  0.66382420  1
  Au  Au269  1  0.17021149  0.67006722  -0.00002131  1
  Au  Au270  1  0.67462636  -0.00144653  0.84197493  1
  Au  Au271  1  0.83876734  0.00148905  0.66950932  1
  Au  Au272  1  0.33284069  0.50305134  0.33279192  1
  Au  Au273  1  0.66557128  0.17403381  -0.00025503  1
  Au  Au274  1  0.16028605  0.17133177  -0.00250711  1
  Au  Au275  1  0.50167692  0.33647704  0.67136719  1
  Au  Au276  1  0.50090219  0.34496482  0.15899904  1
  Au  Au277  1  0.34086483  -0.00344144  0.67760713  1
  Au  Au278  1  0.49841170  0.16176735  0.66887514  1
  Au  Au279  1  0.67226485  -0.00600101  0.16530652  1
  Au  Au280  1  0.33240248  -0.00091853  0.32625720  1
  Au  Au281  1  0.16107375  -0.00360903  0.67441891  1
  Au  Au282  1  0.50442715  0.32776289  0.34062158  1
  Au  Au283  1  0.65471190  0.82026332  0.49651450  1
  Au  Au284  1  0.33000664  0.83157929  0.00099184  1
  Au  Au285  1  0.33294962  0.16375307  -0.00124431  1
  Au  Au286  1  0.32722411  0.50372312  0.67365774  1
  Au  Au287  1  0.00305097  0.16144896  0.32716039  1
