# generated using pymatgen
data_Ca24Ti8Al207Au49
_symmetry_space_group_name_H-M   'P 1'
_cell_length_a   17.32458646
_cell_length_b   17.32486780
_cell_length_c   17.32526612
_cell_angle_alpha   90.00112672
_cell_angle_beta   89.99929689
_cell_angle_gamma   89.99869221
_symmetry_Int_Tables_number   1
_chemical_formula_structural   Ca24Ti8Al207Au49
_chemical_formula_sum   'Ca24 Ti8 Al207 Au49'
_cell_volume   5200.11227094
_cell_formula_units_Z   1
loop_
 _symmetry_equiv_pos_site_id
 _symmetry_equiv_pos_as_xyz
  1  'x, y, z'
loop_
 _atom_site_type_symbol
 _atom_site_label
 _atom_site_symmetry_multiplicity
 _atom_site_fract_x
 _atom_site_fract_y
 _atom_site_fract_z
 _atom_site_occupancy
  Ca  Ca0  1  0.24909947  0.00286728  0.00161760  1
  Ca  Ca1  1  0.25086204  -0.00153246  0.49978221  1
  Ca  Ca2  1  0.24474569  0.49719727  0.00223512  1
  Ca  Ca3  1  0.24589075  0.50031165  0.49973246  1
  Ca  Ca4  1  0.75450015  0.00000978  0.00420964  1
  Ca  Ca5  1  0.75301884  0.00097143  0.49765644  1
  Ca  Ca6  1  0.74684034  0.49826718  0.00027093  1
  Ca  Ca7  1  0.75147888  0.50016935  0.49937016  1
  Ca  Ca8  1  0.00338155  0.24915843  -0.00043850  1
  Ca  Ca9  1  -0.00159544  0.25546574  0.50189266  1
  Ca  Ca10  1  0.00296950  0.75322739  0.00247162  1
  Ca  Ca11  1  -0.00077079  0.74743447  0.49778451  1
  Ca  Ca12  1  0.49591306  0.25014994  0.00015357  1
  Ca  Ca13  1  0.50051983  0.25297754  0.50206899  1
  Ca  Ca14  1  0.49798609  0.74985179  0.00133251  1
  Ca  Ca15  1  0.49977717  0.74856589  0.49914637  1
  Ca  Ca16  1  0.00069817  0.00032869  0.24568598  1
  Ca  Ca17  1  0.00547578  0.00421730  0.75025675  1
  Ca  Ca18  1  0.00301176  0.49933438  0.25059529  1
  Ca  Ca19  1  0.00035965  0.49572283  0.74411440  1
  Ca  Ca20  1  0.49804123  0.00091562  0.24691506  1
  Ca  Ca21  1  0.49401058  0.00082898  0.74837055  1
  Ca  Ca22  1  0.50044895  0.49940426  0.24851891  1
  Ca  Ca23  1  0.50337379  0.49701199  0.74619510  1
  Ti  Ti24  1  0.24939522  0.24984466  0.24877070  1
  Ti  Ti25  1  0.24870983  0.24917449  0.75051519  1
  Ti  Ti26  1  0.24927262  0.75086479  0.24965866  1
  Ti  Ti27  1  0.24947509  0.75132857  0.74974427  1
  Ti  Ti28  1  0.75073665  0.25103094  0.25016380  1
  Ti  Ti29  1  0.75152899  0.25118967  0.74922828  1
  Ti  Ti30  1  0.75085388  0.74929738  0.25009380  1
  Ti  Ti31  1  0.75036208  0.74872764  0.74915980  1
  Al  Al32  1  0.08373633  0.08855967  0.08433389  1
  Al  Al33  1  0.08195871  0.08367335  0.58824767  1
  Al  Al34  1  0.08967911  0.58282406  0.08629618  1
  Al  Al35  1  0.08822148  0.57610635  0.58322048  1
  Al  Al36  1  0.57681616  0.08354675  0.08605817  1
  Al  Al37  1  0.57503450  0.08680595  0.58296377  1
  Al  Al38  1  0.58180585  0.57925162  0.08237010  1
  Al  Al39  1  0.58576391  0.58388006  0.59164891  1
  Al  Al40  1  0.41115828  0.41474939  0.08203264  1
  Al  Al41  1  0.42139357  0.41028792  0.58395670  1
  Al  Al42  1  0.40885426  0.92287967  0.08527143  1
  Al  Al43  1  0.40644012  0.91750396  0.58294206  1
  Al  Al44  1  0.91881313  0.41900882  0.08893316  1
  Al  Al45  1  0.91643398  0.41171907  0.58376131  1
  Al  Al46  1  0.91937906  0.91946643  0.09409696  1
  Al  Al47  1  0.91749141  0.91606804  0.57764156  1
  Al  Al48  1  0.41878590  0.07761214  0.41434933  1
  Al  Al49  1  0.40502342  0.08607105  0.91813546  1
  Al  Al50  1  0.41376449  0.58219376  0.42064949  1
  Al  Al51  1  0.41897604  0.58310480  0.92233338  1
  Al  Al52  1  0.91607301  0.08568582  0.41461174  1
  Al  Al53  1  0.92603479  0.08874633  0.91585127  1
  Al  Al54  1  0.91077313  0.58176451  0.41620443  1
  Al  Al55  1  0.91644610  0.57752951  0.92061673  1
  Al  Al56  1  0.08964869  0.41767739  0.41906647  1
  Al  Al57  1  0.08676924  0.40869586  0.91610965  1
  Al  Al58  1  0.08569185  0.91658618  0.41593108  1
  Al  Al59  1  0.09325096  0.91703335  0.92395599  1
  Al  Al60  1  0.58252330  0.41628886  0.41537671  1
  Al  Al61  1  0.58963676  0.41335526  0.91396149  1
  Al  Al62  1  0.58405664  0.91157751  0.42148639  1
  Al  Al63  1  0.57844144  0.91908289  0.92753760  1
  Al  Al64  1  0.07959457  0.08049837  0.41260610  1
  Al  Al65  1  0.08650447  0.09038658  0.91580367  1
  Al  Al66  1  0.08577885  0.57939025  0.41550170  1
  Al  Al67  1  0.09078165  0.57982398  0.92323650  1
  Al  Al68  1  0.57950658  0.08216213  0.42000306  1
  Al  Al69  1  0.57347150  0.08469309  0.92319711  1
  Al  Al70  1  0.58628602  0.58161904  0.41832017  1
  Al  Al71  1  0.58925490  0.57361330  0.91126751  1
  Al  Al72  1  0.41703324  0.41411924  0.41778670  1
  Al  Al73  1  0.41795433  0.40998184  0.92257280  1
  Al  Al74  1  0.41163296  0.91389978  0.42071491  1
  Al  Al75  1  0.40487278  0.92568720  0.91700631  1
  Al  Al76  1  0.91159419  0.41838793  0.41933154  1
  Al  Al77  1  0.92325001  0.41439312  0.91185778  1
  Al  Al78  1  0.91574388  0.91736552  0.41406134  1
  Al  Al79  1  0.92065081  0.92191557  0.92648883  1
  Al  Al80  1  0.09016221  0.41196566  0.08570681  1
  Al  Al81  1  0.08603053  0.41265265  0.58833830  1
  Al  Al82  1  0.08390358  0.91192327  0.08570286  1
  Al  Al83  1  0.08867542  0.91803631  0.58115533  1
  Al  Al84  1  0.58690038  0.41203914  0.07750983  1
  Al  Al85  1  0.58595531  0.41614142  0.59115298  1
  Al  Al86  1  0.58226513  0.91865190  0.08401455  1
  Al  Al87  1  0.58559465  0.91380717  0.57517683  1
  Al  Al88  1  0.41053679  0.08667432  0.08403049  1
  Al  Al89  1  0.41656236  0.07916809  0.59390695  1
  Al  Al90  1  0.41331161  0.57929367  0.08421781  1
  Al  Al91  1  0.42214547  0.58997472  0.58457482  1
  Al  Al92  1  0.91858226  0.08312785  0.09142183  1
  Al  Al93  1  0.91993893  0.09116778  0.58140566  1
  Al  Al94  1  0.91589125  0.58036763  0.08638019  1
  Al  Al95  1  0.91095333  0.58098142  0.57688703  1
  Al  Al96  1  0.25127246  0.12964165  0.13389294  1
  Al  Al97  1  0.24944877  0.12975264  0.63875093  1
  Al  Al98  1  0.24806405  0.63631316  0.13620103  1
  Al  Al99  1  0.24814889  0.63532871  0.63462091  1
  Al  Al100  1  0.75090200  0.13115671  0.13672640  1
  Al  Al101  1  0.75275780  0.13809812  0.63697407  1
  Al  Al102  1  0.74929439  0.63569802  0.13640300  1
  Al  Al103  1  0.74924484  0.63471170  0.63351432  1
  Al  Al104  1  0.24436320  0.36471674  0.13268149  1
  Al  Al105  1  0.24417985  0.36485918  0.63475104  1
  Al  Al106  1  0.24769707  0.86818427  0.13207296  1
  Al  Al107  1  0.24967040  0.86702123  0.63087054  1
  Al  Al108  1  0.74809127  0.36427602  0.13431455  1
  Al  Al109  1  0.75147629  0.36421669  0.63432915  1
  Al  Al110  1  0.75174988  0.86793925  0.13582610  1
  Al  Al111  1  0.74767143  0.86344223  0.63232215  1
  Al  Al112  1  0.24818219  0.13390301  0.36260805  1
  Al  Al113  1  0.24970541  0.13020312  0.86436320  1
  Al  Al114  1  0.24802515  0.63448479  0.36485780  1
  Al  Al115  1  0.24996917  0.63619244  0.86361378  1
  Al  Al116  1  0.75279871  0.13738951  0.36341256  1
  Al  Al117  1  0.75277927  0.13865043  0.86368849  1
  Al  Al118  1  0.75078373  0.63105687  0.36638546  1
  Al  Al119  1  0.74599428  0.63330010  0.86464162  1
  Al  Al120  1  0.24673474  0.36611419  0.36524837  1
  Al  Al121  1  0.24669767  0.36162266  0.86488762  1
  Al  Al122  1  0.24882028  0.86353490  0.36767162  1
  Al  Al123  1  0.24993783  0.87007837  0.86740164  1
  Al  Al124  1  0.75077652  0.37069464  0.36540579  1
  Al  Al125  1  0.74681763  0.36453884  0.86428254  1
  Al  Al126  1  0.75076629  0.86223931  0.36429664  1
  Al  Al127  1  0.75135647  0.86321888  0.86854127  1
  Al  Al128  1  0.13646195  0.25047587  0.13301623  1
  Al  Al129  1  0.12902758  0.25040202  0.63687282  1
  Al  Al130  1  0.13291703  0.75303463  0.13468911  1
  Al  Al131  1  0.13267130  0.75305041  0.63700826  1
  Al  Al132  1  0.63562891  0.25402971  0.13521610  1
  Al  Al133  1  0.63348146  0.25486185  0.63701666  1
  Al  Al134  1  0.63402496  0.74937930  0.13326531  1
  Al  Al135  1  0.63391198  0.74697900  0.63489670  1
  Al  Al136  1  0.13595001  0.25284469  0.36403149  1
  Al  Al137  1  0.13473852  0.24873985  0.86468174  1
  Al  Al138  1  0.12984780  0.75243227  0.36197323  1
  Al  Al139  1  0.13784511  0.75346346  0.86529175  1
  Al  Al140  1  0.63696481  0.25071304  0.36333211  1
  Al  Al141  1  0.63572642  0.25405968  0.86688825  1
  Al  Al142  1  0.63714514  0.74992684  0.36630551  1
  Al  Al143  1  0.63632267  0.74827325  0.86746801  1
  Al  Al144  1  0.36220570  0.24787940  0.13230416  1
  Al  Al145  1  0.36228151  0.25064264  0.63719405  1
  Al  Al146  1  0.36467613  0.75144385  0.13133390  1
  Al  Al147  1  0.36255134  0.75283383  0.63529799  1
  Al  Al148  1  0.86555520  0.24819477  0.13630768  1
  Al  Al149  1  0.87161944  0.25409509  0.63557417  1
  Al  Al150  1  0.86881825  0.75372038  0.13619835  1
  Al  Al151  1  0.86673359  0.74675670  0.63259093  1
  Al  Al152  1  0.36269704  0.24987859  0.36299485  1
  Al  Al153  1  0.36492482  0.24739267  0.86670955  1
  Al  Al154  1  0.36304842  0.75192874  0.36498969  1
  Al  Al155  1  0.35979599  0.75258076  0.87028092  1
  Al  Al156  1  0.86417079  0.25391824  0.36495817  1
  Al  Al157  1  0.86647327  0.25202643  0.86499261  1
  Al  Al158  1  0.86830979  0.74792535  0.36500128  1
  Al  Al159  1  0.86317573  0.74908768  0.86642763  1
  Al  Al160  1  0.13457552  0.13574808  0.24352485  1
  Al  Al161  1  0.13115053  0.13353551  0.75059730  1
  Al  Al162  1  0.13605633  0.63196680  0.25037416  1
  Al  Al163  1  0.13580159  0.63532874  0.74638500  1
  Al  Al164  1  0.63567553  0.13594711  0.24727246  1
  Al  Al165  1  0.63546719  0.13706312  0.74880197  1
  Al  Al166  1  0.63413577  0.63300023  0.25189599  1
  Al  Al167  1  0.63631032  0.63320980  0.74652872  1
  Al  Al168  1  0.36387928  0.13349838  0.24683941  1
  Al  Al169  1  0.36221889  0.13256959  0.75252290  1
  Al  Al170  1  0.36731410  0.63655518  0.24976557  1
  Al  Al171  1  0.36663492  0.63862193  0.74483166  1
  Al  Al172  1  0.86564041  0.13450611  0.24553689  1
  Al  Al173  1  0.87241269  0.13978131  0.74887629  1
  Al  Al174  1  0.86558855  0.63333809  0.25396455  1
  Al  Al175  1  0.86515722  0.63548569  0.74762467  1
  Al  Al176  1  0.13572990  0.37005866  0.24962633  1
  Al  Al177  1  0.13377755  0.36504312  0.74629062  1
  Al  Al178  1  0.13016598  0.86430462  0.24615707  1
  Al  Al179  1  0.13985556  0.87220454  0.74926509  1
  Al  Al180  1  0.63727686  0.37021283  0.25093177  1
  Al  Al181  1  0.63492281  0.36754090  0.74872237  1
  Al  Al182  1  0.63253630  0.86270269  0.24683052  1
  Al  Al183  1  0.63695944  0.86200170  0.74745281  1
  Al  Al184  1  0.36278012  0.36427758  0.24814423  1
  Al  Al185  1  0.36723758  0.36215719  0.74643427  1
  Al  Al186  1  0.36482601  0.86465342  0.24656508  1
  Al  Al187  1  0.36108154  0.86870502  0.74902381  1
  Al  Al188  1  0.86504027  0.36605182  0.25209233  1
  Al  Al189  1  0.86700155  0.36472249  0.74823666  1
  Al  Al190  1  0.86869410  0.86348915  0.25003690  1
  Al  Al191  1  0.86265678  0.86415300  0.74609783  1
  Al  Al192  1  0.81135221  0.49905144  0.82574653  1
  Al  Al193  1  0.50002253  0.31836065  0.31722427  1
  Al  Al194  1  0.17095897  0.18565330  0.50012219  1
  Al  Al195  1  0.68239975  0.32358156  0.50048317  1
  Al  Al196  1  0.82815811  0.00010535  0.31469453  1
  Al  Al197  1  0.32592281  0.68423566  0.50095585  1
  Al  Al198  1  0.18054640  0.68423489  0.00075026  1
  Al  Al199  1  0.32591937  -0.00194748  0.31770179  1
  Al  Al200  1  0.49739581  0.82591739  0.82593846  1
  Al  Al201  1  0.32722579  0.17181840  0.50107184  1
  Al  Al202  1  0.81985064  0.49975573  0.18652941  1
  Al  Al203  1  0.68376077  0.68332345  0.50016678  1
  Al  Al204  1  0.67544261  -0.00046150  0.82554610  1
  Al  Al205  1  0.67716484  0.00015447  0.66782399  1
  Al  Al206  1  0.49881517  0.18234771  0.18077099  1
  Al  Al207  1  0.18664582  0.18687687  -0.00041355  1
  Al  Al208  1  0.50002319  0.82334873  0.32342736  1
  Al  Al209  1  0.50266654  0.67089151  0.81497904  1
  Al  Al210  1  0.31236329  0.49943576  0.17380683  1
  Al  Al211  1  0.81630791  0.49945692  0.67107888  1
  Al  Al212  1  -0.00003579  0.17484938  0.31265155  1
  Al  Al213  1  0.00146081  0.31270197  0.81366316  1
  Al  Al214  1  0.67256786  -0.00084811  0.32151919  1
  Al  Al215  1  0.49887852  0.18778219  0.68168271  1
  Al  Al216  1  0.00092120  0.31389401  0.17412261  1
  Al  Al217  1  0.50288774  0.32277054  0.81873648  1
  Al  Al218  1  0.82823802  0.17251071  0.00111428  1
  Al  Al219  1  0.17356804  0.68003098  0.49961021  1
  Al  Al220  1  0.81673782  0.32945316  0.00008296  1
  Al  Al221  1  0.00098555  0.68136045  0.17697641  1
  Al  Al222  1  0.67207818  0.18719260  0.00170221  1
  Al  Al223  1  0.31094944  0.31236827  -0.00004879  1
  Al  Al224  1  0.17449519  -0.00047184  0.31713017  1
  Al  Al225  1  0.00277223  0.67150967  0.82144951  1
  Al  Al226  1  0.67431880  0.17250053  0.50101259  1
  Al  Al227  1  0.49852252  0.81870901  0.66997320  1
  Al  Al228  1  0.31533317  0.32521214  0.50025177  1
  Al  Al229  1  0.82620005  0.18651284  0.49983715  1
  Al  Al230  1  0.82286338  0.67738937  -0.00079630  1
  Al  Al231  1  0.83501280  0.00375738  0.82118822  1
  Al  Al232  1  0.00069528  0.83008928  0.82022781  1
  Al  Al233  1  0.81541097  0.81363805  0.49930228  1
  Al  Al234  1  0.31681437  0.50006695  0.66952917  1
  Al  Al235  1  0.17180004  0.49897202  0.81639537  1
  Al  Al236  1  0.00196312  0.32646232  0.32596271  1
  Al  Al237  1  0.32655915  0.49887330  0.82633857  1
  Al  Al238  1  0.31624581  0.49983483  0.32524507  1
  Au  Au239  1  0.33030435  0.50010435  0.66027947  1
  Au  Au240  1  0.50037140  0.17009073  0.33004438  1
  Au  Au241  1  0.32081681  0.83740134  0.00095338  1
  Au  Au242  1  0.67148313  0.67215944  0.50287270  1
  Au  Au243  1  -0.00208940  0.33361968  0.33298768  1
  Au  Au244  1  0.83739488  0.00227659  0.66519742  1
  Au  Au245  1  0.00249620  0.83680989  0.83595125  1
  Au  Au246  1  0.67713533  -0.00167919  0.33788561  1
  Au  Au247  1  0.67249145  0.33347864  0.50059529  1
  Au  Au248  1  0.67543019  0.00081862  0.16313125  1
  Au  Au249  1  0.49355106  0.83873926  0.83711775  1
  Au  Au250  1  0.00367271  0.66005210  0.83368590  1
  Au  Au251  1  0.17553849  0.00188385  0.83590772  1
  Au  Au252  1  0.17714629  0.00014984  0.66787053  1
  Au  Au253  1  0.83354710  0.33077525  0.00099144  1
  Au  Au254  1  0.66858775  0.83049667  0.00175773  1
  Au  Au255  1  0.67412507  0.49777139  0.16459033  1
  Au  Au256  1  0.34202256  0.17180167  0.50420044  1
  Au  Au257  1  0.49773268  0.33338761  0.82351313  1
  Au  Au258  1  0.83138488  0.66835556  0.00107233  1
  Au  Au259  1  0.66615542  0.00026784  0.66162169  1
  Au  Au260  1  0.50271172  0.65579942  0.82270162  1
  Au  Au261  1  0.82845115  0.49843532  0.82356321  1
  Au  Au262  1  0.32697048  0.66951318  0.00238965  1
  Au  Au263  1  0.83470993  0.83419629  0.00663780  1
  Au  Au264  1  0.00083717  0.66981815  0.17160431  1
  Au  Au265  1  0.17124489  -0.00061207  0.16759152  1
  Au  Au266  1  -0.00065306  0.66545962  0.33210846  1
  Au  Au267  1  0.00026593  0.83671149  0.32427292  1
  Au  Au268  1  0.66794360  0.17069244  0.00234420  1
  Au  Au269  1  0.00008979  0.17683705  0.67776304  1
  Au  Au270  1  0.66165706  0.00060800  0.83670971  1
  Au  Au271  1  0.66678999  0.66503870  -0.00226282  1
  Au  Au272  1  0.49612138  0.83385734  0.16593634  1
  Au  Au273  1  0.50042096  0.82978362  0.33413470  1
  Au  Au274  1  0.17599739  0.82881533  0.49830388  1
  Au  Au275  1  0.67618928  0.49999992  0.33127082  1
  Au  Au276  1  0.49907970  0.66528348  0.16712021  1
  Au  Au277  1  -0.00118248  0.66412881  0.65842586  1
  Au  Au278  1  0.49935172  0.66769329  0.33364333  1
  Au  Au279  1  0.32861363  0.49943536  0.32859464  1
  Au  Au280  1  0.49852735  0.82569211  0.65462984  1
  Au  Au281  1  0.32118481  0.49686638  0.84276922  1
  Au  Au282  1  0.15815887  0.17610163  0.49709015  1
  Au  Au283  1  0.82503983  0.82779829  0.49755962  1
  Au  Au284  1  0.50002993  0.33180726  0.16640226  1
  Au  Au285  1  0.83503161  0.00100633  0.83365024  1
  Au  Au286  1  0.49424376  0.16352520  0.82730057  1
  Au  Au287  1  0.00109468  0.83193925  0.66274671  1
