# generated using pymatgen
data_Ca24Ti8Al207Au49
_symmetry_space_group_name_H-M   'P 1'
_cell_length_a   17.32274210
_cell_length_b   17.32350853
_cell_length_c   17.32348243
_cell_angle_alpha   89.99968380
_cell_angle_beta   89.99813028
_cell_angle_gamma   90.00000265
_symmetry_Int_Tables_number   1
_chemical_formula_structural   Ca24Ti8Al207Au49
_chemical_formula_sum   'Ca24 Ti8 Al207 Au49'
_cell_volume   5198.61545646
_cell_formula_units_Z   1
loop_
 _symmetry_equiv_pos_site_id
 _symmetry_equiv_pos_as_xyz
  1  'x, y, z'
loop_
 _atom_site_type_symbol
 _atom_site_label
 _atom_site_symmetry_multiplicity
 _atom_site_fract_x
 _atom_site_fract_y
 _atom_site_fract_z
 _atom_site_occupancy
  Ca  Ca0  1  0.24661807  0.00449003  -0.00312162  1
  Ca  Ca1  1  0.25429510  0.00039250  0.49962900  1
  Ca  Ca2  1  0.24651557  0.49687899  -0.00000080  1
  Ca  Ca3  1  0.25245780  0.49651627  0.49905851  1
  Ca  Ca4  1  0.74850401  0.00068371  -0.00009309  1
  Ca  Ca5  1  0.75108428  0.00322336  0.49624562  1
  Ca  Ca6  1  0.74795660  0.49858285  0.00110999  1
  Ca  Ca7  1  0.74618586  0.49978464  0.49721120  1
  Ca  Ca8  1  0.00361589  0.25690645  -0.00093194  1
  Ca  Ca9  1  -0.00400093  0.24875326  0.49764003  1
  Ca  Ca10  1  0.00450657  0.75113864  0.00438241  1
  Ca  Ca11  1  -0.00057046  0.75389358  0.49789437  1
  Ca  Ca12  1  0.49934817  0.25107478  -0.00090652  1
  Ca  Ca13  1  0.50233945  0.24598821  0.50036306  1
  Ca  Ca14  1  0.49944895  0.74488214  0.00478853  1
  Ca  Ca15  1  0.50214484  0.75033008  0.49634019  1
  Ca  Ca16  1  -0.00102132  0.00016830  0.25120848  1
  Ca  Ca17  1  0.00530017  0.00011052  0.75592509  1
  Ca  Ca18  1  0.00120841  0.50039032  0.24556924  1
  Ca  Ca19  1  0.00345807  0.50002568  0.75970609  1
  Ca  Ca20  1  0.49888854  0.00226715  0.25490296  1
  Ca  Ca21  1  0.49790153  -0.00022657  0.74980106  1
  Ca  Ca22  1  0.50070094  0.49801296  0.24841329  1
  Ca  Ca23  1  0.49704124  0.49823775  0.75424414  1
  Ti  Ti24  1  0.25003188  0.25039210  0.24833099  1
  Ti  Ti25  1  0.24980787  0.25000679  0.75220575  1
  Ti  Ti26  1  0.24981984  0.74885197  0.24972041  1
  Ti  Ti27  1  0.24951069  0.74959093  0.75132658  1
  Ti  Ti28  1  0.74908000  0.25118785  0.25084044  1
  Ti  Ti29  1  0.74876771  0.24989531  0.74918564  1
  Ti  Ti30  1  0.75030594  0.74832888  0.24899832  1
  Ti  Ti31  1  0.74879927  0.75070896  0.75034902  1
  Al  Al32  1  0.08473820  0.08051156  0.08175466  1
  Al  Al33  1  0.09079764  0.07494103  0.58549548  1
  Al  Al34  1  0.09789944  0.58267662  0.08439101  1
  Al  Al35  1  0.08320879  0.57375930  0.58211536  1
  Al  Al36  1  0.58082374  0.08356038  0.07763168  1
  Al  Al37  1  0.58647162  0.08979356  0.57864904  1
  Al  Al38  1  0.59005765  0.57435362  0.08700835  1
  Al  Al39  1  0.58645373  0.59080178  0.57707786  1
  Al  Al40  1  0.41379603  0.42065536  0.08678816  1
  Al  Al41  1  0.42000258  0.42342844  0.58410608  1
  Al  Al42  1  0.40936925  0.92621793  0.08671707  1
  Al  Al43  1  0.40482526  0.91693596  0.57703415  1
  Al  Al44  1  0.91825816  0.41834101  0.08117247  1
  Al  Al45  1  0.91971241  0.41686661  0.57866236  1
  Al  Al46  1  0.91270185  0.91135655  0.08028930  1
  Al  Al47  1  0.91917839  0.92272868  0.57737613  1
  Al  Al48  1  0.41419213  0.07460745  0.41076069  1
  Al  Al49  1  0.41641586  0.08680822  0.90519441  1
  Al  Al50  1  0.41416932  0.58390030  0.41690367  1
  Al  Al51  1  0.41033743  0.57596375  0.91164368  1
  Al  Al52  1  0.90713589  0.08845552  0.41071506  1
  Al  Al53  1  0.92847315  0.08251140  0.91752532  1
  Al  Al54  1  0.91512480  0.57958108  0.41566013  1
  Al  Al55  1  0.91526824  0.57944891  0.92823194  1
  Al  Al56  1  0.07666450  0.41341885  0.40458843  1
  Al  Al57  1  0.08899042  0.41293962  0.91499767  1
  Al  Al58  1  0.07811861  0.91910318  0.41470729  1
  Al  Al59  1  0.09102912  0.91269217  0.91704664  1
  Al  Al60  1  0.58336252  0.41802812  0.41532607  1
  Al  Al61  1  0.58759029  0.40967262  0.92161000  1
  Al  Al62  1  0.58598991  0.91462274  0.41566440  1
  Al  Al63  1  0.58403289  0.92049462  0.92347134  1
  Al  Al64  1  0.07646597  0.08238278  0.41369446  1
  Al  Al65  1  0.08704119  0.08336402  0.91158685  1
  Al  Al66  1  0.08060462  0.57618106  0.41434486  1
  Al  Al67  1  0.09734638  0.57751450  0.92167803  1
  Al  Al68  1  0.58890555  0.08547123  0.41797384  1
  Al  Al69  1  0.57641253  0.09399327  0.91553965  1
  Al  Al70  1  0.59027691  0.58778685  0.41846589  1
  Al  Al71  1  0.58004801  0.57663741  0.92179021  1
  Al  Al72  1  0.42122554  0.42114886  0.41279705  1
  Al  Al73  1  0.41218345  0.41907029  0.91214244  1
  Al  Al74  1  0.40980051  0.91364261  0.41406727  1
  Al  Al75  1  0.40936019  0.92780774  0.91476603  1
  Al  Al76  1  0.91775409  0.41301491  0.41073549  1
  Al  Al77  1  0.92397834  0.40979524  0.91699088  1
  Al  Al78  1  0.91294163  0.92247771  0.41035502  1
  Al  Al79  1  0.91863687  0.90881610  0.92285816  1
  Al  Al80  1  0.09099989  0.41722903  0.08256210  1
  Al  Al81  1  0.08319742  0.41827530  0.58508060  1
  Al  Al82  1  0.09113820  0.91117556  0.07893071  1
  Al  Al83  1  0.09145765  0.92139395  0.58998634  1
  Al  Al84  1  0.59247746  0.41284667  0.08458112  1
  Al  Al85  1  0.58125918  0.41867273  0.57889186  1
  Al  Al86  1  0.58299333  0.92069539  0.07847765  1
  Al  Al87  1  0.58993033  0.91447388  0.57205072  1
  Al  Al88  1  0.41251668  0.08219840  0.08935246  1
  Al  Al89  1  0.41786630  0.07568231  0.58737699  1
  Al  Al90  1  0.40921488  0.57574242  0.08751369  1
  Al  Al91  1  0.41478591  0.58379170  0.58032956  1
  Al  Al92  1  0.92182734  0.07707161  0.08279911  1
  Al  Al93  1  0.90775586  0.08535414  0.57253860  1
  Al  Al94  1  0.91351264  0.58475778  0.08373087  1
  Al  Al95  1  0.91497493  0.58007695  0.57460588  1
  Al  Al96  1  0.25045436  0.13202315  0.13243083  1
  Al  Al97  1  0.24766933  0.13408857  0.63736132  1
  Al  Al98  1  0.24628470  0.63169753  0.13505447  1
  Al  Al99  1  0.25054652  0.62850058  0.63792215  1
  Al  Al100  1  0.74813141  0.13722424  0.13868557  1
  Al  Al101  1  0.74762128  0.13509990  0.63280541  1
  Al  Al102  1  0.74927655  0.62816521  0.13837008  1
  Al  Al103  1  0.74575321  0.63657506  0.62798939  1
  Al  Al104  1  0.24932329  0.36827460  0.13370346  1
  Al  Al105  1  0.24855136  0.37367860  0.64010656  1
  Al  Al106  1  0.24850385  0.86581931  0.13693337  1
  Al  Al107  1  0.25060278  0.86637392  0.63563264  1
  Al  Al108  1  0.74839997  0.37066073  0.13814656  1
  Al  Al109  1  0.74997393  0.36425056  0.63246480  1
  Al  Al110  1  0.75235984  0.86107293  0.13066435  1
  Al  Al111  1  0.74458410  0.86478203  0.63037953  1
  Al  Al112  1  0.25211589  0.13324564  0.36411800  1
  Al  Al113  1  0.24807597  0.13119379  0.86854638  1
  Al  Al114  1  0.25034038  0.62751008  0.35893188  1
  Al  Al115  1  0.24679638  0.63016638  0.86564632  1
  Al  Al116  1  0.75192574  0.13510709  0.36757101  1
  Al  Al117  1  0.74412082  0.13460020  0.86286757  1
  Al  Al118  1  0.74759342  0.63533240  0.36609563  1
  Al  Al119  1  0.74880979  0.63504008  0.86523610  1
  Al  Al120  1  0.24796855  0.37197652  0.36170879  1
  Al  Al121  1  0.24812362  0.36677061  0.86949417  1
  Al  Al122  1  0.25719762  0.86904797  0.36456020  1
  Al  Al123  1  0.24662790  0.87052366  0.86502933  1
  Al  Al124  1  0.74877443  0.36609277  0.36520980  1
  Al  Al125  1  0.74682964  0.36318678  0.86514160  1
  Al  Al126  1  0.74823069  0.86350966  0.36701122  1
  Al  Al127  1  0.75045269  0.86421593  0.87132636  1
  Al  Al128  1  0.13819694  0.25299999  0.12791218  1
  Al  Al129  1  0.13967357  0.25418353  0.63398635  1
  Al  Al130  1  0.13480775  0.74826289  0.13405812  1
  Al  Al131  1  0.13554661  0.75400629  0.64021624  1
  Al  Al132  1  0.63611247  0.25243390  0.13508811  1
  Al  Al133  1  0.63561451  0.24612132  0.62989827  1
  Al  Al134  1  0.63768880  0.74658292  0.12847312  1
  Al  Al135  1  0.63507334  0.75165898  0.63232762  1
  Al  Al136  1  0.13736328  0.25254928  0.36337211  1
  Al  Al137  1  0.13795245  0.25269153  0.86920691  1
  Al  Al138  1  0.13706297  0.75022881  0.36168178  1
  Al  Al139  1  0.13931273  0.74991454  0.86726971  1
  Al  Al140  1  0.63807839  0.24645696  0.37045641  1
  Al  Al141  1  0.63347766  0.25075871  0.86369481  1
  Al  Al142  1  0.63653357  0.74829205  0.36723582  1
  Al  Al143  1  0.63769503  0.75072953  0.87100920  1
  Al  Al144  1  0.36223529  0.24747978  0.13336834  1
  Al  Al145  1  0.36077469  0.24982508  0.64065504  1
  Al  Al146  1  0.36392245  0.74575432  0.13625816  1
  Al  Al147  1  0.36053847  0.75152564  0.63823558  1
  Al  Al148  1  0.86659630  0.25176900  0.13815953  1
  Al  Al149  1  0.86317398  0.24649009  0.63088306  1
  Al  Al150  1  0.87049841  0.75181480  0.13595779  1
  Al  Al151  1  0.86205502  0.75151594  0.63170071  1
  Al  Al152  1  0.36304355  0.24995203  0.36040838  1
  Al  Al153  1  0.36355215  0.24602809  0.86678030  1
  Al  Al154  1  0.36329131  0.74877127  0.36127786  1
  Al  Al155  1  0.35907901  0.74793007  0.86575752  1
  Al  Al156  1  0.86397980  0.24843615  0.36786795  1
  Al  Al157  1  0.86523807  0.25283864  0.86423061  1
  Al  Al158  1  0.86464784  0.74613691  0.36578045  1
  Al  Al159  1  0.86483961  0.75130105  0.86618098  1
  Al  Al160  1  0.13690534  0.13440229  0.24836311  1
  Al  Al161  1  0.13849896  0.13169728  0.75319841  1
  Al  Al162  1  0.13221391  0.63084021  0.24675499  1
  Al  Al163  1  0.13657882  0.62927529  0.75297901  1
  Al  Al164  1  0.63023926  0.13742287  0.25301921  1
  Al  Al165  1  0.63318386  0.13215863  0.74942886  1
  Al  Al166  1  0.63028784  0.63779807  0.24840457  1
  Al  Al167  1  0.63652487  0.63885532  0.74787697  1
  Al  Al168  1  0.36757037  0.13334019  0.24852839  1
  Al  Al169  1  0.36686416  0.13171875  0.75541587  1
  Al  Al170  1  0.36639865  0.63096630  0.24809264  1
  Al  Al171  1  0.36196313  0.63143639  0.75206446  1
  Al  Al172  1  0.86334686  0.13349419  0.25393784  1
  Al  Al173  1  0.86119900  0.13715053  0.75169204  1
  Al  Al174  1  0.87052439  0.63637110  0.24538963  1
  Al  Al175  1  0.86208880  0.63786257  0.74817783  1
  Al  Al176  1  0.13611779  0.36945843  0.24641021  1
  Al  Al177  1  0.13568371  0.37006615  0.75815869  1
  Al  Al178  1  0.13540890  0.86603878  0.24819105  1
  Al  Al179  1  0.13854384  0.87072652  0.75088455  1
  Al  Al180  1  0.63452750  0.36524554  0.24763586  1
  Al  Al181  1  0.63541614  0.36280131  0.74758944  1
  Al  Al182  1  0.63758308  0.86220052  0.25059714  1
  Al  Al183  1  0.63999192  0.87128384  0.75185752  1
  Al  Al184  1  0.36286136  0.36971556  0.24821588  1
  Al  Al185  1  0.36102406  0.36986124  0.75444697  1
  Al  Al186  1  0.36359172  0.86783047  0.24949751  1
  Al  Al187  1  0.36324738  0.86705410  0.75391941  1
  Al  Al188  1  0.86814159  0.36358204  0.25099796  1
  Al  Al189  1  0.86468620  0.36263731  0.75133367  1
  Al  Al190  1  0.86271652  0.86350781  0.25197311  1
  Al  Al191  1  0.86279479  0.86166636  0.74862489  1
  Al  Al192  1  0.32554030  0.32953154  0.50024595  1
  Al  Al193  1  0.82479097  -0.00081065  0.18715448  1
  Al  Al194  1  0.82521582  0.50063613  0.31689594  1
  Al  Al195  1  0.68357604  -0.00003126  0.32699739  1
  Al  Al196  1  0.82075637  0.00010345  0.67341456  1
  Al  Al197  1  0.67313464  0.18728698  -0.00002418  1
  Al  Al198  1  0.00247453  0.82439218  0.82257957  1
  Al  Al199  1  0.31209199  0.00038323  0.68628620  1
  Al  Al200  1  0.49974702  0.82145056  0.32704471  1
  Al  Al201  1  0.00019629  0.32101951  0.17976537  1
  Al  Al202  1  0.17266303  0.17719206  0.50054020  1
  Al  Al203  1  0.17339079  0.67166859  0.49912010  1
  Al  Al204  1  0.00241797  0.32399192  0.69102724  1
  Al  Al205  1  0.49966414  0.67044682  0.82724936  1
  Al  Al206  1  0.00121815  0.66955445  0.83359816  1
  Al  Al207  1  0.49801572  0.67374692  0.67364745  1
  Al  Al208  1  0.50093795  0.31998038  0.32404056  1
  Al  Al209  1  -0.00002148  0.18825473  0.31984270  1
  Al  Al210  1  0.31436440  0.82924227  0.00061633  1
  Al  Al211  1  0.66998133  0.00080572  0.17526058  1
  Al  Al212  1  0.32773537  0.68703414  0.49992425  1
  Al  Al213  1  0.32486701  0.32494776  0.00175223  1
  Al  Al214  1  -0.00031923  0.67965543  0.67075031  1
  Al  Al215  1  0.32872084  0.17131528  0.50095107  1
  Al  Al216  1  0.49895461  0.82682050  0.83057035  1
  Al  Al217  1  0.49889280  0.83071002  0.66764257  1
  Al  Al218  1  -0.00078229  0.82125832  0.31888336  1
  Al  Al219  1  0.82516144  -0.00233705  0.83179560  1
  Al  Al220  1  0.00207970  0.18822331  0.82386671  1
  Al  Al221  1  0.81940141  0.50031891  0.67282966  1
  Al  Al222  1  0.49826756  0.31811779  0.82740739  1
  Al  Al223  1  0.82769646  0.49838432  0.83091515  1
  Al  Al224  1  -0.00037972  0.16825585  0.67023317  1
  Al  Al225  1  0.81832037  0.68734481  0.00219065  1
  Al  Al226  1  0.17709345  -0.00003863  0.31660222  1
  Al  Al227  1  0.31428478  0.67167747  0.00008228  1
  Al  Al228  1  0.67239216  0.50110097  0.31649309  1
  Al  Al229  1  0.49838785  0.17536695  0.68373616  1
  Al  Al230  1  0.81850976  0.32308550  0.49802264  1
  Al  Al231  1  0.18773188  0.82876928  0.49886637  1
  Al  Al232  1  0.82220653  0.16945770  -0.00081748  1
  Al  Al233  1  0.49851425  0.32269302  0.17136348  1
  Al  Al234  1  0.50037120  0.82412113  0.17049429  1
  Al  Al235  1  0.49834201  0.32742305  0.67511652  1
  Al  Al236  1  0.81436592  0.32749979  0.00126713  1
  Al  Al237  1  0.82367695  0.82234933  0.49802334  1
  Al  Al238  1  0.67225254  0.49933964  0.82182467  1
  Au  Au239  1  0.83101462  0.32458859  0.49680364  1
  Au  Au240  1  0.17620452  -0.00029611  0.82399854  1
  Au  Au241  1  -0.00063633  0.84613824  0.67455444  1
  Au  Au242  1  -0.00336188  0.15210663  0.67431472  1
  Au  Au243  1  0.18078791  -0.00127543  0.16250184  1
  Au  Au244  1  0.49654273  0.82313382  0.84688471  1
  Au  Au245  1  0.00551331  0.66489869  0.16421846  1
  Au  Au246  1  0.49817999  0.17107464  0.33848432  1
  Au  Au247  1  0.00571609  0.66950730  0.84901951  1
  Au  Au248  1  0.32139761  0.65696992  -0.00058304  1
  Au  Au249  1  0.00082560  0.33500618  0.67818819  1
  Au  Au250  1  0.67249635  0.00040085  0.65739390  1
  Au  Au251  1  0.16881834  0.16521075  0.49915560  1
  Au  Au252  1  0.16459348  0.49836940  0.31914303  1
  Au  Au253  1  0.34180162  0.32471673  0.50018808  1
  Au  Au254  1  0.31740714  0.84578832  0.00073158  1
  Au  Au255  1  0.00240141  0.83476777  0.16914766  1
  Au  Au256  1  0.15841211  0.33190990  0.49510224  1
  Au  Au257  1  0.84120836  -0.00372187  0.82636120  1
  Au  Au258  1  0.81871075  0.66499033  0.49629423  1
  Au  Au259  1  0.49698314  0.84024900  0.17174832  1
  Au  Au260  1  0.32135280  0.33756423  0.00172960  1
  Au  Au261  1  0.17309411  -0.00000841  0.32874996  1
  Au  Au262  1  0.33041754  0.16200770  -0.00245493  1
  Au  Au263  1  0.18188257  0.65636104  0.49857011  1
  Au  Au264  1  0.65542361  0.50316302  0.67309884  1
  Au  Au265  1  0.82081417  0.83465315  0.49954351  1
  Au  Au266  1  0.68106783  0.83497244  0.00204998  1
  Au  Au267  1  0.33540675  0.50126398  0.67816139  1
  Au  Au268  1  0.50019753  0.65729418  0.16821082  1
  Au  Au269  1  0.00205963  0.16485417  0.17473557  1
  Au  Au270  1  0.16201640  0.17615839  -0.00058902  1
  Au  Au271  1  0.33416927  0.50050663  0.32165241  1
  Au  Au272  1  0.66356127  0.32244383  0.50000446  1
  Au  Au273  1  -0.00011334  0.67270232  0.65539556  1
  Au  Au274  1  0.82309248  -0.00356896  0.17037165  1
  Au  Au275  1  0.17275193  0.83668852  0.49896223  1
  Au  Au276  1  0.83583365  0.50062714  0.67807735  1
  Au  Au277  1  0.00280342  0.32994374  0.17103978  1
  Au  Au278  1  -0.00044802  0.67364424  0.33764015  1
  Au  Au279  1  0.50121102  0.17214094  0.16545115  1
  Au  Au280  1  0.49840264  0.82659835  0.65236774  1
  Au  Au281  1  0.83727616  0.17758235  -0.00133992  1
  Au  Au282  1  0.49822019  0.17131730  0.67150689  1
  Au  Au283  1  0.67196213  0.66351650  0.00017729  1
  Au  Au284  1  0.65871757  0.00547191  0.83109606  1
  Au  Au285  1  0.50094703  0.67173100  0.33734488  1
  Au  Au286  1  0.82435784  0.49877718  0.16854894  1
  Au  Au287  1  0.16772748  0.49918407  0.68086816  1
