# generated using pymatgen
data_Ca24Ti8Al207Au49
_symmetry_space_group_name_H-M   'P 1'
_cell_length_a   17.32412207
_cell_length_b   17.32358469
_cell_length_c   17.32367358
_cell_angle_alpha   89.99599433
_cell_angle_beta   89.99878423
_cell_angle_gamma   90.00073456
_symmetry_Int_Tables_number   1
_chemical_formula_structural   Ca24Ti8Al207Au49
_chemical_formula_sum   'Ca24 Ti8 Al207 Au49'
_cell_volume   5199.10979893
_cell_formula_units_Z   1
loop_
 _symmetry_equiv_pos_site_id
 _symmetry_equiv_pos_as_xyz
  1  'x, y, z'
loop_
 _atom_site_type_symbol
 _atom_site_label
 _atom_site_symmetry_multiplicity
 _atom_site_fract_x
 _atom_site_fract_y
 _atom_site_fract_z
 _atom_site_occupancy
  Ca  Ca0  1  0.25423009  0.00226388  -0.00178372  1
  Ca  Ca1  1  0.24907060  0.00027546  0.49736551  1
  Ca  Ca2  1  0.25617655  0.49818435  0.00400257  1
  Ca  Ca3  1  0.25214393  0.50099349  0.49833007  1
  Ca  Ca4  1  0.74936286  0.00282717  -0.00106019  1
  Ca  Ca5  1  0.74666327  -0.00273469  0.50288538  1
  Ca  Ca6  1  0.74624602  0.49676189  -0.00111928  1
  Ca  Ca7  1  0.74729634  0.50099362  0.50559784  1
  Ca  Ca8  1  -0.00079573  0.25049520  0.00033921  1
  Ca  Ca9  1  0.00019072  0.24763346  0.49908029  1
  Ca  Ca10  1  0.00137633  0.75094748  -0.00118300  1
  Ca  Ca11  1  -0.00147378  0.74824675  0.50265570  1
  Ca  Ca12  1  0.49981569  0.25271652  0.00101186  1
  Ca  Ca13  1  0.50246859  0.25115106  0.49950084  1
  Ca  Ca14  1  0.49676858  0.74555613  -0.00352159  1
  Ca  Ca15  1  0.50271520  0.74903915  0.50360465  1
  Ca  Ca16  1  0.00490772  0.00300952  0.25146936  1
  Ca  Ca17  1  0.00010609  0.00150071  0.74689168  1
  Ca  Ca18  1  0.00171693  0.49592163  0.25306916  1
  Ca  Ca19  1  0.00005318  0.49619572  0.74755361  1
  Ca  Ca20  1  0.49827992  0.00288477  0.25195591  1
  Ca  Ca21  1  0.49876357  -0.00134232  0.74625424  1
  Ca  Ca22  1  0.50177705  0.49902284  0.24876997  1
  Ca  Ca23  1  0.50267475  0.50199711  0.74895136  1
  Ti  Ti24  1  0.25191390  0.25072977  0.25111727  1
  Ti  Ti25  1  0.25149746  0.24917105  0.74933836  1
  Ti  Ti26  1  0.25082157  0.75025439  0.25110929  1
  Ti  Ti27  1  0.25104823  0.75040725  0.74850368  1
  Ti  Ti28  1  0.74875204  0.24997829  0.24810891  1
  Ti  Ti29  1  0.74882991  0.24848508  0.75096685  1
  Ti  Ti30  1  0.74786696  0.74962166  0.25123930  1
  Ti  Ti31  1  0.74912795  0.75041394  0.74792345  1
  Al  Al32  1  0.08496406  0.08941260  0.09689739  1
  Al  Al33  1  0.08458580  0.08447985  0.57910044  1
  Al  Al34  1  0.07940230  0.57608656  0.07988024  1
  Al  Al35  1  0.08328161  0.59238018  0.57249203  1
  Al  Al36  1  0.58355408  0.08230878  0.07818821  1
  Al  Al37  1  0.59130401  0.08137126  0.58578165  1
  Al  Al38  1  0.59288818  0.58080311  0.08133981  1
  Al  Al39  1  0.58632097  0.58428214  0.59271518  1
  Al  Al40  1  0.41594066  0.42157922  0.08259652  1
  Al  Al41  1  0.42704802  0.41770358  0.57373855  1
  Al  Al42  1  0.41255469  0.92036620  0.07874044  1
  Al  Al43  1  0.42466649  0.91344031  0.58564575  1
  Al  Al44  1  0.91656938  0.41347081  0.08753645  1
  Al  Al45  1  0.91231405  0.41694916  0.59181887  1
  Al  Al46  1  0.92582902  0.93106465  0.07736542  1
  Al  Al47  1  0.90837731  0.90915942  0.58337156  1
  Al  Al48  1  0.39939398  0.08641864  0.41773609  1
  Al  Al49  1  0.41399727  0.08606159  0.92203060  1
  Al  Al50  1  0.40030322  0.58316638  0.41962027  1
  Al  Al51  1  0.41875155  0.59272194  0.91671940  1
  Al  Al52  1  0.92546734  0.08368265  0.41447387  1
  Al  Al53  1  0.92279140  0.08712539  0.91598443  1
  Al  Al54  1  0.91745705  0.58701610  0.42394611  1
  Al  Al55  1  0.92092373  0.58086393  0.91373944  1
  Al  Al56  1  0.08499252  0.42043093  0.41502266  1
  Al  Al57  1  0.07815548  0.40884613  0.91730838  1
  Al  Al58  1  0.09517216  0.92487478  0.41604675  1
  Al  Al59  1  0.08000260  0.91886740  0.90754061  1
  Al  Al60  1  0.59283969  0.41542493  0.42114697  1
  Al  Al61  1  0.58560882  0.41206539  0.92327212  1
  Al  Al62  1  0.59175884  0.91365409  0.43042885  1
  Al  Al63  1  0.57504163  0.91261488  0.90759799  1
  Al  Al64  1  0.09096869  0.08636412  0.40704355  1
  Al  Al65  1  0.08024326  0.08228391  0.91447651  1
  Al  Al66  1  0.09292761  0.58694293  0.41483955  1
  Al  Al67  1  0.07720973  0.58449412  0.91761386  1
  Al  Al68  1  0.58370214  0.08353016  0.42587950  1
  Al  Al69  1  0.58074287  0.08393927  0.91762463  1
  Al  Al70  1  0.58994511  0.57542028  0.42311906  1
  Al  Al71  1  0.58184160  0.59351353  0.91930023  1
  Al  Al72  1  0.41023513  0.42174734  0.41206333  1
  Al  Al73  1  0.42262692  0.41847950  0.92003487  1
  Al  Al74  1  0.40745393  0.92679447  0.41717254  1
  Al  Al75  1  0.41855284  0.90862133  0.91472761  1
  Al  Al76  1  0.91851270  0.41697014  0.42076707  1
  Al  Al77  1  0.91906928  0.40912943  0.91127648  1
  Al  Al78  1  0.90823308  0.91454664  0.42739472  1
  Al  Al79  1  0.92664277  0.91397035  0.90560661  1
  Al  Al80  1  0.07851142  0.41212612  0.08263913  1
  Al  Al81  1  0.07234949  0.41042537  0.57999567  1
  Al  Al82  1  0.08953684  0.93246914  0.08781842  1
  Al  Al83  1  0.08253788  0.91614103  0.58006448  1
  Al  Al84  1  0.59483832  0.41932981  0.08337048  1
  Al  Al85  1  0.59196646  0.41755779  0.58536484  1
  Al  Al86  1  0.57785829  0.92090455  0.07896034  1
  Al  Al87  1  0.59109143  0.90959159  0.59168706  1
  Al  Al88  1  0.40637378  0.08479946  0.07984069  1
  Al  Al89  1  0.41289132  0.08629462  0.57808472  1
  Al  Al90  1  0.41044090  0.58328941  0.07905737  1
  Al  Al91  1  0.42233754  0.59603507  0.58010760  1
  Al  Al92  1  0.92462881  0.09294384  0.08809756  1
  Al  Al93  1  0.91769960  0.08002820  0.58350306  1
  Al  Al94  1  0.91640610  0.57509905  0.08374596  1
  Al  Al95  1  0.90633674  0.58090527  0.58538013  1
  Al  Al96  1  0.25088348  0.13356483  0.13567661  1
  Al  Al97  1  0.25130151  0.13536688  0.63352099  1
  Al  Al98  1  0.25605169  0.63467417  0.13571924  1
  Al  Al99  1  0.25110667  0.63561004  0.62973906  1
  Al  Al100  1  0.74738297  0.13382437  0.13072350  1
  Al  Al101  1  0.74828137  0.12915495  0.63749876  1
  Al  Al102  1  0.74179097  0.63031117  0.13304595  1
  Al  Al103  1  0.74687068  0.63297050  0.63413254  1
  Al  Al104  1  0.25466021  0.36282944  0.13785824  1
  Al  Al105  1  0.24999833  0.36262545  0.62896552  1
  Al  Al106  1  0.24933450  0.86507618  0.13726102  1
  Al  Al107  1  0.24952298  0.86340130  0.63696737  1
  Al  Al108  1  0.74659824  0.36612137  0.12963992  1
  Al  Al109  1  0.74662512  0.36773480  0.63534182  1
  Al  Al110  1  0.74658100  0.86730356  0.13373006  1
  Al  Al111  1  0.74701491  0.86838052  0.63511637  1
  Al  Al112  1  0.25103602  0.13089046  0.36364680  1
  Al  Al113  1  0.25228169  0.13554903  0.86498293  1
  Al  Al114  1  0.25209831  0.63500267  0.36882876  1
  Al  Al115  1  0.25373308  0.63606726  0.86441581  1
  Al  Al116  1  0.74859743  0.13583740  0.36278763  1
  Al  Al117  1  0.74964695  0.13508973  0.86978183  1
  Al  Al118  1  0.74727894  0.63592319  0.36657391  1
  Al  Al119  1  0.74283845  0.63648377  0.86432422  1
  Al  Al120  1  0.25578559  0.36307535  0.37099246  1
  Al  Al121  1  0.25291045  0.36311739  0.86375714  1
  Al  Al122  1  0.25120393  0.86797334  0.36529119  1
  Al  Al123  1  0.25138408  0.86356357  0.86032428  1
  Al  Al124  1  0.74570458  0.36221742  0.36825429  1
  Al  Al125  1  0.74760947  0.36448017  0.87103238  1
  Al  Al126  1  0.74781092  0.86480903  0.36888257  1
  Al  Al127  1  0.74960967  0.86665254  0.86185044  1
  Al  Al128  1  0.13472848  0.24519967  0.13731761  1
  Al  Al129  1  0.13449836  0.25036382  0.63374849  1
  Al  Al130  1  0.13616221  0.74578697  0.13792285  1
  Al  Al131  1  0.13348603  0.74776453  0.63426190  1
  Al  Al132  1  0.63481702  0.25208874  0.12889261  1
  Al  Al133  1  0.63741546  0.25013954  0.63424506  1
  Al  Al134  1  0.63097892  0.74779739  0.13587214  1
  Al  Al135  1  0.63811940  0.75087365  0.62859292  1
  Al  Al136  1  0.13811906  0.24994360  0.36389422  1
  Al  Al137  1  0.13487677  0.25012351  0.86628077  1
  Al  Al138  1  0.13901824  0.74828779  0.36408359  1
  Al  Al139  1  0.13458387  0.75287250  0.86573055  1
  Al  Al140  1  0.62924878  0.25159339  0.36186774  1
  Al  Al141  1  0.63613289  0.24804305  0.86771061  1
  Al  Al142  1  0.63427242  0.75058494  0.37033602  1
  Al  Al143  1  0.63383247  0.75129705  0.86033982  1
  Al  Al144  1  0.36391891  0.24851078  0.13152956  1
  Al  Al145  1  0.36458611  0.24714102  0.62724480  1
  Al  Al146  1  0.36801410  0.74901143  0.13837873  1
  Al  Al147  1  0.36841379  0.74601482  0.63225072  1
  Al  Al148  1  0.86108066  0.25004931  0.12876569  1
  Al  Al149  1  0.86136368  0.24908225  0.63496178  1
  Al  Al150  1  0.86191722  0.74483813  0.13579041  1
  Al  Al151  1  0.86333294  0.75536482  0.63346097  1
  Al  Al152  1  0.36680072  0.24749770  0.37078688  1
  Al  Al153  1  0.36386464  0.24763386  0.87257226  1
  Al  Al154  1  0.36493890  0.74633300  0.36896650  1
  Al  Al155  1  0.36711817  0.75030658  0.86429692  1
  Al  Al156  1  0.86426698  0.25002299  0.36512493  1
  Al  Al157  1  0.86354142  0.25261215  0.86856877  1
  Al  Al158  1  0.86222914  0.75318993  0.36498609  1
  Al  Al159  1  0.86358159  0.75045882  0.86236097  1
  Al  Al160  1  0.13951755  0.13091406  0.25077089  1
  Al  Al161  1  0.13617491  0.13714246  0.74802515  1
  Al  Al162  1  0.13883892  0.63444102  0.25093495  1
  Al  Al163  1  0.13792526  0.63581176  0.75062839  1
  Al  Al164  1  0.63398704  0.13316550  0.24854679  1
  Al  Al165  1  0.62978115  0.13638055  0.74813439  1
  Al  Al166  1  0.63216906  0.63517826  0.24805289  1
  Al  Al167  1  0.63275540  0.63449942  0.74258340  1
  Al  Al168  1  0.36551202  0.13240488  0.25583902  1
  Al  Al169  1  0.37121871  0.13795919  0.74826443  1
  Al  Al170  1  0.36621319  0.63479370  0.25227136  1
  Al  Al171  1  0.36677789  0.63822266  0.74695191  1
  Al  Al172  1  0.86518318  0.13564346  0.24523119  1
  Al  Al173  1  0.86184703  0.13111777  0.75015482  1
  Al  Al174  1  0.86146280  0.63461574  0.24922216  1
  Al  Al175  1  0.85976481  0.63525322  0.74661944  1
  Al  Al176  1  0.13711747  0.36290388  0.25172119  1
  Al  Al177  1  0.13554849  0.36312263  0.75116623  1
  Al  Al178  1  0.13656342  0.86870311  0.25196341  1
  Al  Al179  1  0.12908848  0.86222913  0.74771470  1
  Al  Al180  1  0.63216087  0.36315703  0.24655606  1
  Al  Al181  1  0.63707603  0.36568012  0.74827872  1
  Al  Al182  1  0.63585985  0.86758447  0.24862892  1
  Al  Al183  1  0.63422334  0.86569736  0.74717764  1
  Al  Al184  1  0.37089739  0.35998065  0.25395816  1
  Al  Al185  1  0.36502073  0.36081619  0.74767302  1
  Al  Al186  1  0.36450987  0.86527101  0.25220603  1
  Al  Al187  1  0.36828025  0.86258152  0.75065676  1
  Al  Al188  1  0.86136763  0.36357613  0.24894974  1
  Al  Al189  1  0.86002066  0.36224470  0.74956597  1
  Al  Al190  1  0.86200412  0.86723536  0.24705458  1
  Al  Al191  1  0.86603108  0.86839755  0.74703729  1
  Al  Al192  1  0.32225321  -0.00035124  0.67438001  1
  Al  Al193  1  0.67759891  0.00072331  0.81579725  1
  Al  Al194  1  -0.00036073  0.67343786  0.32229573  1
  Al  Al195  1  0.66883034  0.81345137  -0.00136618  1
  Al  Al196  1  0.18301200  0.32531308  0.00235901  1
  Al  Al197  1  0.68317878  0.18835941  0.49949333  1
  Al  Al198  1  0.32623658  0.81341092  0.00081633  1
  Al  Al199  1  0.50069315  0.83140872  0.32647475  1
  Al  Al200  1  0.50093320  0.68824776  0.81155121  1
  Al  Al201  1  0.18618629  0.17850831  0.49800512  1
  Al  Al202  1  0.81997852  0.32094086  0.50258798  1
  Al  Al203  1  0.32527009  0.81890801  0.50124872  1
  Al  Al204  1  -0.00111530  0.31021377  0.18102255  1
  Al  Al205  1  0.81811639  0.49883372  0.18416267  1
  Al  Al206  1  0.82641260  0.49866612  0.81398410  1
  Al  Al207  1  0.33201089  0.49944523  0.67063292  1
  Al  Al208  1  0.17222233  0.49934204  0.66729950  1
  Al  Al209  1  0.17614628  0.00036560  0.81512508  1
  Al  Al210  1  -0.00245730  0.31741965  0.68964264  1
  Al  Al211  1  0.81810840  0.68633036  0.50075431  1
  Al  Al212  1  0.31481690  -0.00057505  0.18769581  1
  Al  Al213  1  -0.00115340  0.18936817  0.81688112  1
  Al  Al214  1  0.00163144  0.18231493  0.31018678  1
  Al  Al215  1  0.49788332  0.17801208  0.17743021  1
  Al  Al216  1  0.19099964  0.49887800  0.32406146  1
  Al  Al217  1  0.32496018  0.49825574  0.18927791  1
  Al  Al218  1  0.67148396  0.50057608  0.81947566  1
  Al  Al219  1  0.50168908  0.80994891  0.68784348  1
  Al  Al220  1  -0.00312897  0.67503885  0.67637168  1
  Al  Al221  1  0.32936450  0.50062646  0.82768355  1
  Al  Al222  1  0.17306646  0.50013917  0.82854421  1
  Al  Al223  1  0.82474996  -0.00161841  0.32325370  1
  Al  Al224  1  0.00124676  0.83109415  0.33297940  1
  Al  Al225  1  0.81357722  0.66906454  -0.00136639  1
  Al  Al226  1  0.82947860  0.82614340  -0.00054428  1
  Al  Al227  1  0.68260166  0.49837824  0.31098433  1
  Al  Al228  1  0.50149327  0.32073382  0.67249325  1
  Al  Al229  1  0.49989958  0.66700018  0.32679334  1
  Al  Al230  1  0.17978194  0.17207833  -0.00032313  1
  Al  Al231  1  0.18845854  0.67245949  0.00071283  1
  Al  Al232  1  0.32990252  -0.00028562  0.82830373  1
  Al  Al233  1  0.17134379  0.83250413  -0.00019165  1
  Al  Al234  1  -0.00045691  0.68497655  0.82513064  1
  Al  Al235  1  0.50122073  0.32246254  0.82573091  1
  Al  Al236  1  0.17416251  0.81501931  0.49976607  1
  Al  Al237  1  0.17307451  0.49728555  0.17233450  1
  Al  Al238  1  0.00098437  0.82012327  0.16877660  1
  Au  Au239  1  0.49709772  0.16553885  0.34144273  1
  Au  Au240  1  0.81611642  0.49787969  0.17157350  1
  Au  Au241  1  0.50214441  0.33809161  0.33573803  1
  Au  Au242  1  0.50103883  0.66555552  0.15769203  1
  Au  Au243  1  -0.00080083  0.83696062  0.67479990  1
  Au  Au244  1  0.65889483  0.50187777  0.82981689  1
  Au  Au245  1  0.82627450  0.33625872  -0.00057365  1
  Au  Au246  1  0.66714039  -0.00087416  0.16698219  1
  Au  Au247  1  0.82748466  0.65902581  -0.00157857  1
  Au  Au248  1  0.67027808  0.67312460  0.50247884  1
  Au  Au249  1  0.49971999  0.65505180  0.33715645  1
  Au  Au250  1  0.33494044  0.32575017  0.49975057  1
  Au  Au251  1  0.50131190  0.84497526  0.33527186  1
  Au  Au252  1  0.33298226  0.32852985  -0.00003258  1
  Au  Au253  1  0.49615340  0.83210888  0.16302774  1
  Au  Au254  1  0.66290172  0.00034186  0.82424163  1
  Au  Au255  1  0.17301834  -0.00034367  0.66540056  1
  Au  Au256  1  0.83404600  0.16847127  -0.00024143  1
  Au  Au257  1  0.82730740  0.50350633  0.34091725  1
  Au  Au258  1  0.50337244  0.34110627  0.16704651  1
  Au  Au259  1  0.17533209  0.66197828  0.00254084  1
  Au  Au260  1  0.00061509  0.65732305  0.17398442  1
  Au  Au261  1  0.84317964  0.49833843  0.81739713  1
  Au  Au262  1  0.83501662  0.00493198  0.16749283  1
  Au  Au263  1  0.16463898  0.32556528  0.49899608  1
  Au  Au264  1  0.00293106  0.82713088  0.34842808  1
  Au  Au265  1  0.65617648  0.82449697  -0.00356004  1
  Au  Au266  1  0.17644698  0.84763475  -0.00271841  1
  Au  Au267  1  0.82238075  -0.00178834  0.66262330  1
  Au  Au268  1  0.49706213  0.16774428  0.16404326  1
  Au  Au269  1  0.00039153  0.17132237  0.66983188  1
  Au  Au270  1  0.32151591  -0.00070848  0.17156407  1
  Au  Au271  1  0.83989334  0.00200333  0.82821474  1
  Au  Au272  1  0.49585007  0.17418813  0.83660686  1
  Au  Au273  1  0.50111666  0.16966818  0.66156989  1
  Au  Au274  1  0.82855954  0.16217537  0.49778108  1
  Au  Au275  1  0.34695145  0.50443348  0.67038407  1
  Au  Au276  1  0.83658443  0.84194661  -0.00289135  1
  Au  Au277  1  0.81722062  0.33331413  0.50406841  1
  Au  Au278  1  0.66964008  0.00076694  0.33824539  1
  Au  Au279  1  0.16083970  0.49942956  0.66180393  1
  Au  Au280  1  0.16856125  0.16319393  0.00026256  1
  Au  Au281  1  -0.00307185  0.66394556  0.66821823  1
  Au  Au282  1  0.00034176  0.33013343  0.32746234  1
  Au  Au283  1  0.83325007  0.00007763  0.33226289  1
  Au  Au284  1  0.32878661  0.83119002  0.50094826  1
  Au  Au285  1  0.66658535  0.17729814  -0.00083804  1
  Au  Au286  1  0.00366137  0.83624017  0.16431503  1
  Au  Au287  1  0.16930750  0.49528895  0.83960877  1
