# generated using pymatgen
data_Ca24Ti8Al207Au49
_symmetry_space_group_name_H-M   'P 1'
_cell_length_a   17.32478130
_cell_length_b   17.32405110
_cell_length_c   17.32381780
_cell_angle_alpha   89.99686618
_cell_angle_beta   89.99812022
_cell_angle_gamma   89.99524123
_symmetry_Int_Tables_number   1
_chemical_formula_structural   Ca24Ti8Al207Au49
_chemical_formula_sum   'Ca24 Ti8 Al207 Au49'
_cell_volume   5199.49089430
_cell_formula_units_Z   1
loop_
 _symmetry_equiv_pos_site_id
 _symmetry_equiv_pos_as_xyz
  1  'x, y, z'
loop_
 _atom_site_type_symbol
 _atom_site_label
 _atom_site_symmetry_multiplicity
 _atom_site_fract_x
 _atom_site_fract_y
 _atom_site_fract_z
 _atom_site_occupancy
  Ca  Ca0  1  0.25477157  0.00124928  -0.00017640  1
  Ca  Ca1  1  0.25089783  0.00141075  0.49787435  1
  Ca  Ca2  1  0.25127145  0.50047589  -0.00050597  1
  Ca  Ca3  1  0.24761548  0.49929297  0.50105880  1
  Ca  Ca4  1  0.74501875  -0.00033252  0.00316126  1
  Ca  Ca5  1  0.74432675  0.00053394  0.49709117  1
  Ca  Ca6  1  0.74855667  0.50066658  0.00469108  1
  Ca  Ca7  1  0.74574041  0.50016520  0.49564744  1
  Ca  Ca8  1  0.00006541  0.24602437  -0.00012555  1
  Ca  Ca9  1  0.00245733  0.24650159  0.50033982  1
  Ca  Ca10  1  0.00026045  0.74988660  -0.00149396  1
  Ca  Ca11  1  0.00298982  0.74810211  0.50156520  1
  Ca  Ca12  1  0.49835836  0.24484775  0.00271350  1
  Ca  Ca13  1  0.49723612  0.24427815  0.49358859  1
  Ca  Ca14  1  0.49697214  0.75314958  -0.00038199  1
  Ca  Ca15  1  0.49898534  0.75049279  0.50036640  1
  Ca  Ca16  1  0.00015473  0.00346829  0.24803865  1
  Ca  Ca17  1  0.00089564  0.00277782  0.75189276  1
  Ca  Ca18  1  0.00049996  0.49857396  0.24383776  1
  Ca  Ca19  1  0.00671408  0.50071313  0.74834554  1
  Ca  Ca20  1  0.49874459  0.00379435  0.24562150  1
  Ca  Ca21  1  0.49883083  0.00192692  0.75266274  1
  Ca  Ca22  1  0.50045839  0.49756887  0.24718525  1
  Ca  Ca23  1  0.49735736  0.50043859  0.74906125  1
  Ti  Ti24  1  0.25124782  0.24763724  0.24863860  1
  Ti  Ti25  1  0.24882883  0.24834385  0.75150633  1
  Ti  Ti26  1  0.24998127  0.75226244  0.24933970  1
  Ti  Ti27  1  0.25032313  0.75118457  0.74994974  1
  Ti  Ti28  1  0.74747648  0.24836736  0.24855236  1
  Ti  Ti29  1  0.75162339  0.24906613  0.75205947  1
  Ti  Ti30  1  0.74896034  0.75092407  0.25010835  1
  Ti  Ti31  1  0.74992914  0.75196935  0.74937186  1
  Al  Al32  1  0.08767458  0.08133079  0.08576522  1
  Al  Al33  1  0.08139315  0.08656203  0.58605392  1
  Al  Al34  1  0.07699418  0.58773188  0.08820026  1
  Al  Al35  1  0.09429089  0.58543433  0.58804853  1
  Al  Al36  1  0.58936900  0.08315825  0.08598143  1
  Al  Al37  1  0.57619073  0.08619788  0.58263709  1
  Al  Al38  1  0.58606337  0.57495991  0.08791946  1
  Al  Al39  1  0.58281154  0.59698723  0.57698465  1
  Al  Al40  1  0.42145304  0.41803392  0.08791285  1
  Al  Al41  1  0.41982080  0.42295316  0.57704678  1
  Al  Al42  1  0.41423773  0.92107709  0.08691707  1
  Al  Al43  1  0.41871926  0.91288802  0.58848185  1
  Al  Al44  1  0.92010280  0.41878434  0.08482880  1
  Al  Al45  1  0.92966920  0.41992970  0.58274979  1
  Al  Al46  1  0.91199755  0.92002906  0.08375543  1
  Al  Al47  1  0.92274817  0.90872119  0.58905084  1
  Al  Al48  1  0.41240308  0.08805106  0.40231060  1
  Al  Al49  1  0.41731987  0.08380871  0.90564926  1
  Al  Al50  1  0.41635380  0.57978261  0.42261546  1
  Al  Al51  1  0.41010721  0.58924246  0.91887282  1
  Al  Al52  1  0.92357191  0.08661684  0.42068093  1
  Al  Al53  1  0.91971510  0.08831404  0.91441854  1
  Al  Al54  1  0.92020938  0.58287133  0.42094321  1
  Al  Al55  1  0.92325864  0.58691539  0.92523456  1
  Al  Al56  1  0.08330988  0.41882972  0.42294791  1
  Al  Al57  1  0.08689847  0.41309007  0.91715482  1
  Al  Al58  1  0.09605468  0.92475972  0.41829070  1
  Al  Al59  1  0.08160846  0.92008660  0.91381742  1
  Al  Al60  1  0.58238451  0.40969407  0.40643718  1
  Al  Al61  1  0.57862465  0.41312562  0.92317254  1
  Al  Al62  1  0.58404325  0.92346350  0.41769426  1
  Al  Al63  1  0.58001311  0.91235126  0.92708083  1
  Al  Al64  1  0.08768669  0.08320897  0.40924261  1
  Al  Al65  1  0.08063934  0.08651842  0.90980692  1
  Al  Al66  1  0.08929531  0.58842197  0.42509048  1
  Al  Al67  1  0.08176998  0.57995575  0.91617501  1
  Al  Al68  1  0.57658425  0.08680653  0.40569050  1
  Al  Al69  1  0.57836170  0.09091842  0.92198231  1
  Al  Al70  1  0.59003698  0.58075345  0.41954296  1
  Al  Al71  1  0.57194968  0.58000507  0.92177190  1
  Al  Al72  1  0.42403333  0.40874789  0.41009949  1
  Al  Al73  1  0.41762553  0.42064629  0.91784637  1
  Al  Al74  1  0.40746530  0.92576408  0.41162647  1
  Al  Al75  1  0.41308118  0.92198695  0.91178889  1
  Al  Al76  1  0.92471927  0.41958842  0.41742084  1
  Al  Al77  1  0.92342895  0.41552799  0.91927004  1
  Al  Al78  1  0.92180262  0.92745205  0.42855607  1
  Al  Al79  1  0.92025865  0.91717937  0.91892064  1
  Al  Al80  1  0.08071593  0.41230306  0.07980366  1
  Al  Al81  1  0.09161918  0.42113850  0.58858526  1
  Al  Al82  1  0.08634284  0.92220014  0.08552232  1
  Al  Al83  1  0.08147386  0.91212693  0.58640258  1
  Al  Al84  1  0.58512622  0.41431168  0.09388362  1
  Al  Al85  1  0.57642446  0.41823076  0.56799566  1
  Al  Al86  1  0.58915089  0.91890250  0.08754686  1
  Al  Al87  1  0.57636626  0.90883317  0.58706656  1
  Al  Al88  1  0.41572121  0.08006405  0.08911812  1
  Al  Al89  1  0.41693852  0.08572071  0.58380794  1
  Al  Al90  1  0.41117290  0.58321244  0.07863335  1
  Al  Al91  1  0.41830995  0.58827828  0.58372340  1
  Al  Al92  1  0.91270566  0.07955316  0.08207997  1
  Al  Al93  1  0.92299790  0.09037392  0.58461103  1
  Al  Al94  1  0.91661643  0.58878645  0.08780719  1
  Al  Al95  1  0.92415998  0.58515978  0.58034333  1
  Al  Al96  1  0.25492585  0.12641715  0.13433196  1
  Al  Al97  1  0.24872495  0.13309723  0.63806537  1
  Al  Al98  1  0.25384421  0.63684765  0.13219880  1
  Al  Al99  1  0.24430026  0.63469432  0.63368780  1
  Al  Al100  1  0.74063492  0.13215489  0.13429442  1
  Al  Al101  1  0.74769976  0.13316463  0.63982676  1
  Al  Al102  1  0.74654072  0.63641174  0.13562353  1
  Al  Al103  1  0.74883501  0.63899387  0.63023419  1
  Al  Al104  1  0.25247380  0.36150245  0.13645613  1
  Al  Al105  1  0.24549312  0.36261670  0.63785594  1
  Al  Al106  1  0.25209575  0.87133232  0.13179846  1
  Al  Al107  1  0.24921791  0.86707913  0.63494522  1
  Al  Al108  1  0.74276068  0.36538509  0.13696868  1
  Al  Al109  1  0.75288306  0.36135103  0.64101112  1
  Al  Al110  1  0.74554316  0.86299911  0.12768884  1
  Al  Al111  1  0.74674677  0.86585337  0.63229618  1
  Al  Al112  1  0.25215876  0.12926656  0.36076712  1
  Al  Al113  1  0.25002738  0.13133965  0.86789034  1
  Al  Al114  1  0.25002803  0.63650193  0.36500618  1
  Al  Al115  1  0.25100747  0.63689185  0.86624306  1
  Al  Al116  1  0.74409674  0.13785103  0.36304972  1
  Al  Al117  1  0.74836374  0.13670996  0.86425704  1
  Al  Al118  1  0.74624589  0.63597717  0.36783587  1
  Al  Al119  1  0.74861253  0.63439267  0.86272925  1
  Al  Al120  1  0.25149476  0.36140577  0.36496369  1
  Al  Al121  1  0.24881988  0.36221874  0.86377977  1
  Al  Al122  1  0.24853346  0.86955951  0.36564105  1
  Al  Al123  1  0.25215202  0.87011121  0.86594736  1
  Al  Al124  1  0.74378234  0.36109199  0.36118225  1
  Al  Al125  1  0.74934473  0.36520777  0.86507005  1
  Al  Al126  1  0.74810460  0.86540407  0.36720686  1
  Al  Al127  1  0.74558283  0.86363846  0.86934658  1
  Al  Al128  1  0.13816296  0.24185447  0.13535730  1
  Al  Al129  1  0.13033859  0.24634319  0.63926060  1
  Al  Al130  1  0.13773200  0.75224587  0.13492514  1
  Al  Al131  1  0.13815629  0.75043962  0.63127040  1
  Al  Al132  1  0.63247561  0.24653791  0.12939916  1
  Al  Al133  1  0.63507926  0.24765064  0.63629227  1
  Al  Al134  1  0.63297693  0.75428844  0.13430637  1
  Al  Al135  1  0.63089827  0.75045886  0.63259021  1
  Al  Al136  1  0.13854081  0.24546066  0.36281724  1
  Al  Al137  1  0.13115757  0.24765967  0.86308415  1
  Al  Al138  1  0.13920230  0.74755540  0.36919793  1
  Al  Al139  1  0.13735506  0.75435661  0.86601711  1
  Al  Al140  1  0.62591962  0.24729367  0.36073454  1
  Al  Al141  1  0.63430217  0.24793221  0.87235709  1
  Al  Al142  1  0.63506134  0.75175738  0.36815356  1
  Al  Al143  1  0.63289827  0.75336720  0.86482318  1
  Al  Al144  1  0.36442649  0.24407443  0.12952939  1
  Al  Al145  1  0.36257737  0.24890742  0.63761912  1
  Al  Al146  1  0.36237597  0.75453969  0.13111644  1
  Al  Al147  1  0.37064642  0.75288303  0.63841350  1
  Al  Al148  1  0.86046193  0.24761129  0.13506468  1
  Al  Al149  1  0.87368358  0.24791779  0.63853912  1
  Al  Al150  1  0.86294630  0.75117979  0.13419155  1
  Al  Al151  1  0.86662928  0.75098567  0.63407549  1
  Al  Al152  1  0.36911179  0.24662576  0.36281262  1
  Al  Al153  1  0.36345131  0.24438058  0.87111370  1
  Al  Al154  1  0.36541131  0.75443396  0.36179173  1
  Al  Al155  1  0.36270395  0.75320030  0.86989484  1
  Al  Al156  1  0.86418310  0.24962024  0.36351951  1
  Al  Al157  1  0.87186830  0.24780507  0.86434189  1
  Al  Al158  1  0.86277008  0.74266203  0.36792424  1
  Al  Al159  1  0.86536401  0.75774335  0.86515528  1
  Al  Al160  1  0.13968706  0.12575938  0.24885339  1
  Al  Al161  1  0.13053045  0.13492228  0.75294755  1
  Al  Al162  1  0.13627788  0.63409046  0.24554830  1
  Al  Al163  1  0.13811609  0.63102952  0.75056787  1
  Al  Al164  1  0.62681164  0.13715190  0.24699179  1
  Al  Al165  1  0.63301407  0.13456122  0.75570070  1
  Al  Al166  1  0.63641157  0.63672079  0.24814274  1
  Al  Al167  1  0.63446802  0.63812607  0.74963689  1
  Al  Al168  1  0.36994011  0.13472171  0.24979917  1
  Al  Al169  1  0.36333758  0.13096839  0.75440383  1
  Al  Al170  1  0.36277384  0.63687614  0.25055447  1
  Al  Al171  1  0.36252216  0.63622276  0.74658267  1
  Al  Al172  1  0.86170300  0.13468926  0.24664402  1
  Al  Al173  1  0.86832414  0.13523585  0.74994602  1
  Al  Al174  1  0.86880112  0.63923051  0.24480524  1
  Al  Al175  1  0.86460684  0.63680537  0.74884859  1
  Al  Al176  1  0.13684811  0.36499745  0.24979655  1
  Al  Al177  1  0.13133583  0.36704280  0.75114846  1
  Al  Al178  1  0.13881027  0.87213111  0.24838956  1
  Al  Al179  1  0.12787185  0.86192824  0.74887810  1
  Al  Al180  1  0.63092245  0.36149815  0.24997501  1
  Al  Al181  1  0.63262735  0.36117024  0.75505173  1
  Al  Al182  1  0.63548580  0.86555454  0.24863667  1
  Al  Al183  1  0.63393110  0.86686613  0.74649626  1
  Al  Al184  1  0.36637807  0.36161588  0.25325592  1
  Al  Al185  1  0.36518533  0.36315167  0.75128850  1
  Al  Al186  1  0.36086115  0.87014188  0.24971468  1
  Al  Al187  1  0.36269122  0.86881795  0.75056927  1
  Al  Al188  1  0.86409862  0.36214473  0.24930324  1
  Al  Al189  1  0.87357563  0.36297451  0.75048422  1
  Al  Al190  1  0.86199597  0.86464460  0.24712227  1
  Al  Al191  1  0.86998319  0.86428448  0.74677470  1
  Al  Al192  1  0.00157149  0.82940001  0.32879405  1
  Al  Al193  1  0.00302350  0.67336025  0.31669640  1
  Al  Al194  1  0.18101641  0.31852873  0.00033713  1
  Al  Al195  1  0.67608449  0.00203060  0.30948295  1
  Al  Al196  1  0.81943707  0.32667958  0.00026216  1
  Al  Al197  1  0.80773846  -0.00124140  0.17773402  1
  Al  Al198  1  0.00096203  0.18011491  0.31618076  1
  Al  Al199  1  0.00002639  0.81659447  0.17009851  1
  Al  Al200  1  0.49791706  0.31609900  0.18642899  1
  Al  Al201  1  0.66628994  0.68427191  -0.00054252  1
  Al  Al202  1  0.49849966  0.30919674  0.82120967  1
  Al  Al203  1  0.82663083  0.00098986  0.67160460  1
  Al  Al204  1  0.49791015  0.18000043  0.68864948  1
  Al  Al205  1  0.67157597  0.49906265  0.31220800  1
  Al  Al206  1  0.82677145  0.50324453  0.31736856  1
  Al  Al207  1  0.31372440  0.49930281  0.66685924  1
  Al  Al208  1  0.81461207  0.17038586  -0.00049362  1
  Al  Al209  1  0.31624226  0.67433464  0.50105246  1
  Al  Al210  1  0.17953104  0.49990209  0.32572334  1
  Al  Al211  1  0.82508329  -0.00030978  0.82798628  1
  Al  Al212  1  0.82334004  0.68401293  -0.00075604  1
  Al  Al213  1  0.66733162  -0.00005446  0.82949980  1
  Al  Al214  1  0.81565540  0.50021677  0.17001763  1
  Al  Al215  1  0.49822521  0.82798436  0.17742832  1
  Al  Al216  1  0.31807749  0.50035130  0.82522097  1
  Al  Al217  1  0.17580555  0.31798148  0.50185615  1
  Al  Al218  1  0.67053050  0.49948597  0.67042065  1
  Al  Al219  1  0.81709675  0.17348915  0.50103668  1
  Al  Al220  1  0.82862306  0.00229653  0.32955225  1
  Al  Al221  1  0.31903587  0.49957825  0.17989954  1
  Al  Al222  1  0.32423328  0.82271977  0.49972935  1
  Al  Al223  1  0.00377015  0.68224676  0.67303154  1
  Al  Al224  1  0.00070307  0.31622508  0.18061602  1
  Al  Al225  1  0.67722816  0.49935338  0.82965761  1
  Al  Al226  1  0.00122027  0.68079131  0.82511205  1
  Al  Al227  1  0.49687524  0.67612341  0.82055723  1
  Al  Al228  1  0.67178173  0.31590600  0.49800418  1
  Al  Al229  1  0.82142118  0.33131578  0.50015509  1
  Al  Al230  1  0.18095446  0.67881139  0.00017115  1
  Al  Al231  1  0.49850726  0.82928997  0.81894086  1
  Al  Al232  1  0.31858336  0.17368152  0.49895379  1
  Al  Al233  1  0.49770758  0.67241675  0.17069357  1
  Al  Al234  1  0.82369578  0.82212782  0.49663347  1
  Al  Al235  1  0.17866932  -0.00060803  0.67828241  1
  Al  Al236  1  0.83071246  0.50066489  0.68021731  1
  Al  Al237  1  0.32879901  0.32685275  0.50024856  1
  Al  Al238  1  0.50071987  0.67941402  0.32879322  1
  Au  Au239  1  0.33815313  0.83032070  -0.00021192  1
  Au  Au240  1  0.16379090  0.17157700  -0.00269694  1
  Au  Au241  1  0.17229471  0.83952484  -0.00154638  1
  Au  Au242  1  0.49934964  0.16881082  0.17334368  1
  Au  Au243  1  0.17025488  0.66591706  0.00062282  1
  Au  Au244  1  0.83797908  0.50418921  0.83973335  1
  Au  Au245  1  0.65933269  0.82340043  0.49998108  1
  Au  Au246  1  0.16850034  0.49739767  0.16198107  1
  Au  Au247  1  0.83537062  0.50100352  0.66852055  1
  Au  Au248  1  -0.00304329  0.16722935  0.16737921  1
  Au  Au249  1  0.82398398  0.66517257  0.50112298  1
  Au  Au250  1  -0.00000518  0.82822091  0.16541259  1
  Au  Au251  1  0.33467641  0.83128762  0.49972537  1
  Au  Au252  1  0.83881174  0.00367534  0.66896630  1
  Au  Au253  1  0.00198178  0.32183489  0.83408373  1
  Au  Au254  1  0.67010940  0.00096883  0.84201109  1
  Au  Au255  1  0.00565247  0.32428110  0.66713722  1
  Au  Au256  1  0.33494969  0.16295823  -0.00182257  1
  Au  Au257  1  0.32966137  0.49915819  0.67302554  1
  Au  Au258  1  0.83710142  0.32648670  0.50476232  1
  Au  Au259  1  0.32849014  0.33917334  0.00259542  1
  Au  Au260  1  0.82448393  0.83512804  -0.00191291  1
  Au  Au261  1  0.17863164  -0.00032417  0.17526861  1
  Au  Au262  1  0.17163703  0.50071413  0.33550291  1
  Au  Au263  1  0.66430763  0.32403530  0.00403957  1
  Au  Au264  1  0.16708626  -0.00050929  0.67401674  1
  Au  Au265  1  0.50064657  0.67916479  0.67059671  1
  Au  Au266  1  0.49672471  0.32348135  0.83027136  1
  Au  Au267  1  0.00311838  0.84664381  0.33140258  1
  Au  Au268  1  0.66854286  0.66775837  0.00145065  1
  Au  Au269  1  0.66442853  0.16597521  0.49616229  1
  Au  Au270  1  0.33668094  0.49682212  0.32860859  1
  Au  Au271  1  0.50410932  0.66345317  0.32876627  1
  Au  Au272  1  0.66203800  -0.00058560  0.66556626  1
  Au  Au273  1  0.33970401  0.00101242  0.67697967  1
  Au  Au274  1  0.50059354  0.32350064  0.65448118  1
  Au  Au275  1  0.83178371  0.32318950  0.00031817  1
  Au  Au276  1  0.66531327  0.49982297  0.83418287  1
  Au  Au277  1  0.16428439  0.82287645  0.50025078  1
  Au  Au278  1  0.16784631  0.49867484  0.82720769  1
  Au  Au279  1  0.17536907  0.00091812  0.83280869  1
  Au  Au280  1  0.16791586  0.16908190  0.49827423  1
  Au  Au281  1  0.49797012  0.84724849  0.32476640  1
  Au  Au282  1  0.00289929  0.66807141  0.32816877  1
  Au  Au283  1  0.83273915  0.83065084  0.49869852  1
  Au  Au284  1  -0.00134001  0.83072587  0.82379473  1
  Au  Au285  1  0.00454159  0.32878616  0.33019709  1
  Au  Au286  1  0.82326495  0.49735626  0.33291078  1
  Au  Au287  1  0.66743268  0.49993772  0.65312509  1
