# generated using pymatgen
data_Ca24Ti8Al207Au49
_symmetry_space_group_name_H-M   'P 1'
_cell_length_a   17.32194843
_cell_length_b   17.32206201
_cell_length_c   17.32106341
_cell_angle_alpha   89.99902116
_cell_angle_beta   89.99985524
_cell_angle_gamma   89.99745092
_symmetry_Int_Tables_number   1
_chemical_formula_structural   Ca24Ti8Al207Au49
_chemical_formula_sum   'Ca24 Ti8 Al207 Au49'
_cell_volume   5197.21737164
_cell_formula_units_Z   1
loop_
 _symmetry_equiv_pos_site_id
 _symmetry_equiv_pos_as_xyz
  1  'x, y, z'
loop_
 _atom_site_type_symbol
 _atom_site_label
 _atom_site_symmetry_multiplicity
 _atom_site_fract_x
 _atom_site_fract_y
 _atom_site_fract_z
 _atom_site_occupancy
  Ca  Ca0  1  0.24825353  0.00186779  -0.00163586  1
  Ca  Ca1  1  0.24833655  -0.00448218  0.50227233  1
  Ca  Ca2  1  0.24728104  0.49901995  -0.00008367  1
  Ca  Ca3  1  0.24694989  0.50378786  0.50182692  1
  Ca  Ca4  1  0.75003167  -0.00579524  0.00316679  1
  Ca  Ca5  1  0.74931720  -0.00086266  0.49817885  1
  Ca  Ca6  1  0.75356155  0.50447108  -0.00108521  1
  Ca  Ca7  1  0.75335533  0.49938141  0.50225751  1
  Ca  Ca8  1  0.00783101  0.25327481  0.00083060  1
  Ca  Ca9  1  -0.00381823  0.25717401  0.49872642  1
  Ca  Ca10  1  -0.00011012  0.74730119  0.00195391  1
  Ca  Ca11  1  0.00016954  0.74531038  0.49694100  1
  Ca  Ca12  1  0.49553084  0.25014042  -0.00624769  1
  Ca  Ca13  1  0.50129206  0.25159714  0.50287900  1
  Ca  Ca14  1  0.49895941  0.74999258  -0.00266446  1
  Ca  Ca15  1  0.49840085  0.74525389  0.50366099  1
  Ca  Ca16  1  0.00039665  0.00248182  0.24347139  1
  Ca  Ca17  1  0.00365351  -0.00000680  0.75222534  1
  Ca  Ca18  1  0.00624505  0.49643925  0.24832145  1
  Ca  Ca19  1  -0.00375367  0.49835598  0.74450843  1
  Ca  Ca20  1  0.50225598  0.00020223  0.24733901  1
  Ca  Ca21  1  0.49612084  -0.00126525  0.75627044  1
  Ca  Ca22  1  0.49441751  0.49992860  0.25318156  1
  Ca  Ca23  1  0.50195664  0.50262156  0.75061131  1
  Ti  Ti24  1  0.24945088  0.25144828  0.24714631  1
  Ti  Ti25  1  0.25071829  0.25125443  0.75105416  1
  Ti  Ti26  1  0.24989156  0.74971576  0.24987583  1
  Ti  Ti27  1  0.25255132  0.74948267  0.74997522  1
  Ti  Ti28  1  0.75008079  0.24829730  0.25077710  1
  Ti  Ti29  1  0.74884220  0.25194290  0.74938565  1
  Ti  Ti30  1  0.74893435  0.75207877  0.24935622  1
  Ti  Ti31  1  0.74775890  0.74861765  0.75056027  1
  Al  Al32  1  0.09164929  0.08919729  0.08351296  1
  Al  Al33  1  0.09018310  0.08231248  0.58052485  1
  Al  Al34  1  0.08401269  0.58291024  0.09330713  1
  Al  Al35  1  0.08666965  0.57918997  0.58704757  1
  Al  Al36  1  0.58269023  0.07325312  0.08959772  1
  Al  Al37  1  0.57782617  0.09821199  0.58315051  1
  Al  Al38  1  0.58261438  0.58309459  0.07066227  1
  Al  Al39  1  0.57968553  0.58665613  0.59071057  1
  Al  Al40  1  0.41141256  0.41987603  0.08005691  1
  Al  Al41  1  0.42433963  0.41918353  0.58916568  1
  Al  Al42  1  0.40928282  0.91406184  0.07173337  1
  Al  Al43  1  0.41718769  0.90609230  0.58630542  1
  Al  Al44  1  0.93216278  0.41701642  0.08654224  1
  Al  Al45  1  0.91012408  0.41643709  0.57950121  1
  Al  Al46  1  0.90987796  0.90431134  0.08385161  1
  Al  Al47  1  0.92579664  0.91814450  0.57670924  1
  Al  Al48  1  0.42155889  0.07618713  0.42525564  1
  Al  Al49  1  0.41179522  0.08909821  0.91207878  1
  Al  Al50  1  0.41063908  0.58916446  0.42277624  1
  Al  Al51  1  0.41704424  0.59786010  0.91507475  1
  Al  Al52  1  0.90857443  0.08791636  0.42066698  1
  Al  Al53  1  0.92980667  0.07629150  0.92565874  1
  Al  Al54  1  0.90989492  0.57460412  0.41741975  1
  Al  Al55  1  0.90123529  0.58526165  0.92156986  1
  Al  Al56  1  0.08025749  0.41648193  0.41687080  1
  Al  Al57  1  0.09015631  0.41341079  0.92566618  1
  Al  Al58  1  0.08949117  0.91542872  0.42472151  1
  Al  Al59  1  0.08821731  0.92789202  0.91749545  1
  Al  Al60  1  0.58734492  0.42084662  0.42054743  1
  Al  Al61  1  0.57875096  0.41894324  0.90448195  1
  Al  Al62  1  0.58281894  0.91863065  0.41768235  1
  Al  Al63  1  0.57781208  0.90472849  0.91984938  1
  Al  Al64  1  0.08844880  0.08662808  0.42382150  1
  Al  Al65  1  0.09593244  0.08999085  0.91963787  1
  Al  Al66  1  0.08513184  0.57921599  0.41805940  1
  Al  Al67  1  0.08206247  0.57704056  0.92516044  1
  Al  Al68  1  0.58690160  0.08052827  0.42057895  1
  Al  Al69  1  0.57032408  0.08451036  0.91315428  1
  Al  Al70  1  0.58148668  0.57973696  0.41768879  1
  Al  Al71  1  0.58407483  0.58913837  0.90883703  1
  Al  Al72  1  0.42215183  0.42922301  0.42070002  1
  Al  Al73  1  0.41894220  0.40926269  0.91431769  1
  Al  Al74  1  0.41728495  0.91204356  0.42361515  1
  Al  Al75  1  0.41441135  0.90661408  0.91137343  1
  Al  Al76  1  0.90903643  0.41180917  0.41457741  1
  Al  Al77  1  0.91364656  0.42681294  0.90818452  1
  Al  Al78  1  0.91830698  0.92335476  0.41917945  1
  Al  Al79  1  0.90850110  0.90770754  0.92710040  1
  Al  Al80  1  0.09277973  0.41019484  0.08997151  1
  Al  Al81  1  0.08541980  0.42109953  0.58184483  1
  Al  Al82  1  0.08586647  0.92233398  0.08742419  1
  Al  Al83  1  0.09224149  0.91759873  0.58252421  1
  Al  Al84  1  0.57330577  0.42084030  0.07614201  1
  Al  Al85  1  0.58457846  0.41454537  0.59005667  1
  Al  Al86  1  0.59918255  0.91401049  0.08076383  1
  Al  Al87  1  0.57420473  0.90884051  0.58356877  1
  Al  Al88  1  0.41907368  0.08326861  0.07505097  1
  Al  Al89  1  0.42211962  0.09062212  0.59042842  1
  Al  Al90  1  0.40488546  0.58460073  0.07450038  1
  Al  Al91  1  0.41549536  0.59106741  0.58543917  1
  Al  Al92  1  0.92544313  0.07839294  0.08556542  1
  Al  Al93  1  0.91392696  0.08986329  0.57361675  1
  Al  Al94  1  0.91989910  0.59618142  0.08382270  1
  Al  Al95  1  0.91273137  0.57834382  0.58518939  1
  Al  Al96  1  0.24389448  0.13217961  0.13049695  1
  Al  Al97  1  0.24661558  0.13659010  0.63663490  1
  Al  Al98  1  0.24818446  0.63631718  0.13122966  1
  Al  Al99  1  0.25208021  0.63558935  0.63372915  1
  Al  Al100  1  0.75101226  0.12886448  0.13538123  1
  Al  Al101  1  0.75317900  0.13818087  0.63085655  1
  Al  Al102  1  0.75287297  0.63995865  0.12411407  1
  Al  Al103  1  0.74778915  0.62993464  0.63648932  1
  Al  Al104  1  0.24661051  0.36487610  0.12672220  1
  Al  Al105  1  0.24787729  0.36877358  0.63831048  1
  Al  Al106  1  0.25021598  0.86570184  0.13273122  1
  Al  Al107  1  0.25233687  0.86148554  0.63027902  1
  Al  Al108  1  0.75372250  0.36287312  0.13326566  1
  Al  Al109  1  0.75177493  0.37158322  0.63505068  1
  Al  Al110  1  0.75141390  0.86698282  0.13214367  1
  Al  Al111  1  0.74896106  0.86109726  0.63098191  1
  Al  Al112  1  0.24648349  0.13503674  0.36372691  1
  Al  Al113  1  0.24839399  0.13617107  0.86701530  1
  Al  Al114  1  0.24798969  0.63474728  0.36737602  1
  Al  Al115  1  0.25390541  0.63437184  0.86903425  1
  Al  Al116  1  0.75057520  0.13147766  0.36741847  1
  Al  Al117  1  0.74821683  0.13520146  0.86354848  1
  Al  Al118  1  0.74982605  0.63583133  0.36449769  1
  Al  Al119  1  0.75042737  0.63687477  0.87072003  1
  Al  Al120  1  0.24509739  0.36529658  0.36114313  1
  Al  Al121  1  0.24969733  0.36291009  0.87155027  1
  Al  Al122  1  0.24833219  0.86467915  0.37130691  1
  Al  Al123  1  0.25438104  0.86205011  0.86847737  1
  Al  Al124  1  0.75764652  0.36654431  0.36872284  1
  Al  Al125  1  0.75232265  0.36705808  0.86493489  1
  Al  Al126  1  0.74991960  0.86961032  0.36756923  1
  Al  Al127  1  0.74812029  0.86369694  0.86714095  1
  Al  Al128  1  0.13649700  0.25273824  0.13033378  1
  Al  Al129  1  0.13715006  0.24910480  0.63528703  1
  Al  Al130  1  0.13327373  0.74363246  0.13422767  1
  Al  Al131  1  0.13675347  0.75283257  0.63508815  1
  Al  Al132  1  0.63613636  0.25282420  0.13504567  1
  Al  Al133  1  0.63432460  0.24860245  0.63436785  1
  Al  Al134  1  0.63859771  0.75550528  0.12469709  1
  Al  Al135  1  0.63088930  0.74875300  0.63307846  1
  Al  Al136  1  0.13653039  0.24973955  0.36138045  1
  Al  Al137  1  0.13726872  0.25065378  0.86891060  1
  Al  Al138  1  0.13637804  0.75047683  0.36422890  1
  Al  Al139  1  0.13942799  0.74875009  0.86837846  1
  Al  Al140  1  0.63891360  0.25030901  0.36755671  1
  Al  Al141  1  0.63054470  0.25179972  0.86220039  1
  Al  Al142  1  0.63740836  0.75304658  0.36852754  1
  Al  Al143  1  0.63736011  0.74953140  0.87288931  1
  Al  Al144  1  0.36164602  0.25247498  0.13329021  1
  Al  Al145  1  0.36685070  0.24554087  0.63694408  1
  Al  Al146  1  0.36359875  0.75098872  0.13015784  1
  Al  Al147  1  0.36824086  0.74998766  0.63147269  1
  Al  Al148  1  0.86518862  0.25027819  0.13652578  1
  Al  Al149  1  0.86307977  0.25458156  0.63260052  1
  Al  Al150  1  0.86305786  0.75224203  0.13223470  1
  Al  Al151  1  0.86360422  0.74933806  0.63773994  1
  Al  Al152  1  0.36428983  0.25207936  0.36304520  1
  Al  Al153  1  0.36876252  0.25023560  0.86407726  1
  Al  Al154  1  0.36124484  0.74982645  0.37199919  1
  Al  Al155  1  0.36575417  0.75077421  0.86953122  1
  Al  Al156  1  0.86281903  0.24919288  0.36803322  1
  Al  Al157  1  0.86394852  0.25288297  0.86639478  1
  Al  Al158  1  0.86273975  0.74998079  0.36423230  1
  Al  Al159  1  0.86326094  0.74865570  0.87058961  1
  Al  Al160  1  0.13719056  0.13284889  0.24233244  1
  Al  Al161  1  0.13832490  0.13467005  0.75614362  1
  Al  Al162  1  0.13751192  0.62894127  0.24962264  1
  Al  Al163  1  0.13775186  0.63299525  0.74852647  1
  Al  Al164  1  0.63718516  0.13013630  0.25075045  1
  Al  Al165  1  0.63129544  0.13573087  0.75091006  1
  Al  Al166  1  0.63851113  0.64073455  0.24703406  1
  Al  Al167  1  0.63532268  0.63614631  0.74937059  1
  Al  Al168  1  0.35956869  0.13372212  0.24700454  1
  Al  Al169  1  0.36714192  0.13687885  0.75332163  1
  Al  Al170  1  0.35985726  0.63779889  0.24979169  1
  Al  Al171  1  0.36793737  0.63845245  0.74816181  1
  Al  Al172  1  0.86245099  0.13003287  0.24971335  1
  Al  Al173  1  0.86225339  0.13706332  0.75032502  1
  Al  Al174  1  0.86256463  0.63877686  0.24597301  1
  Al  Al175  1  0.86028551  0.63186337  0.75163527  1
  Al  Al176  1  0.13586302  0.36891161  0.24387739  1
  Al  Al177  1  0.13629435  0.36562781  0.74995166  1
  Al  Al178  1  0.13893882  0.86644470  0.24563064  1
  Al  Al179  1  0.13885480  0.86331955  0.75229039  1
  Al  Al180  1  0.63206516  0.36196652  0.25238839  1
  Al  Al181  1  0.63541498  0.36661311  0.74872980  1
  Al  Al182  1  0.63768687  0.86923548  0.24652982  1
  Al  Al183  1  0.62514735  0.85766062  0.75555965  1
  Al  Al184  1  0.36609056  0.36518108  0.24722200  1
  Al  Al185  1  0.36655847  0.36549692  0.75356568  1
  Al  Al186  1  0.36450749  0.86272167  0.25082546  1
  Al  Al187  1  0.37383358  0.85884462  0.75190817  1
  Al  Al188  1  0.86355140  0.36561587  0.25194470  1
  Al  Al189  1  0.86344236  0.36845750  0.74916972  1
  Al  Al190  1  0.86202984  0.87026704  0.24789800  1
  Al  Al191  1  0.86142669  0.86388863  0.75358618  1
  Al  Al192  1  0.00156742  0.18695248  0.17291663  1
  Al  Al193  1  0.00088727  0.17480777  0.82844081  1
  Al  Al194  1  0.68331714  0.32259824  0.49872446  1
  Al  Al195  1  0.83147603  0.18034519  0.00094917  1
  Al  Al196  1  0.31321250  0.50025239  0.17291750  1
  Al  Al197  1  0.49911874  0.67724927  0.32659883  1
  Al  Al198  1  0.00002108  0.32778088  0.31413338  1
  Al  Al199  1  0.49864553  0.67086640  0.16780033  1
  Al  Al200  1  0.32065684  0.50167141  0.32531077  1
  Al  Al201  1  0.68589155  0.50237039  0.82033041  1
  Al  Al202  1  -0.00037333  0.67545932  0.67344224  1
  Al  Al203  1  0.17172525  0.31679455  0.49953952  1
  Al  Al204  1  0.50182312  0.83399821  0.17309011  1
  Al  Al205  1  0.67354738  0.49988660  0.17129925  1
  Al  Al206  1  0.31963715  0.50176382  0.67714938  1
  Al  Al207  1  0.50196541  0.69334791  0.81080148  1
  Al  Al208  1  0.67289193  -0.00422677  0.83176111  1
  Al  Al209  1  0.49925686  0.17827803  0.17292540  1
  Al  Al210  1  0.00179562  0.82497371  0.32779994  1
  Al  Al211  1  -0.00109621  0.66973474  0.31493841  1
  Al  Al212  1  0.17369016  -0.00046442  0.68641394  1
  Al  Al213  1  0.00109506  0.17079444  0.67585773  1
  Al  Al214  1  0.67015506  0.16807116  0.00260262  1
  Al  Al215  1  0.82024310  0.67643360  0.50124520  1
  Al  Al216  1  0.83162268  0.00005726  0.67832776  1
  Al  Al217  1  0.67515743  0.32991538  -0.00444149  1
  Al  Al218  1  0.31450581  0.18125644  -0.00021938  1
  Al  Al219  1  0.32436265  0.00074050  0.17333488  1
  Al  Al220  1  0.00113219  0.32925075  0.82866099  1
  Al  Al221  1  0.00114433  0.17151891  0.32282767  1
  Al  Al222  1  0.31119355  0.17209315  0.49889080  1
  Al  Al223  1  -0.00457225  0.66969982  0.83020624  1
  Al  Al224  1  0.17488381  0.82356743  0.00117896  1
  Al  Al225  1  0.18178025  0.68466850  0.50060752  1
  Al  Al226  1  0.68578844  0.50024708  0.32656410  1
  Al  Al227  1  -0.00035113  0.33046872  0.67304671  1
  Al  Al228  1  0.17750774  0.49919291  0.82311381  1
  Al  Al229  1  0.00147246  0.83033194  0.82194268  1
  Al  Al230  1  0.66898603  0.00189864  0.67237183  1
  Al  Al231  1  0.32212949  -0.00184153  0.67564271  1
  Al  Al232  1  0.31458899  -0.00136448  0.82946540  1
  Al  Al233  1  0.83241024  0.50162207  0.18026849  1
  Al  Al234  1  0.50140701  0.18052196  0.32939431  1
  Al  Al235  1  0.32691175  0.32802078  0.50141389  1
  Al  Al236  1  0.50039315  0.31534998  0.68644464  1
  Al  Al237  1  0.17690532  -0.00015538  0.31628029  1
  Al  Al238  1  0.00094969  0.81573001  0.17301173  1
  Au  Au239  1  0.00593600  0.82459822  0.65671056  1
  Au  Au240  1  0.49225428  0.65764108  0.17354176  1
  Au  Au241  1  0.67238208  0.50190823  0.67395147  1
  Au  Au242  1  0.32421355  0.82450565  0.50057587  1
  Au  Au243  1  0.84025404  0.33992292  0.00126212  1
  Au  Au244  1  0.66548603  0.33779873  -0.00358170  1
  Au  Au245  1  -0.00462579  0.65615774  0.32454437  1
  Au  Au246  1  0.82769419  -0.00195821  0.16366561  1
  Au  Au247  1  0.34075257  -0.00439009  0.32824204  1
  Au  Au248  1  0.00208570  0.83429073  0.83747420  1
  Au  Au249  1  0.66924878  0.83190460  0.50095952  1
  Au  Au250  1  -0.00561077  0.65732042  0.82747559  1
  Au  Au251  1  0.83733222  0.82489272  0.49922737  1
  Au  Au252  1  0.32423787  0.34409204  0.49713070  1
  Au  Au253  1  0.32287016  0.15968302  0.50133851  1
  Au  Au254  1  0.33108801  0.50141240  0.67157689  1
  Au  Au255  1  0.65895631  0.16501347  -0.00168231  1
  Au  Au256  1  0.84806422  0.50253431  0.17561515  1
  Au  Au257  1  0.50044656  0.81489974  0.67981599  1
  Au  Au258  1  0.67004564  0.66238286  0.50071235  1
  Au  Au259  1  0.32421270  0.32871826  -0.00171287  1
  Au  Au260  1  0.34067502  0.50255187  0.83151895  1
  Au  Au261  1  0.32342723  0.00307891  0.16083762  1
  Au  Au262  1  0.16958272  0.67288152  0.50330664  1
  Au  Au263  1  0.17046769  0.00108220  0.33202019  1
  Au  Au264  1  0.83573553  0.16849619  0.00086237  1
  Au  Au265  1  0.49730439  0.16401220  0.32751893  1
  Au  Au266  1  0.49579062  0.32703032  0.16087048  1
  Au  Au267  1  0.00328570  0.84168358  0.32309859  1
  Au  Au268  1  0.17820866  0.83610304  0.00047849  1
  Au  Au269  1  -0.00113163  0.17658184  0.33803260  1
  Au  Au270  1  0.00097974  0.17696150  0.66090396  1
  Au  Au271  1  0.66105026  -0.00608713  0.83516550  1
  Au  Au272  1  0.67475498  0.33150028  0.50140188  1
  Au  Au273  1  0.49906347  0.83486818  0.16083923  1
  Au  Au274  1  0.33801451  0.00142496  0.67736923  1
  Au  Au275  1  0.83495999  -0.00096155  0.66151641  1
  Au  Au276  1  0.65827732  0.49928941  0.17838347  1
  Au  Au277  1  0.17226320  0.49591354  0.32614487  1
  Au  Au278  1  0.82824776  0.00173906  0.33263119  1
  Au  Au279  1  0.16469429  0.49947846  0.82112554  1
  Au  Au280  1  0.68097401  0.16657296  0.49997000  1
  Au  Au281  1  0.17426235  0.66421305  0.00326053  1
  Au  Au282  1  0.65209475  0.00388153  0.66765692  1
  Au  Au283  1  0.50098186  0.82491008  0.33763236  1
  Au  Au284  1  0.50001219  0.34144959  0.33119177  1
  Au  Au285  1  0.67375098  0.67476095  -0.00216848  1
  Au  Au286  1  0.66393463  -0.00120158  0.32237677  1
  Au  Au287  1  0.83485834  0.00196638  0.84198966  1
