# generated using pymatgen
data_Ca24Ti8Al207Au49
_symmetry_space_group_name_H-M   'P 1'
_cell_length_a   17.32264270
_cell_length_b   17.31937522
_cell_length_c   17.32272132
_cell_angle_alpha   89.99838638
_cell_angle_beta   90.00649177
_cell_angle_gamma   90.00197449
_symmetry_Int_Tables_number   1
_chemical_formula_structural   Ca24Ti8Al207Au49
_chemical_formula_sum   'Ca24 Ti8 Al207 Au49'
_cell_volume   5197.11688467
_cell_formula_units_Z   1
loop_
 _symmetry_equiv_pos_site_id
 _symmetry_equiv_pos_as_xyz
  1  'x, y, z'
loop_
 _atom_site_type_symbol
 _atom_site_label
 _atom_site_symmetry_multiplicity
 _atom_site_fract_x
 _atom_site_fract_y
 _atom_site_fract_z
 _atom_site_occupancy
  Ca  Ca0  1  0.24840211  0.00410293  0.00070996  1
  Ca  Ca1  1  0.24863721  -0.00159844  0.50054342  1
  Ca  Ca2  1  0.24832610  0.50153027  0.00546049  1
  Ca  Ca3  1  0.24698383  0.49809282  0.49398987  1
  Ca  Ca4  1  0.75104965  0.00347173  0.00304425  1
  Ca  Ca5  1  0.75348750  0.00071499  0.49795571  1
  Ca  Ca6  1  0.74755469  0.49577393  0.00173459  1
  Ca  Ca7  1  0.74923917  0.50065593  0.49778143  1
  Ca  Ca8  1  -0.00320750  0.25005960  0.00041726  1
  Ca  Ca9  1  0.00173962  0.25047183  0.49560379  1
  Ca  Ca10  1  -0.00109706  0.74797488  0.00498400  1
  Ca  Ca11  1  0.00216614  0.75059855  0.49655831  1
  Ca  Ca12  1  0.50450167  0.25206984  0.00005188  1
  Ca  Ca13  1  0.49782459  0.25177547  0.49975089  1
  Ca  Ca14  1  0.50030086  0.74613918  0.00044503  1
  Ca  Ca15  1  0.49959176  0.74882595  0.50008707  1
  Ca  Ca16  1  -0.00092624  0.00386198  0.25373811  1
  Ca  Ca17  1  0.00358277  0.00269558  0.75107307  1
  Ca  Ca18  1  0.00429319  0.49907181  0.24720411  1
  Ca  Ca19  1  0.00007799  0.49986649  0.75315564  1
  Ca  Ca20  1  0.50251981  -0.00075162  0.24840273  1
  Ca  Ca21  1  0.49987720  -0.00174707  0.75221077  1
  Ca  Ca22  1  0.49658812  0.50135393  0.24818053  1
  Ca  Ca23  1  0.50125733  0.50265527  0.74613059  1
  Ti  Ti24  1  0.24886901  0.24974024  0.24989400  1
  Ti  Ti25  1  0.24733542  0.24861185  0.74938923  1
  Ti  Ti26  1  0.24871062  0.74902630  0.24883452  1
  Ti  Ti27  1  0.24981141  0.75151608  0.75034334  1
  Ti  Ti28  1  0.75076610  0.24902675  0.24986929  1
  Ti  Ti29  1  0.75170341  0.24939495  0.75070492  1
  Ti  Ti30  1  0.75062232  0.75007137  0.24943831  1
  Ti  Ti31  1  0.74899077  0.74991304  0.74973012  1
  Al  Al32  1  0.07981719  0.10129493  0.08532246  1
  Al  Al33  1  0.08037079  0.07902269  0.57622360  1
  Al  Al34  1  0.08737012  0.59234077  0.09324231  1
  Al  Al35  1  0.08186479  0.58142584  0.56984636  1
  Al  Al36  1  0.58835432  0.08659272  0.07802773  1
  Al  Al37  1  0.57911395  0.08338133  0.57960733  1
  Al  Al38  1  0.58471807  0.58169481  0.09573848  1
  Al  Al39  1  0.58565543  0.58854945  0.58003704  1
  Al  Al40  1  0.41718531  0.42011455  0.08305564  1
  Al  Al41  1  0.40183338  0.41558597  0.57954255  1
  Al  Al42  1  0.42072593  0.91727753  0.07575417  1
  Al  Al43  1  0.40725176  0.91624930  0.58496222  1
  Al  Al44  1  0.91034626  0.40771900  0.08147932  1
  Al  Al45  1  0.92235460  0.40620274  0.58577856  1
  Al  Al46  1  0.92335039  0.91537537  0.09358575  1
  Al  Al47  1  0.93104610  0.92366950  0.57904176  1
  Al  Al48  1  0.41060660  0.07409579  0.41309578  1
  Al  Al49  1  0.40949999  0.08813272  0.92127997  1
  Al  Al50  1  0.41981736  0.57493679  0.41371748  1
  Al  Al51  1  0.41939606  0.58330778  0.92252299  1
  Al  Al52  1  0.91779633  0.09820346  0.41117088  1
  Al  Al53  1  0.90970219  0.08723485  0.92667614  1
  Al  Al54  1  0.92749666  0.59124540  0.40849757  1
  Al  Al55  1  0.92286886  0.58239209  0.92486425  1
  Al  Al56  1  0.08727432  0.42149224  0.40833482  1
  Al  Al57  1  0.07528948  0.41261736  0.92699059  1
  Al  Al58  1  0.08719308  0.90558484  0.41558276  1
  Al  Al59  1  0.08168116  0.91982305  0.92039482  1
  Al  Al60  1  0.57873786  0.41885584  0.41777914  1
  Al  Al61  1  0.58898958  0.40798459  0.92484862  1
  Al  Al62  1  0.58034909  0.91942577  0.42029449  1
  Al  Al63  1  0.57901193  0.90867852  0.91380088  1
  Al  Al64  1  0.07885641  0.08902519  0.41284648  1
  Al  Al65  1  0.08831238  0.08963062  0.92546475  1
  Al  Al66  1  0.08944476  0.58657028  0.40422375  1
  Al  Al67  1  0.08225246  0.59509403  0.93161157  1
  Al  Al68  1  0.58353198  0.08172178  0.42104151  1
  Al  Al69  1  0.58784836  0.08605525  0.92152425  1
  Al  Al70  1  0.58542578  0.59129439  0.41991065  1
  Al  Al71  1  0.58182536  0.57946527  0.92161324  1
  Al  Al72  1  0.40673458  0.41235582  0.41685708  1
  Al  Al73  1  0.42261186  0.41791988  0.92418577  1
  Al  Al74  1  0.40638319  0.91734682  0.41744775  1
  Al  Al75  1  0.41980027  0.91255438  0.91326488  1
  Al  Al76  1  0.92421576  0.41525385  0.42048924  1
  Al  Al77  1  0.90975174  0.40473213  0.92226859  1
  Al  Al78  1  0.92728315  0.91893200  0.41026966  1
  Al  Al79  1  0.92307469  0.92567397  0.91798706  1
  Al  Al80  1  0.08587918  0.41833953  0.08751544  1
  Al  Al81  1  0.07997546  0.40782005  0.58551845  1
  Al  Al82  1  0.07654232  0.91018960  0.08744645  1
  Al  Al83  1  0.09079391  0.90715361  0.57843106  1
  Al  Al84  1  0.59627266  0.41902870  0.08540160  1
  Al  Al85  1  0.57795293  0.42716599  0.57754719  1
  Al  Al86  1  0.58080543  0.91710887  0.07667543  1
  Al  Al87  1  0.57739866  0.91660333  0.58243967  1
  Al  Al88  1  0.40924788  0.09061190  0.07689046  1
  Al  Al89  1  0.41448624  0.07433786  0.58763319  1
  Al  Al90  1  0.42105336  0.59040817  0.09080235  1
  Al  Al91  1  0.41665184  0.57502439  0.58848128  1
  Al  Al92  1  0.91738377  0.09978056  0.08744504  1
  Al  Al93  1  0.91429991  0.09140887  0.57246339  1
  Al  Al94  1  0.92402748  0.58843761  0.08930567  1
  Al  Al95  1  0.92294824  0.57634965  0.57351877  1
  Al  Al96  1  0.24914015  0.13540506  0.13217747  1
  Al  Al97  1  0.24815202  0.12972395  0.63626772  1
  Al  Al98  1  0.24725503  0.63985299  0.12931990  1
  Al  Al99  1  0.25180251  0.63443006  0.63670942  1
  Al  Al100  1  0.75482376  0.13156954  0.13416380  1
  Al  Al101  1  0.75353040  0.13537300  0.63159521  1
  Al  Al102  1  0.74531854  0.63224026  0.13837390  1
  Al  Al103  1  0.74651636  0.63660662  0.63254908  1
  Al  Al104  1  0.24895277  0.36225485  0.13431780  1
  Al  Al105  1  0.24929678  0.36509508  0.62836432  1
  Al  Al106  1  0.25153550  0.86312313  0.13622151  1
  Al  Al107  1  0.24902279  0.87094361  0.63778297  1
  Al  Al108  1  0.75192081  0.36349060  0.13063135  1
  Al  Al109  1  0.75197900  0.36244270  0.63258717  1
  Al  Al110  1  0.75122243  0.86954633  0.13805600  1
  Al  Al111  1  0.74594022  0.86572451  0.63500316  1
  Al  Al112  1  0.24924072  0.13034188  0.36351665  1
  Al  Al113  1  0.24804580  0.13564619  0.86855543  1
  Al  Al114  1  0.24541759  0.63250311  0.36314735  1
  Al  Al115  1  0.25139537  0.63705090  0.87211133  1
  Al  Al116  1  0.75184366  0.13171784  0.36614107  1
  Al  Al117  1  0.75199341  0.13839969  0.86831429  1
  Al  Al118  1  0.74883766  0.63409738  0.36239879  1
  Al  Al119  1  0.74734086  0.62989648  0.86504852  1
  Al  Al120  1  0.24654913  0.36314973  0.36890805  1
  Al  Al121  1  0.24684831  0.36397343  0.86380205  1
  Al  Al122  1  0.24508690  0.86763019  0.36165306  1
  Al  Al123  1  0.25006018  0.86687086  0.86589898  1
  Al  Al124  1  0.75308842  0.36577499  0.36650638  1
  Al  Al125  1  0.75341133  0.36664563  0.86652822  1
  Al  Al126  1  0.75149034  0.86791375  0.36381569  1
  Al  Al127  1  0.74451346  0.86587304  0.86227663  1
  Al  Al128  1  0.13377212  0.24567796  0.13623728  1
  Al  Al129  1  0.13636976  0.25385979  0.63427541  1
  Al  Al130  1  0.12836980  0.74761025  0.13868837  1
  Al  Al131  1  0.13813626  0.75320755  0.63531214  1
  Al  Al132  1  0.63365629  0.25135829  0.13568839  1
  Al  Al133  1  0.63930685  0.24461349  0.63259003  1
  Al  Al134  1  0.63013186  0.74710522  0.13892568  1
  Al  Al135  1  0.63342936  0.75033006  0.63437336  1
  Al  Al136  1  0.13506860  0.24828584  0.36380967  1
  Al  Al137  1  0.12872568  0.24749495  0.86262748  1
  Al  Al138  1  0.13365152  0.75017759  0.36167906  1
  Al  Al139  1  0.13549311  0.75050564  0.86474794  1
  Al  Al140  1  0.63773715  0.24821107  0.36455829  1
  Al  Al141  1  0.63805138  0.25253692  0.86670993  1
  Al  Al142  1  0.63620614  0.74784729  0.36311069  1
  Al  Al143  1  0.63612445  0.75056586  0.86447031  1
  Al  Al144  1  0.36905130  0.24642097  0.13635155  1
  Al  Al145  1  0.35965746  0.25163711  0.63368005  1
  Al  Al146  1  0.36969403  0.74784655  0.13716387  1
  Al  Al147  1  0.36345743  0.75578768  0.63448747  1
  Al  Al148  1  0.86244206  0.24781068  0.13088135  1
  Al  Al149  1  0.86608749  0.25063244  0.63170469  1
  Al  Al150  1  0.86788880  0.75035949  0.13959757  1
  Al  Al151  1  0.86366226  0.75014899  0.63263091  1
  Al  Al152  1  0.36139514  0.25498658  0.36683578  1
  Al  Al153  1  0.36291285  0.24643947  0.86167526  1
  Al  Al154  1  0.35879987  0.74926833  0.36339305  1
  Al  Al155  1  0.36336756  0.75086360  0.86379079  1
  Al  Al156  1  0.86509722  0.24610773  0.36747572  1
  Al  Al157  1  0.86678475  0.25172133  0.87034020  1
  Al  Al158  1  0.86611994  0.74807263  0.36242286  1
  Al  Al159  1  0.86186086  0.74958757  0.86493062  1
  Al  Al160  1  0.13057439  0.13536727  0.25279774  1
  Al  Al161  1  0.13349456  0.13117986  0.74881842  1
  Al  Al162  1  0.12879792  0.63659619  0.25104773  1
  Al  Al163  1  0.13730370  0.63530733  0.75028165  1
  Al  Al164  1  0.63964567  0.12938129  0.24552875  1
  Al  Al165  1  0.64010784  0.13115314  0.75128302  1
  Al  Al166  1  0.63160831  0.63260331  0.24662243  1
  Al  Al167  1  0.63504358  0.63472213  0.75200988  1
  Al  Al168  1  0.36224285  0.13526535  0.25269648  1
  Al  Al169  1  0.36143176  0.13181369  0.74779800  1
  Al  Al170  1  0.36183407  0.63465254  0.24729105  1
  Al  Al171  1  0.36328058  0.63511390  0.74921677  1
  Al  Al172  1  0.86898507  0.13540683  0.25025114  1
  Al  Al173  1  0.86878954  0.13970445  0.75290568  1
  Al  Al174  1  0.86708716  0.63277572  0.24711343  1
  Al  Al175  1  0.86278341  0.63519599  0.75140583  1
  Al  Al176  1  0.13532970  0.36437463  0.25050366  1
  Al  Al177  1  0.12999977  0.36481493  0.74839033  1
  Al  Al178  1  0.13295371  0.86722432  0.24713646  1
  Al  Al179  1  0.13730776  0.87169052  0.75131392  1
  Al  Al180  1  0.63886057  0.36713345  0.24397769  1
  Al  Al181  1  0.63869095  0.36298370  0.75176495  1
  Al  Al182  1  0.63625457  0.86829242  0.24838410  1
  Al  Al183  1  0.62855381  0.86547731  0.74854384  1
  Al  Al184  1  0.36355136  0.36322228  0.24637293  1
  Al  Al185  1  0.35846098  0.36454562  0.74603055  1
  Al  Al186  1  0.36264284  0.86520315  0.25242993  1
  Al  Al187  1  0.36685339  0.86734426  0.74912502  1
  Al  Al188  1  0.86480680  0.36248338  0.24842834  1
  Al  Al189  1  0.87029884  0.36176466  0.75175803  1
  Al  Al190  1  0.86647436  0.87012150  0.24883004  1
  Al  Al191  1  0.86355883  0.86408933  0.75162865  1
  Al  Al192  1  0.49901282  0.68935945  0.82954043  1
  Al  Al193  1  0.00115768  0.82318746  0.67958218  1
  Al  Al194  1  0.18243932  0.49829271  0.67004044  1
  Al  Al195  1  0.32983078  0.30874724  -0.00094757  1
  Al  Al196  1  0.49840126  0.17298119  0.67604555  1
  Al  Al197  1  0.17443394  0.18076792  0.49949483  1
  Al  Al198  1  0.49894656  0.32488864  0.82678944  1
  Al  Al199  1  0.32573512  0.67248096  0.49982410  1
  Al  Al200  1  0.49870160  0.82714680  0.31910978  1
  Al  Al201  1  0.16915819  0.00376885  0.17596012  1
  Al  Al202  1  0.67544154  0.32303215  0.50243351  1
  Al  Al203  1  0.49783437  0.67263363  0.31754474  1
  Al  Al204  1  0.50040247  0.17043944  0.31915701  1
  Al  Al205  1  0.67371801  0.81586490  0.00176368  1
  Al  Al206  1  0.17356525  0.68763703  0.49869383  1
  Al  Al207  1  0.68815349  0.18870672  0.00199018  1
  Al  Al208  1  0.49994350  0.32668989  0.32043952  1
  Al  Al209  1  0.00010974  0.31654923  0.32333212  1
  Al  Al210  1  0.83067777  0.50005412  0.67948089  1
  Al  Al211  1  0.32978375  -0.00033653  0.18439485  1
  Al  Al212  1  0.67932922  0.81416316  0.49781937  1
  Al  Al213  1  0.82513394  0.00123364  0.66897832  1
  Al  Al214  1  0.82060072  0.00222036  0.82698837  1
  Al  Al215  1  -0.00047656  0.68115369  0.82558907  1
  Al  Al216  1  0.81738060  0.67647873  0.49846055  1
  Al  Al217  1  0.67455490  0.50031538  0.67834539  1
  Al  Al218  1  0.81950807  0.67260339  0.00282772  1
  Al  Al219  1  0.31149553  0.49742464  0.31865300  1
  Al  Al220  1  0.33017280  0.17955981  0.50005385  1
  Al  Al221  1  0.16975153  0.81188172  0.00187051  1
  Al  Al222  1  0.32480174  -0.00199828  0.82325064  1
  Al  Al223  1  0.18160383  0.50178923  0.18756559  1
  Al  Al224  1  0.30799998  0.82558314  0.49916216  1
  Al  Al225  1  0.32822319  0.49995710  0.81616579  1
  Al  Al226  1  0.50141019  0.17199501  0.82891524  1
  Al  Al227  1  0.82289327  0.50171911  0.17457935  1
  Al  Al228  1  0.82367306  0.82749976  0.00033912  1
  Al  Al229  1  0.67601069  0.49990674  0.31711393  1
  Al  Al230  1  -0.00052475  0.31546558  0.17145906  1
  Al  Al231  1  0.16929530  0.50343578  0.83524783  1
  Al  Al232  1  0.49877483  0.68099948  0.67323525  1
  Al  Al233  1  0.32568554  0.81866628  0.00016561  1
  Al  Al234  1  -0.00007203  0.81465343  0.31217262  1
  Al  Al235  1  0.00122109  0.18415192  0.67446637  1
  Al  Al236  1  0.17261645  0.31252144  0.00048465  1
  Al  Al237  1  0.50123887  0.32421528  0.66994737  1
  Al  Al238  1  0.00098132  0.66983324  0.66999905  1
  Au  Au239  1  0.50087060  0.67255411  0.82648797  1
  Au  Au240  1  0.17121079  0.82868749  0.00540443  1
  Au  Au241  1  0.66847508  -0.00041644  0.33217152  1
  Au  Au242  1  0.66850907  0.66447978  0.00602164  1
  Au  Au243  1  0.83921713  0.32018032  0.49778495  1
  Au  Au244  1  0.82912535  0.66469039  0.49637134  1
  Au  Au245  1  0.00278939  0.17886525  0.65847589  1
  Au  Au246  1  0.49406940  0.82525320  0.33551986  1
  Au  Au247  1  0.16887449  0.00445876  0.83403228  1
  Au  Au248  1  0.67792022  0.16569625  0.50109881  1
  Au  Au249  1  0.32378297  0.32475455  -0.00149017  1
  Au  Au250  1  0.17075028  0.50045324  0.65854693  1
  Au  Au251  1  0.32672621  0.16323059  0.50328215  1
  Au  Au252  1  -0.00094576  0.83208285  0.82775478  1
  Au  Au253  1  0.66052973  0.49421060  0.82901268  1
  Au  Au254  1  0.17269776  -0.00043315  0.65928128  1
  Au  Au255  1  0.66642143  0.33158274  0.50056172  1
  Au  Au256  1  0.84134374  0.00178196  0.67396710  1
  Au  Au257  1  0.33607016  0.66243646  0.49997032  1
  Au  Au258  1  0.33532780  0.00315449  0.82735264  1
  Au  Au259  1  0.32858407  0.50287114  0.17176413  1
  Au  Au260  1  0.17338289  0.00039693  0.34325755  1
  Au  Au261  1  0.50053752  0.82124011  0.15869345  1
  Au  Au262  1  0.16709751  0.33069252  0.49551610  1
  Au  Au263  1  0.83148988  0.50155451  0.84433795  1
  Au  Au264  1  0.83099054  0.49945694  0.16529945  1
  Au  Au265  1  0.33956554  -0.00095451  0.17040005  1
  Au  Au266  1  0.66755052  0.82618801  0.49995507  1
  Au  Au267  1  0.66616969  -0.00244596  0.16504886  1
  Au  Au268  1  0.49517002  0.83278095  0.67197868  1
  Au  Au269  1  0.32934453  0.66843600  0.00304607  1
  Au  Au270  1  -0.00016667  0.33567829  0.82649226  1
  Au  Au271  1  0.83863289  0.00566561  0.16842479  1
  Au  Au272  1  0.15518892  0.00492322  0.16857628  1
  Au  Au273  1  0.84203209  0.83736826  0.49889896  1
  Au  Au274  1  0.49367417  0.33918891  0.67284944  1
  Au  Au275  1  0.16423841  0.50378997  0.85037927  1
  Au  Au276  1  0.49644009  0.17218928  0.33568260  1
  Au  Au277  1  0.84512515  0.49878851  0.32843568  1
  Au  Au278  1  0.34283121  0.49635138  0.82483455  1
  Au  Au279  1  0.66110850  0.00119330  0.67052202  1
  Au  Au280  1  0.50082665  0.17241753  0.15776249  1
  Au  Au281  1  0.67104804  -0.00245210  0.84112786  1
  Au  Au282  1  0.83522425  0.00378365  0.33496390  1
  Au  Au283  1  0.82964690  0.49575315  0.66311675  1
  Au  Au284  1  -0.00316803  0.16772962  0.84006691  1
  Au  Au285  1  0.83843256  0.83406958  0.00213739  1
  Au  Au286  1  0.50554199  0.34112310  0.17077764  1
  Au  Au287  1  0.66294814  0.50166902  0.32773449  1
