# generated using pymatgen
data_Ca24Ti8Al207Au49
_symmetry_space_group_name_H-M   'P 1'
_cell_length_a   17.31823734
_cell_length_b   17.31846446
_cell_length_c   17.31850519
_cell_angle_alpha   90.00272288
_cell_angle_beta   90.00104326
_cell_angle_gamma   90.00112482
_symmetry_Int_Tables_number   1
_chemical_formula_structural   Ca24Ti8Al207Au49
_chemical_formula_sum   'Ca24 Ti8 Al207 Au49'
_cell_volume   5194.25747398
_cell_formula_units_Z   1
loop_
 _symmetry_equiv_pos_site_id
 _symmetry_equiv_pos_as_xyz
  1  'x, y, z'
loop_
 _atom_site_type_symbol
 _atom_site_label
 _atom_site_symmetry_multiplicity
 _atom_site_fract_x
 _atom_site_fract_y
 _atom_site_fract_z
 _atom_site_occupancy
  Ca  Ca0  1  0.24698981  0.00111018  -0.00251178  1
  Ca  Ca1  1  0.24208868  0.00410653  0.50316134  1
  Ca  Ca2  1  0.24726112  0.49906560  -0.00046538  1
  Ca  Ca3  1  0.24509242  0.49779021  0.50161902  1
  Ca  Ca4  1  0.74458079  0.00483505  0.00335872  1
  Ca  Ca5  1  0.74738007  0.00254084  0.49871169  1
  Ca  Ca6  1  0.74889933  0.49341724  -0.00007581  1
  Ca  Ca7  1  0.74710057  0.49906934  0.50043228  1
  Ca  Ca8  1  0.00232391  0.24717667  0.00214809  1
  Ca  Ca9  1  0.00641393  0.24664487  0.49956810  1
  Ca  Ca10  1  0.00494140  0.75133833  -0.00030001  1
  Ca  Ca11  1  0.00669904  0.75008427  0.49953807  1
  Ca  Ca12  1  0.49841053  0.24421312  0.00179806  1
  Ca  Ca13  1  0.49519428  0.24893831  0.49951394  1
  Ca  Ca14  1  0.49533598  0.75447741  -0.00132876  1
  Ca  Ca15  1  0.49603212  0.74665220  0.50222592  1
  Ca  Ca16  1  0.00538747  0.00262357  0.25408286  1
  Ca  Ca17  1  0.00595185  0.00156297  0.74347187  1
  Ca  Ca18  1  0.00067161  0.49989694  0.25659400  1
  Ca  Ca19  1  0.00398383  0.50148752  0.73361631  1
  Ca  Ca20  1  0.49849097  0.00476730  0.24708736  1
  Ca  Ca21  1  0.49293643  -0.00357422  0.75029871  1
  Ca  Ca22  1  0.49695203  0.49471216  0.25144517  1
  Ca  Ca23  1  0.49635943  0.50430526  0.74038308  1
  Ti  Ti24  1  0.24920012  0.24893768  0.24872846  1
  Ti  Ti25  1  0.24704574  0.24674215  0.75097734  1
  Ti  Ti26  1  0.24932244  0.74958277  0.25034254  1
  Ti  Ti27  1  0.24795805  0.75389632  0.75080149  1
  Ti  Ti28  1  0.75051025  0.24986261  0.25133071  1
  Ti  Ti29  1  0.75349646  0.24858580  0.74834229  1
  Ti  Ti30  1  0.74923166  0.74941754  0.25228447  1
  Ti  Ti31  1  0.75010823  0.75179581  0.74800124  1
  Al  Al32  1  0.08742749  0.08686606  0.10110127  1
  Al  Al33  1  0.09114760  0.08453025  0.58330494  1
  Al  Al34  1  0.08502280  0.58932532  0.08816779  1
  Al  Al35  1  0.09519235  0.59184950  0.58133212  1
  Al  Al36  1  0.58435779  0.09053702  0.09770412  1
  Al  Al37  1  0.57292986  0.08045560  0.57337411  1
  Al  Al38  1  0.57829479  0.57455967  0.07661614  1
  Al  Al39  1  0.58578561  0.59016996  0.58065576  1
  Al  Al40  1  0.41903195  0.40962116  0.08509007  1
  Al  Al41  1  0.40576270  0.41371277  0.57868754  1
  Al  Al42  1  0.41287612  0.91722379  0.07155317  1
  Al  Al43  1  0.41007533  0.91823355  0.58300535  1
  Al  Al44  1  0.92508721  0.40962797  0.08747616  1
  Al  Al45  1  0.92355369  0.40924171  0.58172255  1
  Al  Al46  1  0.92703700  0.92815027  0.08065819  1
  Al  Al47  1  0.93099242  0.91447321  0.58646816  1
  Al  Al48  1  0.41793012  0.09739702  0.41391223  1
  Al  Al49  1  0.40361524  0.07601821  0.92360404  1
  Al  Al50  1  0.41511264  0.57751104  0.42160693  1
  Al  Al51  1  0.41252732  0.60652547  0.91450464  1
  Al  Al52  1  0.92856646  0.08869514  0.41286757  1
  Al  Al53  1  0.92556859  0.09168113  0.91130608  1
  Al  Al54  1  0.92319651  0.58444402  0.41963429  1
  Al  Al55  1  0.93059200  0.57591594  0.92183361  1
  Al  Al56  1  0.08952654  0.41628624  0.41284683  1
  Al  Al57  1  0.08090947  0.40922056  0.91243237  1
  Al  Al58  1  0.09299220  0.91649414  0.41679063  1
  Al  Al59  1  0.08785120  0.91536340  0.91401238  1
  Al  Al60  1  0.57714452  0.41492620  0.41647576  1
  Al  Al61  1  0.57769110  0.42284211  0.92771432  1
  Al  Al62  1  0.59105540  0.92372889  0.41000172  1
  Al  Al63  1  0.57174998  0.91862323  0.92215600  1
  Al  Al64  1  0.09102335  0.08478322  0.41112476  1
  Al  Al65  1  0.08430726  0.08908704  0.90802135  1
  Al  Al66  1  0.09469181  0.58622220  0.41756511  1
  Al  Al67  1  0.08662872  0.58288767  0.92008221  1
  Al  Al68  1  0.58170596  0.08601227  0.39838421  1
  Al  Al69  1  0.57894874  0.07843015  0.93247069  1
  Al  Al70  1  0.59066936  0.58910024  0.42241367  1
  Al  Al71  1  0.56945412  0.59437667  0.91532100  1
  Al  Al72  1  0.40894136  0.40764353  0.41922871  1
  Al  Al73  1  0.41760107  0.42071941  0.92654083  1
  Al  Al74  1  0.41771125  0.92042688  0.42589925  1
  Al  Al75  1  0.40189656  0.91408879  0.91153698  1
  Al  Al76  1  0.92462231  0.40951199  0.41936277  1
  Al  Al77  1  0.92689937  0.40753381  0.91517815  1
  Al  Al78  1  0.93023482  0.92365151  0.42298560  1
  Al  Al79  1  0.92698025  0.92171404  0.91542206  1
  Al  Al80  1  0.08101788  0.41334076  0.08915963  1
  Al  Al81  1  0.08933314  0.41189268  0.58726377  1
  Al  Al82  1  0.09359618  0.92337798  0.09114649  1
  Al  Al83  1  0.09263047  0.91147913  0.58362181  1
  Al  Al84  1  0.57937155  0.41458773  0.08937875  1
  Al  Al85  1  0.57601980  0.42405224  0.57686600  1
  Al  Al86  1  0.58726625  0.92939185  0.08565882  1
  Al  Al87  1  0.57714574  0.91754741  0.57428162  1
  Al  Al88  1  0.41964303  0.09221601  0.08493723  1
  Al  Al89  1  0.40573847  0.08890479  0.57696225  1
  Al  Al90  1  0.40987082  0.59333644  0.07343228  1
  Al  Al91  1  0.41415058  0.57984993  0.58250492  1
  Al  Al92  1  0.92608063  0.09188389  0.09010118  1
  Al  Al93  1  0.92957279  0.08562205  0.58469053  1
  Al  Al94  1  0.92884699  0.58633275  0.08998279  1
  Al  Al95  1  0.92517960  0.58384274  0.57997296  1
  Al  Al96  1  0.24620806  0.13522085  0.13287505  1
  Al  Al97  1  0.24499389  0.13048667  0.63341297  1
  Al  Al98  1  0.25018647  0.63378522  0.13187105  1
  Al  Al99  1  0.24432091  0.63618282  0.63406323  1
  Al  Al100  1  0.74771621  0.13504313  0.14048440  1
  Al  Al101  1  0.75382072  0.13649131  0.62715897  1
  Al  Al102  1  0.74881618  0.63654105  0.14015513  1
  Al  Al103  1  0.75021689  0.63684044  0.63256189  1
  Al  Al104  1  0.25067202  0.36346264  0.12889424  1
  Al  Al105  1  0.24622702  0.36237991  0.63582911  1
  Al  Al106  1  0.24951614  0.86437090  0.13263063  1
  Al  Al107  1  0.24513311  0.87587189  0.63746349  1
  Al  Al108  1  0.74917614  0.36000361  0.13034960  1
  Al  Al109  1  0.75239678  0.36157123  0.63714839  1
  Al  Al110  1  0.74864458  0.86425764  0.13930688  1
  Al  Al111  1  0.74988718  0.86897573  0.63767770  1
  Al  Al112  1  0.24390005  0.13216382  0.36514815  1
  Al  Al113  1  0.24669002  0.13290505  0.87015573  1
  Al  Al114  1  0.24319014  0.62991561  0.36553457  1
  Al  Al115  1  0.25163179  0.64020382  0.87336930  1
  Al  Al116  1  0.74605610  0.13456661  0.36740306  1
  Al  Al117  1  0.75412060  0.13529311  0.86367191  1
  Al  Al118  1  0.75155976  0.63127003  0.36727291  1
  Al  Al119  1  0.74821032  0.64076425  0.86240804  1
  Al  Al120  1  0.24748582  0.36343407  0.36448581  1
  Al  Al121  1  0.24640087  0.36198420  0.87154940  1
  Al  Al122  1  0.24208865  0.86924835  0.36501939  1
  Al  Al123  1  0.25149020  0.86689004  0.87099134  1
  Al  Al124  1  0.75058773  0.36604367  0.36318582  1
  Al  Al125  1  0.75427901  0.36008508  0.87020028  1
  Al  Al126  1  0.74699056  0.86524594  0.36252574  1
  Al  Al127  1  0.75042411  0.86598053  0.85971065  1
  Al  Al128  1  0.13521146  0.24990894  0.13179323  1
  Al  Al129  1  0.12875052  0.24584705  0.63307538  1
  Al  Al130  1  0.13818594  0.74782245  0.12965824  1
  Al  Al131  1  0.13925361  0.75612716  0.62823357  1
  Al  Al132  1  0.63209105  0.24657354  0.13785695  1
  Al  Al133  1  0.63602679  0.24851050  0.62878839  1
  Al  Al134  1  0.63168139  0.75257839  0.13876301  1
  Al  Al135  1  0.63500564  0.74768426  0.63207329  1
  Al  Al136  1  0.13218555  0.24269883  0.36761919  1
  Al  Al137  1  0.13589456  0.24773049  0.87072637  1
  Al  Al138  1  0.13714821  0.74842039  0.36874089  1
  Al  Al139  1  0.13783712  0.75498240  0.87180484  1
  Al  Al140  1  0.63386308  0.24700269  0.36961942  1
  Al  Al141  1  0.63612931  0.25006465  0.86518416  1
  Al  Al142  1  0.63406555  0.74872835  0.36546466  1
  Al  Al143  1  0.63011537  0.75203575  0.86462160  1
  Al  Al144  1  0.36306738  0.24449269  0.13031087  1
  Al  Al145  1  0.36007159  0.24862362  0.63666877  1
  Al  Al146  1  0.36368369  0.75016008  0.13205531  1
  Al  Al147  1  0.35752388  0.75397503  0.63611595  1
  Al  Al148  1  0.86398752  0.24843581  0.13110949  1
  Al  Al149  1  0.87469662  0.24848395  0.63456106  1
  Al  Al150  1  0.86597042  0.74620423  0.13891369  1
  Al  Al151  1  0.86658519  0.75025614  0.63288023  1
  Al  Al152  1  0.36073241  0.24631682  0.36297637  1
  Al  Al153  1  0.36107088  0.24411326  0.87134524  1
  Al  Al154  1  0.36061231  0.75114030  0.36571314  1
  Al  Al155  1  0.36575283  0.75451346  0.86443514  1
  Al  Al156  1  0.86644177  0.24530183  0.36633565  1
  Al  Al157  1  0.86839280  0.24991712  0.87036494  1
  Al  Al158  1  0.86610141  0.74481309  0.36634168  1
  Al  Al159  1  0.86790017  0.75369111  0.86246389  1
  Al  Al160  1  0.13532985  0.13284515  0.25123652  1
  Al  Al161  1  0.13452152  0.13180256  0.74566180  1
  Al  Al162  1  0.13061637  0.63874154  0.25023898  1
  Al  Al163  1  0.13813364  0.63787207  0.74866275  1
  Al  Al164  1  0.63189812  0.13564160  0.25140577  1
  Al  Al165  1  0.63851579  0.13433924  0.74721720  1
  Al  Al166  1  0.63346465  0.63453252  0.25506238  1
  Al  Al167  1  0.63394263  0.64074769  0.74959462  1
  Al  Al168  1  0.36495223  0.13305080  0.24917286  1
  Al  Al169  1  0.35654421  0.12894183  0.75024281  1
  Al  Al170  1  0.36268892  0.63421674  0.25011403  1
  Al  Al171  1  0.35981442  0.64068962  0.75117707  1
  Al  Al172  1  0.86709433  0.13469609  0.25244480  1
  Al  Al173  1  0.86851548  0.13633505  0.74778700  1
  Al  Al174  1  0.87023212  0.63398811  0.25439312  1
  Al  Al175  1  0.86588954  0.63749370  0.74788466  1
  Al  Al176  1  0.13516777  0.36153868  0.25006726  1
  Al  Al177  1  0.12925753  0.35714735  0.75001682  1
  Al  Al178  1  0.13670425  0.86578323  0.24804423  1
  Al  Al179  1  0.12950166  0.86451842  0.74857979  1
  Al  Al180  1  0.63436107  0.36090140  0.25374525  1
  Al  Al181  1  0.64006194  0.36204311  0.75049889  1
  Al  Al182  1  0.63326077  0.86989054  0.25058575  1
  Al  Al183  1  0.63203987  0.86557278  0.74829066  1
  Al  Al184  1  0.36202639  0.36333201  0.24878303  1
  Al  Al185  1  0.35802601  0.36119391  0.75219569  1
  Al  Al186  1  0.36620765  0.86361448  0.24940096  1
  Al  Al187  1  0.36066191  0.87329114  0.75132145  1
  Al  Al188  1  0.86696653  0.36132921  0.24813478  1
  Al  Al189  1  0.87473260  0.35770527  0.75112465  1
  Al  Al190  1  0.86636425  0.86519557  0.25160970  1
  Al  Al191  1  0.87366675  0.86382065  0.74708881  1
  Al  Al192  1  0.81722971  0.00029266  0.33193602  1
  Al  Al193  1  0.49785250  0.31128097  0.17784508  1
  Al  Al194  1  0.67505101  0.49841249  0.17920876  1
  Al  Al195  1  0.49923659  0.32770317  0.82669104  1
  Al  Al196  1  0.49657200  0.31320721  0.32892121  1
  Al  Al197  1  0.30631073  0.19277367  0.49961201  1
  Al  Al198  1  0.32765045  0.50239465  0.82841606  1
  Al  Al199  1  0.67352140  0.50022490  0.67299772  1
  Al  Al200  1  0.68039774  0.17898997  0.00195468  1
  Al  Al201  1  0.83022967  0.82059199  0.49707639  1
  Al  Al202  1  0.82824396  0.49848367  0.66827116  1
  Al  Al203  1  0.00193504  0.81651672  0.16756833  1
  Al  Al204  1  0.18673644  0.31052386  0.49962869  1
  Al  Al205  1  0.31816559  0.49797460  0.32416061  1
  Al  Al206  1  0.00223649  0.82012031  0.32675525  1
  Al  Al207  1  0.82971088  0.49912344  0.18200170  1
  Al  Al208  1  0.82035209  0.32043706  0.50005877  1
  Al  Al209  1  0.49738322  0.82581407  0.67959300  1
  Al  Al210  1  0.18683396  -0.00110347  0.81253268  1
  Al  Al211  1  0.67526047  -0.00088164  0.82858828  1
  Al  Al212  1  0.83104209  0.67026303  -0.00033848  1
  Al  Al213  1  0.31793174  0.00044559  0.16995531  1
  Al  Al214  1  0.81458696  -0.00034112  0.17599751  1
  Al  Al215  1  0.00410944  0.68386556  0.67129473  1
  Al  Al216  1  0.00313797  0.67878858  0.82515702  1
  Al  Al217  1  0.49722133  0.82662372  0.32589524  1
  Al  Al218  1  0.50073561  0.67542572  0.17446301  1
  Al  Al219  1  0.17568519  0.50006287  0.18863514  1
  Al  Al220  1  0.67053487  0.50367847  0.82926796  1
  Al  Al221  1  0.49731435  0.17281494  0.67394685  1
  Al  Al222  1  0.49628830  0.67160878  0.68058103  1
  Al  Al223  1  0.31473575  0.67317305  0.50002338  1
  Al  Al224  1  0.00270926  0.19483123  0.80668467  1
  Al  Al225  1  0.00067480  0.19368891  0.19363971  1
  Al  Al226  1  0.30911653  0.82598136  0.50087200  1
  Al  Al227  1  0.67213457  0.67378540  0.00141457  1
  Al  Al228  1  0.49813798  0.32724694  0.66953569  1
  Al  Al229  1  0.82960092  0.83005307  0.00102957  1
  Al  Al230  1  0.31245267  0.49973478  0.67488525  1
  Al  Al231  1  0.83568203  0.49657250  0.82461859  1
  Al  Al232  1  0.16849037  0.49665197  0.81146826  1
  Al  Al233  1  0.67155804  0.82773172  0.00105869  1
  Al  Al234  1  0.67502613  0.81978472  0.49941100  1
  Al  Al235  1  0.49623429  0.16565800  0.82954584  1
  Al  Al236  1  0.82673890  0.00033284  0.67280901  1
  Al  Al237  1  0.31938572  0.00081145  0.33017833  1
  Al  Al238  1  0.00096217  0.30752098  0.31300717  1
  Au  Au239  1  0.49908544  0.83540525  0.33476160  1
  Au  Au240  1  0.32368759  0.49752939  0.33680694  1
  Au  Au241  1  0.83791019  -0.00018738  0.66709080  1
  Au  Au242  1  0.00199897  0.83263507  0.17394044  1
  Au  Au243  1  0.85166117  0.49559480  0.81925256  1
  Au  Au244  1  0.32305934  0.00210615  0.15468836  1
  Au  Au245  1  0.65467752  0.50879356  0.82703352  1
  Au  Au246  1  0.32493512  0.00248871  0.34523378  1
  Au  Au247  1  0.33557727  0.32076597  0.00041289  1
  Au  Au248  1  0.17761083  0.83658248  0.00278956  1
  Au  Au249  1  0.34249996  0.50797868  0.82799257  1
  Au  Au250  1  0.49971383  0.34295108  0.82114983  1
  Au  Au251  1  0.83983693  0.00300092  0.82810890  1
  Au  Au252  1  0.00512828  0.66818221  0.33151693  1
  Au  Au253  1  0.16490078  0.32930621  0.00159802  1
  Au  Au254  1  0.00137679  0.32372872  0.31905095  1
  Au  Au255  1  0.66228326  0.00215194  0.66420086  1
  Au  Au256  1  0.32529112  0.00287859  0.66969709  1
  Au  Au257  1  0.82370170  0.84581711  -0.00131680  1
  Au  Au258  1  0.49903571  0.82182794  0.66775209  1
  Au  Au259  1  0.66564063  0.00001598  0.83666935  1
  Au  Au260  1  0.83415881  0.00059297  0.33536917  1
  Au  Au261  1  0.17942160  0.32567563  0.49922487  1
  Au  Au262  1  0.49707719  0.66994807  0.33994703  1
  Au  Au263  1  0.16020238  0.50016898  0.18194528  1
  Au  Au264  1  0.65940516  0.49966124  0.32837402  1
  Au  Au265  1  0.83006163  0.16220569  0.00052721  1
  Au  Au266  1  0.82287729  0.66052105  0.50193691  1
  Au  Au267  1  0.83178779  0.49650872  0.34319062  1
  Au  Au268  1  0.49931094  0.66638960  0.16584818  1
  Au  Au269  1  0.66411435  0.16317104  0.49487799  1
  Au  Au270  1  0.82999622  0.83675358  0.50124164  1
  Au  Au271  1  0.66267244  0.32667056  0.00288805  1
  Au  Au272  1  0.15331185  0.49658569  0.81752608  1
  Au  Au273  1  0.17324959  0.00010484  0.82259162  1
  Au  Au274  1  0.49587587  0.82666583  0.83432289  1
  Au  Au275  1  0.83360130  0.49813395  0.16594619  1
  Au  Au276  1  0.82779925  0.00331098  0.16555902  1
  Au  Au277  1  0.33425719  0.50048225  0.16142175  1
  Au  Au278  1  0.84500829  0.17372958  0.50055332  1
  Au  Au279  1  0.83718904  0.32997889  0.00049155  1
  Au  Au280  1  0.67131723  0.33606837  0.50228669  1
  Au  Au281  1  0.17094906  0.16123953  0.00312898  1
  Au  Au282  1  0.49951759  0.83894822  0.16200331  1
  Au  Au283  1  0.82551146  0.65432008  -0.00035558  1
  Au  Au284  1  0.49083986  0.15043680  0.82932110  1
  Au  Au285  1  0.00160728  0.82729379  0.82483058  1
  Au  Au286  1  0.00201800  0.32135120  0.67780511  1
  Au  Au287  1  0.17621146  0.66796277  0.00121651  1
