# generated using pymatgen
data_Ca24Ti8Al207Au49
_symmetry_space_group_name_H-M   'P 1'
_cell_length_a   17.32043271
_cell_length_b   17.32035226
_cell_length_c   17.32211827
_cell_angle_alpha   90.00200423
_cell_angle_beta   90.00174693
_cell_angle_gamma   89.99681477
_symmetry_Int_Tables_number   1
_chemical_formula_structural   Ca24Ti8Al207Au49
_chemical_formula_sum   'Ca24 Ti8 Al207 Au49'
_cell_volume   5196.56610551
_cell_formula_units_Z   1
loop_
 _symmetry_equiv_pos_site_id
 _symmetry_equiv_pos_as_xyz
  1  'x, y, z'
loop_
 _atom_site_type_symbol
 _atom_site_label
 _atom_site_symmetry_multiplicity
 _atom_site_fract_x
 _atom_site_fract_y
 _atom_site_fract_z
 _atom_site_occupancy
  Ca  Ca0  1  0.25531127  0.00158310  0.00089397  1
  Ca  Ca1  1  0.25232022  0.00007304  0.50069456  1
  Ca  Ca2  1  0.25524736  0.50134289  0.00706920  1
  Ca  Ca3  1  0.25419983  0.49640629  0.49835932  1
  Ca  Ca4  1  0.74556227  0.00198698  -0.00192123  1
  Ca  Ca5  1  0.74264880  0.00011598  0.50162510  1
  Ca  Ca6  1  0.74115634  0.49574607  0.00406543  1
  Ca  Ca7  1  0.74265634  0.49949818  0.49514485  1
  Ca  Ca8  1  -0.00362752  0.24310854  0.00101807  1
  Ca  Ca9  1  0.00328934  0.24883098  0.50182371  1
  Ca  Ca10  1  -0.00097463  0.75389357  0.00188442  1
  Ca  Ca11  1  -0.00319707  0.75048925  0.49800859  1
  Ca  Ca12  1  0.50195196  0.24627800  -0.00066132  1
  Ca  Ca13  1  0.49785768  0.25026734  0.50035551  1
  Ca  Ca14  1  0.50016240  0.76019487  0.00030495  1
  Ca  Ca15  1  0.49968639  0.75460288  0.50050263  1
  Ca  Ca16  1  0.00477472  0.00108504  0.24635374  1
  Ca  Ca17  1  0.00335033  0.00117021  0.75135401  1
  Ca  Ca18  1  -0.00190130  0.49610709  0.25112112  1
  Ca  Ca19  1  -0.00140556  0.49568663  0.74901911  1
  Ca  Ca20  1  0.49674614  -0.00127694  0.24310035  1
  Ca  Ca21  1  0.49646434  0.00142053  0.75273154  1
  Ca  Ca22  1  0.49965456  0.49703712  0.25465997  1
  Ca  Ca23  1  0.50359150  0.49651481  0.74710250  1
  Ti  Ti24  1  0.25043905  0.24871360  0.25168546  1
  Ti  Ti25  1  0.25129789  0.24747204  0.74830133  1
  Ti  Ti26  1  0.25113906  0.75229083  0.24823648  1
  Ti  Ti27  1  0.25118917  0.75261621  0.75076334  1
  Ti  Ti28  1  0.74883577  0.24936609  0.24891085  1
  Ti  Ti29  1  0.74848202  0.24728560  0.75090151  1
  Ti  Ti30  1  0.74858340  0.75122493  0.24923279  1
  Ti  Ti31  1  0.74875133  0.75242547  0.75050193  1
  Al  Al32  1  0.07911283  0.08122395  0.07938254  1
  Al  Al33  1  0.09965932  0.08390231  0.58742321  1
  Al  Al34  1  0.07535060  0.57652489  0.08646717  1
  Al  Al35  1  0.07590907  0.58113874  0.57342336  1
  Al  Al36  1  0.59376076  0.08549051  0.08245570  1
  Al  Al37  1  0.58264082  0.08169490  0.59682411  1
  Al  Al38  1  0.58589768  0.58097461  0.08275091  1
  Al  Al39  1  0.58870643  0.57807031  0.58370986  1
  Al  Al40  1  0.42712620  0.40703583  0.09443094  1
  Al  Al41  1  0.41365644  0.40803507  0.57416140  1
  Al  Al42  1  0.41335683  0.91081082  0.08733316  1
  Al  Al43  1  0.41396875  0.91747805  0.57987115  1
  Al  Al44  1  0.91511179  0.40739048  0.08129639  1
  Al  Al45  1  0.92145584  0.42625290  0.57459945  1
  Al  Al46  1  0.91052691  0.92099830  0.08176142  1
  Al  Al47  1  0.91616424  0.92475494  0.58257307  1
  Al  Al48  1  0.41484875  0.08572454  0.41937372  1
  Al  Al49  1  0.42632177  0.08060888  0.91332495  1
  Al  Al50  1  0.42342513  0.57681995  0.41857683  1
  Al  Al51  1  0.41905166  0.58018791  0.91673494  1
  Al  Al52  1  0.92729089  0.08213748  0.42269586  1
  Al  Al53  1  0.91444889  0.09234685  0.91460645  1
  Al  Al54  1  0.91610415  0.58072066  0.41477283  1
  Al  Al55  1  0.90790952  0.59174741  0.92633886  1
  Al  Al56  1  0.08660385  0.40039790  0.41032899  1
  Al  Al57  1  0.07771753  0.41378430  0.92653555  1
  Al  Al58  1  0.09067368  0.91261314  0.42503608  1
  Al  Al59  1  0.09548968  0.92852873  0.91145962  1
  Al  Al60  1  0.58303645  0.41342681  0.40680311  1
  Al  Al61  1  0.58578391  0.41419224  0.91582850  1
  Al  Al62  1  0.57482354  0.90869469  0.41521146  1
  Al  Al63  1  0.57158007  0.92272733  0.91579277  1
  Al  Al64  1  0.09116829  0.08958631  0.42513091  1
  Al  Al65  1  0.07903177  0.08730315  0.90404342  1
  Al  Al66  1  0.07902508  0.57914409  0.41708454  1
  Al  Al67  1  0.07215206  0.57517710  0.92641865  1
  Al  Al68  1  0.57598879  0.08311177  0.41774210  1
  Al  Al69  1  0.58827896  0.09357072  0.91823287  1
  Al  Al70  1  0.58814138  0.57696179  0.41097272  1
  Al  Al71  1  0.58655791  0.58087574  0.91649967  1
  Al  Al72  1  0.42001104  0.40161639  0.41198373  1
  Al  Al73  1  0.42514819  0.41961339  0.91574257  1
  Al  Al74  1  0.41551481  0.90632552  0.40988835  1
  Al  Al75  1  0.41201182  0.91202367  0.91936724  1
  Al  Al76  1  0.92505043  0.41644035  0.40625157  1
  Al  Al77  1  0.91472826  0.41002857  0.92656232  1
  Al  Al78  1  0.92760994  0.91992105  0.42252659  1
  Al  Al79  1  0.91218988  0.92522009  0.92409183  1
  Al  Al80  1  0.08232673  0.41276917  0.08428145  1
  Al  Al81  1  0.09484852  0.40459034  0.56856408  1
  Al  Al82  1  0.08320010  0.92169179  0.08117357  1
  Al  Al83  1  0.10090638  0.92161141  0.58632223  1
  Al  Al84  1  0.58530728  0.40706285  0.09432704  1
  Al  Al85  1  0.58410057  0.41878534  0.58171742  1
  Al  Al86  1  0.57805400  0.92382851  0.08951988  1
  Al  Al87  1  0.58685232  0.92069355  0.58846563  1
  Al  Al88  1  0.42255959  0.07215487  0.08440382  1
  Al  Al89  1  0.41662756  0.08733612  0.58562651  1
  Al  Al90  1  0.42196815  0.58201716  0.08046461  1
  Al  Al91  1  0.42399846  0.57583315  0.57744701  1
  Al  Al92  1  0.90545001  0.08927703  0.07787918  1
  Al  Al93  1  0.91803889  0.08049548  0.58632641  1
  Al  Al94  1  0.91153227  0.59225048  0.08082020  1
  Al  Al95  1  0.91737691  0.58549840  0.57567857  1
  Al  Al96  1  0.25132493  0.13350465  0.13045444  1
  Al  Al97  1  0.24829953  0.13595858  0.62796354  1
  Al  Al98  1  0.25432111  0.63472709  0.13546440  1
  Al  Al99  1  0.25597322  0.63419081  0.63276582  1
  Al  Al100  1  0.74810503  0.13829214  0.12756645  1
  Al  Al101  1  0.74864327  0.12901044  0.63650504  1
  Al  Al102  1  0.75051033  0.63898486  0.13563384  1
  Al  Al103  1  0.74268725  0.63576839  0.63429480  1
  Al  Al104  1  0.25031830  0.36826191  0.14211977  1
  Al  Al105  1  0.25190856  0.36431932  0.63305013  1
  Al  Al106  1  0.25257581  0.87373261  0.13625479  1
  Al  Al107  1  0.24747416  0.86819542  0.63559095  1
  Al  Al108  1  0.74633826  0.36122800  0.13713916  1
  Al  Al109  1  0.74701089  0.36428978  0.63585670  1
  Al  Al110  1  0.74678816  0.86585091  0.13650959  1
  Al  Al111  1  0.74741220  0.87321650  0.63821484  1
  Al  Al112  1  0.25248763  0.13597627  0.37246118  1
  Al  Al113  1  0.24937505  0.13588914  0.87062362  1
  Al  Al114  1  0.25370622  0.63525648  0.36457641  1
  Al  Al115  1  0.24941291  0.63856584  0.86604394  1
  Al  Al116  1  0.74610315  0.13873359  0.37141485  1
  Al  Al117  1  0.74787594  0.13670610  0.87052293  1
  Al  Al118  1  0.74433759  0.63709499  0.36302881  1
  Al  Al119  1  0.75205418  0.63837073  0.86431654  1
  Al  Al120  1  0.25042255  0.36440520  0.36813926  1
  Al  Al121  1  0.25161934  0.35697541  0.86046344  1
  Al  Al122  1  0.24931304  0.86512038  0.36354893  1
  Al  Al123  1  0.25344903  0.86586940  0.86663871  1
  Al  Al124  1  0.74422153  0.36555982  0.35888232  1
  Al  Al125  1  0.74620332  0.35690163  0.86423763  1
  Al  Al126  1  0.74414242  0.86330055  0.36242996  1
  Al  Al127  1  0.74821525  0.86540197  0.86452229  1
  Al  Al128  1  0.13730579  0.24763530  0.13697168  1
  Al  Al129  1  0.13722285  0.24799321  0.63054673  1
  Al  Al130  1  0.13347396  0.75453192  0.13552843  1
  Al  Al131  1  0.14035171  0.75382111  0.63412031  1
  Al  Al132  1  0.63528278  0.24897277  0.12880278  1
  Al  Al133  1  0.63551127  0.24588838  0.63505878  1
  Al  Al134  1  0.63262924  0.75242867  0.13368957  1
  Al  Al135  1  0.63661297  0.75385328  0.63735245  1
  Al  Al136  1  0.13986656  0.25074326  0.37026943  1
  Al  Al137  1  0.13297599  0.24325398  0.86189797  1
  Al  Al138  1  0.13674159  0.75402419  0.36312956  1
  Al  Al139  1  0.13418416  0.75525620  0.86499453  1
  Al  Al140  1  0.63228974  0.25010157  0.36320356  1
  Al  Al141  1  0.62939050  0.24620753  0.86913399  1
  Al  Al142  1  0.62780828  0.75189195  0.36089982  1
  Al  Al143  1  0.62944000  0.75098449  0.86436342  1
  Al  Al144  1  0.36407084  0.25129066  0.13525354  1
  Al  Al145  1  0.36221009  0.24936647  0.62733096  1
  Al  Al146  1  0.36664986  0.75873254  0.13189476  1
  Al  Al147  1  0.36296451  0.75339078  0.63630714  1
  Al  Al148  1  0.86419062  0.24829939  0.13369354  1
  Al  Al149  1  0.86530269  0.24472937  0.63434169  1
  Al  Al150  1  0.86855507  0.75007270  0.13547404  1
  Al  Al151  1  0.86047217  0.75379168  0.63538988  1
  Al  Al152  1  0.36200903  0.25277895  0.37296528  1
  Al  Al153  1  0.37319429  0.24274370  0.86300168  1
  Al  Al154  1  0.36991576  0.75346303  0.35921629  1
  Al  Al155  1  0.37030487  0.75458958  0.86603361  1
  Al  Al156  1  0.86470114  0.24957114  0.36400420  1
  Al  Al157  1  0.86605575  0.24228069  0.86710510  1
  Al  Al158  1  0.86426801  0.75345576  0.36397065  1
  Al  Al159  1  0.86679353  0.75165834  0.86408750  1
  Al  Al160  1  0.14029871  0.13069110  0.25208867  1
  Al  Al161  1  0.14103214  0.12904772  0.74916453  1
  Al  Al162  1  0.13712723  0.63586975  0.24727561  1
  Al  Al163  1  0.13777371  0.63738905  0.74649497  1
  Al  Al164  1  0.63684502  0.13338909  0.24444708  1
  Al  Al165  1  0.63402334  0.13505002  0.75293781  1
  Al  Al166  1  0.63153043  0.63525581  0.25146956  1
  Al  Al167  1  0.63473662  0.63525861  0.75242048  1
  Al  Al168  1  0.36259924  0.13464448  0.24825360  1
  Al  Al169  1  0.35937903  0.13450202  0.74867090  1
  Al  Al170  1  0.36647327  0.63223191  0.24864154  1
  Al  Al171  1  0.36461582  0.63723760  0.75385494  1
  Al  Al172  1  0.86069428  0.13693366  0.24867366  1
  Al  Al173  1  0.86715016  0.13504198  0.75094608  1
  Al  Al174  1  0.86414082  0.63801295  0.25198746  1
  Al  Al175  1  0.86263699  0.63731501  0.74471703  1
  Al  Al176  1  0.12904040  0.36084354  0.25283376  1
  Al  Al177  1  0.13284976  0.36041153  0.74486841  1
  Al  Al178  1  0.13410875  0.87109787  0.24653049  1
  Al  Al179  1  0.13749775  0.87143509  0.75291104  1
  Al  Al180  1  0.62674518  0.35926810  0.24906367  1
  Al  Al181  1  0.62897424  0.35863916  0.74995116  1
  Al  Al182  1  0.62890294  0.86456466  0.24516820  1
  Al  Al183  1  0.63282707  0.86726231  0.75173468  1
  Al  Al184  1  0.36644677  0.36436233  0.25348718  1
  Al  Al185  1  0.37021755  0.35887380  0.74732068  1
  Al  Al186  1  0.36768416  0.86770049  0.24706831  1
  Al  Al187  1  0.36419300  0.86701091  0.75188188  1
  Al  Al188  1  0.86999761  0.36023256  0.25042664  1
  Al  Al189  1  0.86574042  0.35908219  0.74874883  1
  Al  Al190  1  0.86956266  0.86342242  0.24715959  1
  Al  Al191  1  0.86694239  0.86566681  0.75145821  1
  Al  Al192  1  -0.00107474  0.17641049  0.17582435  1
  Al  Al193  1  0.00062872  0.67802783  0.32172525  1
  Al  Al194  1  0.82850590  0.49849368  0.17576371  1
  Al  Al195  1  0.66932925  0.00084939  0.82143820  1
  Al  Al196  1  0.50059256  0.17962100  0.17014517  1
  Al  Al197  1  0.68507608  0.67808805  -0.00050913  1
  Al  Al198  1  0.49609447  0.19160434  0.32563663  1
  Al  Al199  1  0.67250473  0.49701839  0.81265198  1
  Al  Al200  1  0.32212190  0.68572128  -0.00041643  1
  Al  Al201  1  0.67283933  0.32066433  0.49806566  1
  Al  Al202  1  0.82315928  0.00241678  0.82213533  1
  Al  Al203  1  -0.00008704  0.67551284  0.67141356  1
  Al  Al204  1  0.81563389  0.30843005  0.00013970  1
  Al  Al205  1  0.17811756  0.68393537  0.49849610  1
  Al  Al206  1  0.32823520  0.49772574  0.81947140  1
  Al  Al207  1  0.18600191  0.82434993  0.00075498  1
  Al  Al208  1  0.82568681  0.49652804  0.83248560  1
  Al  Al209  1  0.00578965  0.17554659  0.68189338  1
  Al  Al210  1  0.00426115  0.19060779  0.33048237  1
  Al  Al211  1  0.17507702  0.31801191  0.00077539  1
  Al  Al212  1  0.31943261  0.00147604  0.82747948  1
  Al  Al213  1  -0.00103458  0.31471659  0.82334440  1
  Al  Al214  1  -0.00034158  0.67492571  0.82848762  1
  Al  Al215  1  0.66814019  -0.00160060  0.31566208  1
  Al  Al216  1  0.31693324  0.00124017  0.67418404  1
  Al  Al217  1  0.81118853  0.50118007  0.67200261  1
  Al  Al218  1  0.81984573  0.67777374  0.49825759  1
  Al  Al219  1  0.81353006  0.50007135  0.32544098  1
  Al  Al220  1  0.17570055  0.49967139  0.32351979  1
  Al  Al221  1  0.49848478  0.83085871  0.68211747  1
  Al  Al222  1  0.17739559  0.50090153  0.66950246  1
  Al  Al223  1  0.67153017  0.49869084  0.19071311  1
  Al  Al224  1  0.81186568  0.00227597  0.17220021  1
  Al  Al225  1  0.82960560  0.32263597  0.49744839  1
  Al  Al226  1  0.31441303  0.81894908  0.49903009  1
  Al  Al227  1  0.49880701  0.68731518  0.17910612  1
  Al  Al228  1  0.17242253  0.49712138  0.83327336  1
  Al  Al229  1  0.00428826  0.83202099  0.67236913  1
  Al  Al230  1  0.82865334  -0.00011944  0.32893176  1
  Al  Al231  1  0.32605961  0.00007534  0.31820933  1
  Al  Al232  1  0.82499123  0.83218798  0.49949602  1
  Al  Al233  1  0.32935138  0.32340593  -0.00258282  1
  Al  Al234  1  0.66769654  0.83339052  -0.00037566  1
  Al  Al235  1  0.82049731  0.81499423  0.00055016  1
  Al  Al236  1  0.49703272  0.18019870  0.69036775  1
  Al  Al237  1  0.67246082  0.81908191  0.49991776  1
  Al  Al238  1  0.49924850  0.67420005  0.67993309  1
  Au  Au239  1  0.81996692  0.49982987  0.16181913  1
  Au  Au240  1  0.82404820  0.50528659  0.66159887  1
  Au  Au241  1  0.00513650  0.82603436  0.33978670  1
  Au  Au242  1  0.84383057  -0.00065316  0.32164385  1
  Au  Au243  1  -0.00072767  0.66717684  0.17385770  1
  Au  Au244  1  0.50045562  0.32131642  0.83146608  1
  Au  Au245  1  0.17125804  0.49873827  0.16698322  1
  Au  Au246  1  0.66976281  0.32573655  0.00060910  1
  Au  Au247  1  -0.00020010  0.84416034  0.83958262  1
  Au  Au248  1  0.16124545  0.68128616  0.49812222  1
  Au  Au249  1  0.00582695  0.17364951  0.33180744  1
  Au  Au250  1  0.32523878  0.17428918  0.50160190  1
  Au  Au251  1  0.49671134  0.17515817  0.32088922  1
  Au  Au252  1  0.82331636  0.00002067  0.67320926  1
  Au  Au253  1  0.82860631  0.16087329  0.50132177  1
  Au  Au254  1  0.67320282  0.67307322  -0.00057022  1
  Au  Au255  1  0.17906612  0.49584644  0.84898255  1
  Au  Au256  1  0.65893436  0.16887805  0.50502241  1
  Au  Au257  1  0.50024199  0.67567956  0.83910557  1
  Au  Au258  1  0.17487324  0.00528519  0.16597582  1
  Au  Au259  1  0.33171720  0.00016893  0.32958263  1
  Au  Au260  1  -0.00197807  0.83773273  0.16707224  1
  Au  Au261  1  0.00613294  0.16156673  0.67337006  1
  Au  Au262  1  -0.00219376  0.65836055  0.82410897  1
  Au  Au263  1  0.33754742  0.67230493  0.49823012  1
  Au  Au264  1  0.16471179  0.50057428  0.65913934  1
  Au  Au265  1  0.34111404  0.49845289  0.17044632  1
  Au  Au266  1  0.33791063  0.15936864  0.00116963  1
  Au  Au267  1  0.00600154  0.82897446  0.65566360  1
  Au  Au268  1  0.81999436  0.49662010  0.84852513  1
  Au  Au269  1  0.33255511  0.49492057  0.33673956  1
  Au  Au270  1  0.82829787  0.33862413  0.49211828  1
  Au  Au271  1  0.50357896  0.67561605  0.66425678  1
  Au  Au272  1  0.49977563  0.67593604  0.33878448  1
  Au  Au273  1  0.32883591  0.33941054  0.00152105  1
  Au  Au274  1  0.33225424  0.67220961  -0.00172593  1
  Au  Au275  1  0.16001571  0.16948399  -0.00380550  1
  Au  Au276  1  0.15907557  0.66729755  0.00432585  1
  Au  Au277  1  -0.00151849  0.32320329  0.83829955  1
  Au  Au278  1  0.17163316  -0.00006259  0.33896589  1
  Au  Au279  1  0.34246847  0.49542023  0.67068945  1
  Au  Au280  1  0.65448358  -0.00421732  0.32443132  1
  Au  Au281  1  0.17758290  0.83863574  -0.00000114  1
  Au  Au282  1  0.50138187  0.67551790  0.16716693  1
  Au  Au283  1  0.00051809  0.33697270  0.66110299  1
  Au  Au284  1  0.50123108  0.32507480  0.66129650  1
  Au  Au285  1  0.16670879  0.49885237  0.33206826  1
  Au  Au286  1  0.67163985  0.66630031  0.49711040  1
  Au  Au287  1  0.00040455  0.32718217  0.17216307  1
