# generated using pymatgen
data_Ca24Ti8Al207Au49
_symmetry_space_group_name_H-M   'P 1'
_cell_length_a   17.32320367
_cell_length_b   17.32222558
_cell_length_c   17.32303903
_cell_angle_alpha   90.00093190
_cell_angle_beta   89.99744656
_cell_angle_gamma   89.99664292
_symmetry_Int_Tables_number   1
_chemical_formula_structural   Ca24Ti8Al207Au49
_chemical_formula_sum   'Ca24 Ti8 Al207 Au49'
_cell_volume   5198.23589548
_cell_formula_units_Z   1
loop_
 _symmetry_equiv_pos_site_id
 _symmetry_equiv_pos_as_xyz
  1  'x, y, z'
loop_
 _atom_site_type_symbol
 _atom_site_label
 _atom_site_symmetry_multiplicity
 _atom_site_fract_x
 _atom_site_fract_y
 _atom_site_fract_z
 _atom_site_occupancy
  Ca  Ca0  1  0.25127284  0.00076000  0.00001550  1
  Ca  Ca1  1  0.25148163  -0.00365202  0.49925430  1
  Ca  Ca2  1  0.24723906  0.49758691  0.00145659  1
  Ca  Ca3  1  0.24995832  0.50291728  0.50049476  1
  Ca  Ca4  1  0.74784212  -0.00382409  -0.00164497  1
  Ca  Ca5  1  0.74917736  -0.00084054  0.50266084  1
  Ca  Ca6  1  0.75109044  0.50312390  -0.00268838  1
  Ca  Ca7  1  0.74777440  0.49983858  0.50449962  1
  Ca  Ca8  1  0.00142571  0.25447621  -0.00291954  1
  Ca  Ca9  1  0.00294021  0.24849279  0.50248351  1
  Ca  Ca10  1  -0.00118406  0.74714143  -0.00118964  1
  Ca  Ca11  1  -0.00070322  0.75296338  0.50415173  1
  Ca  Ca12  1  0.49909453  0.25041084  -0.00435217  1
  Ca  Ca13  1  0.50093143  0.24639453  0.50297364  1
  Ca  Ca14  1  0.50265845  0.74972228  -0.00063970  1
  Ca  Ca15  1  0.50112504  0.75329413  0.49779372  1
  Ca  Ca16  1  0.00057393  -0.00224629  0.25085881  1
  Ca  Ca17  1  -0.00272195  -0.00522468  0.75045977  1
  Ca  Ca18  1  0.00337043  0.50404401  0.24423542  1
  Ca  Ca19  1  -0.00323742  0.50068314  0.75592456  1
  Ca  Ca20  1  0.50069991  -0.00396488  0.24937041  1
  Ca  Ca21  1  0.50287748  0.00248243  0.74625028  1
  Ca  Ca22  1  0.49659038  0.50154569  0.24522704  1
  Ca  Ca23  1  0.50316768  0.49644734  0.75607652  1
  Ti  Ti24  1  0.25042263  0.25094937  0.25055205  1
  Ti  Ti25  1  0.24912240  0.25049326  0.75067643  1
  Ti  Ti26  1  0.25050015  0.75020348  0.24839045  1
  Ti  Ti27  1  0.25087623  0.75140765  0.75163063  1
  Ti  Ti28  1  0.74877420  0.25029604  0.25162877  1
  Ti  Ti29  1  0.75078743  0.24871905  0.74909152  1
  Ti  Ti30  1  0.74946075  0.75029360  0.24738308  1
  Ti  Ti31  1  0.74874218  0.75222370  0.75046212  1
  Al  Al32  1  0.08425835  0.08195199  0.08146962  1
  Al  Al33  1  0.08517069  0.09136203  0.58192963  1
  Al  Al34  1  0.09302981  0.57692870  0.08328918  1
  Al  Al35  1  0.07482236  0.58562217  0.58059682  1
  Al  Al36  1  0.57804013  0.07557625  0.07426691  1
  Al  Al37  1  0.58442287  0.09583305  0.58716779  1
  Al  Al38  1  0.58710322  0.58948705  0.07832248  1
  Al  Al39  1  0.57895062  0.59227703  0.58904680  1
  Al  Al40  1  0.40370292  0.42235330  0.07726705  1
  Al  Al41  1  0.42076478  0.41076984  0.58092068  1
  Al  Al42  1  0.42183348  0.91028251  0.08846310  1
  Al  Al43  1  0.41430259  0.90967167  0.57735648  1
  Al  Al44  1  0.92594076  0.42506898  0.07428683  1
  Al  Al45  1  0.92118504  0.41856054  0.58723653  1
  Al  Al46  1  0.90927284  0.91513236  0.07450192  1
  Al  Al47  1  0.92049854  0.90961565  0.58784636  1
  Al  Al48  1  0.41655372  0.07505774  0.42220904  1
  Al  Al49  1  0.41991496  0.09134776  0.91156603  1
  Al  Al50  1  0.41619581  0.58303803  0.42112429  1
  Al  Al51  1  0.41161380  0.58955198  0.92169616  1
  Al  Al52  1  0.90495060  0.07824400  0.41956966  1
  Al  Al53  1  0.92103485  0.08156422  0.91741817  1
  Al  Al54  1  0.91164358  0.58803814  0.43088364  1
  Al  Al55  1  0.90728418  0.58326513  0.91093332  1
  Al  Al56  1  0.10039167  0.41609863  0.42111027  1
  Al  Al57  1  0.08379969  0.41537524  0.91142012  1
  Al  Al58  1  0.07822892  0.91961974  0.42574648  1
  Al  Al59  1  0.07550218  0.90737902  0.91051611  1
  Al  Al60  1  0.58893262  0.42157507  0.42425415  1
  Al  Al61  1  0.58884357  0.41249547  0.91332901  1
  Al  Al62  1  0.58505110  0.91258825  0.41961960  1
  Al  Al63  1  0.58679899  0.91237029  0.92281239  1
  Al  Al64  1  0.08992204  0.08523798  0.42728695  1
  Al  Al65  1  0.07990755  0.08536299  0.91925241  1
  Al  Al66  1  0.08818918  0.57505233  0.41962955  1
  Al  Al67  1  0.08681118  0.57843573  0.91250639  1
  Al  Al68  1  0.59119417  0.08449409  0.42639831  1
  Al  Al69  1  0.57775648  0.08821142  0.90857534  1
  Al  Al70  1  0.58122812  0.58037689  0.42101514  1
  Al  Al71  1  0.58985443  0.58582043  0.91919672  1
  Al  Al72  1  0.41098802  0.42082042  0.42174134  1
  Al  Al73  1  0.41412926  0.41006297  0.91848652  1
  Al  Al74  1  0.41262820  0.91189105  0.41675755  1
  Al  Al75  1  0.42174120  0.92012656  0.92182052  1
  Al  Al76  1  0.92067107  0.42280196  0.42771512  1
  Al  Al77  1  0.91943035  0.41922679  0.90728002  1
  Al  Al78  1  0.91140659  0.92068328  0.41588358  1
  Al  Al79  1  0.91538416  0.90271386  0.91170399  1
  Al  Al80  1  0.09010513  0.41864490  0.08295541  1
  Al  Al81  1  0.08546270  0.40502414  0.58001159  1
  Al  Al82  1  0.08359874  0.92325649  0.07674665  1
  Al  Al83  1  0.08104641  0.90867892  0.58807727  1
  Al  Al84  1  0.59293269  0.41452135  0.07069182  1
  Al  Al85  1  0.58068875  0.41270723  0.58457656  1
  Al  Al86  1  0.58264508  0.90069039  0.08270478  1
  Al  Al87  1  0.58541549  0.91314431  0.57798646  1
  Al  Al88  1  0.41464952  0.07887678  0.07647070  1
  Al  Al89  1  0.42221363  0.09211360  0.58853085  1
  Al  Al90  1  0.40863228  0.58564268  0.08370359  1
  Al  Al91  1  0.42287656  0.59500370  0.58383303  1
  Al  Al92  1  0.91926727  0.07818089  0.07943495  1
  Al  Al93  1  0.91951482  0.08471985  0.57925021  1
  Al  Al94  1  0.90990459  0.58863905  0.07009213  1
  Al  Al95  1  0.91332489  0.59041281  0.58766363  1
  Al  Al96  1  0.25354606  0.13675858  0.13499874  1
  Al  Al97  1  0.24555211  0.13378685  0.63463872  1
  Al  Al98  1  0.24989733  0.63616176  0.12787210  1
  Al  Al99  1  0.25103524  0.63626088  0.63599404  1
  Al  Al100  1  0.74817699  0.13291050  0.13682126  1
  Al  Al101  1  0.74784660  0.12891683  0.63706436  1
  Al  Al102  1  0.74992059  0.63052154  0.13389761  1
  Al  Al103  1  0.75381333  0.63917752  0.63252301  1
  Al  Al104  1  0.24911743  0.36309698  0.12702263  1
  Al  Al105  1  0.24639577  0.36489312  0.63165652  1
  Al  Al106  1  0.25094459  0.86164277  0.12628595  1
  Al  Al107  1  0.25184194  0.86433742  0.63201275  1
  Al  Al108  1  0.74649857  0.36870268  0.13331395  1
  Al  Al109  1  0.75016649  0.36308965  0.63066111  1
  Al  Al110  1  0.75107074  0.86410520  0.12661759  1
  Al  Al111  1  0.74756418  0.86876442  0.63481749  1
  Al  Al112  1  0.24608068  0.13567613  0.36688728  1
  Al  Al113  1  0.25079154  0.13629295  0.86386744  1
  Al  Al114  1  0.25127946  0.63730540  0.36540072  1
  Al  Al115  1  0.25077777  0.63254697  0.86641526  1
  Al  Al116  1  0.74913027  0.13326103  0.36668967  1
  Al  Al117  1  0.74656105  0.12880601  0.86208644  1
  Al  Al118  1  0.75071337  0.63839687  0.36682196  1
  Al  Al119  1  0.75194695  0.63736922  0.86464898  1
  Al  Al120  1  0.24925563  0.36454977  0.37083905  1
  Al  Al121  1  0.24940282  0.36698876  0.86821703  1
  Al  Al122  1  0.25106007  0.86330005  0.37102936  1
  Al  Al123  1  0.25102213  0.86529155  0.86869606  1
  Al  Al124  1  0.74795875  0.36438677  0.37182220  1
  Al  Al125  1  0.74922632  0.36256293  0.86539748  1
  Al  Al126  1  0.75040681  0.86600624  0.36558220  1
  Al  Al127  1  0.75111361  0.86848963  0.86747549  1
  Al  Al128  1  0.13506534  0.25277758  0.13514815  1
  Al  Al129  1  0.13412314  0.25099333  0.63665088  1
  Al  Al130  1  0.13588634  0.74730129  0.12658995  1
  Al  Al131  1  0.13570908  0.75441431  0.63730358  1
  Al  Al132  1  0.63394593  0.25110204  0.13577357  1
  Al  Al133  1  0.63661567  0.24543028  0.63037144  1
  Al  Al134  1  0.63229425  0.75339875  0.13189079  1
  Al  Al135  1  0.63269109  0.75238616  0.63458326  1
  Al  Al136  1  0.13511232  0.25237802  0.36884484  1
  Al  Al137  1  0.12773005  0.25640494  0.86372156  1
  Al  Al138  1  0.13683239  0.75134329  0.36328513  1
  Al  Al139  1  0.13672975  0.75002689  0.87146990  1
  Al  Al140  1  0.63705738  0.24740736  0.37239438  1
  Al  Al141  1  0.63624875  0.24820941  0.86211256  1
  Al  Al142  1  0.63683259  0.75351959  0.36646917  1
  Al  Al143  1  0.63540643  0.75451123  0.86588787  1
  Al  Al144  1  0.36448686  0.25276216  0.13426278  1
  Al  Al145  1  0.36442266  0.24883956  0.63514961  1
  Al  Al146  1  0.36413150  0.74891389  0.12822516  1
  Al  Al147  1  0.36971055  0.75243323  0.63685913  1
  Al  Al148  1  0.86124376  0.25117852  0.13611432  1
  Al  Al149  1  0.86476235  0.25046667  0.63817809  1
  Al  Al150  1  0.86174080  0.74842296  0.12643041  1
  Al  Al151  1  0.86339357  0.75404278  0.63604277  1
  Al  Al152  1  0.36536821  0.24798952  0.36739985  1
  Al  Al153  1  0.36334785  0.25197637  0.86359462  1
  Al  Al154  1  0.36512899  0.75452465  0.36445977  1
  Al  Al155  1  0.36361685  0.74805362  0.87154631  1
  Al  Al156  1  0.86357804  0.25209911  0.36696370  1
  Al  Al157  1  0.87055086  0.25101373  0.86139613  1
  Al  Al158  1  0.86294943  0.74705330  0.36589615  1
  Al  Al159  1  0.86390828  0.75233047  0.86850728  1
  Al  Al160  1  0.13796186  0.13797128  0.24959190  1
  Al  Al161  1  0.13452384  0.13546221  0.75426198  1
  Al  Al162  1  0.13586200  0.63604678  0.24322501  1
  Al  Al163  1  0.13736763  0.63529729  0.75401123  1
  Al  Al164  1  0.63073630  0.13656061  0.25250383  1
  Al  Al165  1  0.63203215  0.13304848  0.74795006  1
  Al  Al166  1  0.63713320  0.63871803  0.24634292  1
  Al  Al167  1  0.63443918  0.63894018  0.74977762  1
  Al  Al168  1  0.36931466  0.13882169  0.24957033  1
  Al  Al169  1  0.36900892  0.13792565  0.74926810  1
  Al  Al170  1  0.36213873  0.63664088  0.24717833  1
  Al  Al171  1  0.36615533  0.63702707  0.75107877  1
  Al  Al172  1  0.86098929  0.13337461  0.25424367  1
  Al  Al173  1  0.86246856  0.12842544  0.75202529  1
  Al  Al174  1  0.86676729  0.63744952  0.24165410  1
  Al  Al175  1  0.86360826  0.63584310  0.75271544  1
  Al  Al176  1  0.14133980  0.36620271  0.24702374  1
  Al  Al177  1  0.13691691  0.36813991  0.75414123  1
  Al  Al178  1  0.13925918  0.86195643  0.24722329  1
  Al  Al179  1  0.13416263  0.86354749  0.75244903  1
  Al  Al180  1  0.63596653  0.36321549  0.25137219  1
  Al  Al181  1  0.63629102  0.36208373  0.74896655  1
  Al  Al182  1  0.63588363  0.86535515  0.24546027  1
  Al  Al183  1  0.63248295  0.86913169  0.74889783  1
  Al  Al184  1  0.36287079  0.36597655  0.25179669  1
  Al  Al185  1  0.36253212  0.36750068  0.75236721  1
  Al  Al186  1  0.36405285  0.86273024  0.24404151  1
  Al  Al187  1  0.37152951  0.86230849  0.75133681  1
  Al  Al188  1  0.86069045  0.36632887  0.24774103  1
  Al  Al189  1  0.86347831  0.36783930  0.75388369  1
  Al  Al190  1  0.86146049  0.86446969  0.24979669  1
  Al  Al191  1  0.86339777  0.86640621  0.75042908  1
  Al  Al192  1  0.66961635  0.18708441  -0.00056162  1
  Al  Al193  1  0.00068436  0.16783375  0.32872907  1
  Al  Al194  1  0.32571163  0.00043777  0.82295578  1
  Al  Al195  1  0.17443233  0.67865187  0.50136432  1
  Al  Al196  1  -0.00076468  0.32819534  0.17167067  1
  Al  Al197  1  0.17514461  0.18174822  -0.00069855  1
  Al  Al198  1  0.81343446  0.17794652  0.50275244  1
  Al  Al199  1  0.82298904  0.50148001  0.68436294  1
  Al  Al200  1  0.50189672  0.32193178  0.33001790  1
  Al  Al201  1  0.82087545  0.00082674  0.17733982  1
  Al  Al202  1  0.81930278  0.33132082  -0.00055010  1
  Al  Al203  1  0.00059756  0.66779766  0.32845530  1
  Al  Al204  1  0.32339511  -0.00021286  0.31778190  1
  Al  Al205  1  -0.00143634  0.17419329  0.17268533  1
  Al  Al206  1  0.31901906  0.17675361  0.49834760  1
  Al  Al207  1  0.50057505  0.82659863  0.31679064  1
  Al  Al208  1  0.67704593  -0.00017589  0.32494099  1
  Al  Al209  1  -0.00133577  0.82742585  0.32707069  1
  Al  Al210  1  0.32765905  0.18399246  -0.00165330  1
  Al  Al211  1  0.16796461  0.50102814  0.67774861  1
  Al  Al212  1  0.49806777  0.32802042  0.16557121  1
  Al  Al213  1  0.67938629  0.68483212  0.50041681  1
  Al  Al214  1  0.49968454  0.67589826  0.82452261  1
  Al  Al215  1  0.00022606  0.32556314  0.68648017  1
  Al  Al216  1  0.33166733  0.50217643  0.67654505  1
  Al  Al217  1  0.82524615  0.17406497  -0.00108737  1
  Al  Al218  1  0.69341847  0.69152276  -0.00011018  1
  Al  Al219  1  0.66928833  0.50163226  0.67356463  1
  Al  Al220  1  0.18228031  -0.00010708  0.17615622  1
  Al  Al221  1  0.18348992  0.50202111  0.31181557  1
  Al  Al222  1  0.32768681  0.68647216  0.50084987  1
  Al  Al223  1  0.30736206  0.49997477  0.17954238  1
  Al  Al224  1  -0.00137799  0.17366841  0.68158315  1
  Al  Al225  1  0.17047419  -0.00219540  0.32914508  1
  Al  Al226  1  0.50002816  0.31633650  0.82705061  1
  Al  Al227  1  0.50064360  0.31352395  0.67626038  1
  Al  Al228  1  0.67160293  0.50218603  0.31822120  1
  Al  Al229  1  0.00177241  0.33364125  0.32609183  1
  Al  Al230  1  0.17461566  0.00097135  0.67593677  1
  Al  Al231  1  -0.00108371  0.82373971  0.17089259  1
  Al  Al232  1  0.68724341  0.50045842  0.82518348  1
  Al  Al233  1  0.81602891  0.81840102  0.49966003  1
  Al  Al234  1  0.49867542  0.68469186  0.17413376  1
  Al  Al235  1  -0.00018895  0.68824495  0.67514677  1
  Al  Al236  1  0.82864633  0.50283213  0.32650635  1
  Al  Al237  1  0.50122756  0.67375772  0.32787508  1
  Al  Al238  1  -0.00004614  0.68186346  0.82482621  1
  Au  Au239  1  0.33038813  0.50359448  0.32631051  1
  Au  Au240  1  0.49742707  0.33376686  0.15041044  1
  Au  Au241  1  0.82744123  0.50122724  0.67226664  1
  Au  Au242  1  0.83114454  0.82622566  0.49963723  1
  Au  Au243  1  0.17821556  0.66033281  -0.00306120  1
  Au  Au244  1  0.15265899  0.50007094  0.67240558  1
  Au  Au245  1  0.66344603  0.49911539  0.16794071  1
  Au  Au246  1  0.00284200  0.84017611  0.17222123  1
  Au  Au247  1  0.66953094  0.32335396  0.50292941  1
  Au  Au248  1  0.83957444  0.32309730  0.50343959  1
  Au  Au249  1  0.16795149  0.83174523  -0.00228368  1
  Au  Au250  1  0.49890013  0.15979491  0.16773759  1
  Au  Au251  1  0.32327039  0.49940181  0.84455131  1
  Au  Au252  1  0.50155230  0.15869484  0.33633531  1
  Au  Au253  1  0.33526333  0.00097382  0.83084977  1
  Au  Au254  1  0.00675175  0.34901699  0.32646642  1
  Au  Au255  1  -0.00028180  0.67093056  0.83376811  1
  Au  Au256  1  0.83374415  -0.00196978  0.83492040  1
  Au  Au257  1  0.00148997  0.67323292  0.34462631  1
  Au  Au258  1  0.83413100  0.50129796  0.16231011  1
  Au  Au259  1  0.66648314  0.00077023  0.66298543  1
  Au  Au260  1  0.49890477  0.67262838  0.16967636  1
  Au  Au261  1  0.82176475  0.50314361  0.34223677  1
  Au  Au262  1  0.50268284  0.66364817  0.82545582  1
  Au  Au263  1  0.00014762  0.66156840  0.15846359  1
  Au  Au264  1  0.17137048  0.82707401  0.49908172  1
  Au  Au265  1  0.16564461  -0.00120073  0.66755769  1
  Au  Au266  1  -0.00081640  0.17686014  0.83078687  1
  Au  Au267  1  0.31904182  0.33299472  0.50234473  1
  Au  Au268  1  0.68082686  -0.00048465  0.33744517  1
  Au  Au269  1  0.16111979  -0.00102353  0.83228679  1
  Au  Au270  1  0.67169479  0.66968210  0.50059631  1
  Au  Au271  1  0.66467977  -0.00200690  0.83237681  1
  Au  Au272  1  0.17344068  0.33132265  -0.00337080  1
  Au  Au273  1  0.50165349  0.82413457  0.65967480  1
  Au  Au274  1  0.83540681  0.33032207  -0.00421119  1
  Au  Au275  1  -0.00242195  0.15202879  0.32954982  1
  Au  Au276  1  0.83713414  -0.00020365  0.66755921  1
  Au  Au277  1  0.83359055  0.00279879  0.17651067  1
  Au  Au278  1  0.33112521  -0.00208989  0.16876646  1
  Au  Au279  1  0.33925064  0.82392628  0.00017144  1
  Au  Au280  1  0.34657160  0.50280990  0.67101553  1
  Au  Au281  1  0.33972841  -0.00123365  0.66778537  1
  Au  Au282  1  0.66903696  0.16993140  -0.00187665  1
  Au  Au283  1  0.50239021  0.82964312  0.83215066  1
  Au  Au284  1  0.50173186  0.33521609  0.34034391  1
  Au  Au285  1  0.81932291  0.81839601  -0.00244876  1
  Au  Au286  1  0.32727387  0.16762456  0.50105367  1
  Au  Au287  1  0.66283617  -0.00602045  0.16352804  1
