# generated using pymatgen
data_Ca24Ti8Al207Au49
_symmetry_space_group_name_H-M   'P 1'
_cell_length_a   17.32322469
_cell_length_b   17.32358668
_cell_length_c   17.32428553
_cell_angle_alpha   90.00331597
_cell_angle_beta   89.99913279
_cell_angle_gamma   89.99640004
_symmetry_Int_Tables_number   1
_chemical_formula_structural   Ca24Ti8Al207Au49
_chemical_formula_sum   'Ca24 Ti8 Al207 Au49'
_cell_volume   5199.02473162
_cell_formula_units_Z   1
loop_
 _symmetry_equiv_pos_site_id
 _symmetry_equiv_pos_as_xyz
  1  'x, y, z'
loop_
 _atom_site_type_symbol
 _atom_site_label
 _atom_site_symmetry_multiplicity
 _atom_site_fract_x
 _atom_site_fract_y
 _atom_site_fract_z
 _atom_site_occupancy
  Ca  Ca0  1  0.25015212  0.00257459  -0.00483030  1
  Ca  Ca1  1  0.24918006  0.00397347  0.50525817  1
  Ca  Ca2  1  0.24832990  0.49703340  -0.00384748  1
  Ca  Ca3  1  0.25119761  0.49526935  0.50312886  1
  Ca  Ca4  1  0.75178377  -0.00092175  -0.00611898  1
  Ca  Ca5  1  0.74634969  0.00064505  0.50423164  1
  Ca  Ca6  1  0.75394010  0.50052132  -0.00134456  1
  Ca  Ca7  1  0.75078556  0.49850597  0.50173247  1
  Ca  Ca8  1  0.00092682  0.24961859  0.00394643  1
  Ca  Ca9  1  0.00319282  0.24780433  0.49880600  1
  Ca  Ca10  1  -0.00020627  0.75145394  -0.00206860  1
  Ca  Ca11  1  0.00186483  0.75592467  0.50124479  1
  Ca  Ca12  1  0.49580939  0.24871262  -0.00673397  1
  Ca  Ca13  1  0.49795550  0.24628067  0.50400790  1
  Ca  Ca14  1  0.49631868  0.75016739  0.00089949  1
  Ca  Ca15  1  0.49919346  0.75257802  0.50309834  1
  Ca  Ca16  1  0.00279215  0.00027601  0.25057588  1
  Ca  Ca17  1  0.00506591  -0.00251152  0.75441769  1
  Ca  Ca18  1  -0.00420640  0.49626596  0.24536258  1
  Ca  Ca19  1  0.00170559  0.50136679  0.75425613  1
  Ca  Ca20  1  0.49338765  0.00175637  0.24829884  1
  Ca  Ca21  1  0.49731978  0.00206591  0.74912009  1
  Ca  Ca22  1  0.50169906  0.50004583  0.24656798  1
  Ca  Ca23  1  0.49731296  0.49788356  0.75187201  1
  Ti  Ti24  1  0.24876950  0.24943474  0.24751294  1
  Ti  Ti25  1  0.25077678  0.24823441  0.75108239  1
  Ti  Ti26  1  0.24891218  0.75214189  0.24822099  1
  Ti  Ti27  1  0.25095598  0.75096201  0.75081809  1
  Ti  Ti28  1  0.75171467  0.25029499  0.25073939  1
  Ti  Ti29  1  0.74807196  0.24821652  0.74936077  1
  Ti  Ti30  1  0.75234752  0.74906068  0.24840548  1
  Ti  Ti31  1  0.74858091  0.75153890  0.75048576  1
  Al  Al32  1  0.08342726  0.08968256  0.08496705  1
  Al  Al33  1  0.09467828  0.08300057  0.58679823  1
  Al  Al34  1  0.07612343  0.58117970  0.07734404  1
  Al  Al35  1  0.08605945  0.57797621  0.58409389  1
  Al  Al36  1  0.57311136  0.08524979  0.07789323  1
  Al  Al37  1  0.58870073  0.08534501  0.58575955  1
  Al  Al38  1  0.58638165  0.58356055  0.07904518  1
  Al  Al39  1  0.58124075  0.57914442  0.58198530  1
  Al  Al40  1  0.42047511  0.41813772  0.07341274  1
  Al  Al41  1  0.41170150  0.40742870  0.58471547  1
  Al  Al42  1  0.40366919  0.91469855  0.08017478  1
  Al  Al43  1  0.41239172  0.92460442  0.58695060  1
  Al  Al44  1  0.91719677  0.41680029  0.09563182  1
  Al  Al45  1  0.91537646  0.42186400  0.57284688  1
  Al  Al46  1  0.92123422  0.91265542  0.07250307  1
  Al  Al47  1  0.91215636  0.92007726  0.59054235  1
  Al  Al48  1  0.41113595  0.08887477  0.42260778  1
  Al  Al49  1  0.41210292  0.08181001  0.90463076  1
  Al  Al50  1  0.42302863  0.58875806  0.42699259  1
  Al  Al51  1  0.40761076  0.58087419  0.91664659  1
  Al  Al52  1  0.92517423  0.08601229  0.41934845  1
  Al  Al53  1  0.92529127  0.08591462  0.91026138  1
  Al  Al54  1  0.91893405  0.57656464  0.41736431  1
  Al  Al55  1  0.91211360  0.59069982  0.92253919  1
  Al  Al56  1  0.08195987  0.39949683  0.41432809  1
  Al  Al57  1  0.09070483  0.41024377  0.92518402  1
  Al  Al58  1  0.08178657  0.91303239  0.42039620  1
  Al  Al59  1  0.09181372  0.91682830  0.90528261  1
  Al  Al60  1  0.58202085  0.41462460  0.42056339  1
  Al  Al61  1  0.57933909  0.40998384  0.91149922  1
  Al  Al62  1  0.58664041  0.91496594  0.42655186  1
  Al  Al63  1  0.57796615  0.92645484  0.91819343  1
  Al  Al64  1  0.08739007  0.09233409  0.42335290  1
  Al  Al65  1  0.08914993  0.08277189  0.90483581  1
  Al  Al66  1  0.07952711  0.58218336  0.42252218  1
  Al  Al67  1  0.08061422  0.58222968  0.91622725  1
  Al  Al68  1  0.58487940  0.08605372  0.42596328  1
  Al  Al69  1  0.57482227  0.09049873  0.90813578  1
  Al  Al70  1  0.58274481  0.57993146  0.41892060  1
  Al  Al71  1  0.58376202  0.58110124  0.92068134  1
  Al  Al72  1  0.41557598  0.40626878  0.42771846  1
  Al  Al73  1  0.41695281  0.41377904  0.90828630  1
  Al  Al74  1  0.41705482  0.92202526  0.42076419  1
  Al  Al75  1  0.40541727  0.91763380  0.91621198  1
  Al  Al76  1  0.92061437  0.40677305  0.40940159  1
  Al  Al77  1  0.92512721  0.42594707  0.92365338  1
  Al  Al78  1  0.92474809  0.91063038  0.41529616  1
  Al  Al79  1  0.92057167  0.90933097  0.91059719  1
  Al  Al80  1  0.07915284  0.39832897  0.08586862  1
  Al  Al81  1  0.09664644  0.41775855  0.57375117  1
  Al  Al82  1  0.08363783  0.91704528  0.07543937  1
  Al  Al83  1  0.09087680  0.92109830  0.58844567  1
  Al  Al84  1  0.58414870  0.42011846  0.07671330  1
  Al  Al85  1  0.57990344  0.41367931  0.58444844  1
  Al  Al86  1  0.57202084  0.92107769  0.07444335  1
  Al  Al87  1  0.59211950  0.92023676  0.58315301  1
  Al  Al88  1  0.41268577  0.07768925  0.08777754  1
  Al  Al89  1  0.40731114  0.08728467  0.58594064  1
  Al  Al90  1  0.41063673  0.59155559  0.07327033  1
  Al  Al91  1  0.41335992  0.58185403  0.58152700  1
  Al  Al92  1  0.92689741  0.09164804  0.08449255  1
  Al  Al93  1  0.91044643  0.07772678  0.58829355  1
  Al  Al94  1  0.90905693  0.58222903  0.08498079  1
  Al  Al95  1  0.92070129  0.57954983  0.58036224  1
  Al  Al96  1  0.25036192  0.13567883  0.12795279  1
  Al  Al97  1  0.24829234  0.13411898  0.63923663  1
  Al  Al98  1  0.25370849  0.63586571  0.13125707  1
  Al  Al99  1  0.25123988  0.63622994  0.63754648  1
  Al  Al100  1  0.75030273  0.13712417  0.13592867  1
  Al  Al101  1  0.74891057  0.13585498  0.63540373  1
  Al  Al102  1  0.75529856  0.62878538  0.13470101  1
  Al  Al103  1  0.74589862  0.63151360  0.63730227  1
  Al  Al104  1  0.24716004  0.36437409  0.12860744  1
  Al  Al105  1  0.25516051  0.35994188  0.63490763  1
  Al  Al106  1  0.25537508  0.86968548  0.13285143  1
  Al  Al107  1  0.24863897  0.86937756  0.63900815  1
  Al  Al108  1  0.75410398  0.36928699  0.13724572  1
  Al  Al109  1  0.74357149  0.36788558  0.63796019  1
  Al  Al110  1  0.75510263  0.86582682  0.13545586  1
  Al  Al111  1  0.75104928  0.86562761  0.63585416  1
  Al  Al112  1  0.24464791  0.13847441  0.36560811  1
  Al  Al113  1  0.25064625  0.13203206  0.86792351  1
  Al  Al114  1  0.24524089  0.63592107  0.36524092  1
  Al  Al115  1  0.25337706  0.63682201  0.86786826  1
  Al  Al116  1  0.75285327  0.13650126  0.36419043  1
  Al  Al117  1  0.74782092  0.12899724  0.86331663  1
  Al  Al118  1  0.75339195  0.63322175  0.36374299  1
  Al  Al119  1  0.75214171  0.63579234  0.86334048  1
  Al  Al120  1  0.24930581  0.36217830  0.36281122  1
  Al  Al121  1  0.24952813  0.36025365  0.86913821  1
  Al  Al122  1  0.25246740  0.86477593  0.36485171  1
  Al  Al123  1  0.25062882  0.87237832  0.86036746  1
  Al  Al124  1  0.75082929  0.36568711  0.36305812  1
  Al  Al125  1  0.74775410  0.36208144  0.86253267  1
  Al  Al126  1  0.75048696  0.86547839  0.36617181  1
  Al  Al127  1  0.75295545  0.87206787  0.86148488  1
  Al  Al128  1  0.13551911  0.25110466  0.12868492  1
  Al  Al129  1  0.13611578  0.24349424  0.63444938  1
  Al  Al130  1  0.13623367  0.75484181  0.13366091  1
  Al  Al131  1  0.13495088  0.75395054  0.63894126  1
  Al  Al132  1  0.63637446  0.25121729  0.13562058  1
  Al  Al133  1  0.63125296  0.24814452  0.63126162  1
  Al  Al134  1  0.63793204  0.74746600  0.13417349  1
  Al  Al135  1  0.63246675  0.75480926  0.63607468  1
  Al  Al136  1  0.12905442  0.25011493  0.36175052  1
  Al  Al137  1  0.13424370  0.24448819  0.86738406  1
  Al  Al138  1  0.13441917  0.75291109  0.36347738  1
  Al  Al139  1  0.13528134  0.75603414  0.86480221  1
  Al  Al140  1  0.63552131  0.25172796  0.37268657  1
  Al  Al141  1  0.63124461  0.24757615  0.86291249  1
  Al  Al142  1  0.63879412  0.75078671  0.36446803  1
  Al  Al143  1  0.63268877  0.74842341  0.86411618  1
  Al  Al144  1  0.36122110  0.25035821  0.12643343  1
  Al  Al145  1  0.37100303  0.24710745  0.63825507  1
  Al  Al146  1  0.36224060  0.75333202  0.12978559  1
  Al  Al147  1  0.36933193  0.75409321  0.63936173  1
  Al  Al148  1  0.86983669  0.25244260  0.13649782  1
  Al  Al149  1  0.86598186  0.24526686  0.63770160  1
  Al  Al150  1  0.86501945  0.74639762  0.13336005  1
  Al  Al151  1  0.86685858  0.75453290  0.63772130  1
  Al  Al152  1  0.36431789  0.24845751  0.36528176  1
  Al  Al153  1  0.36448110  0.24769401  0.86902384  1
  Al  Al154  1  0.36405842  0.75138839  0.36319105  1
  Al  Al155  1  0.36089362  0.75316713  0.87172196  1
  Al  Al156  1  0.87391190  0.24920390  0.36456484  1
  Al  Al157  1  0.86532716  0.24314078  0.85932891  1
  Al  Al158  1  0.86464496  0.75326834  0.36388189  1
  Al  Al159  1  0.86400174  0.75181321  0.86182321  1
  Al  Al160  1  0.12655376  0.14000386  0.24286204  1
  Al  Al161  1  0.13658009  0.12962280  0.75437952  1
  Al  Al162  1  0.13659521  0.63168952  0.24859250  1
  Al  Al163  1  0.13730956  0.63645996  0.75436866  1
  Al  Al164  1  0.63544518  0.13802397  0.25301595  1
  Al  Al165  1  0.62756947  0.13699195  0.74900366  1
  Al  Al166  1  0.63777225  0.63541258  0.24756426  1
  Al  Al167  1  0.62973197  0.63721878  0.74719468  1
  Al  Al168  1  0.35893380  0.13280321  0.24968648  1
  Al  Al169  1  0.36900144  0.13550565  0.75485689  1
  Al  Al170  1  0.36295669  0.63917754  0.24736155  1
  Al  Al171  1  0.36980534  0.63843218  0.75179979  1
  Al  Al172  1  0.87372638  0.13730388  0.24977889  1
  Al  Al173  1  0.86339859  0.12699790  0.74978481  1
  Al  Al174  1  0.86539158  0.62818120  0.24909425  1
  Al  Al175  1  0.86351171  0.63579907  0.74786433  1
  Al  Al176  1  0.13137596  0.36220211  0.24749608  1
  Al  Al177  1  0.13757469  0.36006159  0.75412734  1
  Al  Al178  1  0.12957103  0.86488985  0.24763715  1
  Al  Al179  1  0.13443756  0.86998949  0.75141825  1
  Al  Al180  1  0.63415416  0.36495757  0.24907432  1
  Al  Al181  1  0.62673139  0.35984211  0.75031452  1
  Al  Al182  1  0.63874544  0.86448768  0.24733239  1
  Al  Al183  1  0.63078442  0.86651085  0.75311796  1
  Al  Al184  1  0.36656910  0.36089435  0.24476188  1
  Al  Al185  1  0.36944210  0.35992454  0.75248379  1
  Al  Al186  1  0.36340965  0.87065389  0.24846961  1
  Al  Al187  1  0.36576137  0.86856932  0.75364274  1
  Al  Al188  1  0.86771359  0.36578992  0.25025569  1
  Al  Al189  1  0.86488022  0.36282506  0.75023915  1
  Al  Al190  1  0.87343528  0.86239796  0.24931341  1
  Al  Al191  1  0.86825314  0.86886957  0.75003632  1
  Al  Al192  1  0.67115295  0.82943241  -0.00119482  1
  Al  Al193  1  0.00033717  0.31584928  0.83115189  1
  Al  Al194  1  0.18024383  0.81900225  0.50141809  1
  Al  Al195  1  0.30892591  0.19025049  0.50283117  1
  Al  Al196  1  0.82406242  0.17611197  -0.00141952  1
  Al  Al197  1  0.32909556  0.50122447  0.32969432  1
  Al  Al198  1  0.81901103  0.82694540  0.50088247  1
  Al  Al199  1  0.66794623  -0.00102037  0.17336983  1
  Al  Al200  1  0.50089368  0.67183765  0.32465038  1
  Al  Al201  1  0.32146400  0.50059589  0.16995399  1
  Al  Al202  1  0.67027718  0.68811195  0.50120426  1
  Al  Al203  1  -0.00101724  0.68703073  0.33234299  1
  Al  Al204  1  0.82733928  0.49945416  0.82286415  1
  Al  Al205  1  0.18977488  0.30798539  0.49882782  1
  Al  Al206  1  0.67259991  0.00061924  0.32954935  1
  Al  Al207  1  0.82816669  -0.00026895  0.16957382  1
  Al  Al208  1  0.49963704  0.67315894  0.17033926  1
  Al  Al209  1  0.00097545  0.68000534  0.67254571  1
  Al  Al210  1  0.17998713  0.00291513  0.17425238  1
  Al  Al211  1  0.00019236  0.67908264  0.17398071  1
  Al  Al212  1  0.81809756  0.17380958  0.50090041  1
  Al  Al213  1  0.31919512  0.68540478  0.50109437  1
  Al  Al214  1  0.82764597  0.67339147  0.50082873  1
  Al  Al215  1  0.49608446  0.32014958  0.32223546  1
  Al  Al216  1  0.50027762  0.82265534  0.82703770  1
  Al  Al217  1  0.81811978  0.32561240  0.50012578  1
  Al  Al218  1  -0.00068828  0.68435597  0.82850567  1
  Al  Al219  1  0.67557155  0.32122057  -0.00139084  1
  Al  Al220  1  0.67265609  0.49897203  0.82286248  1
  Al  Al221  1  0.00145594  0.16677087  0.68504225  1
  Al  Al222  1  0.50247742  0.82517054  0.32453090  1
  Al  Al223  1  0.68621711  0.00111686  0.68093556  1
  Al  Al224  1  0.18180682  0.49751881  0.68346234  1
  Al  Al225  1  0.16689051  0.49605859  0.32026660  1
  Al  Al226  1  0.31366666  0.00268765  0.68900153  1
  Al  Al227  1  0.82864753  -0.00359742  0.32713981  1
  Al  Al228  1  0.18839559  0.83021196  -0.00251169  1
  Al  Al229  1  0.49584102  0.18077603  0.18138968  1
  Al  Al230  1  0.68940098  0.67702909  -0.00080618  1
  Al  Al231  1  0.67785885  0.49694102  0.32023487  1
  Al  Al232  1  0.17961905  0.00054081  0.33188379  1
  Al  Al233  1  0.18021054  0.67737012  0.00044059  1
  Al  Al234  1  0.31666725  0.49829500  0.81607433  1
  Al  Al235  1  0.49834827  0.82686383  0.16941806  1
  Al  Al236  1  0.00266837  0.32779343  0.67180446  1
  Al  Al237  1  0.82286774  0.81132814  -0.00249870  1
  Al  Al238  1  0.82903994  0.33203698  -0.00012008  1
  Au  Au239  1  0.49916554  0.16328853  0.67448264  1
  Au  Au240  1  0.50173501  0.16296880  0.33112420  1
  Au  Au241  1  0.66864549  0.32516211  0.50260269  1
  Au  Au242  1  0.67728241  0.49973974  0.16236575  1
  Au  Au243  1  0.17210600  0.66770123  0.50289963  1
  Au  Au244  1  0.50192652  0.32645922  0.15718585  1
  Au  Au245  1  0.33327782  0.16344128  -0.00158798  1
  Au  Au246  1  0.49720941  0.66727454  0.83882609  1
  Au  Au247  1  0.49781779  0.66668398  0.66663088  1
  Au  Au248  1  0.16738764  0.49696157  0.83135642  1
  Au  Au249  1  0.65711276  0.00425240  0.16996055  1
  Au  Au250  1  0.84017381  -0.00157962  0.82354216  1
  Au  Au251  1  0.15815012  0.49459640  0.16328757  1
  Au  Au252  1  0.16957458  -0.00209940  0.16952618  1
  Au  Au253  1  0.00380949  0.33939679  0.65908301  1
  Au  Au254  1  0.16754385  0.00172945  0.32949813  1
  Au  Au255  1  0.67298000  0.67109611  0.49971796  1
  Au  Au256  1  0.16900654  0.66892321  -0.00093530  1
  Au  Au257  1  0.33297987  0.50037581  0.16483658  1
  Au  Au258  1  0.66428357  0.49828637  0.67495344  1
  Au  Au259  1  0.83038432  0.17000052  0.50101573  1
  Au  Au260  1  0.00008195  0.32689950  0.83725772  1
  Au  Au261  1  0.49805810  0.33051772  0.67697730  1
  Au  Au262  1  0.32759034  0.83488744  0.50429382  1
  Au  Au263  1  0.16207986  0.17438959  -0.00316739  1
  Au  Au264  1  0.66012956  0.17330154  -0.00234289  1
  Au  Au265  1  0.00148373  0.15812203  0.67425144  1
  Au  Au266  1  0.49843285  0.32923378  0.33066803  1
  Au  Au267  1  0.32571319  0.33434371  -0.00446742  1
  Au  Au268  1  0.50261026  0.83623482  0.66259547  1
  Au  Au269  1  0.00124457  0.82958831  0.16692721  1
  Au  Au270  1  0.83427242  0.49951257  0.67162670  1
  Au  Au271  1  0.83620537  0.17198981  -0.00145831  1
  Au  Au272  1  0.49802243  0.83109294  0.83600303  1
  Au  Au273  1  0.83115174  0.83142640  0.50075776  1
  Au  Au274  1  0.33287407  0.00366267  0.32773758  1
  Au  Au275  1  0.00127932  0.66766531  0.67590821  1
  Au  Au276  1  0.66560883  0.00325734  0.82677813  1
  Au  Au277  1  0.00305658  0.84109954  0.67715538  1
  Au  Au278  1  0.16206709  0.49683425  0.33178685  1
  Au  Au279  1  0.83492642  0.49574191  0.32652354  1
  Au  Au280  1  -0.00153407  0.67085451  0.32682883  1
  Au  Au281  1  0.83886033  0.00009306  0.16315338  1
  Au  Au282  1  0.33547031  0.50198838  0.34586604  1
  Au  Au283  1  0.50218765  0.83536046  0.33470300  1
  Au  Au284  1  0.66924523  0.49949561  0.32896058  1
  Au  Au285  1  0.00330568  0.17506300  0.32661896  1
  Au  Au286  1  0.32883001  0.49809850  0.66655584  1
  Au  Au287  1  0.83256601  0.00146071  0.33799685  1
