# generated using pymatgen
data_Ca24Ti8Al207Au49
_symmetry_space_group_name_H-M   'P 1'
_cell_length_a   17.32236886
_cell_length_b   17.32111934
_cell_length_c   17.32166868
_cell_angle_alpha   89.99998852
_cell_angle_beta   89.99895875
_cell_angle_gamma   89.99788119
_symmetry_Int_Tables_number   1
_chemical_formula_structural   Ca24Ti8Al207Au49
_chemical_formula_sum   'Ca24 Ti8 Al207 Au49'
_cell_volume   5197.24228331
_cell_formula_units_Z   1
loop_
 _symmetry_equiv_pos_site_id
 _symmetry_equiv_pos_as_xyz
  1  'x, y, z'
loop_
 _atom_site_type_symbol
 _atom_site_label
 _atom_site_symmetry_multiplicity
 _atom_site_fract_x
 _atom_site_fract_y
 _atom_site_fract_z
 _atom_site_occupancy
  Ca  Ca0  1  0.24789527  0.00107821  0.00412584  1
  Ca  Ca1  1  0.24982769  0.00022227  0.49577719  1
  Ca  Ca2  1  0.24407085  0.49940314  -0.00278232  1
  Ca  Ca3  1  0.24156283  0.50103851  0.50142589  1
  Ca  Ca4  1  0.75220998  0.00346031  0.00162645  1
  Ca  Ca5  1  0.75383637  0.00373295  0.49885086  1
  Ca  Ca6  1  0.75368677  0.49685384  0.00033782  1
  Ca  Ca7  1  0.75798420  0.49722887  0.50060855  1
  Ca  Ca8  1  -0.00881618  0.25378084  0.00318726  1
  Ca  Ca9  1  0.00062169  0.25552369  0.49769734  1
  Ca  Ca10  1  0.00061851  0.75605862  0.00316373  1
  Ca  Ca11  1  0.00057988  0.74330874  0.49695750  1
  Ca  Ca12  1  0.50321189  0.24797011  0.00199374  1
  Ca  Ca13  1  0.49923770  0.25150154  0.49651775  1
  Ca  Ca14  1  0.49632468  0.75504659  0.00436772  1
  Ca  Ca15  1  0.49825577  0.74202704  0.49398611  1
  Ca  Ca16  1  0.00479858  0.00222649  0.25393002  1
  Ca  Ca17  1  -0.00142533  0.00137062  0.75002901  1
  Ca  Ca18  1  -0.00599611  0.49449497  0.26131361  1
  Ca  Ca19  1  -0.00468217  0.49553526  0.74126912  1
  Ca  Ca20  1  0.49738262  0.00259265  0.25027062  1
  Ca  Ca21  1  0.50024540  0.00193384  0.74757673  1
  Ca  Ca22  1  0.50800519  0.49472759  0.25539550  1
  Ca  Ca23  1  0.50387952  0.49351175  0.74174646  1
  Ti  Ti24  1  0.24933331  0.24785928  0.25006714  1
  Ti  Ti25  1  0.24914764  0.25118110  0.74892915  1
  Ti  Ti26  1  0.24937360  0.75257922  0.25276909  1
  Ti  Ti27  1  0.24593320  0.74963596  0.74762390  1
  Ti  Ti28  1  0.74961271  0.25043750  0.25214337  1
  Ti  Ti29  1  0.75016646  0.25152997  0.74871082  1
  Ti  Ti30  1  0.74975407  0.74745519  0.25388993  1
  Ti  Ti31  1  0.75336005  0.74677871  0.74673658  1
  Al  Al32  1  0.07882996  0.07982792  0.08630989  1
  Al  Al33  1  0.08562993  0.09999351  0.57445178  1
  Al  Al34  1  0.07102975  0.58051357  0.07588381  1
  Al  Al35  1  0.07868703  0.58170213  0.59314696  1
  Al  Al36  1  0.57992554  0.09468817  0.08535270  1
  Al  Al37  1  0.57905287  0.08986912  0.58013604  1
  Al  Al38  1  0.58976467  0.57211880  0.09781431  1
  Al  Al39  1  0.59545273  0.57414866  0.58874807  1
  Al  Al40  1  0.42857681  0.41492734  0.08627630  1
  Al  Al41  1  0.42293188  0.41777202  0.57504565  1
  Al  Al42  1  0.41186365  0.92874345  0.09416644  1
  Al  Al43  1  0.40613096  0.91269110  0.56924851  1
  Al  Al44  1  0.90278901  0.40951907  0.08758562  1
  Al  Al45  1  0.91087556  0.41203210  0.58759234  1
  Al  Al46  1  0.92251863  0.92489645  0.07986021  1
  Al  Al47  1  0.91983747  0.92014266  0.58049536  1
  Al  Al48  1  0.41140445  0.08318886  0.40691648  1
  Al  Al49  1  0.42318254  0.08485855  0.92230817  1
  Al  Al50  1  0.40201460  0.58230381  0.41387562  1
  Al  Al51  1  0.42527747  0.57226563  0.92353012  1
  Al  Al52  1  0.92446130  0.09485645  0.41203827  1
  Al  Al53  1  0.91012671  0.09638092  0.92295355  1
  Al  Al54  1  0.90851035  0.58534243  0.41548900  1
  Al  Al55  1  0.91848016  0.57783679  0.89872656  1
  Al  Al56  1  0.07859658  0.40275296  0.42155040  1
  Al  Al57  1  0.06878224  0.41307339  0.90285047  1
  Al  Al58  1  0.08631551  0.90499229  0.41285267  1
  Al  Al59  1  0.08535705  0.90363898  0.92314599  1
  Al  Al60  1  0.59906399  0.41416334  0.42063851  1
  Al  Al61  1  0.59121667  0.41281244  0.91696662  1
  Al  Al62  1  0.57636207  0.92326138  0.41775738  1
  Al  Al63  1  0.58571494  0.93035902  0.92720350  1
  Al  Al64  1  0.08747397  0.09832008  0.41367512  1
  Al  Al65  1  0.07352081  0.08431579  0.92190675  1
  Al  Al66  1  0.07160312  0.58796134  0.41890809  1
  Al  Al67  1  0.07512138  0.58830125  0.90266881  1
  Al  Al68  1  0.57636743  0.08983142  0.41580446  1
  Al  Al69  1  0.58791743  0.08886622  0.92306976  1
  Al  Al70  1  0.59015955  0.57689572  0.41644168  1
  Al  Al71  1  0.58629063  0.57062752  0.91773925  1
  Al  Al72  1  0.40942990  0.42301880  0.41267620  1
  Al  Al73  1  0.42629492  0.41482685  0.92014332  1
  Al  Al74  1  0.40294769  0.91829121  0.41060240  1
  Al  Al75  1  0.41929711  0.92682927  0.92875661  1
  Al  Al76  1  0.91069606  0.41120374  0.41571702  1
  Al  Al77  1  0.90936144  0.40847683  0.90714767  1
  Al  Al78  1  0.92522456  0.91057409  0.40971839  1
  Al  Al79  1  0.92332314  0.91799896  0.91865307  1
  Al  Al80  1  0.06529967  0.41804587  0.07646736  1
  Al  Al81  1  0.08314064  0.40902676  0.58884671  1
  Al  Al82  1  0.09260881  0.91383541  0.08176107  1
  Al  Al83  1  0.08304244  0.91020528  0.57220132  1
  Al  Al84  1  0.59106793  0.41221016  0.09173715  1
  Al  Al85  1  0.60521625  0.41393750  0.58336755  1
  Al  Al86  1  0.57671581  0.92328955  0.08123750  1
  Al  Al87  1  0.57864967  0.92498318  0.57413170  1
  Al  Al88  1  0.41823814  0.08774119  0.10137760  1
  Al  Al89  1  0.42010737  0.08895962  0.57668094  1
  Al  Al90  1  0.43123230  0.57651262  0.08651473  1
  Al  Al91  1  0.41940801  0.58565500  0.57066777  1
  Al  Al92  1  0.91352207  0.09472771  0.08275843  1
  Al  Al93  1  0.92275502  0.08780972  0.58041868  1
  Al  Al94  1  0.91172787  0.56997649  0.09288339  1
  Al  Al95  1  0.91222397  0.58349406  0.58710260  1
  Al  Al96  1  0.24977644  0.12898311  0.13841152  1
  Al  Al97  1  0.24558991  0.13728031  0.63269079  1
  Al  Al98  1  0.24578181  0.63575469  0.13916774  1
  Al  Al99  1  0.24120865  0.63177694  0.63529441  1
  Al  Al100  1  0.75362953  0.13259465  0.13667822  1
  Al  Al101  1  0.75120162  0.14254677  0.62455560  1
  Al  Al102  1  0.74928874  0.63159365  0.13767431  1
  Al  Al103  1  0.75395579  0.62932523  0.63006602  1
  Al  Al104  1  0.24957915  0.36268600  0.13722087  1
  Al  Al105  1  0.24248218  0.36930552  0.63458117  1
  Al  Al106  1  0.24917272  0.87130439  0.14125418  1
  Al  Al107  1  0.24976284  0.86985488  0.63483488  1
  Al  Al108  1  0.75175540  0.36251267  0.13156298  1
  Al  Al109  1  0.75430540  0.37163357  0.63538140  1
  Al  Al110  1  0.75199381  0.86886139  0.13879576  1
  Al  Al111  1  0.75304069  0.86093762  0.63141791  1
  Al  Al112  1  0.24852767  0.12984414  0.36285387  1
  Al  Al113  1  0.25078411  0.13777027  0.86537937  1
  Al  Al114  1  0.24935233  0.63470889  0.36624695  1
  Al  Al115  1  0.24088742  0.63275544  0.86173723  1
  Al  Al116  1  0.75093595  0.13674345  0.37216425  1
  Al  Al117  1  0.75363724  0.14023602  0.86527908  1
  Al  Al118  1  0.75255803  0.62912306  0.37294881  1
  Al  Al119  1  0.75372493  0.63021812  0.86010263  1
  Al  Al120  1  0.24703472  0.36269788  0.36351838  1
  Al  Al121  1  0.24547973  0.36473057  0.86322557  1
  Al  Al122  1  0.25064770  0.87192561  0.36525302  1
  Al  Al123  1  0.24428107  0.86102984  0.86781118  1
  Al  Al124  1  0.75343852  0.37041182  0.36792763  1
  Al  Al125  1  0.75014013  0.36410366  0.86946573  1
  Al  Al126  1  0.74856795  0.86595539  0.36632414  1
  Al  Al127  1  0.75420113  0.86143732  0.86406619  1
  Al  Al128  1  0.13494386  0.24957560  0.13670847  1
  Al  Al129  1  0.13487393  0.25538510  0.63011738  1
  Al  Al130  1  0.13710300  0.75609148  0.13558605  1
  Al  Al131  1  0.12883912  0.74184712  0.63572153  1
  Al  Al132  1  0.63747559  0.24937500  0.13677856  1
  Al  Al133  1  0.63960341  0.25676212  0.62741675  1
  Al  Al134  1  0.63856419  0.74984252  0.14390937  1
  Al  Al135  1  0.64064859  0.74479172  0.62874339  1
  Al  Al136  1  0.13525857  0.24649941  0.36785696  1
  Al  Al137  1  0.13191917  0.25354048  0.86447440  1
  Al  Al138  1  0.13442312  0.75303536  0.36532331  1
  Al  Al139  1  0.12760367  0.74749267  0.85922589  1
  Al  Al140  1  0.63956972  0.25456600  0.36841288  1
  Al  Al141  1  0.63195316  0.25491116  0.86448901  1
  Al  Al142  1  0.63456258  0.74493168  0.36789943  1
  Al  Al143  1  0.64024146  0.74608147  0.86128345  1
  Al  Al144  1  0.36685508  0.24488205  0.13766497  1
  Al  Al145  1  0.36275992  0.25374347  0.63435896  1
  Al  Al146  1  0.36253758  0.75149938  0.14014720  1
  Al  Al147  1  0.35928449  0.75167033  0.63516452  1
  Al  Al148  1  0.86336688  0.25032409  0.13589399  1
  Al  Al149  1  0.86349916  0.25743225  0.62553278  1
  Al  Al150  1  0.86326362  0.74658644  0.14066739  1
  Al  Al151  1  0.87088067  0.73936218  0.63010705  1
  Al  Al152  1  0.36440361  0.24629153  0.36234944  1
  Al  Al153  1  0.36968837  0.25178638  0.86500653  1
  Al  Al154  1  0.36314627  0.75498628  0.36624576  1
  Al  Al155  1  0.36161961  0.75071832  0.86458973  1
  Al  Al156  1  0.86431325  0.25498912  0.37177350  1
  Al  Al157  1  0.86524855  0.25624121  0.86712849  1
  Al  Al158  1  0.86589093  0.74339340  0.36762616  1
  Al  Al159  1  0.87109244  0.74343308  0.85719192  1
  Al  Al160  1  0.13507611  0.13022579  0.25343833  1
  Al  Al161  1  0.13342062  0.13862101  0.74748536  1
  Al  Al162  1  0.13178779  0.63683504  0.25821598  1
  Al  Al163  1  0.12833195  0.63033686  0.74738086  1
  Al  Al164  1  0.63849319  0.13230030  0.24887099  1
  Al  Al165  1  0.63811346  0.14115478  0.74923175  1
  Al  Al166  1  0.64053541  0.62654930  0.25585881  1
  Al  Al167  1  0.64129881  0.62667013  0.74475027  1
  Al  Al168  1  0.36333954  0.12948446  0.25062654  1
  Al  Al169  1  0.36236383  0.13339933  0.74814382  1
  Al  Al170  1  0.36309280  0.63445034  0.25589601  1
  Al  Al171  1  0.36186300  0.63680774  0.74721278  1
  Al  Al172  1  0.86588586  0.13954466  0.25677412  1
  Al  Al173  1  0.86268896  0.14142048  0.74690208  1
  Al  Al174  1  0.86475734  0.62954901  0.25992965  1
  Al  Al175  1  0.86808281  0.62957786  0.74248582  1
  Al  Al176  1  0.12921930  0.36188506  0.25915781  1
  Al  Al177  1  0.12990787  0.36586438  0.74617757  1
  Al  Al178  1  0.13596939  0.87223399  0.25534984  1
  Al  Al179  1  0.13252681  0.86552896  0.74716719  1
  Al  Al180  1  0.64169443  0.37065408  0.25054513  1
  Al  Al181  1  0.63793128  0.37048214  0.74653374  1
  Al  Al182  1  0.63749025  0.87105818  0.25083082  1
  Al  Al183  1  0.63825344  0.85969046  0.74861037  1
  Al  Al184  1  0.36427527  0.36304010  0.25282564  1
  Al  Al185  1  0.36986919  0.36339333  0.74886187  1
  Al  Al186  1  0.36244843  0.87147781  0.25211351  1
  Al  Al187  1  0.35873020  0.87002168  0.75121221  1
  Al  Al188  1  0.86518207  0.36379853  0.25660614  1
  Al  Al189  1  0.86937712  0.36183662  0.74624593  1
  Al  Al190  1  0.86598973  0.86157681  0.25666298  1
  Al  Al191  1  0.86492704  0.86305842  0.74785441  1
  Al  Al192  1  0.83032168  0.00152743  0.82908942  1
  Al  Al193  1  0.50234714  0.31176537  0.18101944  1
  Al  Al194  1  0.67405847  -0.00083431  0.67980150  1
  Al  Al195  1  0.82931544  0.00321763  0.32342068  1
  Al  Al196  1  0.31446602  0.68788494  0.50070299  1
  Al  Al197  1  0.00090102  0.82092458  0.67596441  1
  Al  Al198  1  0.16790770  0.68442421  -0.00170359  1
  Al  Al199  1  0.30977604  0.32778267  0.49939472  1
  Al  Al200  1  0.00148904  0.82789454  0.18706872  1
  Al  Al201  1  -0.00250144  0.32633287  0.18404319  1
  Al  Al202  1  0.66762143  0.67127406  0.00435436  1
  Al  Al203  1  0.17656448  -0.00080786  0.82812144  1
  Al  Al204  1  0.16828525  0.49817292  0.17243727  1
  Al  Al205  1  0.83402394  0.66843764  -0.00295022  1
  Al  Al206  1  0.49935717  0.82682026  0.17103149  1
  Al  Al207  1  -0.00254213  0.18575572  0.82381793  1
  Al  Al208  1  0.50253192  0.33063973  0.33214776  1
  Al  Al209  1  0.82434672  0.81676067  0.49794219  1
  Al  Al210  1  0.50110197  0.17947409  0.30855675  1
  Al  Al211  1  0.32563206  0.66851971  0.00330501  1
  Al  Al212  1  0.49697052  0.82917129  0.66682961  1
  Al  Al213  1  0.68823008  0.18241233  0.00098883  1
  Al  Al214  1  -0.00090715  0.67243462  0.18579755  1
  Al  Al215  1  0.50007785  0.18415119  0.67911656  1
  Al  Al216  1  0.31954332  0.50051159  0.67000676  1
  Al  Al217  1  0.31434916  0.83002237  0.00436405  1
  Al  Al218  1  0.50215668  0.83072549  0.82954308  1
  Al  Al219  1  0.67801388  0.00143085  0.82880023  1
  Al  Al220  1  0.19071254  0.81551907  0.50029979  1
  Al  Al221  1  0.82794088  0.82544483  0.00112501  1
  Al  Al222  1  0.50140337  0.66900082  0.82661257  1
  Al  Al223  1  0.80678355  0.49658601  0.19420971  1
  Al  Al224  1  0.67479158  0.82749309  0.00204542  1
  Al  Al225  1  -0.00092264  0.19211000  0.67258820  1
  Al  Al226  1  0.50278561  0.67412403  0.18443967  1
  Al  Al227  1  0.82852233  0.00318499  0.67363562  1
  Al  Al228  1  0.32161365  0.32226411  0.00185753  1
  Al  Al229  1  0.33037127  0.49974183  0.18474530  1
  Al  Al230  1  0.31461687  0.17330449  0.49730378  1
  Al  Al231  1  0.17694720  0.49900726  0.33205329  1
  Al  Al232  1  0.31889662  0.49898114  0.82453435  1
  Al  Al233  1  0.00085326  0.17499607  0.18533373  1
  Al  Al234  1  0.50226024  0.67121053  0.66926057  1
  Al  Al235  1  0.82104271  0.49557984  0.80806459  1
  Al  Al236  1  0.17468901  0.17863189  0.00344494  1
  Al  Al237  1  0.49873348  0.82195597  0.32665364  1
  Al  Al238  1  0.17379392  0.00267282  0.66632216  1
  Au  Au239  1  0.66351329  0.82957065  0.49642639  1
  Au  Au240  1  0.83828534  0.82618072  0.49779016  1
  Au  Au241  1  0.15468695  0.49752286  0.81895022  1
  Au  Au242  1  0.49777046  0.83443125  0.32402772  1
  Au  Au243  1  -0.00463328  0.65559817  0.18628185  1
  Au  Au244  1  0.66169840  0.00300176  0.16727014  1
  Au  Au245  1  0.16851831  0.49393335  0.15545493  1
  Au  Au246  1  0.49825996  0.65739598  0.33117097  1
  Au  Au247  1  0.15284076  0.33268130  -0.00517791  1
  Au  Au248  1  -0.00150654  0.82046591  0.83332965  1
  Au  Au249  1  0.67586243  0.49745207  0.82381297  1
  Au  Au250  1  0.32882410  0.15724867  0.00652786  1
  Au  Au251  1  0.33027444  0.50435615  0.65740736  1
  Au  Au252  1  0.32309543  0.84422316  0.00710263  1
  Au  Au253  1  -0.00275658  0.17335780  0.82727351  1
  Au  Au254  1  0.66301111  0.18088882  0.49774070  1
  Au  Au255  1  0.15341462  0.67557229  -0.00349428  1
  Au  Au256  1  0.83273080  0.00261362  0.16736429  1
  Au  Au257  1  0.16645578  0.16932627  0.00166407  1
  Au  Au258  1  0.00124741  0.83435348  0.17119405  1
  Au  Au259  1  0.32787700  0.49616797  0.83877352  1
  Au  Au260  1  0.34682968  0.49843335  0.18082579  1
  Au  Au261  1  0.50301425  0.16331785  0.82656607  1
  Au  Au262  1  0.33473311  0.33268010  0.00372969  1
  Au  Au263  1  0.49614663  0.82335955  0.65095283  1
  Au  Au264  1  0.16360626  0.49851900  0.34220356  1
  Au  Au265  1  0.16465797  0.66927034  0.50241634  1
  Au  Au266  1  0.65179296  0.67505997  0.00858217  1
  Au  Au267  1  0.33798100  0.00347739  0.66220694  1
  Au  Au268  1  0.32629968  0.32636600  0.49556433  1
  Au  Au269  1  0.67865393  0.32960730  0.00320681  1
  Au  Au270  1  0.50118987  0.65306565  0.82042538  1
  Au  Au271  1  0.34255310  0.66620294  0.00605675  1
  Au  Au272  1  0.50321009  0.33150180  0.82853474  1
  Au  Au273  1  0.33874126  0.00288303  0.82992619  1
  Au  Au274  1  0.67632375  0.66041307  0.50226232  1
  Au  Au275  1  0.66863721  0.00493417  0.33768928  1
  Au  Au276  1  0.67340761  0.00492136  0.66369149  1
  Au  Au277  1  0.85049563  0.67127523  -0.00474221  1
  Au  Au278  1  0.83965224  -0.00158146  0.32852896  1
  Au  Au279  1  0.17054905  0.00116424  0.33794881  1
  Au  Au280  1  0.50539406  0.83756747  0.84465706  1
  Au  Au281  1  0.68348076  0.49746216  0.32304336  1
  Au  Au282  1  0.16661944  -0.00219970  0.84203916  1
  Au  Au283  1  0.50717242  0.33133277  0.65966743  1
  Au  Au284  1  0.16294917  0.00244499  0.66001519  1
  Au  Au285  1  0.17667499  0.00044256  0.16779395  1
  Au  Au286  1  -0.00105642  0.82873275  0.66634661  1
  Au  Au287  1  0.83670131  0.17807164  0.49911997  1
