# generated using pymatgen
data_Ca24Ti8Al207Au49
_symmetry_space_group_name_H-M   'P 1'
_cell_length_a   17.32322810
_cell_length_b   17.32330228
_cell_length_c   17.32282409
_cell_angle_alpha   90.00291498
_cell_angle_beta   90.00038237
_cell_angle_gamma   90.00116175
_symmetry_Int_Tables_number   1
_chemical_formula_structural   Ca24Ti8Al207Au49
_chemical_formula_sum   'Ca24 Ti8 Al207 Au49'
_cell_volume   5198.50184038
_cell_formula_units_Z   1
loop_
 _symmetry_equiv_pos_site_id
 _symmetry_equiv_pos_as_xyz
  1  'x, y, z'
loop_
 _atom_site_type_symbol
 _atom_site_label
 _atom_site_symmetry_multiplicity
 _atom_site_fract_x
 _atom_site_fract_y
 _atom_site_fract_z
 _atom_site_occupancy
  Ca  Ca0  1  0.24891929  0.00200585  0.00037062  1
  Ca  Ca1  1  0.25182203  -0.00312824  0.50175916  1
  Ca  Ca2  1  0.24610998  0.49866530  0.00152285  1
  Ca  Ca3  1  0.24408930  0.50201035  0.50054792  1
  Ca  Ca4  1  0.75274894  0.00000324  0.00413594  1
  Ca  Ca5  1  0.74843762  0.00259215  0.49411035  1
  Ca  Ca6  1  0.74981227  0.50041090  -0.00223793  1
  Ca  Ca7  1  0.74789862  0.49896333  0.50334284  1
  Ca  Ca8  1  0.00021316  0.24705801  0.00290248  1
  Ca  Ca9  1  -0.00329486  0.25169123  0.49773755  1
  Ca  Ca10  1  0.00099108  0.74769153  0.00169034  1
  Ca  Ca11  1  0.00532015  0.74910191  0.49604118  1
  Ca  Ca12  1  0.50129393  0.24866594  0.00084800  1
  Ca  Ca13  1  0.50509526  0.25391375  0.49863521  1
  Ca  Ca14  1  0.49828674  0.75092774  0.00047818  1
  Ca  Ca15  1  0.49412665  0.75363210  0.49995361  1
  Ca  Ca16  1  0.00217303  0.00239170  0.24424617  1
  Ca  Ca17  1  0.00327265  -0.00023660  0.74596613  1
  Ca  Ca18  1  0.00135849  0.49575211  0.24952295  1
  Ca  Ca19  1  -0.00373380  0.50013460  0.74928135  1
  Ca  Ca20  1  0.49725517  -0.00133996  0.24830020  1
  Ca  Ca21  1  0.49284369  -0.00097505  0.74995727  1
  Ca  Ca22  1  0.49469622  0.50123846  0.25410882  1
  Ca  Ca23  1  0.50066399  0.49899945  0.74935098  1
  Ti  Ti24  1  0.25052216  0.24863263  0.24829500  1
  Ti  Ti25  1  0.24895925  0.24929675  0.74964651  1
  Ti  Ti26  1  0.25076263  0.75202860  0.24965276  1
  Ti  Ti27  1  0.25076041  0.75042348  0.74940455  1
  Ti  Ti28  1  0.74894089  0.24863664  0.24919029  1
  Ti  Ti29  1  0.74981549  0.25062072  0.74928402  1
  Ti  Ti30  1  0.74888258  0.75143200  0.24835867  1
  Ti  Ti31  1  0.75008902  0.74999749  0.75014106  1
  Al  Al32  1  0.08657552  0.08440262  0.09275937  1
  Al  Al33  1  0.08467528  0.07806840  0.59458179  1
  Al  Al34  1  0.08024170  0.59281985  0.08617906  1
  Al  Al35  1  0.08762795  0.58133976  0.58723132  1
  Al  Al36  1  0.58697645  0.08094816  0.09039470  1
  Al  Al37  1  0.57827188  0.08561498  0.57735425  1
  Al  Al38  1  0.57808538  0.59069725  0.07674371  1
  Al  Al39  1  0.57383152  0.58070061  0.59399694  1
  Al  Al40  1  0.41475189  0.39661696  0.08297208  1
  Al  Al41  1  0.42387768  0.42404297  0.57834547  1
  Al  Al42  1  0.41599934  0.91733354  0.07897611  1
  Al  Al43  1  0.40167202  0.91029118  0.58525643  1
  Al  Al44  1  0.92484456  0.41453846  0.07567167  1
  Al  Al45  1  0.91115649  0.41716727  0.58829199  1
  Al  Al46  1  0.91974282  0.91646463  0.08613742  1
  Al  Al47  1  0.92452692  0.92331350  0.58051738  1
  Al  Al48  1  0.42383111  0.07883456  0.41455444  1
  Al  Al49  1  0.40760731  0.07986490  0.91450895  1
  Al  Al50  1  0.41286259  0.60149686  0.41789618  1
  Al  Al51  1  0.42226933  0.58083971  0.92418790  1
  Al  Al52  1  0.91679892  0.08630107  0.41717869  1
  Al  Al53  1  0.92446558  0.08480386  0.92404793  1
  Al  Al54  1  0.92692631  0.57431190  0.41936832  1
  Al  Al55  1  0.90191536  0.58504647  0.91347525  1
  Al  Al56  1  0.08640594  0.41877556  0.41349508  1
  Al  Al57  1  0.08447496  0.41763219  0.92133510  1
  Al  Al58  1  0.09866852  0.91523098  0.42330668  1
  Al  Al59  1  0.08606561  0.92000273  0.91913731  1
  Al  Al60  1  0.58805655  0.41413525  0.41940898  1
  Al  Al61  1  0.58478650  0.41924940  0.90998828  1
  Al  Al62  1  0.57267050  0.91715213  0.41006017  1
  Al  Al63  1  0.57039043  0.91821993  0.92407064  1
  Al  Al64  1  0.07974504  0.07384021  0.41228080  1
  Al  Al65  1  0.08384825  0.08255727  0.91805528  1
  Al  Al66  1  0.09121404  0.57858470  0.41490455  1
  Al  Al67  1  0.08174823  0.58169470  0.92478370  1
  Al  Al68  1  0.58285890  0.08695125  0.41403208  1
  Al  Al69  1  0.57694027  0.08298262  0.92473682  1
  Al  Al70  1  0.57105196  0.57931656  0.40982543  1
  Al  Al71  1  0.59369625  0.57873176  0.91084554  1
  Al  Al72  1  0.42405559  0.42102675  0.41899417  1
  Al  Al73  1  0.42161567  0.40623275  0.92500283  1
  Al  Al74  1  0.41064969  0.90354477  0.42014387  1
  Al  Al75  1  0.40882438  0.91814791  0.91212779  1
  Al  Al76  1  0.92282214  0.41368197  0.42302203  1
  Al  Al77  1  0.90825151  0.42474319  0.91210320  1
  Al  Al78  1  0.92039968  0.92930546  0.42046041  1
  Al  Al79  1  0.92069381  0.91878564  0.92393736  1
  Al  Al80  1  0.08503409  0.41244757  0.08457522  1
  Al  Al81  1  0.08589502  0.42115149  0.58489494  1
  Al  Al82  1  0.08526157  0.92072849  0.09099099  1
  Al  Al83  1  0.10335124  0.91649599  0.58462517  1
  Al  Al84  1  0.57311266  0.40871784  0.08121213  1
  Al  Al85  1  0.59160673  0.41572155  0.58073998  1
  Al  Al86  1  0.58821657  0.92066973  0.09037567  1
  Al  Al87  1  0.57127142  0.91907086  0.58042166  1
  Al  Al88  1  0.41694288  0.08392736  0.08062496  1
  Al  Al89  1  0.41274403  0.07175289  0.59209857  1
  Al  Al90  1  0.42229244  0.58867902  0.08461030  1
  Al  Al91  1  0.41369625  0.60107036  0.58114727  1
  Al  Al92  1  0.92303739  0.08720191  0.08862599  1
  Al  Al93  1  0.92385196  0.09201719  0.58716242  1
  Al  Al94  1  0.91924072  0.59660497  0.07488377  1
  Al  Al95  1  0.91788944  0.57449002  0.59616443  1
  Al  Al96  1  0.24966076  0.13133103  0.13483386  1
  Al  Al97  1  0.24994897  0.12986012  0.63625810  1
  Al  Al98  1  0.25076832  0.63307346  0.13703313  1
  Al  Al99  1  0.25005248  0.63893744  0.63311335  1
  Al  Al100  1  0.74799670  0.13002964  0.13713552  1
  Al  Al101  1  0.74769981  0.13445768  0.63685540  1
  Al  Al102  1  0.75310703  0.63474766  0.13342164  1
  Al  Al103  1  0.75557309  0.63309670  0.63676037  1
  Al  Al104  1  0.25163315  0.35937401  0.12819834  1
  Al  Al105  1  0.24861503  0.36570663  0.63638878  1
  Al  Al106  1  0.24804414  0.87148986  0.13606194  1
  Al  Al107  1  0.25238774  0.86457138  0.63000716  1
  Al  Al108  1  0.74550608  0.36274847  0.13469755  1
  Al  Al109  1  0.75056344  0.36558605  0.63609837  1
  Al  Al110  1  0.75133613  0.87154419  0.13494535  1
  Al  Al111  1  0.74859000  0.86260811  0.62985239  1
  Al  Al112  1  0.25126775  0.13519768  0.36499970  1
  Al  Al113  1  0.25113816  0.13404330  0.86604485  1
  Al  Al114  1  0.24828016  0.63778550  0.36619789  1
  Al  Al115  1  0.25046920  0.63251001  0.86142391  1
  Al  Al116  1  0.74596745  0.13577976  0.36233754  1
  Al  Al117  1  0.74906152  0.13292436  0.86482585  1
  Al  Al118  1  0.75399310  0.63482459  0.36444133  1
  Al  Al119  1  0.75254674  0.62855229  0.86116967  1
  Al  Al120  1  0.24857254  0.36670614  0.36015242  1
  Al  Al121  1  0.24719110  0.36291457  0.87003958  1
  Al  Al122  1  0.25260853  0.86316917  0.37042175  1
  Al  Al123  1  0.25249738  0.86905001  0.86230291  1
  Al  Al124  1  0.74899497  0.36313350  0.36316860  1
  Al  Al125  1  0.74902681  0.37063496  0.86133324  1
  Al  Al126  1  0.74708202  0.86452523  0.36592953  1
  Al  Al127  1  0.75165242  0.86585276  0.86698164  1
  Al  Al128  1  0.12911843  0.25164018  0.13799281  1
  Al  Al129  1  0.13080833  0.25045973  0.63810088  1
  Al  Al130  1  0.13622786  0.74946161  0.13680333  1
  Al  Al131  1  0.13806958  0.75451603  0.63259173  1
  Al  Al132  1  0.63126373  0.24854985  0.13066013  1
  Al  Al133  1  0.63558370  0.25098895  0.63045322  1
  Al  Al134  1  0.63686999  0.74939960  0.13425324  1
  Al  Al135  1  0.63002109  0.74821052  0.63485237  1
  Al  Al136  1  0.13626657  0.24846869  0.36100570  1
  Al  Al137  1  0.13581829  0.25055325  0.86137214  1
  Al  Al138  1  0.13610578  0.75339995  0.36561644  1
  Al  Al139  1  0.13854323  0.75481052  0.86152194  1
  Al  Al140  1  0.63518201  0.25277813  0.36963490  1
  Al  Al141  1  0.63883802  0.25121172  0.87063778  1
  Al  Al142  1  0.63436543  0.75012493  0.36506742  1
  Al  Al143  1  0.63728943  0.74833507  0.86299567  1
  Al  Al144  1  0.37003572  0.24866563  0.13665593  1
  Al  Al145  1  0.36477740  0.24854056  0.63515145  1
  Al  Al146  1  0.36289219  0.75133084  0.13726876  1
  Al  Al147  1  0.36580802  0.75157327  0.63153591  1
  Al  Al148  1  0.86822435  0.25084008  0.13575342  1
  Al  Al149  1  0.86936795  0.25295244  0.63707932  1
  Al  Al150  1  0.86292114  0.74997291  0.13063388  1
  Al  Al151  1  0.86613274  0.75331347  0.63771628  1
  Al  Al152  1  0.36411959  0.25436739  0.36524178  1
  Al  Al153  1  0.36341587  0.24977199  0.86397718  1
  Al  Al154  1  0.36207244  0.74994401  0.36999129  1
  Al  Al155  1  0.36492001  0.74768571  0.86177276  1
  Al  Al156  1  0.86438186  0.24839263  0.36367080  1
  Al  Al157  1  0.86044918  0.25087288  0.86298221  1
  Al  Al158  1  0.86304756  0.75230338  0.36608370  1
  Al  Al159  1  0.86144692  0.74616133  0.87110156  1
  Al  Al160  1  0.13464739  0.13268300  0.24331347  1
  Al  Al161  1  0.13513132  0.13340642  0.74601076  1
  Al  Al162  1  0.13868802  0.63278227  0.24939856  1
  Al  Al163  1  0.13720375  0.63388189  0.74845175  1
  Al  Al164  1  0.63213156  0.13580376  0.24551024  1
  Al  Al165  1  0.63407319  0.13596444  0.75207491  1
  Al  Al166  1  0.63597202  0.63641642  0.25223267  1
  Al  Al167  1  0.63697778  0.63329811  0.74972910  1
  Al  Al168  1  0.36419874  0.12892122  0.24625705  1
  Al  Al169  1  0.36174876  0.13054766  0.75132930  1
  Al  Al170  1  0.36641733  0.63616085  0.25613028  1
  Al  Al171  1  0.37019946  0.63738529  0.74190939  1
  Al  Al172  1  0.86586551  0.13499298  0.24427291  1
  Al  Al173  1  0.86535175  0.13608857  0.74681925  1
  Al  Al174  1  0.86713172  0.63802925  0.24666028  1
  Al  Al175  1  0.86559506  0.63325434  0.75166095  1
  Al  Al176  1  0.13899848  0.37162222  0.24644811  1
  Al  Al177  1  0.13652859  0.37278377  0.74786847  1
  Al  Al178  1  0.13800206  0.86606708  0.24879447  1
  Al  Al179  1  0.13905968  0.87111936  0.74168439  1
  Al  Al180  1  0.62902064  0.36111003  0.24926810  1
  Al  Al181  1  0.63565779  0.36531379  0.75087596  1
  Al  Al182  1  0.63403046  0.86433769  0.24651936  1
  Al  Al183  1  0.63480070  0.86499800  0.74475215  1
  Al  Al184  1  0.37213485  0.36284003  0.24669967  1
  Al  Al185  1  0.36356735  0.36449290  0.75020046  1
  Al  Al186  1  0.36146210  0.87035775  0.25116462  1
  Al  Al187  1  0.36157855  0.86812968  0.74528626  1
  Al  Al188  1  0.86266713  0.36637510  0.24820703  1
  Al  Al189  1  0.86391349  0.37057944  0.74836133  1
  Al  Al190  1  0.86398149  0.86377385  0.24643016  1
  Al  Al191  1  0.86252759  0.86655965  0.75131678  1
  Al  Al192  1  0.67818689  0.82732106  -0.00062189  1
  Al  Al193  1  0.68688397  0.49937594  0.68724505  1
  Al  Al194  1  0.49860019  0.18378752  0.31685772  1
  Al  Al195  1  0.82427668  0.17476124  0.00173799  1
  Al  Al196  1  0.00298316  0.67267405  0.31416193  1
  Al  Al197  1  0.18611538  0.00154128  0.81389169  1
  Al  Al198  1  0.00184111  0.32571357  0.31844210  1
  Al  Al199  1  0.00034478  0.81431535  0.17573230  1
  Al  Al200  1  0.49701250  0.17812987  0.67966760  1
  Al  Al201  1  0.00048526  0.17248846  0.31574064  1
  Al  Al202  1  0.17911530  0.32647705  0.49914892  1
  Al  Al203  1  0.00258138  0.67778131  0.67555462  1
  Al  Al204  1  0.31785290  0.82010527  -0.00126396  1
  Al  Al205  1  0.49686132  0.80931654  0.31751628  1
  Al  Al206  1  0.50034957  0.68422580  0.18900194  1
  Al  Al207  1  0.00114043  0.83109660  0.33065426  1
  Al  Al208  1  0.66437107  0.50009969  0.17033614  1
  Al  Al209  1  0.17019668  0.16814001  0.50101356  1
  Al  Al210  1  0.67823432  0.49980661  0.32626553  1
  Al  Al211  1  0.50085365  0.31887029  0.81993158  1
  Al  Al212  1  0.00035078  0.17222736  0.81764464  1
  Al  Al213  1  0.50197214  0.67026212  0.81859957  1
  Al  Al214  1  0.82362132  0.00341795  0.67570583  1
  Al  Al215  1  0.81642125  0.32670321  0.50021129  1
  Al  Al216  1  0.66511276  0.67190537  0.49903739  1
  Al  Al217  1  0.00020937  0.67105513  0.82923660  1
  Al  Al218  1  0.49788902  0.82624124  0.81737158  1
  Al  Al219  1  0.68600434  0.67262079  -0.00275915  1
  Al  Al220  1  0.83194302  0.67616331  0.50268813  1
  Al  Al221  1  0.18244622  0.68598489  0.49993705  1
  Al  Al222  1  0.67412298  -0.00267514  0.82417317  1
  Al  Al223  1  0.33019127  0.17593141  0.50121786  1
  Al  Al224  1  0.18156641  0.68236217  -0.00108180  1
  Al  Al225  1  -0.00195012  0.32887981  0.82146481  1
  Al  Al226  1  0.17192517  0.17986476  0.00131429  1
  Al  Al227  1  0.31895364  0.50348905  0.67074846  1
  Al  Al228  1  0.32315085  0.49495039  0.16975030  1
  Al  Al229  1  0.32395018  0.49519830  0.83028369  1
  Al  Al230  1  0.82070352  0.32755708  -0.00125101  1
  Al  Al231  1  0.83235876  0.50245977  0.17159627  1
  Al  Al232  1  0.00028483  0.82908041  0.81842251  1
  Al  Al233  1  0.32475511  0.18451341  0.00090900  1
  Al  Al234  1  0.66936528  -0.00024587  0.31612131  1
  Al  Al235  1  0.31787039  0.50321375  0.33092374  1
  Al  Al236  1  0.18320903  0.00012816  0.31478349  1
  Al  Al237  1  0.81986306  0.17479871  0.50126903  1
  Al  Al238  1  0.82334479  0.00072056  0.31828059  1
  Au  Au239  1  0.66553220  0.82686172  -0.00278283  1
  Au  Au240  1  0.84652816  0.50446515  0.16437833  1
  Au  Au241  1  0.83545045  0.82299517  0.00188666  1
  Au  Au242  1  0.83206607  0.00105062  0.66667730  1
  Au  Au243  1  0.00695501  0.82731840  0.65405308  1
  Au  Au244  1  0.64947823  0.66736359  0.49929883  1
  Au  Au245  1  0.32906106  0.33588077  0.50015953  1
  Au  Au246  1  0.33546424  0.16456094  0.50141808  1
  Au  Au247  1  0.32493188  0.50552860  0.65508223  1
  Au  Au248  1  0.49799024  0.83194072  0.17114481  1
  Au  Au249  1  0.49960259  0.17193657  0.16869797  1
  Au  Au250  1  0.17742294  0.32823011  0.00033736  1
  Au  Au251  1  0.15769865  0.50410047  0.82390435  1
  Au  Au252  1  0.33599890  0.49510304  0.15978505  1
  Au  Au253  1  0.82919118  0.00195744  0.16913023  1
  Au  Au254  1  0.00421024  0.65627836  0.31932551  1
  Au  Au255  1  0.67059281  0.17650143  0.49813554  1
  Au  Au256  1  0.66462826  0.84095212  0.49658691  1
  Au  Au257  1  0.49562540  0.82742709  0.66744356  1
  Au  Au258  1  -0.00454408  0.32389609  0.83664466  1
  Au  Au259  1  0.33072249  0.49285764  0.84495608  1
  Au  Au260  1  0.32968244  -0.00319226  0.33585862  1
  Au  Au261  1  0.50169970  0.33701273  0.66991518  1
  Au  Au262  1  0.00177650  0.32643351  0.66058718  1
  Au  Au263  1  0.17493954  0.67025998  0.50026152  1
  Au  Au264  1  0.67539592  0.16250290  0.00369992  1
  Au  Au265  1  0.15761657  0.17060304  0.50117508  1
  Au  Au266  1  0.32437106  0.50494570  0.34617428  1
  Au  Au267  1  0.49552773  0.17095837  0.83676789  1
  Au  Au268  1  0.16899170  0.83292328  0.00586301  1
  Au  Au269  1  0.66930419  -0.00059264  0.65734317  1
  Au  Au270  1  0.82645855  0.49419978  0.34250373  1
  Au  Au271  1  0.65963953  -0.00291093  0.83283480  1
  Au  Au272  1  0.49891341  0.16842021  0.67190220  1
  Au  Au273  1  0.17367038  0.00408143  0.82533628  1
  Au  Au274  1  0.15899304  0.50422118  0.17322418  1
  Au  Au275  1  -0.00118639  0.32158076  0.16963699  1
  Au  Au276  1  0.83988338  0.00466001  0.83335920  1
  Au  Au277  1  0.33096584  0.67227335  0.00147244  1
  Au  Au278  1  0.50149360  0.66595745  0.83066077  1
  Au  Au279  1  0.32248403  0.00041401  0.16243288  1
  Au  Au280  1  0.50209781  0.33222939  0.32775691  1
  Au  Au281  1  0.84432619  0.66483525  0.50383062  1
  Au  Au282  1  0.67716931  0.50112394  0.67310738  1
  Au  Au283  1  0.67166349  0.33786610  -0.00323053  1
  Au  Au284  1  0.00322468  0.84651606  0.32663765  1
  Au  Au285  1  -0.00032848  0.82345984  0.83456422  1
  Au  Au286  1  0.83223310  0.83969066  0.49778561  1
  Au  Au287  1  0.64893814  0.50029947  0.17419824  1
