# generated using pymatgen
data_Ca24Ti8Al207Au49
_symmetry_space_group_name_H-M   'P 1'
_cell_length_a   17.31985653
_cell_length_b   17.32092273
_cell_length_c   17.32196449
_cell_angle_alpha   90.00215296
_cell_angle_beta   90.00324831
_cell_angle_gamma   89.99965079
_symmetry_Int_Tables_number   1
_chemical_formula_structural   Ca24Ti8Al207Au49
_chemical_formula_sum   'Ca24 Ti8 Al207 Au49'
_cell_volume   5196.51825408
_cell_formula_units_Z   1
loop_
 _symmetry_equiv_pos_site_id
 _symmetry_equiv_pos_as_xyz
  1  'x, y, z'
loop_
 _atom_site_type_symbol
 _atom_site_label
 _atom_site_symmetry_multiplicity
 _atom_site_fract_x
 _atom_site_fract_y
 _atom_site_fract_z
 _atom_site_occupancy
  Ca  Ca0  1  0.25216607  0.00150161  0.00499445  1
  Ca  Ca1  1  0.25627175  -0.00054067  0.49646082  1
  Ca  Ca2  1  0.24885589  0.49794734  0.00110226  1
  Ca  Ca3  1  0.25302827  0.49847687  0.49825485  1
  Ca  Ca4  1  0.75154519  -0.00087160  0.00518933  1
  Ca  Ca5  1  0.74726491  0.00324615  0.49551346  1
  Ca  Ca6  1  0.75074886  0.50066684  0.00042546  1
  Ca  Ca7  1  0.74980587  0.49446021  0.50155186  1
  Ca  Ca8  1  -0.00234915  0.24679871  0.00036816  1
  Ca  Ca9  1  -0.00104042  0.25305119  0.49857203  1
  Ca  Ca10  1  -0.00439654  0.75519017  0.00085834  1
  Ca  Ca11  1  0.00199471  0.74898377  0.50218721  1
  Ca  Ca12  1  0.49882516  0.24180515  -0.00228517  1
  Ca  Ca13  1  0.49941689  0.24565890  0.49728792  1
  Ca  Ca14  1  0.50274085  0.75394024  0.00298566  1
  Ca  Ca15  1  0.49582117  0.75543314  0.49512621  1
  Ca  Ca16  1  0.00209714  0.00323885  0.24511856  1
  Ca  Ca17  1  0.00176220  -0.00088223  0.75512011  1
  Ca  Ca18  1  -0.00298127  0.49811865  0.24961956  1
  Ca  Ca19  1  -0.00146375  0.50022806  0.74880445  1
  Ca  Ca20  1  0.50018825  -0.00501015  0.24856608  1
  Ca  Ca21  1  0.49398325  0.00058268  0.74701210  1
  Ca  Ca22  1  0.50332940  0.50083990  0.25474997  1
  Ca  Ca23  1  0.50454632  0.49880583  0.74996055  1
  Ti  Ti24  1  0.25052825  0.24905927  0.25126496  1
  Ti  Ti25  1  0.25071792  0.24926739  0.74946433  1
  Ti  Ti26  1  0.25112412  0.75112879  0.24908464  1
  Ti  Ti27  1  0.24823884  0.75108889  0.75067339  1
  Ti  Ti28  1  0.74955145  0.25070811  0.24870152  1
  Ti  Ti29  1  0.74870580  0.25068326  0.75201846  1
  Ti  Ti30  1  0.74953686  0.74952930  0.24916812  1
  Ti  Ti31  1  0.75081736  0.74941281  0.75217345  1
  Al  Al32  1  0.08996070  0.08552227  0.08599464  1
  Al  Al33  1  0.08235987  0.08341929  0.57890591  1
  Al  Al34  1  0.07328590  0.57771599  0.07688818  1
  Al  Al35  1  0.08958815  0.57559157  0.58949546  1
  Al  Al36  1  0.59017589  0.07954387  0.08561217  1
  Al  Al37  1  0.58034153  0.08992101  0.57688110  1
  Al  Al38  1  0.58939546  0.60120589  0.08185797  1
  Al  Al39  1  0.59023072  0.57000613  0.58601317  1
  Al  Al40  1  0.41569051  0.41746050  0.07396308  1
  Al  Al41  1  0.41020049  0.41321711  0.57328251  1
  Al  Al42  1  0.42420611  0.91448698  0.09297966  1
  Al  Al43  1  0.40801200  0.91848546  0.58353094  1
  Al  Al44  1  0.91269839  0.39805028  0.08216420  1
  Al  Al45  1  0.90290361  0.41239792  0.58206268  1
  Al  Al46  1  0.90393507  0.92060384  0.07989799  1
  Al  Al47  1  0.92089996  0.91919653  0.58481329  1
  Al  Al48  1  0.41364259  0.08332103  0.42479423  1
  Al  Al49  1  0.40314611  0.08572545  0.91700822  1
  Al  Al50  1  0.40968666  0.58337893  0.41044137  1
  Al  Al51  1  0.42389155  0.57100651  0.92289832  1
  Al  Al52  1  0.91617947  0.08402817  0.41917772  1
  Al  Al53  1  0.91205055  0.08330187  0.92542960  1
  Al  Al54  1  0.91977351  0.57726345  0.41879777  1
  Al  Al55  1  0.90906986  0.58524009  0.91589467  1
  Al  Al56  1  0.07800625  0.41606648  0.41694591  1
  Al  Al57  1  0.08287631  0.41882970  0.92134129  1
  Al  Al58  1  0.08362558  0.91851156  0.41590437  1
  Al  Al59  1  0.07371338  0.91291183  0.91294508  1
  Al  Al60  1  0.59477787  0.41475279  0.41966454  1
  Al  Al61  1  0.60090253  0.41904418  0.91251289  1
  Al  Al62  1  0.57297558  0.91384540  0.41281526  1
  Al  Al63  1  0.58709716  0.90825344  0.92894962  1
  Al  Al64  1  0.08516943  0.08093224  0.41716524  1
  Al  Al65  1  0.08150743  0.08414708  0.92772393  1
  Al  Al66  1  0.08185118  0.57952273  0.41932813  1
  Al  Al67  1  0.07977960  0.58023200  0.91485843  1
  Al  Al68  1  0.58583998  0.08649652  0.41916722  1
  Al  Al69  1  0.57983264  0.08430710  0.92492636  1
  Al  Al70  1  0.58241653  0.57669378  0.41082429  1
  Al  Al71  1  0.60051641  0.58216791  0.92062491  1
  Al  Al72  1  0.40776440  0.41883202  0.41566466  1
  Al  Al73  1  0.41203384  0.41529327  0.91917944  1
  Al  Al74  1  0.41345144  0.91037988  0.41743605  1
  Al  Al75  1  0.41193906  0.92618009  0.91072170  1
  Al  Al76  1  0.91215638  0.40732859  0.42033618  1
  Al  Al77  1  0.90357396  0.41399068  0.92194773  1
  Al  Al78  1  0.92210576  0.92219462  0.41440453  1
  Al  Al79  1  0.91243871  0.91051038  0.91818536  1
  Al  Al80  1  0.07326820  0.40741150  0.08546271  1
  Al  Al81  1  0.09043903  0.42046604  0.58543017  1
  Al  Al82  1  0.08861713  0.92705028  0.08515636  1
  Al  Al83  1  0.08366532  0.91592475  0.58244265  1
  Al  Al84  1  0.59007488  0.41447516  0.07139682  1
  Al  Al85  1  0.60169673  0.41123820  0.58040034  1
  Al  Al86  1  0.58979880  0.90580377  0.09155448  1
  Al  Al87  1  0.56970124  0.92386783  0.57500196  1
  Al  Al88  1  0.41170317  0.08508630  0.08020020  1
  Al  Al89  1  0.40743248  0.08350354  0.58762967  1
  Al  Al90  1  0.43023750  0.59128288  0.09133320  1
  Al  Al91  1  0.41434994  0.58027617  0.57043477  1
  Al  Al92  1  0.90755605  0.08502341  0.08542323  1
  Al  Al93  1  0.91660036  0.08499631  0.57894930  1
  Al  Al94  1  0.91198839  0.58822387  0.07390073  1
  Al  Al95  1  0.91758439  0.57194697  0.58641955  1
  Al  Al96  1  0.25352887  0.12956637  0.13742591  1
  Al  Al97  1  0.25590963  0.13476315  0.62771227  1
  Al  Al98  1  0.25001905  0.63562370  0.13546180  1
  Al  Al99  1  0.24767428  0.63723614  0.63657303  1
  Al  Al100  1  0.74965474  0.13721326  0.12836251  1
  Al  Al101  1  0.74658070  0.13433508  0.63313190  1
  Al  Al102  1  0.74717308  0.63471000  0.13256981  1
  Al  Al103  1  0.74734139  0.63530145  0.63399697  1
  Al  Al104  1  0.25300669  0.36543291  0.13625050  1
  Al  Al105  1  0.25326914  0.36271609  0.63172085  1
  Al  Al106  1  0.25311773  0.86753777  0.13282565  1
  Al  Al107  1  0.25419176  0.86655832  0.63431843  1
  Al  Al108  1  0.74948471  0.36750339  0.13127901  1
  Al  Al109  1  0.74829135  0.36385120  0.63237733  1
  Al  Al110  1  0.74821692  0.86142357  0.12955537  1
  Al  Al111  1  0.75408707  0.86729399  0.63955196  1
  Al  Al112  1  0.25076024  0.13522343  0.36841747  1
  Al  Al113  1  0.25527934  0.13185836  0.86561502  1
  Al  Al114  1  0.25146692  0.63177534  0.36004808  1
  Al  Al115  1  0.24533137  0.63724507  0.86685154  1
  Al  Al116  1  0.74812689  0.13323760  0.36618621  1
  Al  Al117  1  0.75007410  0.13751379  0.87497845  1
  Al  Al118  1  0.74576944  0.63294230  0.36008891  1
  Al  Al119  1  0.74791972  0.63120501  0.86626371  1
  Al  Al120  1  0.25138858  0.36770307  0.36753642  1
  Al  Al121  1  0.24685179  0.36510431  0.86502346  1
  Al  Al122  1  0.25332424  0.86544965  0.36379945  1
  Al  Al123  1  0.25212718  0.86514015  0.86960171  1
  Al  Al124  1  0.75001544  0.36233777  0.36918696  1
  Al  Al125  1  0.74923984  0.36987023  0.86745256  1
  Al  Al126  1  0.74714496  0.86600094  0.36130811  1
  Al  Al127  1  0.75141670  0.86283394  0.87139437  1
  Al  Al128  1  0.13455411  0.25252648  0.13630023  1
  Al  Al129  1  0.13728511  0.24838143  0.63489615  1
  Al  Al130  1  0.13772597  0.75109624  0.13045374  1
  Al  Al131  1  0.13106040  0.75331145  0.63602487  1
  Al  Al132  1  0.63971975  0.25228868  0.12958638  1
  Al  Al133  1  0.63763560  0.25215964  0.63169808  1
  Al  Al134  1  0.63546628  0.75067050  0.13141656  1
  Al  Al135  1  0.63815642  0.74858391  0.63740664  1
  Al  Al136  1  0.13626936  0.25147997  0.36606976  1
  Al  Al137  1  0.13877677  0.24772817  0.86427826  1
  Al  Al138  1  0.13806236  0.74784494  0.36540689  1
  Al  Al139  1  0.13501136  0.75423193  0.86853461  1
  Al  Al140  1  0.63533272  0.24945979  0.36960992  1
  Al  Al141  1  0.63796617  0.25443850  0.87388792  1
  Al  Al142  1  0.63217861  0.75116439  0.36452444  1
  Al  Al143  1  0.63804819  0.74967984  0.87189631  1
  Al  Al144  1  0.36380020  0.24707407  0.13518623  1
  Al  Al145  1  0.36512842  0.24880676  0.63239598  1
  Al  Al146  1  0.36894953  0.75244686  0.13413301  1
  Al  Al147  1  0.36207166  0.75278584  0.63518217  1
  Al  Al148  1  0.86332118  0.25082148  0.12947929  1
  Al  Al149  1  0.86222170  0.25378615  0.63320866  1
  Al  Al150  1  0.86327714  0.75108900  0.13171635  1
  Al  Al151  1  0.87011149  0.74771263  0.63947395  1
  Al  Al152  1  0.36465725  0.24950000  0.37059575  1
  Al  Al153  1  0.36825950  0.24478462  0.86425957  1
  Al  Al154  1  0.36699789  0.75477051  0.36361180  1
  Al  Al155  1  0.36635693  0.75544075  0.86633953  1
  Al  Al156  1  0.86265767  0.25204122  0.36436296  1
  Al  Al157  1  0.85956101  0.25203847  0.87039211  1
  Al  Al158  1  0.86221366  0.74652238  0.36368335  1
  Al  Al159  1  0.86465437  0.75440090  0.86852030  1
  Al  Al160  1  0.13722494  0.13517314  0.24540825  1
  Al  Al161  1  0.13792890  0.13500360  0.74875297  1
  Al  Al162  1  0.12938342  0.63715770  0.25079161  1
  Al  Al163  1  0.13369867  0.63112675  0.75034334  1
  Al  Al164  1  0.63814518  0.13777604  0.25106522  1
  Al  Al165  1  0.63637356  0.13873614  0.75108252  1
  Al  Al166  1  0.63186852  0.63820274  0.24599911  1
  Al  Al167  1  0.63727110  0.63113117  0.75382800  1
  Al  Al168  1  0.36531384  0.13660430  0.25192011  1
  Al  Al169  1  0.36182546  0.13183424  0.74792047  1
  Al  Al170  1  0.36572064  0.63755317  0.24886467  1
  Al  Al171  1  0.36406327  0.63767264  0.75306502  1
  Al  Al172  1  0.86079039  0.13771529  0.24454929  1
  Al  Al173  1  0.86046403  0.13982524  0.75048824  1
  Al  Al174  1  0.86595704  0.63364745  0.24649933  1
  Al  Al175  1  0.86513939  0.63336349  0.75479035  1
  Al  Al176  1  0.13666345  0.36502630  0.25182618  1
  Al  Al177  1  0.14013574  0.37142752  0.74672861  1
  Al  Al178  1  0.13793965  0.86375305  0.24701632  1
  Al  Al179  1  0.13246060  0.86598222  0.75071467  1
  Al  Al180  1  0.63937256  0.36743043  0.25698983  1
  Al  Al181  1  0.63882507  0.36949480  0.75242164  1
  Al  Al182  1  0.63061675  0.86077587  0.24718913  1
  Al  Al183  1  0.63534634  0.86238371  0.75259106  1
  Al  Al184  1  0.36431833  0.36568721  0.25829679  1
  Al  Al185  1  0.36474107  0.36306873  0.75364198  1
  Al  Al186  1  0.36932232  0.86405028  0.24721941  1
  Al  Al187  1  0.36194971  0.86860489  0.75108392  1
  Al  Al188  1  0.86244080  0.36565030  0.24487969  1
  Al  Al189  1  0.85989885  0.36607420  0.75177807  1
  Al  Al190  1  0.86032024  0.86568806  0.24544701  1
  Al  Al191  1  0.87014088  0.86260202  0.75306699  1
  Al  Al192  1  0.49891024  0.32661972  0.32962600  1
  Al  Al193  1  -0.00013925  0.82777611  0.17011029  1
  Al  Al194  1  -0.00021158  0.68675979  0.82202294  1
  Al  Al195  1  0.31896970  0.50096254  0.82448452  1
  Al  Al196  1  0.00053258  0.32911804  0.66984782  1
  Al  Al197  1  0.18861563  0.82052259  0.49952431  1
  Al  Al198  1  0.50205668  0.33097359  0.66926344  1
  Al  Al199  1  0.50420263  0.32285417  0.83135335  1
  Al  Al200  1  0.18336613  -0.00112689  0.83001677  1
  Al  Al201  1  -0.00171171  0.18327418  0.17099109  1
  Al  Al202  1  0.00002492  0.82108573  0.32538654  1
  Al  Al203  1  -0.00163688  0.16929008  0.82806730  1
  Al  Al204  1  0.17376233  -0.00003861  0.31603077  1
  Al  Al205  1  0.19045005  0.00127275  0.67229534  1
  Al  Al206  1  0.81036032  0.68666319  -0.00170848  1
  Al  Al207  1  0.81552056  0.49710758  0.32347806  1
  Al  Al208  1  0.31754828  0.31092864  -0.00122811  1
  Al  Al209  1  0.31526915  0.50095006  0.66759209  1
  Al  Al210  1  0.67783516  0.66720723  0.49768386  1
  Al  Al211  1  0.50452390  0.67570206  0.83451311  1
  Al  Al212  1  0.82812712  0.00046244  0.82382101  1
  Al  Al213  1  0.82817761  0.82315686  0.49983344  1
  Al  Al214  1  0.67607401  -0.00049149  0.66891994  1
  Al  Al215  1  0.81030309  0.49955304  0.68237687  1
  Al  Al216  1  0.67051415  0.82624800  0.50121057  1
  Al  Al217  1  0.32734148  -0.00054188  0.32129887  1
  Al  Al218  1  0.67277007  0.50054062  0.17975327  1
  Al  Al219  1  -0.00015939  0.17367793  0.32680374  1
  Al  Al220  1  0.33107437  0.50080839  0.18130652  1
  Al  Al221  1  -0.00070668  0.17435571  0.67377121  1
  Al  Al222  1  0.17258250  0.50001749  0.17966475  1
  Al  Al223  1  0.49807060  0.82745450  0.67825255  1
  Al  Al224  1  0.50220971  0.16988727  0.17861473  1
  Al  Al225  1  0.82238578  0.00041970  0.31451068  1
  Al  Al226  1  0.49915619  0.17377188  0.67863170  1
  Al  Al227  1  -0.00170194  0.32490395  0.31425121  1
  Al  Al228  1  0.32600269  0.67649514  0.00004768  1
  Al  Al229  1  0.49909675  0.68503775  0.31716558  1
  Al  Al230  1  0.19028848  0.18032555  0.00179520  1
  Al  Al231  1  0.81374869  0.18833877  0.49974402  1
  Al  Al232  1  0.17637375  0.32000477  0.50057757  1
  Al  Al233  1  0.68756663  -0.00086900  0.18125612  1
  Al  Al234  1  0.31960763  0.68714426  0.49704906  1
  Al  Al235  1  0.00241936  0.32363355  0.82240142  1
  Al  Al236  1  0.50180544  0.32742573  0.16919584  1
  Al  Al237  1  0.67094173  -0.00171033  0.82909204  1
  Al  Al238  1  0.49967173  0.66965402  0.66853583  1
  Au  Au239  1  0.66047727  -0.00413410  0.32821463  1
  Au  Au240  1  0.50282195  0.32580987  0.65269278  1
  Au  Au241  1  0.83942373  0.00377494  0.67529621  1
  Au  Au242  1  0.49552313  0.15865892  0.82833890  1
  Au  Au243  1  0.33211467  0.50075384  0.67156832  1
  Au  Au244  1  0.50609641  0.65964316  0.83680010  1
  Au  Au245  1  0.16040732  0.49820660  0.16783633  1
  Au  Au246  1  -0.00092122  0.67823193  0.83643125  1
  Au  Au247  1  0.50192441  0.32047029  0.15330760  1
  Au  Au248  1  0.83915955  0.00458545  0.31541474  1
  Au  Au249  1  0.82371993  0.17438806  0.49833134  1
  Au  Au250  1  0.16990006  0.32661754  0.00275190  1
  Au  Au251  1  0.17613657  0.65705041  0.50260090  1
  Au  Au252  1  0.66534865  0.66962255  0.49928256  1
  Au  Au253  1  0.49666002  0.16203063  0.33082537  1
  Au  Au254  1  0.17744909  0.16697483  0.49805271  1
  Au  Au255  1  0.17185519  0.00079198  0.84147689  1
  Au  Au256  1  0.34735935  0.50052598  0.17659855  1
  Au  Au257  1  0.82056894  0.50003092  0.83013988  1
  Au  Au258  1  -0.00360189  0.66487132  0.16862606  1
  Au  Au259  1  0.50330022  0.33396836  0.83734534  1
  Au  Au260  1  0.83772981  0.49744689  0.15974341  1
  Au  Au261  1  0.66495491  -0.00080034  0.66309073  1
  Au  Au262  1  0.16356198  0.83503962  0.00016044  1
  Au  Au263  1  0.00157726  0.66706022  0.66232816  1
  Au  Au264  1  0.67200963  0.17577901  0.00227129  1
  Au  Au265  1  0.00004780  0.67287373  0.33838801  1
  Au  Au266  1  -0.00413667  0.84353992  0.17117480  1
  Au  Au267  1  0.83114847  0.65989602  0.50450984  1
  Au  Au268  1  0.17450997  0.00198913  0.66569350  1
  Au  Au269  1  0.82657621  0.83966514  0.49562697  1
  Au  Au270  1  0.00080501  0.83572749  0.67798028  1
  Au  Au271  1  0.82366436  0.49628898  0.33805785  1
  Au  Au272  1  0.16909779  0.49945906  0.82807586  1
  Au  Au273  1  0.33570332  0.66290107  0.00079753  1
  Au  Au274  1  0.65920582  0.50151915  0.16993552  1
  Au  Au275  1  0.67697326  -0.00304029  0.84549682  1
  Au  Au276  1  0.50362202  0.33734114  0.33410048  1
  Au  Au277  1  0.17887684  0.33229470  0.49886032  1
  Au  Au278  1  -0.00710227  0.32768073  0.83502846  1
  Au  Au279  1  0.32884822  0.00024438  0.17140011  1
  Au  Au280  1  0.49988577  0.67468318  0.65258073  1
  Au  Au281  1  0.49860304  0.66874489  0.32271692  1
  Au  Au282  1  0.17539243  0.83070889  0.49763766  1
  Au  Au283  1  0.17631971  0.49922829  0.33811530  1
  Au  Au284  1  0.16190130  0.66895820  0.00131636  1
  Au  Au285  1  -0.00200305  0.17047986  0.17372265  1
  Au  Au286  1  0.33532260  0.84012248  0.00152023  1
  Au  Au287  1  0.49956106  0.84152151  0.82955546  1
