# generated using pymatgen
data_Ca24Ti8Al207Au49
_symmetry_space_group_name_H-M   'P 1'
_cell_length_a   17.32320542
_cell_length_b   17.32407690
_cell_length_c   17.32291091
_cell_angle_alpha   90.00194515
_cell_angle_beta   90.00088827
_cell_angle_gamma   89.99680517
_symmetry_Int_Tables_number   1
_chemical_formula_structural   Ca24Ti8Al207Au49
_chemical_formula_sum   'Ca24 Ti8 Al207 Au49'
_cell_volume   5198.75353998
_cell_formula_units_Z   1
loop_
 _symmetry_equiv_pos_site_id
 _symmetry_equiv_pos_as_xyz
  1  'x, y, z'
loop_
 _atom_site_type_symbol
 _atom_site_label
 _atom_site_symmetry_multiplicity
 _atom_site_fract_x
 _atom_site_fract_y
 _atom_site_fract_z
 _atom_site_occupancy
  Ca  Ca0  1  0.25430618  0.00050617  0.00028514  1
  Ca  Ca1  1  0.25054678  0.00348973  0.50129830  1
  Ca  Ca2  1  0.24938091  0.49993280  0.00381727  1
  Ca  Ca3  1  0.24845375  0.50156352  0.49653847  1
  Ca  Ca4  1  0.74404728  0.00446546  -0.00001506  1
  Ca  Ca5  1  0.74299806  -0.00036868  0.50073714  1
  Ca  Ca6  1  0.74503684  0.49389431  0.00173146  1
  Ca  Ca7  1  0.74623752  0.49680991  0.49659208  1
  Ca  Ca8  1  -0.00222177  0.24979139  0.00231987  1
  Ca  Ca9  1  -0.00130069  0.25078005  0.49887692  1
  Ca  Ca10  1  -0.00019849  0.74985633  0.00803439  1
  Ca  Ca11  1  0.00228760  0.74840020  0.49432635  1
  Ca  Ca12  1  0.50560354  0.24590722  0.00218759  1
  Ca  Ca13  1  0.50286934  0.24838019  0.50050919  1
  Ca  Ca14  1  0.50198795  0.75384545  0.00239173  1
  Ca  Ca15  1  0.49908866  0.75291617  0.49819347  1
  Ca  Ca16  1  0.00155554  0.00005732  0.24811965  1
  Ca  Ca17  1  -0.00502135  0.00551858  0.75590931  1
  Ca  Ca18  1  0.00202076  0.49861290  0.24923803  1
  Ca  Ca19  1  -0.00171519  0.49434526  0.74954377  1
  Ca  Ca20  1  0.50124415  0.00285309  0.24602701  1
  Ca  Ca21  1  0.50335704  0.00228404  0.75093646  1
  Ca  Ca22  1  0.49910833  0.49804140  0.24873449  1
  Ca  Ca23  1  0.50290677  0.49615187  0.75387205  1
  Ti  Ti24  1  0.24993296  0.24932611  0.24889949  1
  Ti  Ti25  1  0.25257665  0.24784062  0.75137045  1
  Ti  Ti26  1  0.25143180  0.75034187  0.25083255  1
  Ti  Ti27  1  0.25429245  0.75116311  0.74822560  1
  Ti  Ti28  1  0.74992666  0.24961960  0.25020442  1
  Ti  Ti29  1  0.74793656  0.24946364  0.74886657  1
  Ti  Ti30  1  0.74793155  0.74999952  0.24783518  1
  Ti  Ti31  1  0.74568952  0.75023910  0.75204386  1
  Al  Al32  1  0.08121395  0.07945021  0.07901041  1
  Al  Al33  1  0.08767504  0.09009245  0.58240540  1
  Al  Al34  1  0.08520656  0.57927614  0.09351790  1
  Al  Al35  1  0.09413245  0.58535748  0.57277146  1
  Al  Al36  1  0.58612572  0.08919011  0.08881486  1
  Al  Al37  1  0.57755563  0.08701782  0.58934000  1
  Al  Al38  1  0.58142105  0.58247855  0.08587056  1
  Al  Al39  1  0.58631838  0.57810035  0.58943205  1
  Al  Al40  1  0.42438638  0.41414380  0.09188074  1
  Al  Al41  1  0.43012504  0.41195224  0.58486993  1
  Al  Al42  1  0.41744890  0.91964946  0.09315456  1
  Al  Al43  1  0.42171603  0.92538925  0.58067113  1
  Al  Al44  1  0.90533648  0.41738021  0.08426800  1
  Al  Al45  1  0.90692069  0.40991585  0.57434975  1
  Al  Al46  1  0.91660641  0.92282074  0.08013201  1
  Al  Al47  1  0.90622525  0.92298599  0.58222310  1
  Al  Al48  1  0.41980259  0.08848751  0.41444199  1
  Al  Al49  1  0.42591857  0.08387449  0.91740173  1
  Al  Al50  1  0.41306203  0.57690470  0.41587588  1
  Al  Al51  1  0.42477009  0.58354160  0.91347712  1
  Al  Al52  1  0.92139050  0.08003216  0.42045764  1
  Al  Al53  1  0.91070802  0.09129792  0.90995039  1
  Al  Al54  1  0.92190593  0.57683657  0.41415326  1
  Al  Al55  1  0.91676560  0.57412716  0.92113474  1
  Al  Al56  1  0.08829064  0.42384330  0.40954226  1
  Al  Al57  1  0.07758822  0.41792040  0.91946867  1
  Al  Al58  1  0.08047741  0.91724212  0.41630450  1
  Al  Al59  1  0.08346143  0.92403816  0.92325048  1
  Al  Al60  1  0.58073387  0.41133089  0.41024140  1
  Al  Al61  1  0.59064787  0.41003919  0.91150196  1
  Al  Al62  1  0.58659206  0.91175860  0.41333278  1
  Al  Al63  1  0.58509725  0.92475013  0.91394674  1
  Al  Al64  1  0.09092487  0.09113595  0.42346814  1
  Al  Al65  1  0.07469851  0.08921877  0.91395797  1
  Al  Al66  1  0.09662758  0.58493307  0.41147444  1
  Al  Al67  1  0.08301596  0.57777997  0.92329229  1
  Al  Al68  1  0.57969306  0.08435597  0.41111227  1
  Al  Al69  1  0.59115599  0.08943440  0.91598311  1
  Al  Al70  1  0.58163057  0.57552024  0.42185496  1
  Al  Al71  1  0.58417808  0.57676959  0.90662392  1
  Al  Al72  1  0.42128796  0.41649148  0.40527699  1
  Al  Al73  1  0.42903558  0.41630684  0.91185403  1
  Al  Al74  1  0.42456043  0.91893001  0.41475883  1
  Al  Al75  1  0.42293581  0.92123089  0.92089692  1
  Al  Al76  1  0.90823095  0.41377105  0.41761841  1
  Al  Al77  1  0.90921165  0.40926029  0.92297707  1
  Al  Al78  1  0.91767666  0.91447522  0.41931581  1
  Al  Al79  1  0.90799709  0.92917108  0.91366808  1
  Al  Al80  1  0.08691680  0.42164750  0.08974431  1
  Al  Al81  1  0.07931509  0.42482617  0.57575003  1
  Al  Al82  1  0.08455870  0.91860900  0.08095541  1
  Al  Al83  1  0.08308081  0.92795287  0.57669141  1
  Al  Al84  1  0.58681748  0.40521244  0.08480997  1
  Al  Al85  1  0.58725922  0.41326606  0.59383382  1
  Al  Al86  1  0.58035400  0.92353608  0.09408687  1
  Al  Al87  1  0.58851149  0.91432737  0.57729224  1
  Al  Al88  1  0.42151863  0.08197876  0.09010712  1
  Al  Al89  1  0.41829028  0.08995708  0.58748851  1
  Al  Al90  1  0.42088714  0.58028079  0.08648204  1
  Al  Al91  1  0.42154674  0.58814233  0.57921804  1
  Al  Al92  1  0.91104777  0.08529775  0.07799623  1
  Al  Al93  1  0.91171633  0.08269237  0.58754853  1
  Al  Al94  1  0.91261713  0.57795545  0.08959035  1
  Al  Al95  1  0.92017019  0.57261493  0.57685641  1
  Al  Al96  1  0.25229353  0.13049983  0.13834087  1
  Al  Al97  1  0.25108247  0.13533584  0.63869225  1
  Al  Al98  1  0.25010567  0.62815944  0.13520358  1
  Al  Al99  1  0.25506138  0.63669140  0.62969356  1
  Al  Al100  1  0.74677659  0.13135345  0.13606131  1
  Al  Al101  1  0.74982355  0.13667613  0.63521973  1
  Al  Al102  1  0.74823316  0.62757848  0.13564593  1
  Al  Al103  1  0.74539440  0.63523584  0.63699571  1
  Al  Al104  1  0.24719111  0.37097823  0.14210285  1
  Al  Al105  1  0.25114388  0.35948630  0.63479912  1
  Al  Al106  1  0.25070564  0.87080024  0.13633413  1
  Al  Al107  1  0.25246368  0.86475907  0.63188624  1
  Al  Al108  1  0.75088536  0.36739816  0.13651724  1
  Al  Al109  1  0.74618574  0.36230913  0.63009090  1
  Al  Al110  1  0.74813001  0.87071052  0.13140249  1
  Al  Al111  1  0.74223269  0.86535820  0.63715052  1
  Al  Al112  1  0.24935941  0.13586960  0.36149554  1
  Al  Al113  1  0.25385410  0.13053207  0.86299929  1
  Al  Al114  1  0.24925577  0.63354698  0.36890206  1
  Al  Al115  1  0.25337651  0.63650158  0.86485071  1
  Al  Al116  1  0.74883867  0.13836190  0.36420613  1
  Al  Al117  1  0.74603030  0.13787843  0.86553614  1
  Al  Al118  1  0.74803228  0.63379512  0.36268293  1
  Al  Al119  1  0.74127580  0.63050092  0.86712540  1
  Al  Al120  1  0.24538168  0.36365472  0.36197622  1
  Al  Al121  1  0.24883831  0.36156746  0.86221544  1
  Al  Al122  1  0.25344684  0.86770934  0.36338641  1
  Al  Al123  1  0.25342721  0.86983955  0.86257965  1
  Al  Al124  1  0.74765868  0.36180427  0.36766733  1
  Al  Al125  1  0.74481331  0.36239293  0.86491763  1
  Al  Al126  1  0.74526154  0.86563772  0.36278371  1
  Al  Al127  1  0.74476576  0.86402369  0.87110983  1
  Al  Al128  1  0.13126038  0.24921797  0.13834583  1
  Al  Al129  1  0.13546840  0.24622728  0.63234272  1
  Al  Al130  1  0.13933892  0.74729365  0.14089092  1
  Al  Al131  1  0.13771269  0.74682510  0.63181751  1
  Al  Al132  1  0.63626215  0.24506240  0.13213630  1
  Al  Al133  1  0.63465170  0.24901900  0.63003176  1
  Al  Al134  1  0.63813785  0.75259846  0.12816514  1
  Al  Al135  1  0.62799148  0.75059041  0.63574406  1
  Al  Al136  1  0.12980515  0.24802485  0.36145976  1
  Al  Al137  1  0.13436941  0.24665947  0.86599963  1
  Al  Al138  1  0.13781307  0.74470164  0.36775999  1
  Al  Al139  1  0.13898693  0.74912820  0.86378984  1
  Al  Al140  1  0.62891129  0.25089138  0.36584417  1
  Al  Al141  1  0.62857696  0.24907687  0.86489952  1
  Al  Al142  1  0.63481765  0.75364440  0.36484666  1
  Al  Al143  1  0.62959336  0.74977416  0.86900775  1
  Al  Al144  1  0.36481679  0.24806972  0.13625651  1
  Al  Al145  1  0.36827426  0.24626753  0.63590720  1
  Al  Al146  1  0.36273975  0.75166561  0.13619001  1
  Al  Al147  1  0.37077331  0.74920355  0.63126332  1
  Al  Al148  1  0.86632386  0.25307058  0.13324597  1
  Al  Al149  1  0.86518803  0.25227110  0.63276815  1
  Al  Al150  1  0.86102483  0.75104146  0.13621244  1
  Al  Al151  1  0.86254936  0.75136829  0.63844780  1
  Al  Al152  1  0.37064227  0.24939891  0.35902688  1
  Al  Al153  1  0.37468129  0.25066882  0.86322995  1
  Al  Al154  1  0.36298893  0.74930127  0.36833224  1
  Al  Al155  1  0.37241975  0.74866891  0.86306729  1
  Al  Al156  1  0.86747524  0.25422562  0.36656298  1
  Al  Al157  1  0.86427536  0.24993932  0.86547936  1
  Al  Al158  1  0.86219639  0.75046913  0.36012515  1
  Al  Al159  1  0.85926653  0.74965722  0.86788811  1
  Al  Al160  1  0.13233318  0.13093325  0.24785562  1
  Al  Al161  1  0.13262534  0.13578906  0.75520654  1
  Al  Al162  1  0.13898350  0.62829820  0.25283281  1
  Al  Al163  1  0.13939863  0.63525343  0.75027789  1
  Al  Al164  1  0.62625997  0.13969187  0.24650384  1
  Al  Al165  1  0.62711748  0.13911299  0.74908682  1
  Al  Al166  1  0.63369273  0.63651373  0.24531954  1
  Al  Al167  1  0.62768480  0.63664132  0.75418563  1
  Al  Al168  1  0.37186891  0.13233538  0.24724973  1
  Al  Al169  1  0.37427189  0.13680014  0.75242093  1
  Al  Al170  1  0.36341056  0.63464125  0.24889369  1
  Al  Al171  1  0.37128594  0.63690840  0.74898528  1
  Al  Al172  1  0.86936206  0.13874749  0.24776821  1
  Al  Al173  1  0.86429694  0.13703954  0.75444776  1
  Al  Al174  1  0.86353950  0.63305824  0.24853632  1
  Al  Al175  1  0.86142005  0.63323976  0.75199685  1
  Al  Al176  1  0.12918954  0.36508452  0.24898392  1
  Al  Al177  1  0.13329173  0.36062260  0.75039096  1
  Al  Al178  1  0.13729811  0.86956383  0.24986418  1
  Al  Al179  1  0.13616725  0.86339695  0.75035608  1
  Al  Al180  1  0.63589328  0.36225544  0.24781936  1
  Al  Al181  1  0.63390597  0.36241850  0.75374686  1
  Al  Al182  1  0.63286555  0.86609749  0.24259502  1
  Al  Al183  1  0.62726794  0.86318117  0.75305895  1
  Al  Al184  1  0.36663060  0.36545657  0.24867447  1
  Al  Al185  1  0.36833371  0.36312314  0.75240276  1
  Al  Al186  1  0.36743960  0.87141777  0.24188226  1
  Al  Al187  1  0.37390358  0.86264337  0.75109510  1
  Al  Al188  1  0.86870279  0.36406551  0.24702545  1
  Al  Al189  1  0.86245947  0.36579788  0.74945356  1
  Al  Al190  1  0.86262721  0.86682746  0.24868618  1
  Al  Al191  1  0.85878092  0.86657251  0.75376363  1
  Al  Al192  1  0.00054204  0.82886648  0.17138814  1
  Al  Al193  1  0.32819030  0.32732459  0.49619394  1
  Al  Al194  1  -0.00128752  0.17715121  0.68183638  1
  Al  Al195  1  0.17508646  0.00079432  0.67898402  1
  Al  Al196  1  0.31599241  0.17164371  0.49923010  1
  Al  Al197  1  0.00075056  0.81797253  0.32287967  1
  Al  Al198  1  0.67041658  0.68524129  0.50047517  1
  Al  Al199  1  0.32538928  0.67236509  -0.00083597  1
  Al  Al200  1  0.17435180  0.49916998  0.68070445  1
  Al  Al201  1  -0.00037028  0.67478351  0.18226728  1
  Al  Al202  1  0.68874610  0.30917256  0.00012891  1
  Al  Al203  1  0.68864809  0.00147402  0.81711701  1
  Al  Al204  1  0.49889440  0.82191049  0.31066234  1
  Al  Al205  1  0.17410500  0.17258338  0.00050077  1
  Al  Al206  1  0.31332456  0.49905121  0.31843360  1
  Al  Al207  1  0.32851642  0.17051792  0.00143711  1
  Al  Al208  1  0.32910777  0.83049018  0.00115069  1
  Al  Al209  1  -0.00457351  0.82889234  0.82862333  1
  Al  Al210  1  -0.00147136  0.31906193  0.82507904  1
  Al  Al211  1  0.32858503  0.00056011  0.68040409  1
  Al  Al212  1  0.81115016  0.82610072  0.50063370  1
  Al  Al213  1  0.82167123  0.67550568  0.00012342  1
  Al  Al214  1  0.17889156  0.82509711  0.50002715  1
  Al  Al215  1  0.80742529  0.18956108  0.00084614  1
  Al  Al216  1  0.50193138  0.30863828  0.69094113  1
  Al  Al217  1  0.32267973  0.49959343  0.82934736  1
  Al  Al218  1  0.17395763  0.32638721  0.00289763  1
  Al  Al219  1  0.82734026  0.67681684  0.49911610  1
  Al  Al220  1  0.00063159  0.83108463  0.67089142  1
  Al  Al221  1  0.81437805  0.00180315  0.69087565  1
  Al  Al222  1  0.82663802  0.00123436  0.31984638  1
  Al  Al223  1  0.17667821  0.82039251  0.00074842  1
  Al  Al224  1  0.16958299  0.31864220  0.49829709  1
  Al  Al225  1  0.32399018  0.00101438  0.32359270  1
  Al  Al226  1  0.50164429  0.30638055  0.18978461  1
  Al  Al227  1  0.82163957  0.17997641  0.49591667  1
  Al  Al228  1  0.32786784  0.49932171  0.67860410  1
  Al  Al229  1  0.82473575  0.49756660  0.31616857  1
  Al  Al230  1  0.67057550  0.00239425  0.31381988  1
  Al  Al231  1  0.49958360  0.66955307  0.32849781  1
  Al  Al232  1  0.67229367  0.49899932  0.31770444  1
  Al  Al233  1  0.68113882  0.49937625  0.69582943  1
  Al  Al234  1  0.81520916  0.49484367  0.82331029  1
  Al  Al235  1  0.00448095  0.67081652  0.66941556  1
  Al  Al236  1  0.50013041  0.69008283  0.17671049  1
  Al  Al237  1  0.32559325  0.32961343  0.00044611  1
  Al  Al238  1  0.00190160  0.67194118  0.82688294  1
  Au  Au239  1  0.16285018  0.00333519  0.82832744  1
  Au  Au240  1  0.66559188  0.67354612  0.50019244  1
  Au  Au241  1  0.16637176  0.82470215  0.50252706  1
  Au  Au242  1  0.82305517  0.00138357  0.16585935  1
  Au  Au243  1  0.00194144  0.16771505  0.33459880  1
  Au  Au244  1  0.67191650  0.49667906  0.16900882  1
  Au  Au245  1  0.50161184  0.66410296  0.67753208  1
  Au  Au246  1  0.33796381  0.67522790  -0.00124836  1
  Au  Au247  1  0.49995371  0.18085041  0.32163069  1
  Au  Au248  1  0.50209514  0.17738064  0.82634547  1
  Au  Au249  1  0.32553539  0.66595238  0.49662671  1
  Au  Au250  1  0.34026325  0.32341119  0.49569213  1
  Au  Au251  1  0.82230632  0.49633943  0.65958162  1
  Au  Au252  1  0.66461584  0.66355867  -0.00409873  1
  Au  Au253  1  -0.00086069  0.16495476  0.67547889  1
  Au  Au254  1  0.17700150  0.00055801  0.16234756  1
  Au  Au255  1  0.82076353  0.17971599  -0.00198791  1
  Au  Au256  1  0.83057395  0.66527286  0.49585962  1
  Au  Au257  1  0.00009660  0.83295558  0.83942384  1
  Au  Au258  1  0.16484840  0.00218238  0.33228935  1
  Au  Au259  1  0.82316995  -0.00018624  0.33193753  1
  Au  Au260  1  0.34065929  0.32681152  -0.00513104  1
  Au  Au261  1  0.16176088  0.67167079  0.00650949  1
  Au  Au262  1  0.50074476  0.82590571  0.83748893  1
  Au  Au263  1  0.50052507  0.83292865  0.66478342  1
  Au  Au264  1  0.33298199  0.49661373  0.66288694  1
  Au  Au265  1  -0.00316412  0.33440127  0.16356912  1
  Au  Au266  1  -0.00023506  0.65986980  0.66541618  1
  Au  Au267  1  -0.00302271  0.66776604  0.83756747  1
  Au  Au268  1  0.82345939  0.49730414  0.83255324  1
  Au  Au269  1  0.17331191  0.33058079  0.50029117  1
  Au  Au270  1  -0.00114261  0.33566683  0.33285957  1
  Au  Au271  1  0.17123538  0.49674958  0.83396430  1
  Au  Au272  1  0.83049201  0.66679627  0.00216966  1
  Au  Au273  1  -0.00416056  0.84193876  0.66712128  1
  Au  Au274  1  -0.00007275  0.16445973  0.16698658  1
  Au  Au275  1  0.00363278  0.66761457  0.33050888  1
  Au  Au276  1  0.66532802  0.16649709  0.49975328  1
  Au  Au277  1  0.83180127  0.83294479  -0.00094603  1
  Au  Au278  1  -0.00389843  0.31891474  0.83775490  1
  Au  Au279  1  0.33604682  0.83388742  0.50013270  1
  Au  Au280  1  0.32681557  0.49883364  0.17202210  1
  Au  Au281  1  0.33692145  0.00011319  0.82936975  1
  Au  Au282  1  0.66746672  0.00096730  0.67031307  1
  Au  Au283  1  0.83047082  0.17116054  0.49850112  1
  Au  Au284  1  0.33636246  -0.00101433  0.32245970  1
  Au  Au285  1  0.66306396  0.84075103  0.00485562  1
  Au  Au286  1  -0.00085341  0.33879419  0.66397969  1
  Au  Au287  1  0.67178945  0.33705174  0.49796118  1
