# generated using pymatgen
data_Ca24Ti8Al207Au49
_symmetry_space_group_name_H-M   'P 1'
_cell_length_a   17.31853020
_cell_length_b   17.32059754
_cell_length_c   17.32101300
_cell_angle_alpha   90.00018664
_cell_angle_beta   89.99380253
_cell_angle_gamma   90.00100249
_symmetry_Int_Tables_number   1
_chemical_formula_structural   Ca24Ti8Al207Au49
_chemical_formula_sum   'Ca24 Ti8 Al207 Au49'
_cell_volume   5195.73732584
_cell_formula_units_Z   1
loop_
 _symmetry_equiv_pos_site_id
 _symmetry_equiv_pos_as_xyz
  1  'x, y, z'
loop_
 _atom_site_type_symbol
 _atom_site_label
 _atom_site_symmetry_multiplicity
 _atom_site_fract_x
 _atom_site_fract_y
 _atom_site_fract_z
 _atom_site_occupancy
  Ca  Ca0  1  0.24903217  -0.00283864  -0.00587013  1
  Ca  Ca1  1  0.25189417  0.00000175  0.50564969  1
  Ca  Ca2  1  0.24734675  0.50353770  -0.00375766  1
  Ca  Ca3  1  0.24960812  0.50085445  0.50242897  1
  Ca  Ca4  1  0.75454544  0.00253961  -0.00040498  1
  Ca  Ca5  1  0.74831227  0.00273354  0.50247222  1
  Ca  Ca6  1  0.75411451  0.49818275  -0.00713701  1
  Ca  Ca7  1  0.75011160  0.49625651  0.50262947  1
  Ca  Ca8  1  0.00022628  0.25090347  -0.00253636  1
  Ca  Ca9  1  0.00176065  0.24337972  0.50079467  1
  Ca  Ca10  1  0.00069092  0.74681380  -0.00528779  1
  Ca  Ca11  1  0.00677068  0.75332636  0.50415862  1
  Ca  Ca12  1  0.50129722  0.25173828  -0.00381450  1
  Ca  Ca13  1  0.49609917  0.24504298  0.50692737  1
  Ca  Ca14  1  0.49792049  0.74781461  -0.00431882  1
  Ca  Ca15  1  0.48934799  0.75027894  0.49921624  1
  Ca  Ca16  1  -0.00131118  0.00307409  0.25450113  1
  Ca  Ca17  1  0.00417654  0.00181487  0.75001402  1
  Ca  Ca18  1  -0.00016759  0.50083690  0.24261816  1
  Ca  Ca19  1  0.00557698  0.50010174  0.75742961  1
  Ca  Ca20  1  0.49937289  0.00178231  0.25540603  1
  Ca  Ca21  1  0.49208076  0.00283951  0.74808769  1
  Ca  Ca22  1  0.50040682  0.49982270  0.24607756  1
  Ca  Ca23  1  0.49566733  0.49760336  0.75398119  1
  Ti  Ti24  1  0.24966792  0.24750443  0.25152053  1
  Ti  Ti25  1  0.24943544  0.25033627  0.75033222  1
  Ti  Ti26  1  0.24801503  0.75199439  0.25049450  1
  Ti  Ti27  1  0.24946044  0.74950360  0.74962763  1
  Ti  Ti28  1  0.75031539  0.24715279  0.24943292  1
  Ti  Ti29  1  0.74887357  0.24938685  0.75015362  1
  Ti  Ti30  1  0.75192345  0.75027733  0.24741743  1
  Ti  Ti31  1  0.75218062  0.75020740  0.75195600  1
  Al  Al32  1  0.07663897  0.08070432  0.08379522  1
  Al  Al33  1  0.08722664  0.07844594  0.58923729  1
  Al  Al34  1  0.08740577  0.58668903  0.07123902  1
  Al  Al35  1  0.09184992  0.59001348  0.58495595  1
  Al  Al36  1  0.58725375  0.08218724  0.07963363  1
  Al  Al37  1  0.57664506  0.09413549  0.58015523  1
  Al  Al38  1  0.58282127  0.58237689  0.08139657  1
  Al  Al39  1  0.58155205  0.57801062  0.58051630  1
  Al  Al40  1  0.41550666  0.43315844  0.07380449  1
  Al  Al41  1  0.41149643  0.40924335  0.58564432  1
  Al  Al42  1  0.41471026  0.91307252  0.07303993  1
  Al  Al43  1  0.40150254  0.91706967  0.58835247  1
  Al  Al44  1  0.91394900  0.42412023  0.08358543  1
  Al  Al45  1  0.92358480  0.41694933  0.58265928  1
  Al  Al46  1  0.91584696  0.91866056  0.07348151  1
  Al  Al47  1  0.92913595  0.92374459  0.58356487  1
  Al  Al48  1  0.41695589  0.09078109  0.42123404  1
  Al  Al49  1  0.41188466  0.07763819  0.91019227  1
  Al  Al50  1  0.41048439  0.58108209  0.42142827  1
  Al  Al51  1  0.40365401  0.58663076  0.92219110  1
  Al  Al52  1  0.92239566  0.08988951  0.41483935  1
  Al  Al53  1  0.91531338  0.09175573  0.91672438  1
  Al  Al54  1  0.92008617  0.57594533  0.41714700  1
  Al  Al55  1  0.91271104  0.58784799  0.91409354  1
  Al  Al56  1  0.07859840  0.41892567  0.41848124  1
  Al  Al57  1  0.08977511  0.42019075  0.91277425  1
  Al  Al58  1  0.10222288  0.91731796  0.42284867  1
  Al  Al59  1  0.08692948  0.91212689  0.90263787  1
  Al  Al60  1  0.58208588  0.41376209  0.42571643  1
  Al  Al61  1  0.58939852  0.41274168  0.90473615  1
  Al  Al62  1  0.57490403  0.93268603  0.42132183  1
  Al  Al63  1  0.57906411  0.92350298  0.91692804  1
  Al  Al64  1  0.08471047  0.07968225  0.41315406  1
  Al  Al65  1  0.08521856  0.07744526  0.90524309  1
  Al  Al66  1  0.09062819  0.58801731  0.42440972  1
  Al  Al67  1  0.09217032  0.58514691  0.91035922  1
  Al  Al68  1  0.58128530  0.09719931  0.41638427  1
  Al  Al69  1  0.58332476  0.08439214  0.91689212  1
  Al  Al70  1  0.58072886  0.57709050  0.42514673  1
  Al  Al71  1  0.59397191  0.57426837  0.91411016  1
  Al  Al72  1  0.41018674  0.41345718  0.42544475  1
  Al  Al73  1  0.42423673  0.41455306  0.90986909  1
  Al  Al74  1  0.40360529  0.91624904  0.42793505  1
  Al  Al75  1  0.40444001  0.91664534  0.91305197  1
  Al  Al76  1  0.91859155  0.41771687  0.41203361  1
  Al  Al77  1  0.91597868  0.42481446  0.91321225  1
  Al  Al78  1  0.92768043  0.92895312  0.42251086  1
  Al  Al79  1  0.92205005  0.90563562  0.91282629  1
  Al  Al80  1  0.08513911  0.41333552  0.07218400  1
  Al  Al81  1  0.08276237  0.41831587  0.58782620  1
  Al  Al82  1  0.08432508  0.91721784  0.07609955  1
  Al  Al83  1  0.09863316  0.91442375  0.58675130  1
  Al  Al84  1  0.59047219  0.42728599  0.06924203  1
  Al  Al85  1  0.58024364  0.41005011  0.58734508  1
  Al  Al86  1  0.58166750  0.91969471  0.08034685  1
  Al  Al87  1  0.56172589  0.92705833  0.57903967  1
  Al  Al88  1  0.42091800  0.07682061  0.07308269  1
  Al  Al89  1  0.41113942  0.08609490  0.58686964  1
  Al  Al90  1  0.40245384  0.59276223  0.08132931  1
  Al  Al91  1  0.41067361  0.58174172  0.58013172  1
  Al  Al92  1  0.91274507  0.08829568  0.07872459  1
  Al  Al93  1  0.92546554  0.09071822  0.58357465  1
  Al  Al94  1  0.90689813  0.58470340  0.07702578  1
  Al  Al95  1  0.92478024  0.58127981  0.58423324  1
  Al  Al96  1  0.25009956  0.13147395  0.13684268  1
  Al  Al97  1  0.25254959  0.13538449  0.63413342  1
  Al  Al98  1  0.24888691  0.63794340  0.12898834  1
  Al  Al99  1  0.24636642  0.63872499  0.62779142  1
  Al  Al100  1  0.74788393  0.13403588  0.13119186  1
  Al  Al101  1  0.74812003  0.13585870  0.63692017  1
  Al  Al102  1  0.75835818  0.63310615  0.12839608  1
  Al  Al103  1  0.75179785  0.63504296  0.63808302  1
  Al  Al104  1  0.24744869  0.36322267  0.13377251  1
  Al  Al105  1  0.24896075  0.36175497  0.63762168  1
  Al  Al106  1  0.24682680  0.86668552  0.13254350  1
  Al  Al107  1  0.24596531  0.86585602  0.63496702  1
  Al  Al108  1  0.75322753  0.36218810  0.13314273  1
  Al  Al109  1  0.74332152  0.36196986  0.63756016  1
  Al  Al110  1  0.74911901  0.86408017  0.13439526  1
  Al  Al111  1  0.76118511  0.86710620  0.64004439  1
  Al  Al112  1  0.24801505  0.12851460  0.36561583  1
  Al  Al113  1  0.25074056  0.13424146  0.86160865  1
  Al  Al114  1  0.24751300  0.63763679  0.37196320  1
  Al  Al115  1  0.24761550  0.63649194  0.86910245  1
  Al  Al116  1  0.74664854  0.13642555  0.36604751  1
  Al  Al117  1  0.75173814  0.13729680  0.86839485  1
  Al  Al118  1  0.75362004  0.63663462  0.36257577  1
  Al  Al119  1  0.75590505  0.63468050  0.86853754  1
  Al  Al120  1  0.25013887  0.36106175  0.36638312  1
  Al  Al121  1  0.24374138  0.36633960  0.86602177  1
  Al  Al122  1  0.24789516  0.87316969  0.36680900  1
  Al  Al123  1  0.24826044  0.86516243  0.86468688  1
  Al  Al124  1  0.74778895  0.35797409  0.36681486  1
  Al  Al125  1  0.74842866  0.36656760  0.86205330  1
  Al  Al126  1  0.74930018  0.86580753  0.36566211  1
  Al  Al127  1  0.75417896  0.86470382  0.86173732  1
  Al  Al128  1  0.13530407  0.24941187  0.13533644  1
  Al  Al129  1  0.13437404  0.24515933  0.63471609  1
  Al  Al130  1  0.13570152  0.75109132  0.12715461  1
  Al  Al131  1  0.13174374  0.75190038  0.63613492  1
  Al  Al132  1  0.63435230  0.24348029  0.13434750  1
  Al  Al133  1  0.62741647  0.25029600  0.63621353  1
  Al  Al134  1  0.63583486  0.75056862  0.13201626  1
  Al  Al135  1  0.63769001  0.74828518  0.64104217  1
  Al  Al136  1  0.13511840  0.24316206  0.36669485  1
  Al  Al137  1  0.13613894  0.24970934  0.86466849  1
  Al  Al138  1  0.13752717  0.75352457  0.37104288  1
  Al  Al139  1  0.13688358  0.74935474  0.86819851  1
  Al  Al140  1  0.63145530  0.24569872  0.37167069  1
  Al  Al141  1  0.63345995  0.24947341  0.86481863  1
  Al  Al142  1  0.63706127  0.75116995  0.36269227  1
  Al  Al143  1  0.63104871  0.74949565  0.86666175  1
  Al  Al144  1  0.36338130  0.24691863  0.13665387  1
  Al  Al145  1  0.37036874  0.24655633  0.63894573  1
  Al  Al146  1  0.36222397  0.75086672  0.13621952  1
  Al  Al147  1  0.35808030  0.75338272  0.62741768  1
  Al  Al148  1  0.86506150  0.24353602  0.13065018  1
  Al  Al149  1  0.86495970  0.24777996  0.63643425  1
  Al  Al150  1  0.86768150  0.74703194  0.13270769  1
  Al  Al151  1  0.87377298  0.74938964  0.64001797  1
  Al  Al152  1  0.36563607  0.24003907  0.36766488  1
  Al  Al153  1  0.36448664  0.25449162  0.86371579  1
  Al  Al154  1  0.35576953  0.75841676  0.37449874  1
  Al  Al155  1  0.36835876  0.74610451  0.86379162  1
  Al  Al156  1  0.86675244  0.24624180  0.36528729  1
  Al  Al157  1  0.86523171  0.24570470  0.86463473  1
  Al  Al158  1  0.86785114  0.75034810  0.36430634  1
  Al  Al159  1  0.86817434  0.74850618  0.86395708  1
  Al  Al160  1  0.13060735  0.13533352  0.25095968  1
  Al  Al161  1  0.13090439  0.13665435  0.74907468  1
  Al  Al162  1  0.13563821  0.63811996  0.24712476  1
  Al  Al163  1  0.13945132  0.63024536  0.74981321  1
  Al  Al164  1  0.63403505  0.13143248  0.25347687  1
  Al  Al165  1  0.63134979  0.13762672  0.74748696  1
  Al  Al166  1  0.63910696  0.63818892  0.24345735  1
  Al  Al167  1  0.63684078  0.63348037  0.76035117  1
  Al  Al168  1  0.36348837  0.12796636  0.25575353  1
  Al  Al169  1  0.36572050  0.13393520  0.74915833  1
  Al  Al170  1  0.35934313  0.63942357  0.25381470  1
  Al  Al171  1  0.36179061  0.63606823  0.74989140  1
  Al  Al172  1  0.86671221  0.13528340  0.25035750  1
  Al  Al173  1  0.86682616  0.13098466  0.75107514  1
  Al  Al174  1  0.86833739  0.63442966  0.24604622  1
  Al  Al175  1  0.86632019  0.63234701  0.75427889  1
  Al  Al176  1  0.13692423  0.36656380  0.25101136  1
  Al  Al177  1  0.13543392  0.37136385  0.75083052  1
  Al  Al178  1  0.13333019  0.86442982  0.25383174  1
  Al  Al179  1  0.13170274  0.86309229  0.75126466  1
  Al  Al180  1  0.63638459  0.35822754  0.24848468  1
  Al  Al181  1  0.62553441  0.36245684  0.75346035  1
  Al  Al182  1  0.63463864  0.87037577  0.24993171  1
  Al  Al183  1  0.63473300  0.86385513  0.75220248  1
  Al  Al184  1  0.36495802  0.35999409  0.25139501  1
  Al  Al185  1  0.36797369  0.36417211  0.75007723  1
  Al  Al186  1  0.35886543  0.87133478  0.25097375  1
  Al  Al187  1  0.36096542  0.86420217  0.75285215  1
  Al  Al188  1  0.86444444  0.36036191  0.24649446  1
  Al  Al189  1  0.86471032  0.36309898  0.75391045  1
  Al  Al190  1  0.86764411  0.86389823  0.24971164  1
  Al  Al191  1  0.87449507  0.86734948  0.75346785  1
  Al  Al192  1  0.00163849  0.31559337  0.32610718  1
  Al  Al193  1  0.67959353  0.67937067  -0.00066522  1
  Al  Al194  1  0.50126473  0.67336624  0.33122436  1
  Al  Al195  1  0.67092457  0.50029264  0.69140705  1
  Al  Al196  1  0.66941786  0.49975921  0.32120681  1
  Al  Al197  1  0.82408335  -0.00026015  0.17239515  1
  Al  Al198  1  0.67852525  0.67378368  0.50052021  1
  Al  Al199  1  0.31762671  0.49899385  0.82762613  1
  Al  Al200  1  0.17688262  0.00022857  0.18683748  1
  Al  Al201  1  0.82409213  0.00128811  0.32764139  1
  Al  Al202  1  0.31681419  0.33396007  -0.00095946  1
  Al  Al203  1  0.66475481  0.83041284  0.50494276  1
  Al  Al204  1  0.49568114  0.83225479  0.32098469  1
  Al  Al205  1  0.82179343  0.32625509  0.50073202  1
  Al  Al206  1  0.00162434  0.67840820  0.32846202  1
  Al  Al207  1  0.17772917  0.17504159  0.50072379  1
  Al  Al208  1  0.82682686  0.49763896  0.30972633  1
  Al  Al209  1  0.83100024  0.81993518  0.50112952  1
  Al  Al210  1  0.67720528  0.31969590  -0.00134704  1
  Al  Al211  1  0.00070771  0.31404812  0.67668740  1
  Al  Al212  1  0.31601163  0.30485500  0.50272551  1
  Al  Al213  1  0.18944062  -0.00010340  0.80521139  1
  Al  Al214  1  0.49703566  0.18378539  0.81952774  1
  Al  Al215  1  0.31847544  0.50097725  0.18058238  1
  Al  Al216  1  0.31910665  0.50024717  0.67547694  1
  Al  Al217  1  0.68098539  0.00214054  0.82419778  1
  Al  Al218  1  0.31674288  0.81067312  -0.00193702  1
  Al  Al219  1  0.67141262  -0.00075843  0.66739646  1
  Al  Al220  1  0.00096701  0.32284268  0.82898531  1
  Al  Al221  1  0.50199906  0.33377666  0.16548256  1
  Al  Al222  1  0.82882140  0.49725419  0.68559657  1
  Al  Al223  1  0.83039972  0.32318204  -0.00327005  1
  Al  Al224  1  0.81803017  0.17024747  0.50083237  1
  Al  Al225  1  0.81944124  0.80967415  -0.00145419  1
  Al  Al226  1  0.16755843  0.18040594  -0.00071632  1
  Al  Al227  1  0.49563225  0.82656524  0.67857002  1
  Al  Al228  1  0.49810679  0.31517791  0.32939966  1
  Al  Al229  1  0.49802830  0.67618616  0.17326908  1
  Al  Al230  1  0.49706208  0.17038130  0.18437387  1
  Al  Al231  1  0.17675323  0.50035937  0.32091960  1
  Al  Al232  1  0.68991633  0.49940388  0.17150367  1
  Al  Al233  1  0.49917957  0.66981823  0.67709401  1
  Al  Al234  1  0.00046658  0.32106845  0.16903062  1
  Al  Al235  1  0.32535562  0.17429047  -0.00162892  1
  Al  Al236  1  -0.00236116  0.82374485  0.17304505  1
  Al  Al237  1  0.30893008  0.00028763  0.68882808  1
  Al  Al238  1  0.00327146  0.68122087  0.82154859  1
  Au  Au239  1  0.50363511  0.34932395  0.16148840  1
  Au  Au240  1  0.50002146  0.66041247  0.84020035  1
  Au  Au241  1  0.82627556  0.65448505  0.50048299  1
  Au  Au242  1  0.33506637  -0.00205398  0.16478303  1
  Au  Au243  1  0.17085556  0.50074233  0.67494182  1
  Au  Au244  1  0.49724281  0.84236026  0.82723316  1
  Au  Au245  1  0.83378924  0.32956280  0.49927677  1
  Au  Au246  1  0.18031257  0.16261985  0.49960637  1
  Au  Au247  1  0.49421281  0.83988998  0.33541715  1
  Au  Au248  1  -0.00038193  0.17206684  0.82198796  1
  Au  Au249  1  0.68294134  0.66692470  -0.00026874  1
  Au  Au250  1  0.49854345  0.82459557  0.15561269  1
  Au  Au251  1  0.00199777  0.33315287  0.17203836  1
  Au  Au252  1  0.84043631  0.00562011  0.66894957  1
  Au  Au253  1  0.83121958  -0.00214570  0.84112675  1
  Au  Au254  1  0.32530697  0.00386233  0.34164520  1
  Au  Au255  1  0.49707448  0.16863734  0.82734094  1
  Au  Au256  1  0.50214515  0.65693210  0.32541821  1
  Au  Au257  1  -0.00377284  0.16756013  0.17582737  1
  Au  Au258  1  0.00171335  0.66754107  0.33467128  1
  Au  Au259  1  0.66688191  0.49922787  0.67472369  1
  Au  Au260  1  0.00559755  0.83882076  0.67628506  1
  Au  Au261  1  0.16295032  -0.00072192  0.17709500  1
  Au  Au262  1  0.65562877  0.00258412  0.67276414  1
  Au  Au263  1  0.67370124  0.00575737  0.34015579  1
  Au  Au264  1  0.17213094  0.16384331  -0.00150635  1
  Au  Au265  1  0.49648175  0.32535817  0.67525444  1
  Au  Au266  1  0.49614472  0.32150514  0.34493333  1
  Au  Au267  1  0.33258992  0.49580108  0.32853991  1
  Au  Au268  1  0.17255776  0.50053657  0.15571926  1
  Au  Au269  1  0.33333759  0.32880796  -0.00117578  1
  Au  Au270  1  0.84492501  0.49709048  0.68195818  1
  Au  Au271  1  0.32148181  0.67467794  0.49987772  1
  Au  Au272  1  0.16996585  0.50124554  0.33147130  1
  Au  Au273  1  0.67674111  0.17075322  -0.00209880  1
  Au  Au274  1  0.49704809  0.16227653  0.16940126  1
  Au  Au275  1  0.66872325  0.31855228  0.50459631  1
  Au  Au276  1  0.49847431  0.67532125  0.66096519  1
  Au  Au277  1  0.67875393  0.49543798  0.33488657  1
  Au  Au278  1  0.67512334  0.84044266  -0.00520068  1
  Au  Au279  1  0.83770090  0.83538882  0.50013912  1
  Au  Au280  1  0.00741229  0.84174149  0.33676927  1
  Au  Au281  1  0.17183621  0.33705528  0.50076139  1
  Au  Au282  1  -0.00029855  0.83259219  0.16434169  1
  Au  Au283  1  0.00369128  0.67156691  0.67299634  1
  Au  Au284  1  0.64952413  0.82310132  0.50533216  1
  Au  Au285  1  0.67427292  -0.00195417  0.16742163  1
  Au  Au286  1  -0.00009297  0.66723975  0.15829953  1
  Au  Au287  1  0.16975859  0.82561727  -0.00472208  1
