# generated using pymatgen
data_Ca24Ti8Al207Au49
_symmetry_space_group_name_H-M   'P 1'
_cell_length_a   17.31779351
_cell_length_b   17.31706574
_cell_length_c   17.31693599
_cell_angle_alpha   89.99996429
_cell_angle_beta   90.00614766
_cell_angle_gamma   89.99351436
_symmetry_Int_Tables_number   1
_chemical_formula_structural   Ca24Ti8Al207Au49
_chemical_formula_sum   'Ca24 Ti8 Al207 Au49'
_cell_volume   5193.23420629
_cell_formula_units_Z   1
loop_
 _symmetry_equiv_pos_site_id
 _symmetry_equiv_pos_as_xyz
  1  'x, y, z'
loop_
 _atom_site_type_symbol
 _atom_site_label
 _atom_site_symmetry_multiplicity
 _atom_site_fract_x
 _atom_site_fract_y
 _atom_site_fract_z
 _atom_site_occupancy
  Ca  Ca0  1  0.25482128  -0.00496853  0.00319581  1
  Ca  Ca1  1  0.25010673  -0.00619210  0.49228667  1
  Ca  Ca2  1  0.24869611  0.50473481  -0.00355420  1
  Ca  Ca3  1  0.24316751  0.50673882  0.50196791  1
  Ca  Ca4  1  0.73893350  -0.00277613  0.00113668  1
  Ca  Ca5  1  0.74041523  -0.00377275  0.49868191  1
  Ca  Ca6  1  0.75462460  0.50349921  -0.00134126  1
  Ca  Ca7  1  0.75516284  0.50400426  0.49977103  1
  Ca  Ca8  1  0.00468869  0.25321349  0.00053053  1
  Ca  Ca9  1  -0.00049042  0.25273009  0.49804337  1
  Ca  Ca10  1  0.00310651  0.74776819  0.00354663  1
  Ca  Ca11  1  -0.00006701  0.74262481  0.49796652  1
  Ca  Ca12  1  0.49740384  0.24166188  -0.00158779  1
  Ca  Ca13  1  0.50437509  0.23889280  0.49900581  1
  Ca  Ca14  1  0.49627739  0.75529343  0.00117012  1
  Ca  Ca15  1  0.50374356  0.75393799  0.49956669  1
  Ca  Ca16  1  -0.00090241  -0.00259821  0.25068121  1
  Ca  Ca17  1  -0.00077623  -0.00372397  0.75049410  1
  Ca  Ca18  1  -0.00031489  0.50388909  0.25414495  1
  Ca  Ca19  1  0.00436497  0.50510550  0.74929489  1
  Ca  Ca20  1  0.50484806  -0.00057656  0.24910081  1
  Ca  Ca21  1  0.50462471  -0.00446330  0.75250624  1
  Ca  Ca22  1  0.50022858  0.49911354  0.24955341  1
  Ca  Ca23  1  0.49781130  0.50485838  0.75056895  1
  Ti  Ti24  1  0.25040533  0.25027268  0.24758068  1
  Ti  Ti25  1  0.24933636  0.25270138  0.75286058  1
  Ti  Ti26  1  0.25000586  0.74991927  0.24978712  1
  Ti  Ti27  1  0.25014011  0.74748045  0.75105026  1
  Ti  Ti28  1  0.74825895  0.24839856  0.25128766  1
  Ti  Ti29  1  0.74862665  0.24876552  0.74858102  1
  Ti  Ti30  1  0.75055289  0.75129412  0.25072153  1
  Ti  Ti31  1  0.74964492  0.74972635  0.74913712  1
  Al  Al32  1  0.08633289  0.07904497  0.08190493  1
  Al  Al33  1  0.08019304  0.07090322  0.57893920  1
  Al  Al34  1  0.08752587  0.59656151  0.08194912  1
  Al  Al35  1  0.08595426  0.59205571  0.58302379  1
  Al  Al36  1  0.58132437  0.07949215  0.09482856  1
  Al  Al37  1  0.59543630  0.08084264  0.58951110  1
  Al  Al38  1  0.57952844  0.58012316  0.08305578  1
  Al  Al39  1  0.58048010  0.58950616  0.59082225  1
  Al  Al40  1  0.42063423  0.41239517  0.07344972  1
  Al  Al41  1  0.42600390  0.43394735  0.58404228  1
  Al  Al42  1  0.41634620  0.91608452  0.08324983  1
  Al  Al43  1  0.42969484  0.91724367  0.57635545  1
  Al  Al44  1  0.92639011  0.42179063  0.09015476  1
  Al  Al45  1  0.91108575  0.42953413  0.58322000  1
  Al  Al46  1  0.92421399  0.90917162  0.08937993  1
  Al  Al47  1  0.91535030  0.91474151  0.57740436  1
  Al  Al48  1  0.41905412  0.07223508  0.40156552  1
  Al  Al49  1  0.42078883  0.08458706  0.91648991  1
  Al  Al50  1  0.41624509  0.59479274  0.42152659  1
  Al  Al51  1  0.40728573  0.59167045  0.90827439  1
  Al  Al52  1  0.91801642  0.08490967  0.41837706  1
  Al  Al53  1  0.91914290  0.07576848  0.92192900  1
  Al  Al54  1  0.91987180  0.58895797  0.41692338  1
  Al  Al55  1  0.92919734  0.58911260  0.90415084  1
  Al  Al56  1  0.08221947  0.42659837  0.40458953  1
  Al  Al57  1  0.09492799  0.42088256  0.92402330  1
  Al  Al58  1  0.08650356  0.91393993  0.40734583  1
  Al  Al59  1  0.09005033  0.90826992  0.92424737  1
  Al  Al60  1  0.58066171  0.41218431  0.42075976  1
  Al  Al61  1  0.57043016  0.42199687  0.91908093  1
  Al  Al62  1  0.58523610  0.91384760  0.41024452  1
  Al  Al63  1  0.58835957  0.91487859  0.91378743  1
  Al  Al64  1  0.08616951  0.07526380  0.40577561  1
  Al  Al65  1  0.08723927  0.07955780  0.92167930  1
  Al  Al66  1  0.08595687  0.58953903  0.41155445  1
  Al  Al67  1  0.08972939  0.59232643  0.91628096  1
  Al  Al68  1  0.59155988  0.07990306  0.40904911  1
  Al  Al69  1  0.58168831  0.07800205  0.90690309  1
  Al  Al70  1  0.57549290  0.59008899  0.41989692  1
  Al  Al71  1  0.57053810  0.59268573  0.91013271  1
  Al  Al72  1  0.42569084  0.42444247  0.41479941  1
  Al  Al73  1  0.40807415  0.42015812  0.90751124  1
  Al  Al74  1  0.42099341  0.91160601  0.39993554  1
  Al  Al75  1  0.41820749  0.91501939  0.92161893  1
  Al  Al76  1  0.92341338  0.41773402  0.41228394  1
  Al  Al77  1  0.92181865  0.42885135  0.91999855  1
  Al  Al78  1  0.91915233  0.90992378  0.41515708  1
  Al  Al79  1  0.92017209  0.91521510  0.92057134  1
  Al  Al80  1  0.08541803  0.40852648  0.08292832  1
  Al  Al81  1  0.08375697  0.43349488  0.58548969  1
  Al  Al82  1  0.08700571  0.90187232  0.08706933  1
  Al  Al83  1  0.08325521  0.91543859  0.57953981  1
  Al  Al84  1  0.57973037  0.42105818  0.08668449  1
  Al  Al85  1  0.58593019  0.42260860  0.58279080  1
  Al  Al86  1  0.58782466  0.91658688  0.08638610  1
  Al  Al87  1  0.59236589  0.91470969  0.58721803  1
  Al  Al88  1  0.41923445  0.08586802  0.08788631  1
  Al  Al89  1  0.43317303  0.07698902  0.57806362  1
  Al  Al90  1  0.41488108  0.59299367  0.07072754  1
  Al  Al91  1  0.41551908  0.59683223  0.58825490  1
  Al  Al92  1  0.92170732  0.07529251  0.08082444  1
  Al  Al93  1  0.91320995  0.07915100  0.57575917  1
  Al  Al94  1  0.92696050  0.59050896  0.09548649  1
  Al  Al95  1  0.91401143  0.58978576  0.58372297  1
  Al  Al96  1  0.24878113  0.13334236  0.13567792  1
  Al  Al97  1  0.25016388  0.13642166  0.63595638  1
  Al  Al98  1  0.24607661  0.63665516  0.13414493  1
  Al  Al99  1  0.24588803  0.63258607  0.63592070  1
  Al  Al100  1  0.74463169  0.13272256  0.13358239  1
  Al  Al101  1  0.74496353  0.13307582  0.62944346  1
  Al  Al102  1  0.75178860  0.64067211  0.13376905  1
  Al  Al103  1  0.75316772  0.63534955  0.63338822  1
  Al  Al104  1  0.24763107  0.36450467  0.12733889  1
  Al  Al105  1  0.24363817  0.36994942  0.63666223  1
  Al  Al106  1  0.25234872  0.86104997  0.13790426  1
  Al  Al107  1  0.25108873  0.86007986  0.63310175  1
  Al  Al108  1  0.74926819  0.36194608  0.13676044  1
  Al  Al109  1  0.75064200  0.36517188  0.63433468  1
  Al  Al110  1  0.74275714  0.86372691  0.13705260  1
  Al  Al111  1  0.74289348  0.86379816  0.63028479  1
  Al  Al112  1  0.25039702  0.13129738  0.36031217  1
  Al  Al113  1  0.24538628  0.13544485  0.86667081  1
  Al  Al114  1  0.24134236  0.63764897  0.36590776  1
  Al  Al115  1  0.25085745  0.62784760  0.86351008  1
  Al  Al116  1  0.74496451  0.13349960  0.36968749  1
  Al  Al117  1  0.74625106  0.13541581  0.86908776  1
  Al  Al118  1  0.75716981  0.64220077  0.36838082  1
  Al  Al119  1  0.75368961  0.63511593  0.86587019  1
  Al  Al120  1  0.24390217  0.36779638  0.36251614  1
  Al  Al121  1  0.25014486  0.37168054  0.86740869  1
  Al  Al122  1  0.24800128  0.86502205  0.36185136  1
  Al  Al123  1  0.25089806  0.85883202  0.86756802  1
  Al  Al124  1  0.74828703  0.36332816  0.36718116  1
  Al  Al125  1  0.74869907  0.36302997  0.86526807  1
  Al  Al126  1  0.74515182  0.86386949  0.36537744  1
  Al  Al127  1  0.74439495  0.86259855  0.86737508  1
  Al  Al128  1  0.13665826  0.24944809  0.13272065  1
  Al  Al129  1  0.13351632  0.24970513  0.63768662  1
  Al  Al130  1  0.13082935  0.74677970  0.13703316  1
  Al  Al131  1  0.13455578  0.74615195  0.63422577  1
  Al  Al132  1  0.63186906  0.24158198  0.13327768  1
  Al  Al133  1  0.63720227  0.24766889  0.63170026  1
  Al  Al134  1  0.62781425  0.75511797  0.13433953  1
  Al  Al135  1  0.63453552  0.74900523  0.63349462  1
  Al  Al136  1  0.13786398  0.24819784  0.36637548  1
  Al  Al137  1  0.13673543  0.25542597  0.87036088  1
  Al  Al138  1  0.12478163  0.74710822  0.36302704  1
  Al  Al139  1  0.13509484  0.74075409  0.86790549  1
  Al  Al140  1  0.63450325  0.24506419  0.37015192  1
  Al  Al141  1  0.63243568  0.24358374  0.86514730  1
  Al  Al142  1  0.63350976  0.75478811  0.36844529  1
  Al  Al143  1  0.63430710  0.74918882  0.86525192  1
  Al  Al144  1  0.36492549  0.24856495  0.13434919  1
  Al  Al145  1  0.36196377  0.25119855  0.63907970  1
  Al  Al146  1  0.37160470  0.75310913  0.13586013  1
  Al  Al147  1  0.36622644  0.74539344  0.63750853  1
  Al  Al148  1  0.86289301  0.24532150  0.13660675  1
  Al  Al149  1  0.86464842  0.24658479  0.63417760  1
  Al  Al150  1  0.86738031  0.75169126  0.13475017  1
  Al  Al151  1  0.86391352  0.74843026  0.63212637  1
  Al  Al152  1  0.36182598  0.24790909  0.36428177  1
  Al  Al153  1  0.36241637  0.25346951  0.86731884  1
  Al  Al154  1  0.36242499  0.75279284  0.36453805  1
  Al  Al155  1  0.36606204  0.74715360  0.86532367  1
  Al  Al156  1  0.86280966  0.24947699  0.36728841  1
  Al  Al157  1  0.86433411  0.24939781  0.86321129  1
  Al  Al158  1  0.87278158  0.75136213  0.36429581  1
  Al  Al159  1  0.86459111  0.74790730  0.86685886  1
  Al  Al160  1  0.13362007  0.13472302  0.25140296  1
  Al  Al161  1  0.13495245  0.13669121  0.75226693  1
  Al  Al162  1  0.13085281  0.63471098  0.25119856  1
  Al  Al163  1  0.13659404  0.62902355  0.75119215  1
  Al  Al164  1  0.63320244  0.13315620  0.25227812  1
  Al  Al165  1  0.63761780  0.12990583  0.75014132  1
  Al  Al166  1  0.63691376  0.64154719  0.25067977  1
  Al  Al167  1  0.63300900  0.63875801  0.74926217  1
  Al  Al168  1  0.37052526  0.13634970  0.24963918  1
  Al  Al169  1  0.36659272  0.13747842  0.75860668  1
  Al  Al170  1  0.36246419  0.63773569  0.24943329  1
  Al  Al171  1  0.36664104  0.63345583  0.75264166  1
  Al  Al172  1  0.86337641  0.13270107  0.25224230  1
  Al  Al173  1  0.86229259  0.13264262  0.74848871  1
  Al  Al174  1  0.86996256  0.63937280  0.24905483  1
  Al  Al175  1  0.86378978  0.63249328  0.74787226  1
  Al  Al176  1  0.13512187  0.36595712  0.25010569  1
  Al  Al177  1  0.13535013  0.37139878  0.75407928  1
  Al  Al178  1  0.12871841  0.85788403  0.25032952  1
  Al  Al179  1  0.13598802  0.85965940  0.75312235  1
  Al  Al180  1  0.63479595  0.36050239  0.25066337  1
  Al  Al181  1  0.63490009  0.36249818  0.75052454  1
  Al  Al182  1  0.62998327  0.86443900  0.25250170  1
  Al  Al183  1  0.63536367  0.86583305  0.74994320  1
  Al  Al184  1  0.36296187  0.36614437  0.24828134  1
  Al  Al185  1  0.36362363  0.36936120  0.75312441  1
  Al  Al186  1  0.37163509  0.86454523  0.25184218  1
  Al  Al187  1  0.36580634  0.86153024  0.75165947  1
  Al  Al188  1  0.86418023  0.36400154  0.25105440  1
  Al  Al189  1  0.86439589  0.36862369  0.74962267  1
  Al  Al190  1  0.86874877  0.86355765  0.24967774  1
  Al  Al191  1  0.86341486  0.86313961  0.74945785  1
  Al  Al192  1  0.49869135  0.68953645  0.32012047  1
  Al  Al193  1  0.80831693  -0.00192884  0.67173162  1
  Al  Al194  1  0.81468125  0.82172015  0.00206615  1
  Al  Al195  1  0.31225182  0.50363239  0.33212831  1
  Al  Al196  1  -0.00077725  0.17705688  0.82292072  1
  Al  Al197  1  0.32571893  0.16653589  0.49749024  1
  Al  Al198  1  0.82490253  0.32604087  0.49803224  1
  Al  Al199  1  0.32884490  0.50001478  0.17129044  1
  Al  Al200  1  0.17097924  0.50097214  0.17919893  1
  Al  Al201  1  0.50125707  0.81728562  0.67509901  1
  Al  Al202  1  0.50161672  0.17184554  0.68966889  1
  Al  Al203  1  0.00095663  0.81209076  0.82154126  1
  Al  Al204  1  0.17867921  0.81140538  0.49700113  1
  Al  Al205  1  0.68330380  0.50152454  0.67297846  1
  Al  Al206  1  0.17148475  -0.00386119  0.19126022  1
  Al  Al207  1  0.68311097  0.68144649  0.50065028  1
  Al  Al208  1  0.31680693  0.50112251  0.68427456  1
  Al  Al209  1  0.49885413  0.31707943  0.32462458  1
  Al  Al210  1  0.18953627  0.80674567  0.00294462  1
  Al  Al211  1  0.49887072  0.31604138  0.82551432  1
  Al  Al212  1  0.32131824  -0.00153115  0.82929348  1
  Al  Al213  1  0.32099794  0.17840418  0.00030713  1
  Al  Al214  1  0.81243207  0.81361589  0.49793692  1
  Al  Al215  1  0.33368526  0.33204011  0.50174184  1
  Al  Al216  1  0.81236305  -0.00249225  0.17090177  1
  Al  Al217  1  -0.00059086  0.18818327  0.31907075  1
  Al  Al218  1  0.33494265  0.00136990  0.67598666  1
  Al  Al219  1  0.16480047  0.32760043  0.50067641  1
  Al  Al220  1  -0.00075994  0.32844978  0.67501456  1
  Al  Al221  1  0.49981959  0.32944019  0.67323060  1
  Al  Al222  1  0.82739808  0.50288999  0.32158420  1
  Al  Al223  1  0.66872160  0.32438179  0.00110976  1
  Al  Al224  1  0.31099017  0.68350018  0.50091166  1
  Al  Al225  1  0.00029866  0.31931694  0.18848210  1
  Al  Al226  1  0.80837610  -0.00145114  0.82850016  1
  Al  Al227  1  -0.00016161  0.67828825  0.68544485  1
  Al  Al228  1  0.68390096  0.50171688  0.17489304  1
  Al  Al229  1  0.30847745  0.69304645  -0.00024371  1
  Al  Al230  1  0.81112324  -0.00165346  0.32750113  1
  Al  Al231  1  0.50015120  0.81786331  0.82768983  1
  Al  Al232  1  0.67490507  0.50328221  0.33273852  1
  Al  Al233  1  0.67577897  0.50190569  0.82939589  1
  Al  Al234  1  0.67443402  0.68155984  0.00018567  1
  Al  Al235  1  0.49993929  0.31667979  0.17224176  1
  Al  Al236  1  0.82849122  0.32165916  0.00105519  1
  Al  Al237  1  0.32753102  -0.00010148  0.18519960  1
  Al  Al238  1  0.17549835  -0.00229359  0.68236852  1
  Au  Au239  1  0.32809793  0.50409831  0.67206097  1
  Au  Au240  1  0.66004768  0.67290567  0.00008396  1
  Au  Au241  1  -0.00049709  0.16357949  0.83326730  1
  Au  Au242  1  0.66007636  0.50204099  0.82301988  1
  Au  Au243  1  0.66033234  0.15973816  0.00021892  1
  Au  Au244  1  0.00018431  0.17429243  0.15863642  1
  Au  Au245  1  0.84294335  0.66088119  -0.00185084  1
  Au  Au246  1  0.66526353  0.33563919  -0.00346253  1
  Au  Au247  1  0.82427391  -0.00231992  0.83565186  1
  Au  Au248  1  0.00060990  0.17685734  0.33204125  1
  Au  Au249  1  0.16544181  0.34415668  0.49604002  1
  Au  Au250  1  -0.00023531  0.82753736  0.32136288  1
  Au  Au251  1  0.84074806  0.50279664  0.81938767  1
  Au  Au252  1  0.17079740  -0.00534881  0.83406374  1
  Au  Au253  1  0.17238033  0.17358848  0.00154193  1
  Au  Au254  1  0.50258310  0.16789038  0.32488479  1
  Au  Au255  1  0.83033817  0.16226718  0.00143180  1
  Au  Au256  1  0.82407221  -0.00203535  0.66445874  1
  Au  Au257  1  -0.00000721  0.82609197  0.66283062  1
  Au  Au258  1  0.49880235  0.66330693  0.17524763  1
  Au  Au259  1  0.16561989  0.15641229  0.49942465  1
  Au  Au260  1  0.82749372  0.82150046  0.49796417  1
  Au  Au261  1  0.82939812  -0.00262188  0.16778316  1
  Au  Au262  1  0.00179526  0.81973193  0.83679867  1
  Au  Au263  1  0.35052877  0.33191356  0.50565770  1
  Au  Au264  1  0.17120014  0.82617183  0.49694679  1
  Au  Au265  1  0.83344664  0.33487187  0.50004468  1
  Au  Au266  1  0.33542260  0.49988145  0.16072570  1
  Au  Au267  1  0.83880238  0.33589007  0.00262462  1
  Au  Au268  1  0.00056195  0.16405981  0.65906037  1
  Au  Au269  1  0.32717069  -0.00647032  0.66307179  1
  Au  Au270  1  0.66085981  0.32147003  0.50269601  1
  Au  Au271  1  0.82413198  -0.00034555  0.33882448  1
  Au  Au272  1  0.66901265  0.67296081  0.50114813  1
  Au  Au273  1  0.50331106  0.17568656  0.67315335  1
  Au  Au274  1  -0.00095168  0.34403973  0.66945231  1
  Au  Au275  1  0.33390044  0.15267145  0.49529109  1
  Au  Au276  1  0.83449922  0.50336071  0.17115429  1
  Au  Au277  1  0.65969096  0.50044588  0.32573613  1
  Au  Au278  1  0.16031760  0.50097433  0.17047810  1
  Au  Au279  1  0.82762295  0.83251728  0.00384175  1
  Au  Au280  1  0.82055005  0.16952516  0.49992103  1
  Au  Au281  1  0.17299493  -0.00669464  0.17475363  1
  Au  Au282  1  0.32840932  0.50535781  0.33689581  1
  Au  Au283  1  0.32531827  0.33041724  -0.00335483  1
  Au  Au284  1  0.50095179  0.83435780  0.17440037  1
  Au  Au285  1  0.17171402  0.50207449  0.82957434  1
  Au  Au286  1  0.34493139  0.82821208  0.49629735  1
  Au  Au287  1  0.00585094  0.33733890  0.84173892  1
