# generated using pymatgen
data_Ca24Ti8Al207Au49
_symmetry_space_group_name_H-M   'P 1'
_cell_length_a   17.32440537
_cell_length_b   17.32344729
_cell_length_c   17.32525723
_cell_angle_alpha   89.99980805
_cell_angle_beta   90.00456122
_cell_angle_gamma   90.00255878
_symmetry_Int_Tables_number   1
_chemical_formula_structural   Ca24Ti8Al207Au49
_chemical_formula_sum   'Ca24 Ti8 Al207 Au49'
_cell_volume   5199.62886006
_cell_formula_units_Z   1
loop_
 _symmetry_equiv_pos_site_id
 _symmetry_equiv_pos_as_xyz
  1  'x, y, z'
loop_
 _atom_site_type_symbol
 _atom_site_label
 _atom_site_symmetry_multiplicity
 _atom_site_fract_x
 _atom_site_fract_y
 _atom_site_fract_z
 _atom_site_occupancy
  Ca  Ca0  1  0.25169555  -0.00061049  0.00207123  1
  Ca  Ca1  1  0.25050812  -0.00210927  0.50002855  1
  Ca  Ca2  1  0.25527961  0.49989815  -0.00117950  1
  Ca  Ca3  1  0.25277073  0.50053353  0.49968537  1
  Ca  Ca4  1  0.74791504  0.00239676  0.00540453  1
  Ca  Ca5  1  0.75234473  -0.00152839  0.49161689  1
  Ca  Ca6  1  0.75226608  0.49914127  -0.00086846  1
  Ca  Ca7  1  0.74916204  0.50303659  0.50198559  1
  Ca  Ca8  1  -0.00038827  0.24756730  0.00035888  1
  Ca  Ca9  1  0.00360283  0.24906847  0.50072681  1
  Ca  Ca10  1  0.00436524  0.75164963  0.00125376  1
  Ca  Ca11  1  0.00189611  0.74598130  0.49882665  1
  Ca  Ca12  1  0.49757263  0.24949140  0.00151199  1
  Ca  Ca13  1  0.49829896  0.25069952  0.49927904  1
  Ca  Ca14  1  0.49876199  0.75082027  0.00120869  1
  Ca  Ca15  1  0.49926140  0.74865638  0.50068148  1
  Ca  Ca16  1  -0.00092937  -0.00067026  0.25437065  1
  Ca  Ca17  1  0.00046242  0.00197166  0.74721709  1
  Ca  Ca18  1  0.00168394  0.50088273  0.25363960  1
  Ca  Ca19  1  0.00094052  0.50003680  0.74405581  1
  Ca  Ca20  1  0.50074965  -0.00188377  0.25193425  1
  Ca  Ca21  1  0.50008594  -0.00266048  0.74740362  1
  Ca  Ca22  1  0.49728941  0.50094171  0.25173438  1
  Ca  Ca23  1  0.49636005  0.50015581  0.74749314  1
  Ti  Ti24  1  0.25089820  0.25075427  0.25117298  1
  Ti  Ti25  1  0.25015225  0.24876308  0.74939718  1
  Ti  Ti26  1  0.25313068  0.74915735  0.25171683  1
  Ti  Ti27  1  0.25272631  0.75069933  0.74944781  1
  Ti  Ti28  1  0.74887250  0.24750931  0.24981156  1
  Ti  Ti29  1  0.75036445  0.25160964  0.75025712  1
  Ti  Ti30  1  0.74733411  0.75125278  0.25191863  1
  Ti  Ti31  1  0.74764905  0.74828584  0.74958775  1
  Al  Al32  1  0.08401731  0.08050571  0.08212656  1
  Al  Al33  1  0.08672169  0.09254763  0.57773655  1
  Al  Al34  1  0.08611760  0.58362662  0.08771955  1
  Al  Al35  1  0.08146120  0.57722698  0.57858942  1
  Al  Al36  1  0.58612745  0.08456926  0.09395771  1
  Al  Al37  1  0.57772385  0.08116892  0.57512974  1
  Al  Al38  1  0.57403885  0.58624721  0.09344449  1
  Al  Al39  1  0.57904476  0.59140486  0.58745748  1
  Al  Al40  1  0.41462120  0.41269299  0.07721199  1
  Al  Al41  1  0.41338733  0.41920099  0.59276941  1
  Al  Al42  1  0.42672271  0.90851337  0.08408636  1
  Al  Al43  1  0.41244609  0.90153032  0.57942104  1
  Al  Al44  1  0.91739944  0.41380702  0.07678993  1
  Al  Al45  1  0.91744854  0.42604723  0.59008999  1
  Al  Al46  1  0.91759813  0.92486840  0.08274357  1
  Al  Al47  1  0.92149136  0.91707312  0.57867033  1
  Al  Al48  1  0.41722799  0.08014884  0.41656590  1
  Al  Al49  1  0.41294332  0.08943976  0.92397184  1
  Al  Al50  1  0.41773275  0.58971993  0.41810327  1
  Al  Al51  1  0.41318324  0.57625762  0.90274021  1
  Al  Al52  1  0.91646647  0.08049194  0.41281333  1
  Al  Al53  1  0.90916360  0.08924820  0.92276958  1
  Al  Al54  1  0.91441954  0.59730540  0.41725801  1
  Al  Al55  1  0.92456464  0.57732001  0.91241041  1
  Al  Al56  1  0.09010227  0.41261555  0.42264332  1
  Al  Al57  1  0.08130921  0.41818881  0.91587041  1
  Al  Al58  1  0.08000327  0.91513626  0.41737146  1
  Al  Al59  1  0.09118811  0.91356734  0.92500452  1
  Al  Al60  1  0.57780681  0.41541990  0.41925873  1
  Al  Al61  1  0.57193249  0.41341718  0.90992357  1
  Al  Al62  1  0.57638808  0.91145243  0.40650507  1
  Al  Al63  1  0.57459959  0.91030407  0.91377218  1
  Al  Al64  1  0.08548448  0.09053335  0.41852418  1
  Al  Al65  1  0.08095726  0.07983595  0.92248986  1
  Al  Al66  1  0.07698670  0.58800602  0.41486751  1
  Al  Al67  1  0.08243323  0.58316187  0.91640490  1
  Al  Al68  1  0.58316226  0.07998551  0.41239335  1
  Al  Al69  1  0.57565023  0.08299972  0.92921734  1
  Al  Al70  1  0.58040299  0.58814181  0.41909180  1
  Al  Al71  1  0.57293674  0.58005015  0.91327060  1
  Al  Al72  1  0.41985575  0.41529231  0.41863069  1
  Al  Al73  1  0.41001806  0.41119466  0.90712506  1
  Al  Al74  1  0.41421301  0.90715947  0.41465483  1
  Al  Al75  1  0.41858384  0.90980552  0.91310280  1
  Al  Al76  1  0.92619177  0.42370865  0.41880759  1
  Al  Al77  1  0.91668334  0.41262824  0.91659571  1
  Al  Al78  1  0.91368466  0.91853601  0.41068227  1
  Al  Al79  1  0.92294521  0.92744901  0.92302335  1
  Al  Al80  1  0.08449014  0.42313878  0.08415228  1
  Al  Al81  1  0.09121486  0.41281828  0.58118744  1
  Al  Al82  1  0.09192207  0.91707695  0.08100688  1
  Al  Al83  1  0.08058931  0.91521028  0.57921126  1
  Al  Al84  1  0.57629167  0.42073794  0.08336688  1
  Al  Al85  1  0.57763958  0.41745041  0.58476351  1
  Al  Al86  1  0.58545190  0.92036557  0.10137795  1
  Al  Al87  1  0.57082570  0.90750718  0.58557101  1
  Al  Al88  1  0.42347452  0.09456720  0.08428430  1
  Al  Al89  1  0.41599357  0.08050939  0.57819760  1
  Al  Al90  1  0.41975150  0.58852570  0.09151425  1
  Al  Al91  1  0.41572357  0.59123471  0.59537509  1
  Al  Al92  1  0.90721018  0.08916281  0.08215124  1
  Al  Al93  1  0.92329079  0.08296906  0.57755428  1
  Al  Al94  1  0.92853744  0.57989571  0.08598120  1
  Al  Al95  1  0.90542065  0.58640999  0.58064963  1
  Al  Al96  1  0.25439057  0.13959830  0.13397812  1
  Al  Al97  1  0.24723654  0.13204838  0.62968079  1
  Al  Al98  1  0.25491302  0.63551007  0.13574889  1
  Al  Al99  1  0.25890912  0.63513721  0.63606221  1
  Al  Al100  1  0.74764884  0.13398578  0.13812382  1
  Al  Al101  1  0.74800648  0.13706989  0.63550151  1
  Al  Al102  1  0.74601829  0.63599116  0.13995115  1
  Al  Al103  1  0.74962826  0.63560537  0.63565888  1
  Al  Al104  1  0.25088618  0.36238809  0.13625563  1
  Al  Al105  1  0.25168286  0.36486887  0.63367207  1
  Al  Al106  1  0.24917903  0.86319033  0.13425238  1
  Al  Al107  1  0.25540435  0.86741638  0.63371788  1
  Al  Al108  1  0.75312457  0.36365358  0.14065066  1
  Al  Al109  1  0.74931348  0.36597177  0.63711196  1
  Al  Al110  1  0.74537665  0.86559799  0.13332910  1
  Al  Al111  1  0.74946863  0.85815053  0.63616889  1
  Al  Al112  1  0.24586608  0.13670235  0.36953577  1
  Al  Al113  1  0.25535619  0.13451184  0.86649271  1
  Al  Al114  1  0.25824128  0.63078376  0.36359311  1
  Al  Al115  1  0.25582746  0.63338195  0.86451968  1
  Al  Al116  1  0.74768754  0.12609784  0.35946182  1
  Al  Al117  1  0.75087605  0.13835783  0.86610590  1
  Al  Al118  1  0.74903788  0.63583801  0.36427310  1
  Al  Al119  1  0.74663925  0.63512770  0.86292438  1
  Al  Al120  1  0.24809469  0.36832154  0.36732176  1
  Al  Al121  1  0.25286889  0.36798578  0.86376035  1
  Al  Al122  1  0.25628735  0.86131542  0.36727194  1
  Al  Al123  1  0.24999839  0.86451910  0.86615109  1
  Al  Al124  1  0.74847814  0.36424534  0.36135679  1
  Al  Al125  1  0.75420493  0.36875673  0.86159844  1
  Al  Al126  1  0.74844144  0.86899892  0.36349039  1
  Al  Al127  1  0.74570786  0.85935668  0.86775367  1
  Al  Al128  1  0.12919875  0.25043774  0.13701410  1
  Al  Al129  1  0.13854963  0.25177923  0.63065610  1
  Al  Al130  1  0.13909910  0.74996467  0.13643093  1
  Al  Al131  1  0.13950930  0.74844820  0.63528642  1
  Al  Al132  1  0.62687424  0.24491132  0.13844578  1
  Al  Al133  1  0.63508162  0.24970171  0.63568554  1
  Al  Al134  1  0.62943875  0.75484256  0.13728780  1
  Al  Al135  1  0.63004954  0.74756148  0.63559501  1
  Al  Al136  1  0.13681628  0.25214879  0.36931688  1
  Al  Al137  1  0.13813614  0.24816788  0.86612321  1
  Al  Al138  1  0.13760227  0.74728981  0.36565225  1
  Al  Al139  1  0.13830195  0.75117145  0.86360085  1
  Al  Al140  1  0.63463592  0.24193089  0.36233223  1
  Al  Al141  1  0.63265566  0.25300997  0.86433106  1
  Al  Al142  1  0.62757283  0.75306571  0.36121704  1
  Al  Al143  1  0.62673555  0.75074857  0.86465636  1
  Al  Al144  1  0.37034406  0.25079469  0.13750759  1
  Al  Al145  1  0.36345589  0.25034470  0.63376718  1
  Al  Al146  1  0.36890670  0.75178895  0.13460830  1
  Al  Al147  1  0.36818337  0.75190143  0.63125667  1
  Al  Al148  1  0.86825295  0.24572093  0.13809030  1
  Al  Al149  1  0.86508392  0.25136681  0.63688014  1
  Al  Al150  1  0.86074719  0.75405938  0.13646199  1
  Al  Al151  1  0.86478350  0.74380303  0.63118237  1
  Al  Al152  1  0.36332359  0.24701164  0.36645321  1
  Al  Al153  1  0.36879575  0.25379528  0.86193092  1
  Al  Al154  1  0.37130058  0.74956601  0.36849416  1
  Al  Al155  1  0.37357651  0.75222520  0.86170475  1
  Al  Al156  1  0.86374512  0.24794258  0.36225123  1
  Al  Al157  1  0.86494337  0.24897472  0.86283779  1
  Al  Al158  1  0.86372057  0.74716348  0.36562139  1
  Al  Al159  1  0.86255641  0.74894261  0.86227457  1
  Al  Al160  1  0.13773771  0.13724053  0.25169603  1
  Al  Al161  1  0.13856714  0.13190112  0.74738194  1
  Al  Al162  1  0.13783566  0.63610961  0.25515734  1
  Al  Al163  1  0.13846862  0.63713832  0.74803476  1
  Al  Al164  1  0.63076615  0.12693243  0.24789026  1
  Al  Al165  1  0.63294921  0.13791688  0.75260113  1
  Al  Al166  1  0.62655164  0.63907933  0.24976115  1
  Al  Al167  1  0.62598619  0.63620136  0.74973262  1
  Al  Al168  1  0.37140166  0.13754207  0.24896381  1
  Al  Al169  1  0.36447416  0.13209774  0.74635988  1
  Al  Al170  1  0.37344051  0.63602527  0.25005264  1
  Al  Al171  1  0.37249125  0.63815855  0.74732946  1
  Al  Al172  1  0.86526297  0.13151383  0.25131382  1
  Al  Al173  1  0.86310422  0.13578862  0.74923494  1
  Al  Al174  1  0.86575344  0.63536416  0.25272589  1
  Al  Al175  1  0.86240391  0.62883460  0.74633195  1
  Al  Al176  1  0.13122405  0.36375149  0.25275510  1
  Al  Al177  1  0.13763028  0.36481145  0.74785005  1
  Al  Al178  1  0.13998898  0.86521200  0.25675386  1
  Al  Al179  1  0.14093526  0.87094633  0.74421984  1
  Al  Al180  1  0.63251280  0.36238391  0.24666769  1
  Al  Al181  1  0.63308300  0.36498923  0.75115457  1
  Al  Al182  1  0.63360113  0.87010795  0.24996341  1
  Al  Al183  1  0.62867666  0.86179580  0.74902882  1
  Al  Al184  1  0.36277525  0.36988015  0.25020394  1
  Al  Al185  1  0.36278457  0.36913808  0.75081660  1
  Al  Al186  1  0.36933234  0.86279077  0.25080991  1
  Al  Al187  1  0.36920903  0.86429707  0.74833969  1
  Al  Al188  1  0.87100635  0.36453039  0.25100765  1
  Al  Al189  1  0.86514413  0.36976777  0.74713584  1
  Al  Al190  1  0.86059746  0.86765767  0.25483309  1
  Al  Al191  1  0.86104434  0.86287690  0.74812207  1
  Al  Al192  1  0.18222949  0.82525671  0.50015553  1
  Al  Al193  1  -0.00005752  0.81234992  0.32727486  1
  Al  Al194  1  0.67059395  0.67701833  0.00140477  1
  Al  Al195  1  0.00085010  0.32280880  0.81883402  1
  Al  Al196  1  0.81962005  0.17144182  0.49742927  1
  Al  Al197  1  0.17632275  0.00074544  0.18243406  1
  Al  Al198  1  0.31831911  -0.00040174  0.32715223  1
  Al  Al199  1  0.83004403  0.32461534  0.49937182  1
  Al  Al200  1  0.82293553  0.50405242  0.32495825  1
  Al  Al201  1  0.67685786  0.49933044  0.82473408  1
  Al  Al202  1  0.32435173  0.32096862  0.50010411  1
  Al  Al203  1  0.31845410  0.30884852  -0.00066845  1
  Al  Al204  1  0.82586288  0.30928859  0.00032940  1
  Al  Al205  1  0.00073667  0.83385766  0.82310522  1
  Al  Al206  1  0.66820645  0.82630654  0.49788369  1
  Al  Al207  1  0.00072336  0.81617388  0.67321131  1
  Al  Al208  1  0.82393133  0.81689732  0.49934126  1
  Al  Al209  1  0.00181758  0.67488980  0.18907011  1
  Al  Al210  1  0.83257473  0.67634210  0.00087915  1
  Al  Al211  1  0.67176076  -0.00426811  0.66746674  1
  Al  Al212  1  0.49928256  0.17684668  0.82300333  1
  Al  Al213  1  0.00157018  0.18273826  0.67531160  1
  Al  Al214  1  0.32358188  0.81813590  0.00061109  1
  Al  Al215  1  0.67203752  0.32037429  0.49926581  1
  Al  Al216  1  0.49886669  0.31594503  0.31784420  1
  Al  Al217  1  0.32708773  0.00098513  0.17298931  1
  Al  Al218  1  0.18183301  0.67190831  0.49969664  1
  Al  Al219  1  0.18000668  0.18051313  0.00047737  1
  Al  Al220  1  0.67920315  0.50146242  0.66992081  1
  Al  Al221  1  0.00039502  0.83239157  0.17880944  1
  Al  Al222  1  0.67780637  0.33271428  0.00137490  1
  Al  Al223  1  0.32586274  0.00191254  0.82358025  1
  Al  Al224  1  0.18151269  0.50011022  0.18324074  1
  Al  Al225  1  0.68342809  0.17465319  0.00286142  1
  Al  Al226  1  0.18751324  0.50133085  0.67079995  1
  Al  Al227  1  0.00047984  0.17859299  0.32068499  1
  Al  Al228  1  0.82653146  -0.00063447  0.82579711  1
  Al  Al229  1  0.67680471  0.50154155  0.17909885  1
  Al  Al230  1  0.67152961  -0.00048294  0.82886589  1
  Al  Al231  1  0.18358398  0.50153406  0.82247621  1
  Al  Al232  1  0.82842872  0.00025345  0.67085760  1
  Al  Al233  1  0.49849764  0.31963181  0.68869348  1
  Al  Al234  1  0.81318679  -0.00099033  0.18615945  1
  Al  Al235  1  0.17784991  0.67944406  -0.00047386  1
  Al  Al236  1  0.68318738  0.67545996  0.49992533  1
  Al  Al237  1  0.00077415  0.16983129  0.82849270  1
  Al  Al238  1  0.00027967  0.67494891  0.81428551  1
  Au  Au239  1  0.66608677  0.50098327  0.17256574  1
  Au  Au240  1  0.82862470  0.82893299  0.49940042  1
  Au  Au241  1  0.50042429  0.67689109  0.32635229  1
  Au  Au242  1  0.00007261  0.16239758  0.17105747  1
  Au  Au243  1  0.00351664  0.33340308  0.66947415  1
  Au  Au244  1  0.17301431  0.33812991  0.00153107  1
  Au  Au245  1  0.32164637  0.33330893  0.50166844  1
  Au  Au246  1  0.00497706  0.82402309  0.16457992  1
  Au  Au247  1  0.82722723  0.34014070  0.50416688  1
  Au  Au248  1  0.16596405  0.00057022  0.33340066  1
  Au  Au249  1  0.33490191  -0.00033858  0.83193350  1
  Au  Au250  1  0.16529892  0.67594422  -0.00034463  1
  Au  Au251  1  0.49793459  0.67373653  0.82284211  1
  Au  Au252  1  -0.00046409  0.66457865  0.66368256  1
  Au  Au253  1  0.31971189  0.16434001  0.49840075  1
  Au  Au254  1  0.66637829  0.49892022  0.33487485  1
  Au  Au255  1  0.49858335  0.16692727  0.32576358  1
  Au  Au256  1  0.66427775  0.49673744  0.82422705  1
  Au  Au257  1  0.67111716  -0.00376644  0.32773089  1
  Au  Au258  1  0.33601945  0.49988571  0.33237940  1
  Au  Au259  1  0.33113898  0.67459128  0.50309832  1
  Au  Au260  1  0.67519897  -0.00751574  0.65125419  1
  Au  Au261  1  0.83150358  0.49897583  0.16091758  1
  Au  Au262  1  0.17118961  0.50147644  0.82592273  1
  Au  Au263  1  0.33706730  -0.00504983  0.66687920  1
  Au  Au264  1  0.82893097  0.84127930  -0.00259838  1
  Au  Au265  1  0.49718182  0.32710653  0.16984265  1
  Au  Au266  1  0.00355370  0.32591028  0.33868016  1
  Au  Au267  1  0.00063104  0.82632529  0.83836068  1
  Au  Au268  1  0.66127620  0.83862420  0.00590989  1
  Au  Au269  1  0.16276913  0.00173560  0.66341009  1
  Au  Au270  1  0.32862472  0.49919100  0.16335410  1
  Au  Au271  1  0.50086207  0.18032314  0.83519915  1
  Au  Au272  1  0.18266360  0.16809020  -0.00078938  1
  Au  Au273  1  0.84856005  0.67120487  -0.00054553  1
  Au  Au274  1  0.33940998  0.66386049  -0.00387178  1
  Au  Au275  1  0.16334783  0.50238718  0.33164949  1
  Au  Au276  1  0.32375658  0.83081736  0.00252682  1
  Au  Au277  1  0.66350568  0.32415918  -0.00220539  1
  Au  Au278  1  0.49879129  0.17386716  0.66243671  1
  Au  Au279  1  0.83705438  0.49928399  0.82327852  1
  Au  Au280  1  0.65823847  0.66564342  0.00111190  1
  Au  Au281  1  0.67228177  0.00283680  0.84530311  1
  Au  Au282  1  0.82349229  0.00049245  0.17260903  1
  Au  Au283  1  0.34203805  0.00058059  0.16667312  1
  Au  Au284  1  0.83073502  0.50089487  0.33416074  1
  Au  Au285  1  0.16809586  0.00046322  0.83357041  1
  Au  Au286  1  0.00041867  0.33386373  0.16690417  1
  Au  Au287  1  0.66889661  0.17003820  0.49702286  1
