# generated using pymatgen
data_Ca24Ti8Al207Au49
_symmetry_space_group_name_H-M   'P 1'
_cell_length_a   17.32320010
_cell_length_b   17.32299676
_cell_length_c   17.32244816
_cell_angle_alpha   89.99921458
_cell_angle_beta   90.00167263
_cell_angle_gamma   90.00127153
_symmetry_Int_Tables_number   1
_chemical_formula_structural   Ca24Ti8Al207Au49
_chemical_formula_sum   'Ca24 Ti8 Al207 Au49'
_cell_volume   5198.28894515
_cell_formula_units_Z   1
loop_
 _symmetry_equiv_pos_site_id
 _symmetry_equiv_pos_as_xyz
  1  'x, y, z'
loop_
 _atom_site_type_symbol
 _atom_site_label
 _atom_site_symmetry_multiplicity
 _atom_site_fract_x
 _atom_site_fract_y
 _atom_site_fract_z
 _atom_site_occupancy
  Ca  Ca0  1  0.25262657  0.00189222  -0.00345148  1
  Ca  Ca1  1  0.24967340  -0.00374035  0.50363994  1
  Ca  Ca2  1  0.24704523  0.49491677  -0.00596900  1
  Ca  Ca3  1  0.24896160  0.49984522  0.50986361  1
  Ca  Ca4  1  0.75396879  0.00281074  0.00026852  1
  Ca  Ca5  1  0.74950613  -0.00768915  0.49928395  1
  Ca  Ca6  1  0.75582056  0.49835190  0.00350795  1
  Ca  Ca7  1  0.75160786  0.50646872  0.50169154  1
  Ca  Ca8  1  0.00273113  0.25142869  -0.00298494  1
  Ca  Ca9  1  -0.00189522  0.24658760  0.50135807  1
  Ca  Ca10  1  -0.00030679  0.75031835  -0.00211371  1
  Ca  Ca11  1  -0.00170877  0.74953013  0.50093286  1
  Ca  Ca12  1  0.49802206  0.24791421  -0.00253973  1
  Ca  Ca13  1  0.49933974  0.24691485  0.49904820  1
  Ca  Ca14  1  0.50190089  0.75165681  -0.00140800  1
  Ca  Ca15  1  0.50139727  0.75473288  0.50259197  1
  Ca  Ca16  1  0.00181766  -0.00771624  0.24848499  1
  Ca  Ca17  1  0.00124470  0.00065997  0.75045879  1
  Ca  Ca18  1  -0.00333925  0.50844944  0.24587069  1
  Ca  Ca19  1  -0.00032683  0.50186928  0.75287350  1
  Ca  Ca20  1  0.49829848  0.00012509  0.24928648  1
  Ca  Ca21  1  0.49865256  -0.00154902  0.74798337  1
  Ca  Ca22  1  0.50278907  0.50019290  0.24818142  1
  Ca  Ca23  1  0.49746314  0.49977467  0.75132098  1
  Ti  Ti24  1  0.25312397  0.24864698  0.24823932  1
  Ti  Ti25  1  0.24872182  0.25040108  0.75097075  1
  Ti  Ti26  1  0.25166698  0.75204217  0.24927211  1
  Ti  Ti27  1  0.24838983  0.75044678  0.75040347  1
  Ti  Ti28  1  0.74845674  0.25077875  0.24659215  1
  Ti  Ti29  1  0.75263368  0.25004680  0.75171442  1
  Ti  Ti30  1  0.74896646  0.74936836  0.25169649  1
  Ti  Ti31  1  0.75167713  0.75023917  0.74704960  1
  Al  Al32  1  0.08755609  0.08413181  0.07511730  1
  Al  Al33  1  0.08978584  0.08070423  0.59052380  1
  Al  Al34  1  0.06809767  0.58827910  0.08389902  1
  Al  Al35  1  0.08649521  0.58617417  0.59744796  1
  Al  Al36  1  0.57386042  0.08555519  0.08877110  1
  Al  Al37  1  0.57387545  0.07210663  0.58350238  1
  Al  Al38  1  0.58027937  0.58219503  0.07841520  1
  Al  Al39  1  0.58506517  0.59360167  0.58586595  1
  Al  Al40  1  0.41633870  0.40938744  0.07496515  1
  Al  Al41  1  0.41353478  0.41959904  0.60318312  1
  Al  Al42  1  0.41225916  0.91901997  0.09921928  1
  Al  Al43  1  0.41860064  0.91322190  0.58946360  1
  Al  Al44  1  0.91544891  0.41592650  0.07455010  1
  Al  Al45  1  0.92787731  0.41145846  0.59163162  1
  Al  Al46  1  0.91993497  0.90369700  0.08113173  1
  Al  Al47  1  0.91538967  0.90996638  0.58335068  1
  Al  Al48  1  0.41122345  0.08060059  0.39954256  1
  Al  Al49  1  0.41075832  0.07935650  0.91421896  1
  Al  Al50  1  0.42609117  0.58030787  0.42228470  1
  Al  Al51  1  0.41263071  0.57726946  0.91609713  1
  Al  Al52  1  0.92109157  0.06983144  0.42378500  1
  Al  Al53  1  0.91765121  0.08237717  0.91519217  1
  Al  Al54  1  0.91050344  0.59143733  0.42036928  1
  Al  Al55  1  0.91575055  0.60031887  0.91677587  1
  Al  Al56  1  0.07409827  0.42898842  0.42642965  1
  Al  Al57  1  0.08505489  0.40764620  0.90702496  1
  Al  Al58  1  0.08153584  0.91352063  0.41252770  1
  Al  Al59  1  0.08366564  0.91734256  0.90183788  1
  Al  Al60  1  0.57759323  0.42067262  0.42059901  1
  Al  Al61  1  0.58899401  0.41763708  0.90799640  1
  Al  Al62  1  0.58443561  0.91165891  0.42373874  1
  Al  Al63  1  0.57502207  0.92180430  0.91794781  1
  Al  Al64  1  0.08658101  0.07530078  0.42497652  1
  Al  Al65  1  0.09335802  0.08103861  0.91217860  1
  Al  Al66  1  0.07617571  0.58754927  0.42349130  1
  Al  Al67  1  0.07645265  0.58439098  0.90585670  1
  Al  Al68  1  0.56950360  0.07754719  0.41169728  1
  Al  Al69  1  0.57856214  0.07799874  0.91890187  1
  Al  Al70  1  0.58787543  0.59318999  0.42708180  1
  Al  Al71  1  0.58833937  0.57643517  0.91083786  1
  Al  Al72  1  0.42313442  0.42017293  0.41921880  1
  Al  Al73  1  0.41103793  0.41377733  0.91324245  1
  Al  Al74  1  0.41180761  0.92036626  0.41196387  1
  Al  Al75  1  0.41146049  0.91963945  0.90959426  1
  Al  Al76  1  0.91556595  0.42982251  0.42220531  1
  Al  Al77  1  0.92334503  0.40723159  0.91456569  1
  Al  Al78  1  0.91709622  0.90719066  0.41795753  1
  Al  Al79  1  0.92129257  0.90453947  0.91307382  1
  Al  Al80  1  0.08176641  0.41157899  0.06663875  1
  Al  Al81  1  0.08674709  0.42391224  0.60355688  1
  Al  Al82  1  0.07749580  0.91477327  0.08937817  1
  Al  Al83  1  0.08727185  0.91793498  0.59379578  1
  Al  Al84  1  0.57706825  0.41664500  0.07871674  1
  Al  Al85  1  0.57313367  0.41523796  0.59482344  1
  Al  Al86  1  0.57116535  0.91628441  0.08978616  1
  Al  Al87  1  0.58328700  0.90606251  0.58597801  1
  Al  Al88  1  0.41273317  0.08272906  0.09424267  1
  Al  Al89  1  0.41358773  0.07652031  0.58823545  1
  Al  Al90  1  0.42016449  0.58652218  0.07727945  1
  Al  Al91  1  0.42013573  0.57989209  0.59594275  1
  Al  Al92  1  0.92255848  0.08202637  0.07522210  1
  Al  Al93  1  0.92291159  0.08024298  0.58676910  1
  Al  Al94  1  0.90971732  0.59892247  0.08055564  1
  Al  Al95  1  0.92431998  0.59321731  0.58309820  1
  Al  Al96  1  0.25556713  0.13211896  0.13255379  1
  Al  Al97  1  0.24851658  0.13413174  0.63846901  1
  Al  Al98  1  0.25421816  0.64123969  0.13746866  1
  Al  Al99  1  0.24817220  0.63162671  0.63942581  1
  Al  Al100  1  0.74700049  0.14076640  0.12751790  1
  Al  Al101  1  0.75420829  0.13858149  0.63387464  1
  Al  Al102  1  0.75296376  0.63293299  0.13717257  1
  Al  Al103  1  0.75045794  0.63556105  0.63506066  1
  Al  Al104  1  0.25275054  0.36291901  0.13428058  1
  Al  Al105  1  0.24765083  0.37073760  0.63768325  1
  Al  Al106  1  0.25663492  0.86795549  0.13278451  1
  Al  Al107  1  0.24302081  0.86511482  0.63789718  1
  Al  Al108  1  0.75098039  0.36743321  0.13113566  1
  Al  Al109  1  0.75423220  0.36657184  0.63886935  1
  Al  Al110  1  0.75063975  0.85867030  0.13855854  1
  Al  Al111  1  0.75343032  0.86103650  0.62788320  1
  Al  Al112  1  0.25477762  0.12799102  0.36167024  1
  Al  Al113  1  0.24923066  0.13266459  0.86316831  1
  Al  Al114  1  0.25189638  0.63865056  0.36252240  1
  Al  Al115  1  0.24586068  0.63558245  0.86156159  1
  Al  Al116  1  0.74976751  0.13492433  0.36275147  1
  Al  Al117  1  0.75433626  0.13797245  0.87034954  1
  Al  Al118  1  0.75112660  0.63868067  0.36421749  1
  Al  Al119  1  0.75402030  0.63748104  0.86172235  1
  Al  Al120  1  0.25377930  0.36894359  0.36156547  1
  Al  Al121  1  0.24628755  0.36653239  0.86304576  1
  Al  Al122  1  0.25246932  0.86972062  0.35998855  1
  Al  Al123  1  0.24911147  0.86920032  0.86221011  1
  Al  Al124  1  0.75145054  0.36494183  0.36425067  1
  Al  Al125  1  0.75235628  0.36419430  0.86393620  1
  Al  Al126  1  0.74833950  0.85897533  0.36969958  1
  Al  Al127  1  0.75304808  0.86049942  0.86269779  1
  Al  Al128  1  0.13768170  0.25062397  0.13408515  1
  Al  Al129  1  0.13155197  0.25065397  0.64228299  1
  Al  Al130  1  0.13292062  0.75236662  0.13472922  1
  Al  Al131  1  0.13181629  0.74707000  0.63922629  1
  Al  Al132  1  0.62853850  0.24954986  0.13084627  1
  Al  Al133  1  0.63539881  0.25658847  0.64006065  1
  Al  Al134  1  0.62968921  0.75050682  0.13554914  1
  Al  Al135  1  0.63466585  0.75409495  0.63417682  1
  Al  Al136  1  0.14258718  0.24693734  0.36550680  1
  Al  Al137  1  0.13328778  0.25696411  0.86239935  1
  Al  Al138  1  0.13724824  0.75368804  0.36535182  1
  Al  Al139  1  0.12982127  0.74972993  0.86247014  1
  Al  Al140  1  0.63527299  0.25212762  0.36478882  1
  Al  Al141  1  0.63541035  0.25110024  0.86436619  1
  Al  Al142  1  0.62851661  0.75120649  0.36552999  1
  Al  Al143  1  0.63179822  0.74773511  0.85982965  1
  Al  Al144  1  0.37201781  0.24531765  0.13644522  1
  Al  Al145  1  0.36158372  0.25022385  0.63878125  1
  Al  Al146  1  0.37286129  0.75587459  0.13776775  1
  Al  Al147  1  0.36275929  0.75383833  0.63746639  1
  Al  Al148  1  0.86422191  0.25161993  0.12878619  1
  Al  Al149  1  0.86930182  0.25231180  0.63632736  1
  Al  Al150  1  0.86841010  0.74741341  0.13459298  1
  Al  Al151  1  0.86719764  0.74844417  0.63038358  1
  Al  Al152  1  0.36359114  0.24654205  0.36591052  1
  Al  Al153  1  0.36312946  0.25020422  0.86145489  1
  Al  Al154  1  0.37260041  0.75599686  0.36173397  1
  Al  Al155  1  0.36408056  0.75324154  0.86248525  1
  Al  Al156  1  0.86064051  0.25010470  0.36975231  1
  Al  Al157  1  0.86898261  0.25180957  0.86812346  1
  Al  Al158  1  0.86537474  0.74787728  0.37211504  1
  Al  Al159  1  0.87097861  0.74827253  0.86057714  1
  Al  Al160  1  0.13936744  0.13461160  0.24792089  1
  Al  Al161  1  0.13522842  0.12978708  0.75264455  1
  Al  Al162  1  0.12991458  0.63795893  0.25171016  1
  Al  Al163  1  0.13262112  0.63084466  0.74877656  1
  Al  Al164  1  0.63606806  0.13500511  0.24709692  1
  Al  Al165  1  0.63864899  0.13492295  0.74838042  1
  Al  Al166  1  0.63115549  0.63727345  0.24763426  1
  Al  Al167  1  0.63820764  0.63177021  0.74884364  1
  Al  Al168  1  0.36551193  0.12860580  0.24655470  1
  Al  Al169  1  0.36280966  0.13036427  0.75256782  1
  Al  Al170  1  0.37198965  0.63671822  0.24986419  1
  Al  Al171  1  0.36391909  0.63456516  0.74840214  1
  Al  Al172  1  0.86175676  0.13965407  0.24695958  1
  Al  Al173  1  0.86588638  0.13108592  0.75150940  1
  Al  Al174  1  0.87140629  0.64082020  0.24869097  1
  Al  Al175  1  0.87263383  0.63671434  0.74835584  1
  Al  Al176  1  0.13787007  0.36386291  0.25122355  1
  Al  Al177  1  0.13322879  0.37032723  0.74922783  1
  Al  Al178  1  0.13512929  0.86582848  0.24629780  1
  Al  Al179  1  0.13226216  0.86800697  0.75369333  1
  Al  Al180  1  0.62999553  0.36252714  0.24426642  1
  Al  Al181  1  0.63824196  0.37110049  0.75107486  1
  Al  Al182  1  0.63022221  0.86276343  0.25214129  1
  Al  Al183  1  0.63473761  0.86477731  0.74569913  1
  Al  Al184  1  0.37175830  0.36289762  0.24847631  1
  Al  Al185  1  0.36382763  0.36667181  0.74814586  1
  Al  Al186  1  0.36930505  0.86923335  0.24997805  1
  Al  Al187  1  0.36578797  0.86706678  0.74886617  1
  Al  Al188  1  0.86124539  0.36434501  0.24466489  1
  Al  Al189  1  0.87198973  0.36707640  0.75224565  1
  Al  Al190  1  0.86496055  0.85827539  0.24914677  1
  Al  Al191  1  0.86537648  0.86780413  0.75005013  1
  Al  Al192  1  0.49985436  0.17977576  0.30986967  1
  Al  Al193  1  0.00453401  0.17937571  0.82194919  1
  Al  Al194  1  0.32487605  0.68280776  -0.00127578  1
  Al  Al195  1  0.00031142  0.81769356  0.31380636  1
  Al  Al196  1  0.68005103  0.00011981  0.82545231  1
  Al  Al197  1  0.67856569  -0.00173378  0.67150010  1
  Al  Al198  1  0.67161613  -0.00116993  0.17478293  1
  Al  Al199  1  0.31634934  0.50006391  0.81281306  1
  Al  Al200  1  0.32899645  0.50152918  0.17149044  1
  Al  Al201  1  -0.00097211  0.81312057  0.68888719  1
  Al  Al202  1  0.82367338  0.00076516  0.16942307  1
  Al  Al203  1  0.32954931  0.32458647  0.50384913  1
  Al  Al204  1  0.18085255  0.17309794  0.50184981  1
  Al  Al205  1  0.82443044  0.50355249  0.67064995  1
  Al  Al206  1  0.67008250  0.83012221  0.00119999  1
  Al  Al207  1  0.31880853  0.82819560  0.49959939  1
  Al  Al208  1  0.00152808  0.17325870  0.17198821  1
  Al  Al209  1  0.31084155  0.31487031  -0.00199811  1
  Al  Al210  1  0.33033241  0.67613735  0.50229932  1
  Al  Al211  1  -0.00297094  0.33170061  0.32692598  1
  Al  Al212  1  0.82710036  0.50366320  0.31707108  1
  Al  Al213  1  0.67186669  -0.00235070  0.32850360  1
  Al  Al214  1  0.67209710  0.50058619  0.32322876  1
  Al  Al215  1  0.16972753  0.50117031  0.16988469  1
  Al  Al216  1  0.67862091  0.33316859  0.50324729  1
  Al  Al217  1  0.67305668  0.16794310  0.49906240  1
  Al  Al218  1  0.69215290  0.69542188  0.50030848  1
  Al  Al219  1  0.50054694  0.69099546  0.68358144  1
  Al  Al220  1  0.17987767  0.50342044  0.33195052  1
  Al  Al221  1  0.17289020  0.68078378  0.50265271  1
  Al  Al222  1  0.18283333  0.18891856  -0.00223997  1
  Al  Al223  1  0.16899530  0.67228425  -0.00091317  1
  Al  Al224  1  0.31391257  -0.00231485  0.68392044  1
  Al  Al225  1  0.67963824  0.32510959  -0.00379072  1
  Al  Al226  1  0.82480351  0.80983176  -0.00176357  1
  Al  Al227  1  0.82547088  -0.00369312  0.32623046  1
  Al  Al228  1  0.17446034  0.82962261  -0.00135277  1
  Al  Al229  1  0.16625340  0.32771724  0.50238551  1
  Al  Al230  1  0.50004185  0.17286106  0.82725307  1
  Al  Al231  1  0.00045612  0.32615908  0.16868808  1
  Al  Al232  1  0.00075398  0.16866018  0.33000579  1
  Al  Al233  1  0.50020520  0.32708345  0.81497264  1
  Al  Al234  1  0.49991285  0.82099305  0.81942112  1
  Al  Al235  1  0.82302291  0.50054501  0.83213409  1
  Al  Al236  1  0.50004570  0.18842355  0.67043610  1
  Al  Al237  1  0.68652447  0.67376153  -0.00146845  1
  Al  Al238  1  0.17800362  0.00001705  0.17914267  1
  Au  Au239  1  0.33244436  0.49700164  0.16036896  1
  Au  Au240  1  0.00079793  0.82658708  0.67860479  1
  Au  Au241  1  0.84023247  0.33343790  0.50182706  1
  Au  Au242  1  0.33938689  0.83284127  0.00276070  1
  Au  Au243  1  0.67477285  0.50468402  0.33949661  1
  Au  Au244  1  0.49842749  0.65894038  0.82827863  1
  Au  Au245  1  -0.00087667  0.67157681  0.32779328  1
  Au  Au246  1  0.18022703  -0.00106858  0.33440790  1
  Au  Au247  1  0.00229070  0.17704113  0.66622446  1
  Au  Au248  1  0.67533023  0.33579301  0.00130275  1
  Au  Au249  1  0.50120385  0.32551617  0.33179747  1
  Au  Au250  1  0.17418299  0.00002844  0.16694931  1
  Au  Au251  1  0.16371494  0.83416575  -0.00595051  1
  Au  Au252  1  0.32817791  0.66073555  0.50738865  1
  Au  Au253  1  0.50198637  0.66997128  0.33225010  1
  Au  Au254  1  0.83618794  0.50363832  0.66331321  1
  Au  Au255  1  0.65972281  0.50194015  0.67648560  1
  Au  Au256  1  0.83689437  0.17881121  -0.00029893  1
  Au  Au257  1  0.68102494  0.65760395  -0.00323825  1
  Au  Au258  1  0.33142986  0.16809092  -0.00009250  1
  Au  Au259  1  0.83914893  -0.00474144  0.17147408  1
  Au  Au260  1  0.83797500  0.16525399  0.49938065  1
  Au  Au261  1  0.66590989  0.15297989  0.49685756  1
  Au  Au262  1  0.00207797  0.17174922  0.83158121  1
  Au  Au263  1  0.50021844  0.67717485  0.16219608  1
  Au  Au264  1  0.00074264  0.15259479  0.32431402  1
  Au  Au265  1  0.17035757  0.65950958  -0.00055213  1
  Au  Au266  1  0.82165890  0.81860216  0.49865264  1
  Au  Au267  1  0.66605421  0.16161383  -0.00004579  1
  Au  Au268  1  0.49874990  0.32086510  0.16357636  1
  Au  Au269  1  0.82895296  -0.00558897  0.83768953  1
  Au  Au270  1  0.67439915  0.84643791  0.00465957  1
  Au  Au271  1  0.15098409  0.32770250  0.50815214  1
  Au  Au272  1  0.50164335  0.83334390  0.81650437  1
  Au  Au273  1  0.32846449  0.15372996  0.49709950  1
  Au  Au274  1  -0.00402285  0.34748290  0.32087355  1
  Au  Au275  1  0.15308306  0.49503969  0.16810774  1
  Au  Au276  1  0.16679501  0.83274722  0.50115050  1
  Au  Au277  1  0.49974106  0.83836894  0.32720348  1
  Au  Au278  1  0.66188189  0.33320863  0.50764296  1
  Au  Au279  1  0.66539559  0.49848243  0.16547064  1
  Au  Au280  1  0.33755648  0.50200227  0.33204782  1
  Au  Au281  1  0.83978134  0.50207636  0.16650851  1
  Au  Au282  1  0.16789733  0.49965114  0.82220241  1
  Au  Au283  1  0.82655297  -0.00072987  0.66449032  1
  Au  Au284  1  0.34396675  0.33182595  0.50598688  1
  Au  Au285  1  0.16912624  0.50331821  0.33826996  1
  Au  Au286  1  0.83094136  0.50061015  0.84620688  1
  Au  Au287  1  0.49984900  0.17199723  0.67586225  1
