# generated using pymatgen
data_Ca24Ti8Al207Au49
_symmetry_space_group_name_H-M   'P 1'
_cell_length_a   17.31972889
_cell_length_b   17.32029549
_cell_length_c   17.32065984
_cell_angle_alpha   90.00165756
_cell_angle_beta   89.99896307
_cell_angle_gamma   90.00232881
_symmetry_Int_Tables_number   1
_chemical_formula_structural   Ca24Ti8Al207Au49
_chemical_formula_sum   'Ca24 Ti8 Al207 Au49'
_cell_volume   5195.90041244
_cell_formula_units_Z   1
loop_
 _symmetry_equiv_pos_site_id
 _symmetry_equiv_pos_as_xyz
  1  'x, y, z'
loop_
 _atom_site_type_symbol
 _atom_site_label
 _atom_site_symmetry_multiplicity
 _atom_site_fract_x
 _atom_site_fract_y
 _atom_site_fract_z
 _atom_site_occupancy
  Ca  Ca0  1  0.24663582  0.00292171  -0.00184403  1
  Ca  Ca1  1  0.24620687  0.00186417  0.50212060  1
  Ca  Ca2  1  0.24692601  0.49825512  -0.00687928  1
  Ca  Ca3  1  0.25058020  0.49866213  0.50526801  1
  Ca  Ca4  1  0.75210583  0.00116241  0.00110145  1
  Ca  Ca5  1  0.75201235  0.00445694  0.49777695  1
  Ca  Ca6  1  0.75031642  0.49817241  -0.00316319  1
  Ca  Ca7  1  0.75308837  0.49845265  0.49964001  1
  Ca  Ca8  1  0.00002271  0.25062868  -0.00414061  1
  Ca  Ca9  1  0.00085648  0.24873170  0.50436293  1
  Ca  Ca10  1  0.00121662  0.74907831  -0.00477566  1
  Ca  Ca11  1  -0.00043237  0.75405999  0.50385909  1
  Ca  Ca12  1  0.50339855  0.24945629  -0.00015194  1
  Ca  Ca13  1  0.50002662  0.24938587  0.49836809  1
  Ca  Ca14  1  0.49596541  0.74990228  0.00032600  1
  Ca  Ca15  1  0.50111003  0.74958642  0.50510527  1
  Ca  Ca16  1  -0.00212020  -0.00380379  0.25136505  1
  Ca  Ca17  1  0.00306392  0.00266751  0.74920713  1
  Ca  Ca18  1  0.00192638  0.50180743  0.24892733  1
  Ca  Ca19  1  0.00280266  0.49446280  0.75025079  1
  Ca  Ca20  1  0.50184912  0.00273720  0.25282195  1
  Ca  Ca21  1  0.49825848  0.00510828  0.74954933  1
  Ca  Ca22  1  0.49667004  0.49712190  0.25068131  1
  Ca  Ca23  1  0.49853425  0.49831442  0.75323690  1
  Ti  Ti24  1  0.25047074  0.24894979  0.25002244  1
  Ti  Ti25  1  0.25048225  0.25116901  0.74946581  1
  Ti  Ti26  1  0.24804538  0.75095346  0.24844835  1
  Ti  Ti27  1  0.24736012  0.74870904  0.75179375  1
  Ti  Ti28  1  0.75041105  0.24929658  0.25054171  1
  Ti  Ti29  1  0.75026704  0.25037918  0.74927665  1
  Ti  Ti30  1  0.75104809  0.75118506  0.25026591  1
  Ti  Ti31  1  0.75309988  0.75052465  0.74946814  1
  Al  Al32  1  0.08960036  0.08815569  0.07279372  1
  Al  Al33  1  0.08446024  0.08562005  0.59426072  1
  Al  Al34  1  0.07737034  0.58447624  0.07623979  1
  Al  Al35  1  0.08435243  0.58167504  0.58522656  1
  Al  Al36  1  0.59020614  0.09114375  0.08248695  1
  Al  Al37  1  0.57936571  0.08917084  0.58489804  1
  Al  Al38  1  0.58965136  0.58448702  0.07776072  1
  Al  Al39  1  0.58368900  0.57149815  0.57701911  1
  Al  Al40  1  0.42336531  0.41903332  0.07673940  1
  Al  Al41  1  0.41006666  0.40736334  0.58073453  1
  Al  Al42  1  0.41543510  0.92300825  0.07381866  1
  Al  Al43  1  0.41440615  0.91905677  0.57899973  1
  Al  Al44  1  0.90641472  0.42114855  0.08546826  1
  Al  Al45  1  0.91700367  0.39935558  0.58902549  1
  Al  Al46  1  0.91438079  0.92212541  0.08314524  1
  Al  Al47  1  0.91862560  0.91398980  0.57602839  1
  Al  Al48  1  0.41763893  0.09183026  0.41295428  1
  Al  Al49  1  0.41563798  0.09135746  0.92276950  1
  Al  Al50  1  0.41988335  0.57322440  0.41932648  1
  Al  Al51  1  0.39990432  0.58235501  0.91394157  1
  Al  Al52  1  0.90718419  0.08119103  0.42389138  1
  Al  Al53  1  0.92310834  0.08718221  0.91730192  1
  Al  Al54  1  0.92309045  0.59311465  0.41182666  1
  Al  Al55  1  0.92878700  0.58786897  0.91363351  1
  Al  Al56  1  0.07987831  0.42243705  0.42852399  1
  Al  Al57  1  0.08934664  0.41126394  0.90480236  1
  Al  Al58  1  0.08565192  0.91055571  0.42512646  1
  Al  Al59  1  0.08787611  0.90644340  0.90945574  1
  Al  Al60  1  0.57519215  0.40442835  0.41488818  1
  Al  Al61  1  0.58487441  0.40879547  0.91985492  1
  Al  Al62  1  0.58661190  0.92657295  0.42097729  1
  Al  Al63  1  0.57608027  0.91184434  0.91158101  1
  Al  Al64  1  0.07809243  0.07583016  0.42879786  1
  Al  Al65  1  0.08777997  0.09023739  0.91176096  1
  Al  Al66  1  0.08054618  0.59177969  0.40998973  1
  Al  Al67  1  0.08952922  0.58552595  0.90430370  1
  Al  Al68  1  0.58114434  0.09304675  0.41214875  1
  Al  Al69  1  0.58537405  0.09196093  0.92343758  1
  Al  Al70  1  0.57653257  0.57779183  0.42124220  1
  Al  Al71  1  0.58634332  0.58255736  0.92222880  1
  Al  Al72  1  0.41216801  0.40308370  0.41567282  1
  Al  Al73  1  0.41274412  0.42078836  0.91112827  1
  Al  Al74  1  0.41153936  0.92523487  0.42364063  1
  Al  Al75  1  0.41815955  0.90676674  0.91265907  1
  Al  Al76  1  0.91056520  0.41225962  0.42879862  1
  Al  Al77  1  0.92591721  0.41044591  0.91756710  1
  Al  Al78  1  0.90983213  0.91632899  0.41548509  1
  Al  Al79  1  0.92759162  0.90841523  0.91438235  1
  Al  Al80  1  0.07995508  0.41806983  0.06982458  1
  Al  Al81  1  0.07955561  0.40717732  0.59317280  1
  Al  Al82  1  0.08548905  0.91427572  0.07031322  1
  Al  Al83  1  0.09326172  0.92047946  0.58801064  1
  Al  Al84  1  0.59012509  0.40893227  0.07899727  1
  Al  Al85  1  0.58012083  0.41139616  0.58187937  1
  Al  Al86  1  0.58500428  0.92803265  0.07833027  1
  Al  Al87  1  0.58049681  0.92566646  0.57948609  1
  Al  Al88  1  0.41421617  0.08827807  0.07966420  1
  Al  Al89  1  0.41834082  0.09229623  0.58528077  1
  Al  Al90  1  0.41277622  0.58385366  0.07276130  1
  Al  Al91  1  0.41518893  0.57114314  0.58002974  1
  Al  Al92  1  0.90992690  0.07942644  0.08583136  1
  Al  Al93  1  0.92122647  0.09816620  0.58549882  1
  Al  Al94  1  0.91459685  0.57897622  0.09140595  1
  Al  Al95  1  0.92210750  0.58236814  0.57944209  1
  Al  Al96  1  0.24863234  0.13754527  0.13096613  1
  Al  Al97  1  0.24877969  0.13725405  0.63578733  1
  Al  Al98  1  0.24947854  0.63569970  0.13114688  1
  Al  Al99  1  0.24447776  0.62762217  0.63965114  1
  Al  Al100  1  0.74729445  0.13473402  0.13469239  1
  Al  Al101  1  0.75304062  0.14143642  0.62764415  1
  Al  Al102  1  0.75183802  0.62977690  0.13682671  1
  Al  Al103  1  0.75326082  0.63681842  0.63115654  1
  Al  Al104  1  0.25156302  0.36013401  0.13558373  1
  Al  Al105  1  0.24966288  0.36983091  0.63812854  1
  Al  Al106  1  0.24738536  0.86332402  0.12688092  1
  Al  Al107  1  0.24201115  0.86711200  0.63839177  1
  Al  Al108  1  0.74793820  0.36311931  0.13211453  1
  Al  Al109  1  0.75296807  0.35922385  0.62827831  1
  Al  Al110  1  0.75135969  0.86956276  0.13494514  1
  Al  Al111  1  0.75603813  0.86477815  0.63758507  1
  Al  Al112  1  0.25342446  0.13743191  0.36574360  1
  Al  Al113  1  0.24686828  0.13781896  0.86587195  1
  Al  Al114  1  0.24267681  0.63564291  0.36643217  1
  Al  Al115  1  0.24957907  0.63277430  0.86681185  1
  Al  Al116  1  0.74842924  0.13800091  0.36954065  1
  Al  Al117  1  0.74778052  0.13689144  0.86534432  1
  Al  Al118  1  0.75740646  0.63703756  0.37174953  1
  Al  Al119  1  0.74583810  0.63881023  0.86734914  1
  Al  Al120  1  0.25171942  0.36296413  0.36656220  1
  Al  Al121  1  0.25037522  0.36852518  0.86381154  1
  Al  Al122  1  0.24479366  0.86389805  0.36704509  1
  Al  Al123  1  0.24525761  0.86150942  0.87304925  1
  Al  Al124  1  0.75230329  0.36336683  0.37058881  1
  Al  Al125  1  0.74786619  0.36053325  0.86938708  1
  Al  Al126  1  0.75202353  0.86506408  0.36710533  1
  Al  Al127  1  0.75478911  0.86558473  0.86241562  1
  Al  Al128  1  0.13090162  0.24840210  0.13601413  1
  Al  Al129  1  0.12996845  0.25227975  0.63916531  1
  Al  Al130  1  0.13529402  0.75021838  0.13266927  1
  Al  Al131  1  0.13442012  0.74898338  0.63284140  1
  Al  Al132  1  0.63402940  0.24925484  0.13326624  1
  Al  Al133  1  0.63010225  0.24985904  0.62813498  1
  Al  Al134  1  0.63743440  0.74835765  0.13621574  1
  Al  Al135  1  0.63668808  0.75130450  0.63498701  1
  Al  Al136  1  0.13407250  0.24948293  0.36703381  1
  Al  Al137  1  0.13326650  0.25213504  0.86054761  1
  Al  Al138  1  0.13019414  0.75093233  0.36767274  1
  Al  Al139  1  0.13025818  0.75018283  0.86400387  1
  Al  Al140  1  0.63499193  0.24974069  0.36952570  1
  Al  Al141  1  0.63395496  0.25153227  0.86665993  1
  Al  Al142  1  0.63807603  0.74955310  0.36527210  1
  Al  Al143  1  0.63417893  0.75006438  0.86319381  1
  Al  Al144  1  0.36789841  0.24551238  0.13048327  1
  Al  Al145  1  0.36493883  0.25293917  0.63046486  1
  Al  Al146  1  0.36281192  0.75047047  0.12699048  1
  Al  Al147  1  0.36071130  0.75024638  0.63972758  1
  Al  Al148  1  0.86731644  0.24753103  0.13312237  1
  Al  Al149  1  0.87017858  0.24996297  0.63526741  1
  Al  Al150  1  0.86188301  0.74919130  0.13665231  1
  Al  Al151  1  0.86796449  0.75013962  0.63087686  1
  Al  Al152  1  0.36692324  0.25121939  0.36970920  1
  Al  Al153  1  0.36389231  0.24839469  0.86427639  1
  Al  Al154  1  0.35970023  0.75102741  0.36258992  1
  Al  Al155  1  0.35955216  0.74781665  0.87127099  1
  Al  Al156  1  0.86457789  0.25031598  0.36740170  1
  Al  Al157  1  0.86742436  0.25358542  0.86663785  1
  Al  Al158  1  0.86848818  0.75158877  0.36685766  1
  Al  Al159  1  0.86878564  0.74910164  0.86519466  1
  Al  Al160  1  0.13541124  0.13282259  0.24877086  1
  Al  Al161  1  0.13309224  0.13567593  0.74617210  1
  Al  Al162  1  0.13381495  0.63676482  0.25246033  1
  Al  Al163  1  0.13377811  0.63004155  0.75502154  1
  Al  Al164  1  0.63299084  0.13604929  0.25127687  1
  Al  Al165  1  0.63575802  0.13887774  0.74667396  1
  Al  Al166  1  0.63766438  0.63400126  0.24869842  1
  Al  Al167  1  0.63755527  0.63518687  0.74897804  1
  Al  Al168  1  0.36972291  0.13978092  0.25213915  1
  Al  Al169  1  0.36544316  0.13698530  0.74521393  1
  Al  Al170  1  0.36134069  0.63672755  0.24825635  1
  Al  Al171  1  0.36095058  0.62855172  0.75346877  1
  Al  Al172  1  0.86573229  0.13651126  0.24914029  1
  Al  Al173  1  0.86551857  0.13547122  0.74653467  1
  Al  Al174  1  0.86411767  0.63636382  0.25174088  1
  Al  Al175  1  0.86412895  0.63785927  0.75342020  1
  Al  Al176  1  0.13263261  0.36267172  0.25028352  1
  Al  Al177  1  0.13346853  0.36783835  0.75142173  1
  Al  Al178  1  0.13470666  0.86715198  0.25321493  1
  Al  Al179  1  0.12987861  0.86136653  0.75096131  1
  Al  Al180  1  0.63684891  0.36105846  0.25211543  1
  Al  Al181  1  0.63731753  0.36091655  0.74538027  1
  Al  Al182  1  0.63897053  0.87164851  0.24702301  1
  Al  Al183  1  0.63705807  0.86417499  0.75326322  1
  Al  Al184  1  0.36643180  0.36120266  0.25337574  1
  Al  Al185  1  0.36362684  0.36795460  0.74814795  1
  Al  Al186  1  0.36096271  0.86399927  0.24627246  1
  Al  Al187  1  0.36184073  0.86255529  0.75578276  1
  Al  Al188  1  0.86351427  0.36473611  0.24449321  1
  Al  Al189  1  0.86945534  0.36066355  0.74912211  1
  Al  Al190  1  0.86685410  0.86515156  0.25241846  1
  Al  Al191  1  0.87312477  0.86543505  0.75007854  1
  Al  Al192  1  0.00031567  0.82785161  0.17510425  1
  Al  Al193  1  0.49903504  0.32674843  0.81801807  1
  Al  Al194  1  0.17431544  0.31241363  -0.00150037  1
  Al  Al195  1  0.82849684  0.49914575  0.31882218  1
  Al  Al196  1  0.17285001  -0.00111124  0.81474656  1
  Al  Al197  1  -0.00047900  0.67261731  0.18223744  1
  Al  Al198  1  0.81917965  0.66566279  0.00075756  1
  Al  Al199  1  0.67538265  0.49745913  0.67345690  1
  Al  Al200  1  0.49674397  0.67178602  0.16994425  1
  Al  Al201  1  0.50191072  0.82998080  0.17239248  1
  Al  Al202  1  0.49880639  0.67370647  0.67397308  1
  Al  Al203  1  0.67476345  0.00194320  0.83038717  1
  Al  Al204  1  0.82570399  0.82561649  -0.00004101  1
  Al  Al205  1  0.18220670  0.68346239  -0.00276368  1
  Al  Al206  1  0.83199918  0.00169409  0.67270309  1
  Al  Al207  1  0.18180266  0.32636204  0.50315711  1
  Al  Al208  1  0.17899980  0.17433094  0.50251167  1
  Al  Al209  1  0.32755185  0.49843618  0.17191514  1
  Al  Al210  1  0.67035347  0.49835164  0.32103766  1
  Al  Al211  1  0.32600377  0.31795166  -0.00135275  1
  Al  Al212  1  0.32180912  0.00081951  0.32503940  1
  Al  Al213  1  0.50048818  0.83272025  0.68738240  1
  Al  Al214  1  0.17088131  -0.00150602  0.17502620  1
  Al  Al215  1  0.81823247  0.00169596  0.31505777  1
  Al  Al216  1  0.32891351  0.00301117  0.82795910  1
  Al  Al217  1  0.49712654  0.67979406  0.83248733  1
  Al  Al218  1  0.82591584  0.49879195  0.82969062  1
  Al  Al219  1  0.32695503  0.00248256  0.17290890  1
  Al  Al220  1  0.67528783  0.00247737  0.67425909  1
  Al  Al221  1  0.67253539  0.49798990  0.82676200  1
  Al  Al222  1  0.49938777  0.83065748  0.33247997  1
  Al  Al223  1  0.50005312  0.17430612  0.81998457  1
  Al  Al224  1  0.82194740  0.17996543  -0.00021955  1
  Al  Al225  1  0.50002815  0.32059884  0.18341594  1
  Al  Al226  1  -0.00051147  0.33070058  0.32561587  1
  Al  Al227  1  0.31263102  0.82665656  0.50232372  1
  Al  Al228  1  -0.00211107  0.16871171  0.32581780  1
  Al  Al229  1  0.31934282  0.67217053  0.50146108  1
  Al  Al230  1  0.32313924  0.49913466  0.32690207  1
  Al  Al231  1  0.82810619  0.49785500  0.66966366  1
  Al  Al232  1  0.31562654  0.00061837  0.67080724  1
  Al  Al233  1  0.00025228  0.67990482  0.68766714  1
  Al  Al234  1  0.49865351  0.67278071  0.32595421  1
  Al  Al235  1  0.68203826  0.82320948  0.50162759  1
  Al  Al236  1  -0.00050198  0.18550626  0.81368589  1
  Al  Al237  1  0.17160012  0.50059505  0.17696233  1
  Al  Al238  1  0.66914647  0.81345774  -0.00038885  1
  Au  Au239  1  0.15867076  0.67870539  0.50021857  1
  Au  Au240  1  0.00277588  0.83923604  0.67250773  1
  Au  Au241  1  0.67630054  0.33384306  0.49863511  1
  Au  Au242  1  0.32674773  0.00023640  0.66499951  1
  Au  Au243  1  0.81860937  0.16775306  0.00127021  1
  Au  Au244  1  0.50152214  0.33598613  0.17678212  1
  Au  Au245  1  0.17405890  -0.00162036  0.16248490  1
  Au  Au246  1  0.33287453  0.49742669  0.67721538  1
  Au  Au247  1  0.49730180  0.83353289  0.16095428  1
  Au  Au248  1  0.17448627  0.49945422  0.34358087  1
  Au  Au249  1  0.68000837  0.49796088  0.15538937  1
  Au  Au250  1  0.50040157  0.16149694  0.17565379  1
  Au  Au251  1  0.67343890  0.16650831  0.50089154  1
  Au  Au252  1  0.50021781  0.84047674  0.67196026  1
  Au  Au253  1  0.33081781  0.17832068  0.49938377  1
  Au  Au254  1  -0.00180539  0.66389067  0.68262100  1
  Au  Au255  1  -0.00029875  0.82296070  0.15867560  1
  Au  Au256  1  0.32548069  0.00251641  0.84004217  1
  Au  Au257  1  0.16558433  0.49665430  0.67677769  1
  Au  Au258  1  0.66921271  0.83066110  -0.00238122  1
  Au  Au259  1  0.67085949  0.00486522  0.32896805  1
  Au  Au260  1  0.82272530  0.33437831  0.00029115  1
  Au  Au261  1  0.83954745  -0.00371851  0.83578970  1
  Au  Au262  1  0.65415735  0.49632052  0.32605912  1
  Au  Au263  1  0.16710554  0.67571370  -0.00313039  1
  Au  Au264  1  0.49759033  0.32242087  0.66841900  1
  Au  Au265  1  0.33548656  0.67445962  0.49668595  1
  Au  Au266  1  0.84152213  0.50003377  0.32910536  1
  Au  Au267  1  0.68074588  0.00315903  0.16461168  1
  Au  Au268  1  0.32672445  0.82747085  -0.00059276  1
  Au  Au269  1  0.82935191  0.00308532  0.66018268  1
  Au  Au270  1  -0.00094725  0.82394424  0.34157929  1
  Au  Au271  1  -0.00183141  0.33566067  0.16155762  1
  Au  Au272  1  0.66226260  0.00322086  0.82746379  1
  Au  Au273  1  0.49585882  0.82516165  0.34841407  1
  Au  Au274  1  0.83546810  0.67091556  0.00110756  1
  Au  Au275  1  0.68086594  0.83978268  0.50630033  1
  Au  Au276  1  0.00115290  0.16537464  0.16083210  1
  Au  Au277  1  0.17255563  -0.00073704  0.34021916  1
  Au  Au278  1  -0.00159933  0.16117360  0.33579433  1
  Au  Au279  1  0.32922006  0.33033751  -0.00184215  1
  Au  Au280  1  0.50148750  0.66077693  0.16635738  1
  Au  Au281  1  0.50289521  0.66105678  0.66268529  1
  Au  Au282  1  0.49647946  0.67410796  0.84797642  1
  Au  Au283  1  0.67095734  0.66270732  0.49812115  1
  Au  Au284  1  0.83966191  0.67620966  0.50008331  1
  Au  Au285  1  0.00180209  0.33304497  0.33760395  1
  Au  Au286  1  0.17391561  0.49696584  0.16047494  1
  Au  Au287  1  0.84067389  0.49851909  0.82255449  1
