# generated using pymatgen
data_Ca24Ti8Al207Au49
_symmetry_space_group_name_H-M   'P 1'
_cell_length_a   17.31989246
_cell_length_b   17.32091585
_cell_length_c   17.31876518
_cell_angle_alpha   90.00289979
_cell_angle_beta   90.00284317
_cell_angle_gamma   90.00234604
_symmetry_Int_Tables_number   1
_chemical_formula_structural   Ca24Ti8Al207Au49
_chemical_formula_sum   'Ca24 Ti8 Al207 Au49'
_cell_volume   5195.56718730
_cell_formula_units_Z   1
loop_
 _symmetry_equiv_pos_site_id
 _symmetry_equiv_pos_as_xyz
  1  'x, y, z'
loop_
 _atom_site_type_symbol
 _atom_site_label
 _atom_site_symmetry_multiplicity
 _atom_site_fract_x
 _atom_site_fract_y
 _atom_site_fract_z
 _atom_site_occupancy
  Ca  Ca0  1  0.24705305  -0.00283139  -0.00265037  1
  Ca  Ca1  1  0.25186203  0.00368165  0.50152202  1
  Ca  Ca2  1  0.24840221  0.50627881  0.00055014  1
  Ca  Ca3  1  0.24925902  0.49891380  0.49664772  1
  Ca  Ca4  1  0.75301080  0.00001557  -0.00148624  1
  Ca  Ca5  1  0.74883630  0.00060317  0.49974187  1
  Ca  Ca6  1  0.75466661  0.50060270  0.00319443  1
  Ca  Ca7  1  0.75420790  0.49986074  0.49731895  1
  Ca  Ca8  1  -0.00338669  0.24620300  0.00299504  1
  Ca  Ca9  1  -0.00035363  0.25279494  0.49411104  1
  Ca  Ca10  1  -0.00099990  0.75394277  0.00230318  1
  Ca  Ca11  1  -0.00416417  0.75134221  0.49649478  1
  Ca  Ca12  1  0.50300870  0.24415082  0.00027778  1
  Ca  Ca13  1  0.50180400  0.24658805  0.50014067  1
  Ca  Ca14  1  0.49922175  0.75498042  -0.00218490  1
  Ca  Ca15  1  0.50626326  0.75306039  0.49886094  1
  Ca  Ca16  1  -0.00055370  -0.00119773  0.25007633  1
  Ca  Ca17  1  -0.00247488  0.00115784  0.75352690  1
  Ca  Ca18  1  -0.00370794  0.49976302  0.25253640  1
  Ca  Ca19  1  -0.00219454  0.49800875  0.75105662  1
  Ca  Ca20  1  0.49991099  0.00403040  0.25016651  1
  Ca  Ca21  1  0.50260142  -0.00107015  0.74076671  1
  Ca  Ca22  1  0.50483093  0.49734994  0.25227380  1
  Ca  Ca23  1  0.50193555  0.50244839  0.74622716  1
  Ti  Ti24  1  0.24708882  0.25025590  0.25178763  1
  Ti  Ti25  1  0.24921899  0.24815510  0.74788717  1
  Ti  Ti26  1  0.24837889  0.75062701  0.24643530  1
  Ti  Ti27  1  0.24804114  0.75111832  0.75282351  1
  Ti  Ti28  1  0.75238077  0.24940786  0.25162431  1
  Ti  Ti29  1  0.75048677  0.24739055  0.74778181  1
  Ti  Ti30  1  0.75072421  0.75042558  0.24921383  1
  Ti  Ti31  1  0.75159441  0.74979808  0.75133825  1
  Al  Al32  1  0.08278727  0.07346187  0.09555718  1
  Al  Al33  1  0.08483266  0.08133146  0.58585091  1
  Al  Al34  1  0.08138741  0.58600345  0.08374812  1
  Al  Al35  1  0.07158573  0.57582845  0.57839603  1
  Al  Al36  1  0.59477861  0.08194732  0.08453685  1
  Al  Al37  1  0.58649558  0.08940616  0.58909160  1
  Al  Al38  1  0.59340143  0.58360714  0.08194188  1
  Al  Al39  1  0.58419521  0.59628738  0.58791074  1
  Al  Al40  1  0.42543930  0.41771105  0.08478435  1
  Al  Al41  1  0.41402019  0.40723088  0.57753090  1
  Al  Al42  1  0.40985398  0.91559417  0.08074795  1
  Al  Al43  1  0.40971119  0.92646822  0.58596016  1
  Al  Al44  1  0.91018878  0.41732257  0.08955152  1
  Al  Al45  1  0.91546746  0.41079138  0.57137605  1
  Al  Al46  1  0.91317304  0.91862697  0.07796271  1
  Al  Al47  1  0.90488781  0.91267489  0.57929668  1
  Al  Al48  1  0.42224325  0.08290534  0.41779871  1
  Al  Al49  1  0.41257608  0.07186034  0.90174052  1
  Al  Al50  1  0.41309496  0.56911958  0.41214900  1
  Al  Al51  1  0.40710560  0.58865053  0.91931879  1
  Al  Al52  1  0.92573864  0.09089138  0.41258006  1
  Al  Al53  1  0.90337994  0.08322350  0.91657906  1
  Al  Al54  1  0.91546158  0.59019619  0.41021956  1
  Al  Al55  1  0.91635067  0.58137111  0.92233276  1
  Al  Al56  1  0.08493408  0.41439544  0.40446677  1
  Al  Al57  1  0.07338143  0.42198247  0.91740968  1
  Al  Al58  1  0.08061936  0.92093774  0.40401050  1
  Al  Al59  1  0.09379867  0.91392214  0.92023015  1
  Al  Al60  1  0.57935368  0.41621603  0.41995772  1
  Al  Al61  1  0.58096136  0.42700949  0.92206834  1
  Al  Al62  1  0.58377769  0.91748759  0.42316248  1
  Al  Al63  1  0.59756289  0.92493478  0.91414463  1
  Al  Al64  1  0.08723783  0.08523977  0.40018163  1
  Al  Al65  1  0.08129799  0.07315236  0.90921735  1
  Al  Al66  1  0.07813735  0.57739078  0.40461182  1
  Al  Al67  1  0.08270444  0.58467313  0.92230507  1
  Al  Al68  1  0.58609642  0.08825764  0.42226739  1
  Al  Al69  1  0.59671681  0.08201694  0.91277382  1
  Al  Al70  1  0.58447057  0.57987333  0.42784149  1
  Al  Al71  1  0.59091292  0.59057752  0.92386510  1
  Al  Al72  1  0.39946238  0.40957587  0.41608199  1
  Al  Al73  1  0.41872875  0.42914745  0.92113840  1
  Al  Al74  1  0.41950561  0.91952458  0.42153650  1
  Al  Al75  1  0.39844275  0.91855452  0.91443634  1
  Al  Al76  1  0.91877775  0.41220321  0.41102523  1
  Al  Al77  1  0.91540658  0.41677568  0.92137883  1
  Al  Al78  1  0.91715019  0.90623524  0.41693097  1
  Al  Al79  1  0.90716073  0.91955903  0.91670387  1
  Al  Al80  1  0.07535912  0.42026795  0.08610240  1
  Al  Al81  1  0.07803072  0.41631865  0.57443061  1
  Al  Al82  1  0.09538442  0.91373328  0.08345398  1
  Al  Al83  1  0.08392560  0.92244474  0.58396546  1
  Al  Al84  1  0.58206875  0.42123572  0.09228786  1
  Al  Al85  1  0.57777523  0.41512712  0.58157779  1
  Al  Al86  1  0.59235581  0.92137163  0.08500243  1
  Al  Al87  1  0.59469419  0.92565362  0.58539289  1
  Al  Al88  1  0.42373248  0.07369888  0.08809326  1
  Al  Al89  1  0.42070043  0.08819182  0.59542160  1
  Al  Al90  1  0.40943890  0.58765820  0.07608223  1
  Al  Al91  1  0.42772856  0.58111686  0.58683107  1
  Al  Al92  1  0.91224745  0.08551094  0.08064402  1
  Al  Al93  1  0.91537135  0.08002017  0.58253717  1
  Al  Al94  1  0.91049218  0.58142152  0.09044156  1
  Al  Al95  1  0.90979468  0.59115064  0.57069284  1
  Al  Al96  1  0.23964911  0.13540789  0.13886459  1
  Al  Al97  1  0.25414034  0.13187608  0.63164562  1
  Al  Al98  1  0.24610908  0.63494521  0.13002998  1
  Al  Al99  1  0.24826384  0.63523238  0.63724827  1
  Al  Al100  1  0.75445455  0.13624898  0.13588800  1
  Al  Al101  1  0.74586504  0.13105540  0.62972485  1
  Al  Al102  1  0.75372112  0.63775708  0.12996683  1
  Al  Al103  1  0.75218904  0.63632158  0.63001688  1
  Al  Al104  1  0.24488696  0.36206492  0.13407224  1
  Al  Al105  1  0.25331851  0.36161927  0.62545449  1
  Al  Al106  1  0.24623123  0.86404577  0.12664549  1
  Al  Al107  1  0.24867250  0.86576541  0.63738566  1
  Al  Al108  1  0.75749509  0.36420215  0.13939618  1
  Al  Al109  1  0.75166411  0.36250646  0.63155835  1
  Al  Al110  1  0.75098510  0.86592637  0.13129377  1
  Al  Al111  1  0.75059116  0.86481531  0.63611757  1
  Al  Al112  1  0.24570636  0.13146766  0.36312844  1
  Al  Al113  1  0.24976856  0.12815261  0.86179061  1
  Al  Al114  1  0.24623694  0.63174962  0.36408706  1
  Al  Al115  1  0.24834764  0.63753627  0.86840583  1
  Al  Al116  1  0.74690000  0.13625463  0.36607174  1
  Al  Al117  1  0.75189066  0.12508395  0.85893646  1
  Al  Al118  1  0.75439587  0.63683083  0.37235302  1
  Al  Al119  1  0.75128504  0.63732198  0.87042859  1
  Al  Al120  1  0.24602962  0.36550586  0.36723600  1
  Al  Al121  1  0.25076611  0.36373162  0.86543553  1
  Al  Al122  1  0.24376608  0.86687046  0.36221900  1
  Al  Al123  1  0.24969146  0.86485588  0.86922852  1
  Al  Al124  1  0.75661072  0.36333390  0.36916755  1
  Al  Al125  1  0.74934035  0.36375902  0.86141228  1
  Al  Al126  1  0.75383009  0.86446852  0.36682250  1
  Al  Al127  1  0.75027447  0.86740464  0.86454590  1
  Al  Al128  1  0.12444713  0.25230379  0.14127741  1
  Al  Al129  1  0.13567592  0.24720991  0.63381714  1
  Al  Al130  1  0.13387549  0.75082883  0.12831073  1
  Al  Al131  1  0.13172324  0.75306481  0.63503044  1
  Al  Al132  1  0.63783031  0.24741926  0.13773845  1
  Al  Al133  1  0.63440901  0.24315556  0.63298894  1
  Al  Al134  1  0.63650541  0.74857529  0.13124260  1
  Al  Al135  1  0.63556185  0.74749216  0.63798555  1
  Al  Al136  1  0.12919039  0.25060049  0.36532105  1
  Al  Al137  1  0.13726970  0.24683412  0.86522141  1
  Al  Al138  1  0.13491763  0.75119457  0.36290744  1
  Al  Al139  1  0.13512367  0.75278325  0.87518573  1
  Al  Al140  1  0.63604129  0.24937547  0.36668991  1
  Al  Al141  1  0.63860982  0.24218799  0.86114847  1
  Al  Al142  1  0.63825446  0.74916315  0.36457997  1
  Al  Al143  1  0.63622526  0.74617081  0.86502480  1
  Al  Al144  1  0.36122436  0.25004663  0.13666878  1
  Al  Al145  1  0.36531430  0.24563325  0.63228800  1
  Al  Al146  1  0.36334455  0.74861201  0.12778334  1
  Al  Al147  1  0.36414135  0.75163513  0.64015841  1
  Al  Al148  1  0.87181664  0.24745136  0.13762788  1
  Al  Al149  1  0.86332106  0.24638670  0.63219608  1
  Al  Al150  1  0.86416110  0.75233035  0.12595205  1
  Al  Al151  1  0.86595433  0.75255987  0.63440909  1
  Al  Al152  1  0.35964886  0.25144064  0.37232044  1
  Al  Al153  1  0.36079336  0.24770309  0.86337003  1
  Al  Al154  1  0.35978201  0.75136243  0.36201568  1
  Al  Al155  1  0.36302802  0.74928948  0.87170162  1
  Al  Al156  1  0.86931304  0.25017099  0.36587677  1
  Al  Al157  1  0.86096010  0.24131303  0.86651945  1
  Al  Al158  1  0.86482826  0.74940362  0.36786971  1
  Al  Al159  1  0.86357839  0.75259625  0.87435125  1
  Al  Al160  1  0.12778902  0.13634239  0.25227119  1
  Al  Al161  1  0.13026543  0.13410558  0.75098478  1
  Al  Al162  1  0.13235494  0.63623099  0.25251096  1
  Al  Al163  1  0.12965434  0.64127234  0.75187215  1
  Al  Al164  1  0.63717750  0.13195705  0.24631434  1
  Al  Al165  1  0.63836590  0.12718088  0.74507095  1
  Al  Al166  1  0.63888103  0.63572941  0.24728362  1
  Al  Al167  1  0.63955938  0.63094337  0.74880945  1
  Al  Al168  1  0.36313260  0.13621363  0.25126257  1
  Al  Al169  1  0.36590421  0.13179596  0.74659347  1
  Al  Al170  1  0.36184803  0.63724753  0.24957345  1
  Al  Al171  1  0.36365030  0.63798287  0.74954123  1
  Al  Al172  1  0.86965685  0.13631641  0.25276493  1
  Al  Al173  1  0.86780433  0.13295689  0.74825416  1
  Al  Al174  1  0.86416481  0.63824060  0.25086423  1
  Al  Al175  1  0.86730109  0.64039873  0.75111147  1
  Al  Al176  1  0.12850388  0.36557163  0.25567631  1
  Al  Al177  1  0.13616996  0.36121907  0.74764920  1
  Al  Al178  1  0.13625583  0.86942332  0.24383733  1
  Al  Al179  1  0.13396542  0.86821436  0.75734644  1
  Al  Al180  1  0.63881731  0.36318514  0.25277436  1
  Al  Al181  1  0.63797925  0.36637712  0.74595928  1
  Al  Al182  1  0.63833924  0.86620330  0.24583383  1
  Al  Al183  1  0.63699272  0.86656496  0.75065577  1
  Al  Al184  1  0.36084839  0.36587872  0.25749081  1
  Al  Al185  1  0.36137595  0.36286137  0.74440115  1
  Al  Al186  1  0.36171951  0.86404799  0.24492490  1
  Al  Al187  1  0.36289386  0.86860909  0.75335844  1
  Al  Al188  1  0.87209783  0.36182860  0.25303754  1
  Al  Al189  1  0.86420058  0.36039397  0.74969712  1
  Al  Al190  1  0.86434738  0.86314624  0.24747166  1
  Al  Al191  1  0.86602345  0.86602447  0.75434627  1
  Al  Al192  1  0.49964190  0.68178563  0.16533560  1
  Al  Al193  1  0.17483217  0.49988658  0.19122048  1
  Al  Al194  1  0.49943321  0.31556445  0.18478727  1
  Al  Al195  1  0.49998699  0.82521953  0.32153904  1
  Al  Al196  1  0.81630283  0.00041863  0.17446337  1
  Al  Al197  1  0.17198797  0.50055244  0.82774011  1
  Al  Al198  1  0.68612062  0.81575899  -0.00267455  1
  Al  Al199  1  0.83121285  0.00051104  0.32818284  1
  Al  Al200  1  -0.00163246  0.31831191  0.82645624  1
  Al  Al201  1  0.50312061  0.16846425  0.81358453  1
  Al  Al202  1  0.16646850  0.17341577  0.00139044  1
  Al  Al203  1  0.16791236  0.67547285  0.49731250  1
  Al  Al204  1  0.68127319  0.31426098  0.50041873  1
  Al  Al205  1  0.49979710  0.18361279  0.31941343  1
  Al  Al206  1  0.50048454  0.83235428  0.82814046  1
  Al  Al207  1  0.69280231  0.17287710  -0.00207356  1
  Al  Al208  1  0.81188469  -0.00059585  0.68653466  1
  Al  Al209  1  -0.00185335  0.68037039  0.18070753  1
  Al  Al210  1  -0.00041090  0.82849705  0.82601133  1
  Al  Al211  1  0.30967340  0.00010003  0.17321848  1
  Al  Al212  1  0.32880741  0.16932701  0.00017581  1
  Al  Al213  1  0.82631172  0.49983594  0.31495259  1
  Al  Al214  1  0.50028443  0.31263573  0.67280018  1
  Al  Al215  1  0.50016107  0.66998365  0.81539395  1
  Al  Al216  1  0.32124233  0.33140454  0.00109862  1
  Al  Al217  1  0.50092612  0.66715835  0.32550143  1
  Al  Al218  1  0.82681614  0.31374444  0.00065204  1
  Al  Al219  1  0.67544457  -0.00090681  0.31865047  1
  Al  Al220  1  0.49911787  0.32930297  0.82845133  1
  Al  Al221  1  0.82287808  0.49822925  0.66927774  1
  Al  Al222  1  0.17593346  0.17729627  0.49500113  1
  Al  Al223  1  0.67682277  0.33008283  0.00081572  1
  Al  Al224  1  0.67473068  0.50008174  0.32917434  1
  Al  Al225  1  0.31894287  -0.00104111  0.32552641  1
  Al  Al226  1  0.49982106  0.82166966  0.66758347  1
  Al  Al227  1  -0.00004218  0.81076723  0.31475047  1
  Al  Al228  1  0.81829806  0.18337097  0.49730252  1
  Al  Al229  1  0.69095652  0.50073333  0.17705558  1
  Al  Al230  1  0.32398910  0.50141447  0.81989094  1
  Al  Al231  1  0.82418848  0.50056643  0.82415594  1
  Al  Al232  1  0.32737265  0.49904561  0.18313132  1
  Al  Al233  1  0.17773420  0.49825510  0.67051036  1
  Al  Al234  1  0.18859276  0.00141796  0.68923548  1
  Al  Al235  1  0.68593538  0.82053370  0.50165720  1
  Al  Al236  1  -0.00111049  0.32207527  0.67106625  1
  Al  Al237  1  0.31973639  0.82709754  0.50076548  1
  Al  Al238  1  0.33080610  0.66911246  0.50100762  1
  Au  Au239  1  -0.00135219  0.66353717  0.83081745  1
  Au  Au240  1  0.50043477  0.66988953  0.16153204  1
  Au  Au241  1  0.67071145  -0.00097606  0.33064768  1
  Au  Au242  1  0.83880548  0.49842787  0.66534774  1
  Au  Au243  1  -0.00190039  0.66787929  0.18425713  1
  Au  Au244  1  -0.00501203  0.66905627  0.66287652  1
  Au  Au245  1  0.34356651  0.16040540  -0.00208020  1
  Au  Au246  1  0.16184577  0.15796309  0.00096214  1
  Au  Au247  1  0.16705020  0.16938795  0.49885044  1
  Au  Au248  1  0.82427415  -0.00141436  0.67458545  1
  Au  Au249  1  0.34075064  0.17272203  0.50214945  1
  Au  Au250  1  0.82855300  0.16980399  0.49553488  1
  Au  Au251  1  0.34622316  0.67572765  0.50283377  1
  Au  Au252  1  0.50145639  0.83092916  0.65417579  1
  Au  Au253  1  0.16674315  0.50005229  0.17580032  1
  Au  Au254  1  0.65922086  0.50032489  0.66942085  1
  Au  Au255  1  0.49992157  0.66285974  0.83079625  1
  Au  Au256  1  0.67349960  0.32932387  0.50089952  1
  Au  Au257  1  0.17378812  -0.00002473  0.68045214  1
  Au  Au258  1  0.82788661  0.66950058  0.00036933  1
  Au  Au259  1  0.17287981  0.33455054  0.49596933  1
  Au  Au260  1  0.50089076  0.67200631  0.33732570  1
  Au  Au261  1  0.17049762  0.84533043  0.49429917  1
  Au  Au262  1  0.33141894  -0.00028283  0.32840666  1
  Au  Au263  1  0.34368193  0.50033583  0.17875423  1
  Au  Au264  1  0.17309554  0.67239657  -0.00017122  1
  Au  Au265  1  0.49840421  0.34483230  0.82166344  1
  Au  Au266  1  0.32354224  0.82491996  0.00057966  1
  Au  Au267  1  0.33231781  0.33728507  0.00119274  1
  Au  Au268  1  0.67885874  0.67256807  0.50097585  1
  Au  Au269  1  -0.00207650  0.16215928  0.17735475  1
  Au  Au270  1  -0.00451994  0.16764079  0.83575147  1
  Au  Au271  1  0.34221080  0.49758424  0.67088751  1
  Au  Au272  1  0.15507942  0.66584757  0.49577997  1
  Au  Au273  1  -0.00003108  0.84107733  0.16834335  1
  Au  Au274  1  0.16148785  0.49878349  0.67539154  1
  Au  Au275  1  0.67737715  0.50348284  0.84104200  1
  Au  Au276  1  0.49950020  0.84983245  0.83176395  1
  Au  Au277  1  0.16310941  0.33955534  -0.00211792  1
  Au  Au278  1  0.49542891  0.33312057  0.33250638  1
  Au  Au279  1  -0.00005463  0.83259287  0.83778368  1
  Au  Au280  1  0.67582993  0.82928152  -0.00127171  1
  Au  Au281  1  -0.00087380  0.17368994  0.66438852  1
  Au  Au282  1  0.50110457  0.84584537  0.17356441  1
  Au  Au283  1  0.50454091  0.16620682  0.16967823  1
  Au  Au284  1  0.50456992  0.15348606  0.81983200  1
  Au  Au285  1  0.66255478  0.32308671  0.00532115  1
  Au  Au286  1  -0.00220765  0.83228117  0.66150262  1
  Au  Au287  1  -0.00254066  0.33230613  0.17684111  1
