# generated using pymatgen
data_Ca24Ti8Al207Au49
_symmetry_space_group_name_H-M   'P 1'
_cell_length_a   17.31929346
_cell_length_b   17.31970961
_cell_length_c   17.32141686
_cell_angle_alpha   89.99496394
_cell_angle_beta   89.99867676
_cell_angle_gamma   89.99916417
_symmetry_Int_Tables_number   1
_chemical_formula_structural   Ca24Ti8Al207Au49
_chemical_formula_sum   'Ca24 Ti8 Al207 Au49'
_cell_volume   5195.82109800
_cell_formula_units_Z   1
loop_
 _symmetry_equiv_pos_site_id
 _symmetry_equiv_pos_as_xyz
  1  'x, y, z'
loop_
 _atom_site_type_symbol
 _atom_site_label
 _atom_site_symmetry_multiplicity
 _atom_site_fract_x
 _atom_site_fract_y
 _atom_site_fract_z
 _atom_site_occupancy
  Ca  Ca0  1  0.24916529  -0.00001126  0.00112525  1
  Ca  Ca1  1  0.25001727  -0.00435447  0.49847550  1
  Ca  Ca2  1  0.24529832  0.50172756  0.00002386  1
  Ca  Ca3  1  0.24727059  0.50193823  0.50001356  1
  Ca  Ca4  1  0.75473502  0.00278916  0.00532304  1
  Ca  Ca5  1  0.75041164  -0.00324179  0.49393451  1
  Ca  Ca6  1  0.75615406  0.50044053  -0.00238498  1
  Ca  Ca7  1  0.75291627  0.49937557  0.50032726  1
  Ca  Ca8  1  0.00257924  0.25568792  0.00350523  1
  Ca  Ca9  1  0.00341723  0.25232940  0.49804031  1
  Ca  Ca10  1  0.00232876  0.74844331  -0.00120026  1
  Ca  Ca11  1  0.00198899  0.75331463  0.49949085  1
  Ca  Ca12  1  0.49803382  0.25114645  0.00447469  1
  Ca  Ca13  1  0.49622617  0.25087917  0.49642047  1
  Ca  Ca14  1  0.49868455  0.75065266  0.00132973  1
  Ca  Ca15  1  0.49464068  0.74867315  0.50328360  1
  Ca  Ca16  1  -0.00017167  0.00106978  0.25049881  1
  Ca  Ca17  1  0.00345341  -0.00259909  0.74798655  1
  Ca  Ca18  1  0.00609472  0.49764960  0.25172496  1
  Ca  Ca19  1  -0.00001903  0.49948744  0.75152203  1
  Ca  Ca20  1  0.50041320  0.00367061  0.25389125  1
  Ca  Ca21  1  0.50058911  -0.00461740  0.74302335  1
  Ca  Ca22  1  0.49715668  0.49919063  0.25283809  1
  Ca  Ca23  1  0.49852413  0.50513995  0.74703531  1
  Ti  Ti24  1  0.25172224  0.25080540  0.24952371  1
  Ti  Ti25  1  0.24956466  0.25329486  0.75021482  1
  Ti  Ti26  1  0.24972600  0.75038979  0.25083224  1
  Ti  Ti27  1  0.24745270  0.74839581  0.74838072  1
  Ti  Ti28  1  0.74860171  0.24929775  0.24944377  1
  Ti  Ti29  1  0.75219006  0.25298557  0.75168366  1
  Ti  Ti30  1  0.75081466  0.75231741  0.25098263  1
  Ti  Ti31  1  0.75156510  0.74811168  0.74917116  1
  Al  Al32  1  0.08496823  0.07859730  0.08221554  1
  Al  Al33  1  0.09229485  0.08391793  0.57996430  1
  Al  Al34  1  0.09178217  0.58124166  0.08063871  1
  Al  Al35  1  0.08693501  0.58513527  0.58350129  1
  Al  Al36  1  0.58020450  0.08726769  0.10218599  1
  Al  Al37  1  0.57197978  0.07725552  0.56149894  1
  Al  Al38  1  0.57373985  0.57080041  0.07118219  1
  Al  Al39  1  0.58457106  0.59247598  0.58847048  1
  Al  Al40  1  0.40786252  0.41742227  0.09200820  1
  Al  Al41  1  0.40842693  0.43067937  0.58665913  1
  Al  Al42  1  0.41128172  0.92626725  0.09299564  1
  Al  Al43  1  0.39744002  0.90826450  0.57821619  1
  Al  Al44  1  0.92756110  0.41928901  0.08595964  1
  Al  Al45  1  0.92267334  0.41322335  0.58709291  1
  Al  Al46  1  0.91099850  0.90974380  0.08184831  1
  Al  Al47  1  0.93515026  0.91175040  0.57957096  1
  Al  Al48  1  0.41830439  0.08827667  0.41265671  1
  Al  Al49  1  0.41703037  0.07616587  0.92652039  1
  Al  Al50  1  0.40608853  0.58363870  0.42409330  1
  Al  Al51  1  0.41947700  0.58858511  0.91201425  1
  Al  Al52  1  0.91973709  0.07977260  0.41073654  1
  Al  Al53  1  0.92276352  0.07823713  0.91628902  1
  Al  Al54  1  0.92175779  0.58559163  0.41826584  1
  Al  Al55  1  0.92213365  0.59061342  0.91053835  1
  Al  Al56  1  0.08709725  0.40938519  0.41303719  1
  Al  Al57  1  0.08815024  0.41510508  0.92420627  1
  Al  Al58  1  0.08384967  0.90919716  0.42200086  1
  Al  Al59  1  0.08097799  0.90631373  0.92091713  1
  Al  Al60  1  0.57421926  0.42135146  0.41674942  1
  Al  Al61  1  0.59246528  0.42726273  0.91146448  1
  Al  Al62  1  0.57819939  0.90816759  0.40843390  1
  Al  Al63  1  0.57822389  0.91430854  0.92626237  1
  Al  Al64  1  0.08484098  0.09080284  0.42093226  1
  Al  Al65  1  0.07942397  0.08698532  0.92187457  1
  Al  Al66  1  0.08663990  0.58479703  0.41664905  1
  Al  Al67  1  0.08414404  0.59004069  0.91720715  1
  Al  Al68  1  0.58082735  0.09107823  0.40492823  1
  Al  Al69  1  0.57862878  0.07767317  0.93457433  1
  Al  Al70  1  0.58610219  0.58999582  0.42909394  1
  Al  Al71  1  0.58054917  0.58534836  0.89813501  1
  Al  Al72  1  0.41376717  0.42159385  0.41294907  1
  Al  Al73  1  0.41437609  0.42533948  0.92154741  1
  Al  Al74  1  0.41374384  0.90368461  0.41492818  1
  Al  Al75  1  0.41822587  0.91485236  0.91899202  1
  Al  Al76  1  0.92504094  0.41073596  0.41669794  1
  Al  Al77  1  0.92178849  0.42210419  0.91775377  1
  Al  Al78  1  0.92224315  0.91630511  0.40877526  1
  Al  Al79  1  0.91235662  0.90596274  0.91989563  1
  Al  Al80  1  0.09393378  0.41514878  0.08903417  1
  Al  Al81  1  0.08511778  0.40890685  0.58570088  1
  Al  Al82  1  0.08832402  0.91316075  0.08031890  1
  Al  Al83  1  0.09373690  0.90796728  0.58466410  1
  Al  Al84  1  0.57477282  0.41397336  0.08053762  1
  Al  Al85  1  0.58014476  0.42869497  0.58290302  1
  Al  Al86  1  0.58689609  0.92726339  0.09206917  1
  Al  Al87  1  0.57099948  0.91297546  0.56789013  1
  Al  Al88  1  0.41592524  0.08853891  0.10016270  1
  Al  Al89  1  0.40467320  0.07040710  0.58148753  1
  Al  Al90  1  0.40424042  0.57533855  0.08377109  1
  Al  Al91  1  0.40945144  0.59177817  0.58786624  1
  Al  Al92  1  0.92033627  0.07642159  0.08185145  1
  Al  Al93  1  0.92498233  0.08165511  0.57316365  1
  Al  Al94  1  0.91973172  0.57931106  0.07467033  1
  Al  Al95  1  0.91998607  0.58192623  0.58126579  1
  Al  Al96  1  0.25180396  0.13462634  0.13749034  1
  Al  Al97  1  0.24821637  0.13585908  0.63221218  1
  Al  Al98  1  0.24916408  0.63444952  0.13314690  1
  Al  Al99  1  0.24848815  0.62944256  0.63459356  1
  Al  Al100  1  0.74763539  0.13119077  0.13516398  1
  Al  Al101  1  0.75257354  0.13700068  0.63572106  1
  Al  Al102  1  0.74993256  0.63859775  0.13730404  1
  Al  Al103  1  0.74626178  0.63476909  0.63646613  1
  Al  Al104  1  0.25162829  0.36694404  0.13321134  1
  Al  Al105  1  0.24973792  0.37320707  0.63871002  1
  Al  Al106  1  0.25225196  0.86537044  0.13964559  1
  Al  Al107  1  0.24885784  0.86183797  0.63008301  1
  Al  Al108  1  0.74941634  0.36170248  0.13786846  1
  Al  Al109  1  0.74929542  0.36623064  0.63879479  1
  Al  Al110  1  0.75160946  0.87269660  0.14419947  1
  Al  Al111  1  0.74917677  0.86210185  0.63629734  1
  Al  Al112  1  0.24856815  0.13430899  0.36566353  1
  Al  Al113  1  0.25032920  0.13959622  0.86688585  1
  Al  Al114  1  0.25254247  0.63587632  0.36722941  1
  Al  Al115  1  0.24288394  0.63564099  0.86606511  1
  Al  Al116  1  0.74740236  0.13498430  0.36206043  1
  Al  Al117  1  0.75194679  0.13879173  0.87126481  1
  Al  Al118  1  0.74714596  0.63342395  0.36390977  1
  Al  Al119  1  0.75181274  0.63573272  0.86047226  1
  Al  Al120  1  0.25249288  0.36477278  0.36438285  1
  Al  Al121  1  0.25030503  0.36722065  0.86737329  1
  Al  Al122  1  0.25267202  0.86674635  0.36712216  1
  Al  Al123  1  0.25130907  0.86020387  0.86176107  1
  Al  Al124  1  0.74826953  0.37086694  0.35846822  1
  Al  Al125  1  0.74841571  0.36737813  0.86437155  1
  Al  Al126  1  0.74653013  0.86425566  0.36366692  1
  Al  Al127  1  0.75262966  0.85934498  0.86543933  1
  Al  Al128  1  0.13926181  0.25443189  0.13084121  1
  Al  Al129  1  0.13722781  0.25110209  0.63408151  1
  Al  Al130  1  0.13499082  0.74687106  0.13630122  1
  Al  Al131  1  0.13286508  0.75450888  0.63059611  1
  Al  Al132  1  0.62839490  0.24823732  0.13693517  1
  Al  Al133  1  0.63277426  0.25427503  0.63919726  1
  Al  Al134  1  0.63261503  0.76087100  0.14014042  1
  Al  Al135  1  0.63326819  0.74743457  0.63598678  1
  Al  Al136  1  0.13540896  0.25394868  0.36091801  1
  Al  Al137  1  0.13663587  0.25651576  0.87050709  1
  Al  Al138  1  0.13817052  0.75390223  0.36790157  1
  Al  Al139  1  0.12738251  0.74726469  0.86150676  1
  Al  Al140  1  0.62672053  0.24578529  0.36057432  1
  Al  Al141  1  0.63470200  0.25252272  0.86519457  1
  Al  Al142  1  0.63177227  0.75065748  0.36258531  1
  Al  Al143  1  0.63377050  0.74474262  0.86215339  1
  Al  Al144  1  0.36962467  0.24895585  0.13648587  1
  Al  Al145  1  0.36149287  0.25476287  0.62986014  1
  Al  Al146  1  0.36560274  0.75490025  0.13472162  1
  Al  Al147  1  0.35869574  0.74777606  0.62731795  1
  Al  Al148  1  0.86307333  0.24821634  0.13093283  1
  Al  Al149  1  0.86806413  0.25262052  0.63668484  1
  Al  Al150  1  0.86681071  0.75358973  0.13451333  1
  Al  Al151  1  0.86708841  0.74944239  0.63407361  1
  Al  Al152  1  0.37058416  0.24627061  0.36120340  1
  Al  Al153  1  0.36609401  0.25442202  0.86701986  1
  Al  Al154  1  0.36347464  0.75349310  0.36743070  1
  Al  Al155  1  0.36559355  0.74385354  0.86420612  1
  Al  Al156  1  0.86241086  0.24895562  0.36401124  1
  Al  Al157  1  0.86420110  0.25451879  0.87158637  1
  Al  Al158  1  0.86547512  0.75244494  0.36428424  1
  Al  Al159  1  0.87088526  0.74876721  0.86350966  1
  Al  Al160  1  0.13641541  0.13731081  0.25004890  1
  Al  Al161  1  0.13714981  0.13878448  0.74965147  1
  Al  Al162  1  0.14012081  0.62924597  0.25070978  1
  Al  Al163  1  0.13294600  0.63466619  0.74683315  1
  Al  Al164  1  0.63423434  0.12964405  0.24935061  1
  Al  Al165  1  0.63649446  0.13777650  0.75088141  1
  Al  Al166  1  0.63329676  0.63614416  0.25048558  1
  Al  Al167  1  0.63424469  0.62962508  0.75027745  1
  Al  Al168  1  0.36390471  0.13013011  0.25019463  1
  Al  Al169  1  0.36250016  0.13600664  0.74411788  1
  Al  Al170  1  0.36372658  0.63630964  0.24735243  1
  Al  Al171  1  0.36132436  0.63634569  0.74611998  1
  Al  Al172  1  0.86401100  0.13524604  0.24704758  1
  Al  Al173  1  0.86586841  0.13715434  0.74996984  1
  Al  Al174  1  0.86476635  0.63644545  0.25377670  1
  Al  Al175  1  0.86850644  0.63472578  0.75086650  1
  Al  Al176  1  0.14116017  0.37137544  0.24870531  1
  Al  Al177  1  0.12876073  0.36320790  0.74814957  1
  Al  Al178  1  0.13124926  0.86161253  0.25128559  1
  Al  Al179  1  0.12915932  0.86091996  0.74827403  1
  Al  Al180  1  0.62585479  0.36276819  0.25162634  1
  Al  Al181  1  0.63262251  0.37121151  0.75056174  1
  Al  Al182  1  0.63094132  0.86980120  0.25313545  1
  Al  Al183  1  0.63443535  0.86243749  0.74987705  1
  Al  Al184  1  0.36840777  0.36606300  0.24696117  1
  Al  Al185  1  0.36734364  0.36576701  0.74959413  1
  Al  Al186  1  0.36874276  0.86663442  0.25367153  1
  Al  Al187  1  0.36361657  0.86375169  0.74166864  1
  Al  Al188  1  0.86714204  0.36316882  0.25406857  1
  Al  Al189  1  0.87261904  0.36422014  0.75172330  1
  Al  Al190  1  0.87284911  0.86420851  0.24966264  1
  Al  Al191  1  0.87187106  0.85973101  0.75100598  1
  Al  Al192  1  0.32734068  -0.00003249  0.81243433  1
  Al  Al193  1  0.49940481  0.17664168  0.82774137  1
  Al  Al194  1  0.66901946  0.49856552  0.17931555  1
  Al  Al195  1  0.00177397  0.17287120  0.17177731  1
  Al  Al196  1  0.00265438  0.18137496  0.67070494  1
  Al  Al197  1  0.81725889  -0.00169275  0.31624823  1
  Al  Al198  1  0.18309373  -0.00082804  0.17475132  1
  Al  Al199  1  0.80858097  0.67431422  0.49971806  1
  Al  Al200  1  0.00325039  0.32418616  0.18823313  1
  Al  Al201  1  0.67811958  0.32408796  -0.00296797  1
  Al  Al202  1  0.00029922  0.18430069  0.82656558  1
  Al  Al203  1  0.67173968  0.67175300  -0.00139897  1
  Al  Al204  1  0.66741435  0.00070663  0.66557275  1
  Al  Al205  1  0.00101687  0.67371475  0.17120357  1
  Al  Al206  1  0.49816032  0.17648890  0.66633292  1
  Al  Al207  1  0.83320507  -0.00405601  0.66958006  1
  Al  Al208  1  0.31950170  0.67973288  -0.00103528  1
  Al  Al209  1  0.67740463  0.33215457  0.49748348  1
  Al  Al210  1  0.00004530  0.18721379  0.32384728  1
  Al  Al211  1  0.49763809  0.68158401  0.68629019  1
  Al  Al212  1  0.49550121  0.67886339  0.33144517  1
  Al  Al213  1  0.82904363  0.31856475  0.50054451  1
  Al  Al214  1  0.82177668  0.50067606  0.82683364  1
  Al  Al215  1  0.69106953  0.82870677  0.00593202  1
  Al  Al216  1  0.82374920  0.49953759  0.67408074  1
  Al  Al217  1  0.17379990  -0.00098299  0.83096277  1
  Al  Al218  1  0.67438381  0.81229612  0.49905449  1
  Al  Al219  1  0.32232887  0.17712790  0.00493428  1
  Al  Al220  1  0.18893630  0.68788166  0.50047089  1
  Al  Al221  1  0.18128997  0.31126682  0.49930843  1
  Al  Al222  1  0.49856266  0.81605605  0.82045549  1
  Al  Al223  1  0.00070081  0.68606218  0.68322448  1
  Al  Al224  1  0.18563114  -0.00165979  0.67419822  1
  Al  Al225  1  0.31834847  0.50113079  0.31397247  1
  Al  Al226  1  0.17174639  0.49968462  0.82193928  1
  Al  Al227  1  0.50048779  0.67877975  0.16784413  1
  Al  Al228  1  0.82924976  0.83059601  0.49950360  1
  Al  Al229  1  0.32054752  0.17951162  0.49915841  1
  Al  Al230  1  0.67977409  0.17426376  0.49901300  1
  Al  Al231  1  0.17553599  -0.00186187  0.33048772  1
  Al  Al232  1  0.18260910  0.80605466  -0.00097844  1
  Al  Al233  1  0.82739529  0.68428500  -0.00074903  1
  Al  Al234  1  0.82702733  0.50038178  0.17888935  1
  Al  Al235  1  0.82673272  -0.00197222  0.82628762  1
  Al  Al236  1  0.32527578  0.50285456  0.81649296  1
  Al  Al237  1  0.66846346  0.00081676  0.82795218  1
  Al  Al238  1  0.00355536  0.68480844  0.32666146  1
  Au  Au239  1  0.32746663  0.16675021  0.00030815  1
  Au  Au240  1  0.16320164  -0.00242821  0.32731565  1
  Au  Au241  1  0.83002342  0.16502259  0.49460766  1
  Au  Au242  1  0.33961607  -0.00170117  0.32577848  1
  Au  Au243  1  0.67496178  0.49760420  0.16332678  1
  Au  Au244  1  0.49528797  0.67453990  0.34723700  1
  Au  Au245  1  0.83801782  0.16630130  -0.00158234  1
  Au  Au246  1  0.34311050  -0.00061739  0.81929201  1
  Au  Au247  1  0.32121940  0.34081171  0.00012381  1
  Au  Au248  1  0.31929749  0.16694757  0.50077797  1
  Au  Au249  1  0.49687185  0.32368803  0.16715035  1
  Au  Au250  1  0.83333059  0.33842139  0.00440553  1
  Au  Au251  1  0.49705937  0.16109112  0.65953589  1
  Au  Au252  1  0.67430575  0.65612497  -0.00726034  1
  Au  Au253  1  0.66645652  0.16757586  0.01028679  1
  Au  Au254  1  0.31721587  0.66729307  -0.00236809  1
  Au  Au255  1  0.84530787  0.49683179  0.32826627  1
  Au  Au256  1  0.49822639  0.66301797  0.16201244  1
  Au  Au257  1  0.66325467  -0.00106073  0.65005690  1
  Au  Au258  1  0.49509846  0.34253710  0.66671662  1
  Au  Au259  1  0.49620893  0.32436921  0.33299704  1
  Au  Au260  1  0.15780687  0.00004707  0.82563534  1
  Au  Au261  1  0.16632522  0.17630544  0.00227498  1
  Au  Au262  1  0.49320754  0.82847437  0.66002366  1
  Au  Au263  1  0.17076530  0.49708193  0.67141689  1
  Au  Au264  1  0.00183607  0.66144125  0.17466689  1
  Au  Au265  1  0.50224481  0.16978700  0.84317341  1
  Au  Au266  1  0.00306842  0.33393325  0.83076537  1
  Au  Au267  1  0.66256533  0.32523672  0.50165349  1
  Au  Au268  1  0.50019054  0.34478553  0.83302222  1
  Au  Au269  1  0.82744368  0.00041750  0.16840577  1
  Au  Au270  1  0.00277152  0.16907102  0.66699732  1
  Au  Au271  1  0.17019175  0.49913381  0.32554487  1
  Au  Au272  1  0.66944310  0.33278282  -0.00044997  1
  Au  Au273  1  0.32530613  0.34304464  0.50142075  1
  Au  Au274  1  0.17561618  0.67706376  0.49931947  1
  Au  Au275  1  0.00222253  0.83739686  0.17366206  1
  Au  Au276  1  0.67507897  0.00145261  0.84374318  1
  Au  Au277  1  -0.00128486  0.82448249  0.82901959  1
  Au  Au278  1  0.84867799  -0.00856616  0.67145727  1
  Au  Au279  1  -0.00075134  0.67227524  0.67295272  1
  Au  Au280  1  0.67962099  0.84075580  0.00972001  1
  Au  Au281  1  0.66698537  -0.00133708  0.32876724  1
  Au  Au282  1  0.49966730  0.84412668  0.17766875  1
  Au  Au283  1  0.32535818  0.84128723  0.00564101  1
  Au  Au284  1  0.67339289  0.50284240  0.67421624  1
  Au  Au285  1  0.66831562  0.50562784  0.34055853  1
  Au  Au286  1  0.50271860  0.81679385  0.83727976  1
  Au  Au287  1  0.82552620  0.67469982  0.49930786  1
