# generated using pymatgen
data_Ca24Ti8Al207Au49
_symmetry_space_group_name_H-M   'P 1'
_cell_length_a   17.31913848
_cell_length_b   17.31926748
_cell_length_c   17.31925004
_cell_angle_alpha   90.00399598
_cell_angle_beta   90.00376070
_cell_angle_gamma   89.99872844
_symmetry_Int_Tables_number   1
_chemical_formula_structural   Ca24Ti8Al207Au49
_chemical_formula_sum   'Ca24 Ti8 Al207 Au49'
_cell_volume   5194.99201595
_cell_formula_units_Z   1
loop_
 _symmetry_equiv_pos_site_id
 _symmetry_equiv_pos_as_xyz
  1  'x, y, z'
loop_
 _atom_site_type_symbol
 _atom_site_label
 _atom_site_symmetry_multiplicity
 _atom_site_fract_x
 _atom_site_fract_y
 _atom_site_fract_z
 _atom_site_occupancy
  Ca  Ca0  1  0.25013392  0.00272012  -0.00142583  1
  Ca  Ca1  1  0.24534819  -0.00345701  0.50312498  1
  Ca  Ca2  1  0.24613785  0.49867596  -0.00349366  1
  Ca  Ca3  1  0.24983579  0.50432709  0.50526963  1
  Ca  Ca4  1  0.75149861  0.00088585  -0.00558242  1
  Ca  Ca5  1  0.75253757  -0.00476049  0.50426082  1
  Ca  Ca6  1  0.75015994  0.49877488  -0.00226521  1
  Ca  Ca7  1  0.75344015  0.50468224  0.49723781  1
  Ca  Ca8  1  0.00389417  0.25028357  -0.00543204  1
  Ca  Ca9  1  -0.00590532  0.24573945  0.50514411  1
  Ca  Ca10  1  -0.00200714  0.75262909  -0.00431190  1
  Ca  Ca11  1  0.00038230  0.75240856  0.50354094  1
  Ca  Ca12  1  0.49619758  0.24285988  0.00314379  1
  Ca  Ca13  1  0.50304353  0.24270555  0.50063621  1
  Ca  Ca14  1  0.50557309  0.75335057  0.00167039  1
  Ca  Ca15  1  0.50095524  0.75047003  0.49726980  1
  Ca  Ca16  1  -0.00052916  -0.00043317  0.25430786  1
  Ca  Ca17  1  -0.00119285  0.00083110  0.74562350  1
  Ca  Ca18  1  -0.00379998  0.50074230  0.25405617  1
  Ca  Ca19  1  -0.00122092  0.49908023  0.74765416  1
  Ca  Ca20  1  0.50282261  -0.00360787  0.25371184  1
  Ca  Ca21  1  0.50220031  -0.00141950  0.74712183  1
  Ca  Ca22  1  0.50244261  0.50293116  0.25196908  1
  Ca  Ca23  1  0.49855061  0.49997264  0.74623889  1
  Ti  Ti24  1  0.24955277  0.24945588  0.25056030  1
  Ti  Ti25  1  0.24845641  0.24965190  0.74800649  1
  Ti  Ti26  1  0.24899757  0.75156589  0.25295339  1
  Ti  Ti27  1  0.24840520  0.75072351  0.74760899  1
  Ti  Ti28  1  0.75126895  0.24968919  0.25051349  1
  Ti  Ti29  1  0.75191333  0.24771402  0.75062667  1
  Ti  Ti30  1  0.75103463  0.75106340  0.25235337  1
  Ti  Ti31  1  0.75259482  0.75161990  0.74866868  1
  Al  Al32  1  0.09146128  0.08505957  0.07729867  1
  Al  Al33  1  0.08015815  0.08437235  0.59238980  1
  Al  Al34  1  0.07259505  0.57117121  0.08799291  1
  Al  Al35  1  0.08777193  0.58211292  0.59098802  1
  Al  Al36  1  0.58739756  0.07679487  0.08436140  1
  Al  Al37  1  0.58615259  0.08058869  0.59615058  1
  Al  Al38  1  0.58696424  0.58397578  0.09797621  1
  Al  Al39  1  0.57563956  0.58782608  0.58635958  1
  Al  Al40  1  0.41546962  0.42019415  0.07802679  1
  Al  Al41  1  0.41224520  0.42926156  0.59013872  1
  Al  Al42  1  0.41394312  0.91862795  0.08685621  1
  Al  Al43  1  0.41130010  0.91500103  0.57677833  1
  Al  Al44  1  0.92347733  0.42198271  0.07699370  1
  Al  Al45  1  0.91846407  0.39982496  0.58262800  1
  Al  Al46  1  0.91939270  0.91418800  0.08305476  1
  Al  Al47  1  0.91905253  0.91569943  0.59042888  1
  Al  Al48  1  0.41974838  0.07460521  0.42062450  1
  Al  Al49  1  0.41758873  0.08166747  0.90816173  1
  Al  Al50  1  0.42224197  0.59284545  0.41882083  1
  Al  Al51  1  0.41945001  0.57726987  0.91040414  1
  Al  Al52  1  0.90790688  0.09052887  0.42572605  1
  Al  Al53  1  0.91687622  0.08337610  0.90082562  1
  Al  Al54  1  0.91279442  0.58448706  0.41935522  1
  Al  Al55  1  0.91681678  0.59231496  0.91475962  1
  Al  Al56  1  0.06513685  0.41419263  0.41464183  1
  Al  Al57  1  0.08683578  0.40479589  0.91150282  1
  Al  Al58  1  0.07836125  0.91142808  0.41831994  1
  Al  Al59  1  0.07436080  0.91810116  0.90518071  1
  Al  Al60  1  0.58588285  0.42375380  0.41858853  1
  Al  Al61  1  0.58310175  0.42052481  0.92481468  1
  Al  Al62  1  0.58984198  0.90834798  0.41483118  1
  Al  Al63  1  0.58840170  0.92385574  0.91522702  1
  Al  Al64  1  0.07484113  0.07915575  0.42687324  1
  Al  Al65  1  0.08173409  0.09501436  0.91034972  1
  Al  Al66  1  0.07578664  0.58360764  0.42766447  1
  Al  Al67  1  0.07180808  0.57947358  0.90356922  1
  Al  Al68  1  0.58948141  0.06973183  0.41548167  1
  Al  Al69  1  0.58549803  0.08156102  0.90784714  1
  Al  Al70  1  0.58157453  0.58939808  0.41203184  1
  Al  Al71  1  0.58228765  0.58236426  0.91708698  1
  Al  Al72  1  0.42438515  0.42663484  0.42480641  1
  Al  Al73  1  0.41012718  0.41901978  0.91722725  1
  Al  Al74  1  0.41693179  0.90903748  0.41701488  1
  Al  Al75  1  0.41222207  0.92741468  0.92034694  1
  Al  Al76  1  0.90693364  0.40463259  0.41833350  1
  Al  Al77  1  0.92624619  0.41000359  0.90969181  1
  Al  Al78  1  0.91780694  0.91277267  0.41509582  1
  Al  Al79  1  0.91427177  0.91826753  0.90053314  1
  Al  Al80  1  0.09022350  0.41063385  0.07608499  1
  Al  Al81  1  0.08026421  0.41808805  0.59857847  1
  Al  Al82  1  0.07898505  0.92366297  0.09251133  1
  Al  Al83  1  0.08391045  0.91922531  0.58972486  1
  Al  Al84  1  0.59449580  0.42405704  0.08619667  1
  Al  Al85  1  0.58028557  0.42488275  0.57919045  1
  Al  Al86  1  0.58415172  0.91848381  0.08700591  1
  Al  Al87  1  0.59195192  0.91870916  0.57834256  1
  Al  Al88  1  0.41108968  0.07459045  0.08411192  1
  Al  Al89  1  0.42287336  0.08613705  0.59327056  1
  Al  Al90  1  0.42754517  0.58345052  0.09089115  1
  Al  Al91  1  0.41303112  0.59066670  0.59246837  1
  Al  Al92  1  0.92389517  0.07906253  0.07671252  1
  Al  Al93  1  0.91504229  0.09403277  0.59058597  1
  Al  Al94  1  0.91612363  0.58620993  0.07767135  1
  Al  Al95  1  0.92023466  0.59294942  0.57925388  1
  Al  Al96  1  0.25189540  0.13705791  0.13530196  1
  Al  Al97  1  0.24410636  0.13092522  0.63858601  1
  Al  Al98  1  0.25110465  0.63606244  0.13895557  1
  Al  Al99  1  0.24891722  0.63568964  0.63564328  1
  Al  Al100  1  0.75251009  0.13561540  0.13486213  1
  Al  Al101  1  0.75599998  0.12905154  0.63676312  1
  Al  Al102  1  0.74602417  0.63466800  0.13782464  1
  Al  Al103  1  0.75675750  0.63858920  0.63464055  1
  Al  Al104  1  0.25007343  0.36473930  0.13747824  1
  Al  Al105  1  0.24593199  0.36592852  0.63537299  1
  Al  Al106  1  0.25078195  0.86587068  0.13766229  1
  Al  Al107  1  0.24815196  0.86339078  0.63150950  1
  Al  Al108  1  0.74862864  0.36452314  0.13746582  1
  Al  Al109  1  0.75795076  0.35828625  0.63472699  1
  Al  Al110  1  0.75119861  0.86630145  0.13901773  1
  Al  Al111  1  0.75089406  0.86946491  0.63519541  1
  Al  Al112  1  0.25312131  0.13813416  0.36441715  1
  Al  Al113  1  0.24898445  0.13454502  0.86112082  1
  Al  Al114  1  0.25170728  0.63638874  0.36729001  1
  Al  Al115  1  0.25001068  0.63251724  0.85582694  1
  Al  Al116  1  0.75291811  0.13837462  0.36616152  1
  Al  Al117  1  0.75574554  0.13200915  0.86212992  1
  Al  Al118  1  0.75106205  0.63635524  0.36900436  1
  Al  Al119  1  0.75124672  0.63091110  0.85883091  1
  Al  Al120  1  0.25230260  0.36285566  0.36716365  1
  Al  Al121  1  0.24478350  0.36393376  0.86298307  1
  Al  Al122  1  0.25231761  0.86209081  0.37364672  1
  Al  Al123  1  0.24877542  0.86741104  0.86011628  1
  Al  Al124  1  0.75263426  0.36187173  0.36738005  1
  Al  Al125  1  0.75313147  0.36708948  0.86052235  1
  Al  Al126  1  0.74540212  0.86598710  0.37184445  1
  Al  Al127  1  0.75450490  0.86699493  0.86189863  1
  Al  Al128  1  0.13611649  0.25209259  0.13260231  1
  Al  Al129  1  0.12889139  0.25007874  0.63757240  1
  Al  Al130  1  0.13585708  0.75241861  0.13518613  1
  Al  Al131  1  0.12715129  0.75309424  0.63776385  1
  Al  Al132  1  0.63422397  0.24556317  0.13813331  1
  Al  Al133  1  0.63563857  0.24379984  0.63489063  1
  Al  Al134  1  0.63544890  0.75098976  0.13661427  1
  Al  Al135  1  0.63791649  0.75245695  0.63334389  1
  Al  Al136  1  0.12943282  0.24903386  0.36509660  1
  Al  Al137  1  0.13045963  0.24951430  0.85767771  1
  Al  Al138  1  0.13279893  0.75661457  0.36690095  1
  Al  Al139  1  0.13503828  0.74747965  0.86069535  1
  Al  Al140  1  0.63109047  0.25127629  0.36294288  1
  Al  Al141  1  0.63945370  0.24456281  0.86167279  1
  Al  Al142  1  0.63562101  0.74974974  0.36843612  1
  Al  Al143  1  0.63567959  0.75178924  0.86266458  1
  Al  Al144  1  0.36715562  0.25004923  0.13476499  1
  Al  Al145  1  0.36319553  0.24271561  0.63725212  1
  Al  Al146  1  0.36436646  0.75062445  0.13830797  1
  Al  Al147  1  0.36523229  0.75135915  0.63711384  1
  Al  Al148  1  0.86665721  0.25063614  0.13638522  1
  Al  Al149  1  0.87041429  0.24531905  0.64074458  1
  Al  Al150  1  0.86465216  0.75495112  0.13655570  1
  Al  Al151  1  0.87186232  0.75212640  0.63872722  1
  Al  Al152  1  0.37170721  0.24767450  0.36104836  1
  Al  Al153  1  0.36208214  0.24971534  0.86314033  1
  Al  Al154  1  0.36632811  0.75017851  0.36492767  1
  Al  Al155  1  0.36533400  0.74867286  0.85976404  1
  Al  Al156  1  0.86848678  0.25158675  0.36744071  1
  Al  Al157  1  0.87224897  0.24807200  0.85863758  1
  Al  Al158  1  0.86282270  0.75047269  0.36977503  1
  Al  Al159  1  0.86641023  0.75096075  0.86101796  1
  Al  Al160  1  0.13101664  0.13737268  0.25010077  1
  Al  Al161  1  0.12750002  0.13536408  0.74778313  1
  Al  Al162  1  0.13419830  0.63750597  0.25381038  1
  Al  Al163  1  0.12973428  0.63242252  0.74498875  1
  Al  Al164  1  0.63300333  0.13504541  0.25456705  1
  Al  Al165  1  0.63647179  0.13159001  0.74428987  1
  Al  Al166  1  0.63721714  0.63320218  0.25513770  1
  Al  Al167  1  0.63606833  0.63734545  0.74615275  1
  Al  Al168  1  0.36908619  0.13451471  0.24751778  1
  Al  Al169  1  0.36307140  0.13015341  0.75002767  1
  Al  Al170  1  0.36526178  0.63309695  0.25404425  1
  Al  Al171  1  0.36652404  0.63087251  0.74362798  1
  Al  Al172  1  0.87269984  0.13646385  0.25523384  1
  Al  Al173  1  0.86957148  0.12987528  0.74979947  1
  Al  Al174  1  0.86387572  0.63594433  0.25035403  1
  Al  Al175  1  0.87440465  0.63628970  0.75150161  1
  Al  Al176  1  0.13299699  0.36302182  0.25364704  1
  Al  Al177  1  0.12883017  0.36565854  0.74701556  1
  Al  Al178  1  0.13126673  0.86552735  0.25082751  1
  Al  Al179  1  0.13433865  0.86982934  0.74451629  1
  Al  Al180  1  0.63743370  0.37123117  0.25202281  1
  Al  Al181  1  0.63755678  0.36390730  0.74622318  1
  Al  Al182  1  0.63622134  0.86514203  0.25445364  1
  Al  Al183  1  0.63405822  0.86567868  0.74642576  1
  Al  Al184  1  0.36511502  0.36969918  0.25031571  1
  Al  Al185  1  0.36254744  0.36832033  0.74482171  1
  Al  Al186  1  0.36547204  0.86432822  0.24823329  1
  Al  Al187  1  0.36622260  0.86657813  0.75141022  1
  Al  Al188  1  0.86935364  0.36476981  0.25383478  1
  Al  Al189  1  0.87294509  0.36334779  0.75011675  1
  Al  Al190  1  0.87009623  0.86483382  0.25670220  1
  Al  Al191  1  0.86468328  0.87244983  0.74685105  1
  Al  Al192  1  0.17806732  0.49896670  0.17646198  1
  Al  Al193  1  0.67469367  0.50213520  0.67647940  1
  Al  Al194  1  -0.00151238  0.68267396  0.33028096  1
  Al  Al195  1  0.17809038  0.17166621  0.50168295  1
  Al  Al196  1  0.82055170  0.50032384  0.16868586  1
  Al  Al197  1  0.50038706  0.17144333  0.81055409  1
  Al  Al198  1  0.68076214  0.82435236  -0.00021445  1
  Al  Al199  1  0.50143281  0.68339433  0.19370092  1
  Al  Al200  1  0.18124803  0.19001969  -0.00371002  1
  Al  Al201  1  0.50238227  0.32628957  0.17771665  1
  Al  Al202  1  0.00159561  0.31970590  0.17346009  1
  Al  Al203  1  0.33147828  0.67007896  0.00045093  1
  Al  Al204  1  0.18019606  0.00203320  0.81451894  1
  Al  Al205  1  0.82548115  0.17282986  -0.00399844  1
  Al  Al206  1  0.67617980  0.32027934  0.00001250  1
  Al  Al207  1  0.17464650  0.68198470  0.50187640  1
  Al  Al208  1  -0.00005933  0.81285724  0.80497502  1
  Al  Al209  1  0.16670883  0.66395407  -0.00057566  1
  Al  Al210  1  0.50058257  0.68061354  0.81196795  1
  Al  Al211  1  0.82887488  0.32844961  -0.00200845  1
  Al  Al212  1  0.33068445  0.32179276  0.50275320  1
  Al  Al213  1  0.32824189  0.68417703  0.50179862  1
  Al  Al214  1  0.68868558  -0.00064750  0.80786384  1
  Al  Al215  1  0.30985711  0.31746161  0.00031181  1
  Al  Al216  1  0.68145567  0.00057013  0.19055224  1
  Al  Al217  1  0.17383328  0.49977922  0.33484537  1
  Al  Al218  1  0.50105003  0.32662975  0.82910339  1
  Al  Al219  1  0.16936256  0.83005919  -0.00289790  1
  Al  Al220  1  0.32491994  0.82739705  -0.00162030  1
  Al  Al221  1  0.31560924  -0.00268119  0.68059113  1
  Al  Al222  1  0.50157130  0.82102184  0.67150097  1
  Al  Al223  1  0.50110988  0.81285234  0.32081612  1
  Al  Al224  1  0.83141702  0.49896434  0.67151832  1
  Al  Al225  1  -0.00054847  0.68095281  0.17534188  1
  Al  Al226  1  0.81793967  0.49960024  0.32550784  1
  Al  Al227  1  0.18654265  0.00241080  0.17757894  1
  Al  Al228  1  0.32525690  -0.00129954  0.31171306  1
  Al  Al229  1  0.49911158  0.31430138  0.66852226  1
  Al  Al230  1  0.17684909  0.49820340  0.82030161  1
  Al  Al231  1  0.81900257  0.81680342  0.50386627  1
  Al  Al232  1  0.68162469  0.32549424  0.50087027  1
  Al  Al233  1  0.16441098  0.32962503  0.50067675  1
  Al  Al234  1  0.16940413  0.00094724  0.33044261  1
  Al  Al235  1  0.68186562  0.17032387  0.50114930  1
  Al  Al236  1  0.81762355  0.68210408  -0.00113902  1
  Al  Al237  1  0.68250300  0.68040021  0.50285135  1
  Al  Al238  1  0.81438518  0.00006958  0.32159750  1
  Au  Au239  1  0.49853233  0.83103230  0.17267110  1
  Au  Au240  1  0.50310363  0.82698280  0.65591202  1
  Au  Au241  1  0.67270361  0.83392456  -0.00022243  1
  Au  Au242  1  -0.00046701  0.83015868  0.17937196  1
  Au  Au243  1  0.82447107  0.00096430  0.33523989  1
  Au  Au244  1  0.83767496  0.83006359  -0.00618388  1
  Au  Au245  1  0.50300209  0.33642506  0.16425080  1
  Au  Au246  1  0.00157313  0.33193040  0.16973002  1
  Au  Au247  1  0.66096643  0.17189968  -0.00110248  1
  Au  Au248  1  0.32993259  0.15935271  0.50286553  1
  Au  Au249  1  0.34101232  0.50476646  0.33231770  1
  Au  Au250  1  0.15204865  0.32689113  0.50206127  1
  Au  Au251  1  0.67142553  0.66013186  0.00343686  1
  Au  Au252  1  0.34736451  0.67590611  0.00166488  1
  Au  Au253  1  0.32410916  -0.00432679  0.32819826  1
  Au  Au254  1  0.31671964  0.33309410  0.00008611  1
  Au  Au255  1  0.32720095  0.50247919  0.16437171  1
  Au  Au256  1  0.66760108  0.67217266  0.50334404  1
  Au  Au257  1  0.00050156  0.67718096  0.67469394  1
  Au  Au258  1  0.83393880  0.82463177  0.50371166  1
  Au  Au259  1  0.66779244  0.50262740  0.32470000  1
  Au  Au260  1  0.32711183  0.15775626  -0.00369776  1
  Au  Au261  1  0.15120395  0.65925190  -0.00072806  1
  Au  Au262  1  0.83319581  0.50075865  0.17200729  1
  Au  Au263  1  0.50431471  0.16242620  0.33780395  1
  Au  Au264  1  0.32991548  0.49892466  0.81794593  1
  Au  Au265  1  0.82777779  0.00135470  0.67574430  1
  Au  Au266  1  0.83665903  0.49938578  0.83662748  1
  Au  Au267  1  0.17045074  0.83259780  0.50335307  1
  Au  Au268  1  0.15788756  0.50025379  0.32905421  1
  Au  Au269  1  0.49823933  0.15615868  0.16997811  1
  Au  Au270  1  0.17016641  0.84620643  0.00162278  1
  Au  Au271  1  0.00336955  0.16281192  0.16994648  1
  Au  Au272  1  0.49608048  0.84191624  0.83554263  1
  Au  Au273  1  0.67769382  0.15401750  0.50318782  1
  Au  Au274  1  0.16437307  0.49765249  0.81727144  1
  Au  Au275  1  0.50064799  0.33102655  0.34035671  1
  Au  Au276  1  0.50132226  0.66620277  0.82087134  1
  Au  Au277  1  0.49978511  0.33052599  0.66352504  1
  Au  Au278  1  0.82862003  0.49768423  0.65549626  1
  Au  Au279  1  0.66399105  0.49678072  0.82602107  1
  Au  Au280  1  0.33032650  -0.00242622  0.67235016  1
  Au  Au281  1  0.83788976  0.17557328  -0.00527380  1
  Au  Au282  1  0.32818515  0.33844915  0.50099295  1
  Au  Au283  1  -0.00088612  0.17489584  0.34256114  1
  Au  Au284  1  0.68228530  0.34236584  0.50458550  1
  Au  Au285  1  0.16746615  0.00413009  0.82527253  1
  Au  Au286  1  0.50199416  0.31902045  0.84462265  1
  Au  Au287  1  0.82581354  0.00039970  0.15893096  1
