# generated using pymatgen
data_Ca24Ti8Al207Au49
_symmetry_space_group_name_H-M   'P 1'
_cell_length_a   17.32348627
_cell_length_b   17.32273161
_cell_length_c   17.32274277
_cell_angle_alpha   90.00260813
_cell_angle_beta   90.00378352
_cell_angle_gamma   89.99894665
_symmetry_Int_Tables_number   1
_chemical_formula_structural   Ca24Ti8Al207Au49
_chemical_formula_sum   'Ca24 Ti8 Al207 Au49'
_cell_volume   5198.38364816
_cell_formula_units_Z   1
loop_
 _symmetry_equiv_pos_site_id
 _symmetry_equiv_pos_as_xyz
  1  'x, y, z'
loop_
 _atom_site_type_symbol
 _atom_site_label
 _atom_site_symmetry_multiplicity
 _atom_site_fract_x
 _atom_site_fract_y
 _atom_site_fract_z
 _atom_site_occupancy
  Ca  Ca0  1  0.25075656  0.00155738  -0.00191046  1
  Ca  Ca1  1  0.24938908  -0.00257920  0.50245907  1
  Ca  Ca2  1  0.24948064  0.49733838  0.00247410  1
  Ca  Ca3  1  0.25240504  0.50413268  0.49694308  1
  Ca  Ca4  1  0.75233733  -0.00192266  0.00036824  1
  Ca  Ca5  1  0.75283214  0.00148147  0.49552857  1
  Ca  Ca6  1  0.75147621  0.50321537  0.00376135  1
  Ca  Ca7  1  0.74923397  0.50111356  0.49528359  1
  Ca  Ca8  1  0.00085092  0.24937472  0.00262227  1
  Ca  Ca9  1  0.00283141  0.25088353  0.49601843  1
  Ca  Ca10  1  -0.00088915  0.75063309  0.00194793  1
  Ca  Ca11  1  0.00006210  0.74812284  0.49827415  1
  Ca  Ca12  1  0.49619474  0.24834278  0.00155832  1
  Ca  Ca13  1  0.50027986  0.25240937  0.49814805  1
  Ca  Ca14  1  0.49940649  0.75252752  0.00080432  1
  Ca  Ca15  1  0.50009570  0.74777922  0.50078377  1
  Ca  Ca16  1  0.00171132  0.00150278  0.24731125  1
  Ca  Ca17  1  0.00493943  -0.00465085  0.75782415  1
  Ca  Ca18  1  -0.00095643  0.49778638  0.24828285  1
  Ca  Ca19  1  -0.00060937  0.50183897  0.75344156  1
  Ca  Ca20  1  0.49520942  0.00203779  0.24190027  1
  Ca  Ca21  1  0.49108354  0.00230028  0.75294706  1
  Ca  Ca22  1  0.49986949  0.49732886  0.24451428  1
  Ca  Ca23  1  0.50472321  0.49693630  0.75314422  1
  Ti  Ti24  1  0.25000273  0.24893642  0.24706014  1
  Ti  Ti25  1  0.24934329  0.24953581  0.75205312  1
  Ti  Ti26  1  0.24841857  0.75123001  0.24910926  1
  Ti  Ti27  1  0.24952236  0.75001219  0.75078602  1
  Ti  Ti28  1  0.75098318  0.24901977  0.24856210  1
  Ti  Ti29  1  0.74847976  0.25128716  0.75225694  1
  Ti  Ti30  1  0.75214464  0.75064384  0.24721084  1
  Ti  Ti31  1  0.75066438  0.74863304  0.75220371  1
  Al  Al32  1  0.08763723  0.09447074  0.08223859  1
  Al  Al33  1  0.08432285  0.07638656  0.58645341  1
  Al  Al34  1  0.07562333  0.58662500  0.08949026  1
  Al  Al35  1  0.07706910  0.58412424  0.57801169  1
  Al  Al36  1  0.57178474  0.08904030  0.08768796  1
  Al  Al37  1  0.57490626  0.08420013  0.57970885  1
  Al  Al38  1  0.59085001  0.58523057  0.08053569  1
  Al  Al39  1  0.57892671  0.58323400  0.59473548  1
  Al  Al40  1  0.41116046  0.41350384  0.08475730  1
  Al  Al41  1  0.42310210  0.41440385  0.58436137  1
  Al  Al42  1  0.40762094  0.92105882  0.08136614  1
  Al  Al43  1  0.40825293  0.92063007  0.58841241  1
  Al  Al44  1  0.91992767  0.41604573  0.08943404  1
  Al  Al45  1  0.90918398  0.42357944  0.59137445  1
  Al  Al46  1  0.91410066  0.90749055  0.07742143  1
  Al  Al47  1  0.92816855  0.90966463  0.59000240  1
  Al  Al48  1  0.41611287  0.08205998  0.40856604  1
  Al  Al49  1  0.40472526  0.08605747  0.91772614  1
  Al  Al50  1  0.41797276  0.57959182  0.41754833  1
  Al  Al51  1  0.41877282  0.58246108  0.92118710  1
  Al  Al52  1  0.92392534  0.08842348  0.40991354  1
  Al  Al53  1  0.92746573  0.08235324  0.92316967  1
  Al  Al54  1  0.91410254  0.57873950  0.40188365  1
  Al  Al55  1  0.91027951  0.58952875  0.92331038  1
  Al  Al56  1  0.07649892  0.41017154  0.41364194  1
  Al  Al57  1  0.07876194  0.40563182  0.91803237  1
  Al  Al58  1  0.08111129  0.91870689  0.42206219  1
  Al  Al59  1  0.09103855  0.91448652  0.91072758  1
  Al  Al60  1  0.58922461  0.42066311  0.40775184  1
  Al  Al61  1  0.57833774  0.40979769  0.91666541  1
  Al  Al62  1  0.57633682  0.92530748  0.41844968  1
  Al  Al63  1  0.58226878  0.91391005  0.92277516  1
  Al  Al64  1  0.07951636  0.08893030  0.41058069  1
  Al  Al65  1  0.09769185  0.08395188  0.91688695  1
  Al  Al66  1  0.07517075  0.58408412  0.41435794  1
  Al  Al67  1  0.07480146  0.58208116  0.92584199  1
  Al  Al68  1  0.57564427  0.08662708  0.41269990  1
  Al  Al69  1  0.57328107  0.08330506  0.92225157  1
  Al  Al70  1  0.58467498  0.57434938  0.40669774  1
  Al  Al71  1  0.58929362  0.58718263  0.92289509  1
  Al  Al72  1  0.41821021  0.42167673  0.41689126  1
  Al  Al73  1  0.41930291  0.40509720  0.91803281  1
  Al  Al74  1  0.40969094  0.92426856  0.41763867  1
  Al  Al75  1  0.40453786  0.91786687  0.91815135  1
  Al  Al76  1  0.91563753  0.41869190  0.40301612  1
  Al  Al77  1  0.92096909  0.41051421  0.91193896  1
  Al  Al78  1  0.92244153  0.91984039  0.41805603  1
  Al  Al79  1  0.92752398  0.89865964  0.91690624  1
  Al  Al80  1  0.08053641  0.40950502  0.08552991  1
  Al  Al81  1  0.07919282  0.41718789  0.57552965  1
  Al  Al82  1  0.08438317  0.91702602  0.07743842  1
  Al  Al83  1  0.08466966  0.91100575  0.59349119  1
  Al  Al84  1  0.58058191  0.41694391  0.08136122  1
  Al  Al85  1  0.58194251  0.41786602  0.58901721  1
  Al  Al86  1  0.58529410  0.91618064  0.07722488  1
  Al  Al87  1  0.57383831  0.92343253  0.58065110  1
  Al  Al88  1  0.40819725  0.08632407  0.08743607  1
  Al  Al89  1  0.41218577  0.07851903  0.59060161  1
  Al  Al90  1  0.40980336  0.57628175  0.08648078  1
  Al  Al91  1  0.42293287  0.58941812  0.58569548  1
  Al  Al92  1  0.92572827  0.08797618  0.08888925  1
  Al  Al93  1  0.92750931  0.07930620  0.57678691  1
  Al  Al94  1  0.91224264  0.59203595  0.08638347  1
  Al  Al95  1  0.91272072  0.58003860  0.59263265  1
  Al  Al96  1  0.25206651  0.13344525  0.12820807  1
  Al  Al97  1  0.25269534  0.13297860  0.64009440  1
  Al  Al98  1  0.25233144  0.63558535  0.13522778  1
  Al  Al99  1  0.24631502  0.63652505  0.63011099  1
  Al  Al100  1  0.75228136  0.13317429  0.13070742  1
  Al  Al101  1  0.74629713  0.13603370  0.63741504  1
  Al  Al102  1  0.74970043  0.63490961  0.13394312  1
  Al  Al103  1  0.75384591  0.62922322  0.63524203  1
  Al  Al104  1  0.25135592  0.36277494  0.13246341  1
  Al  Al105  1  0.25166492  0.36603523  0.63901250  1
  Al  Al106  1  0.25194601  0.86879188  0.13283074  1
  Al  Al107  1  0.25136467  0.86467365  0.63656286  1
  Al  Al108  1  0.75205683  0.36479864  0.13489534  1
  Al  Al109  1  0.74960108  0.37125908  0.63716781  1
  Al  Al110  1  0.75339652  0.86318492  0.12628435  1
  Al  Al111  1  0.75163063  0.86531097  0.63868236  1
  Al  Al112  1  0.24969399  0.13595669  0.36116389  1
  Al  Al113  1  0.25004658  0.13720416  0.87173011  1
  Al  Al114  1  0.24908075  0.63502246  0.36651449  1
  Al  Al115  1  0.24932892  0.63382100  0.86534889  1
  Al  Al116  1  0.75149502  0.13174447  0.36326966  1
  Al  Al117  1  0.74557881  0.14086873  0.87225878  1
  Al  Al118  1  0.75387382  0.63037412  0.36235961  1
  Al  Al119  1  0.74913944  0.63435020  0.86682985  1
  Al  Al120  1  0.25142085  0.36356801  0.36000062  1
  Al  Al121  1  0.24748060  0.36563468  0.86637569  1
  Al  Al122  1  0.24782003  0.86469516  0.36375296  1
  Al  Al123  1  0.24850277  0.86692620  0.86356578  1
  Al  Al124  1  0.75172926  0.36875027  0.36295261  1
  Al  Al125  1  0.75533976  0.36600354  0.86726947  1
  Al  Al126  1  0.75492121  0.86921138  0.36239068  1
  Al  Al127  1  0.75178853  0.85949169  0.87347644  1
  Al  Al128  1  0.13835024  0.24655134  0.12819883  1
  Al  Al129  1  0.13601898  0.25160688  0.63841099  1
  Al  Al130  1  0.13217672  0.75084520  0.13489196  1
  Al  Al131  1  0.13396866  0.75275547  0.63863740  1
  Al  Al132  1  0.63591566  0.24717206  0.13493621  1
  Al  Al133  1  0.63696053  0.25328569  0.63242535  1
  Al  Al134  1  0.63849605  0.74861091  0.12854222  1
  Al  Al135  1  0.63531472  0.74422929  0.63724338  1
  Al  Al136  1  0.13451772  0.24875428  0.36242434  1
  Al  Al137  1  0.13310227  0.24685141  0.87143548  1
  Al  Al138  1  0.13431134  0.74886097  0.36331235  1
  Al  Al139  1  0.12966020  0.75307823  0.86347981  1
  Al  Al140  1  0.63872115  0.25075414  0.36761782  1
  Al  Al141  1  0.62586388  0.25230887  0.86350747  1
  Al  Al142  1  0.64026444  0.74998330  0.36302078  1
  Al  Al143  1  0.63610133  0.74732577  0.86993747  1
  Al  Al144  1  0.36612805  0.24343884  0.13056959  1
  Al  Al145  1  0.36488583  0.24845931  0.63367527  1
  Al  Al146  1  0.36329583  0.75636286  0.13295421  1
  Al  Al147  1  0.36483198  0.74475329  0.63635587  1
  Al  Al148  1  0.86617624  0.25123215  0.13133696  1
  Al  Al149  1  0.86624426  0.25179587  0.63834647  1
  Al  Al150  1  0.87195090  0.74955077  0.13637507  1
  Al  Al151  1  0.86173836  0.74878405  0.63096081  1
  Al  Al152  1  0.36452510  0.24913418  0.36203790  1
  Al  Al153  1  0.36570140  0.24722659  0.86647017  1
  Al  Al154  1  0.36107773  0.74788435  0.36307187  1
  Al  Al155  1  0.36274322  0.75355641  0.86629147  1
  Al  Al156  1  0.86635492  0.24732445  0.36155743  1
  Al  Al157  1  0.86997312  0.24899499  0.86822304  1
  Al  Al158  1  0.86242959  0.75009506  0.36795211  1
  Al  Al159  1  0.86917279  0.75102553  0.86505398  1
  Al  Al160  1  0.13425788  0.13347260  0.24696192  1
  Al  Al161  1  0.13670549  0.13176489  0.75970269  1
  Al  Al162  1  0.13353251  0.63594176  0.24614745  1
  Al  Al163  1  0.13318298  0.63416822  0.75249478  1
  Al  Al164  1  0.63507304  0.13429222  0.24699636  1
  Al  Al165  1  0.62780971  0.13687114  0.75408901  1
  Al  Al166  1  0.63782753  0.63567245  0.24989484  1
  Al  Al167  1  0.63815102  0.62971817  0.74901815  1
  Al  Al168  1  0.36528205  0.13360886  0.24111521  1
  Al  Al169  1  0.36806978  0.13667959  0.75301818  1
  Al  Al170  1  0.36411615  0.63666444  0.24598583  1
  Al  Al171  1  0.36489204  0.63459654  0.75051412  1
  Al  Al172  1  0.86575320  0.13081506  0.24826728  1
  Al  Al173  1  0.86359159  0.13525169  0.75453666  1
  Al  Al174  1  0.86474941  0.63572354  0.24804704  1
  Al  Al175  1  0.86573344  0.63479463  0.75040502  1
  Al  Al176  1  0.13242193  0.36042736  0.24331338  1
  Al  Al177  1  0.13046664  0.36345253  0.75773281  1
  Al  Al178  1  0.12866725  0.86512444  0.24647264  1
  Al  Al179  1  0.13383086  0.86630745  0.75327386  1
  Al  Al180  1  0.63677261  0.36356180  0.25066686  1
  Al  Al181  1  0.63694207  0.36938483  0.75358621  1
  Al  Al182  1  0.64156269  0.86456317  0.24577519  1
  Al  Al183  1  0.63725155  0.86382397  0.75324061  1
  Al  Al184  1  0.36454308  0.36429911  0.24259702  1
  Al  Al185  1  0.36538636  0.36316503  0.75446995  1
  Al  Al186  1  0.36223322  0.86660677  0.24661800  1
  Al  Al187  1  0.36312836  0.86622941  0.74770928  1
  Al  Al188  1  0.86539761  0.36422787  0.24894513  1
  Al  Al189  1  0.86588450  0.36553647  0.75141567  1
  Al  Al190  1  0.87027603  0.86664252  0.24720355  1
  Al  Al191  1  0.87016016  0.86106094  0.75163044  1
  Al  Al192  1  0.17138595  0.49837907  0.32870725  1
  Al  Al193  1  0.67957516  0.32110132  -0.00039239  1
  Al  Al194  1  0.82699985  0.50053395  0.18393279  1
  Al  Al195  1  -0.00248010  0.32666887  0.67746035  1
  Al  Al196  1  -0.00128232  0.68788087  0.68202371  1
  Al  Al197  1  0.67375370  0.66793129  0.49843795  1
  Al  Al198  1  0.66835017  0.00123616  0.82077695  1
  Al  Al199  1  0.49913963  0.81549247  0.66725778  1
  Al  Al200  1  0.67717680  0.00296014  0.17366422  1
  Al  Al201  1  0.17883185  0.00133483  0.17669452  1
  Al  Al202  1  0.17539736  0.49946272  0.67646483  1
  Al  Al203  1  0.00230904  0.17081612  0.68347406  1
  Al  Al204  1  0.82162893  0.33195877  0.49795693  1
  Al  Al205  1  0.31774068  0.31183157  -0.00090667  1
  Al  Al206  1  0.32132576  0.68147709  0.00309305  1
  Al  Al207  1  0.32507579  0.49532991  0.82707910  1
  Al  Al208  1  0.32551642  0.82299416  0.50036955  1
  Al  Al209  1  0.17304268  0.82152577  0.50171788  1
  Al  Al210  1  0.49992181  0.32870892  0.32552988  1
  Al  Al211  1  0.50074542  0.67162069  0.16929046  1
  Al  Al212  1  0.30902665  0.00198911  0.81342338  1
  Al  Al213  1  0.31663079  0.00090265  0.30773565  1
  Al  Al214  1  0.18762886  0.82013101  -0.00126835  1
  Al  Al215  1  0.80998042  0.69421128  0.00093661  1
  Al  Al216  1  0.50021627  0.82752558  0.16931261  1
  Al  Al217  1  -0.00166038  0.68007203  0.31131421  1
  Al  Al218  1  0.18016718  0.32561639  0.49859864  1
  Al  Al219  1  0.50194263  0.66899638  0.81571284  1
  Al  Al220  1  -0.00037464  0.31139289  0.30877945  1
  Al  Al221  1  0.82529811  0.49825802  0.82231905  1
  Al  Al222  1  0.82745154  -0.00561521  0.83104204  1
  Al  Al223  1  0.32615315  0.50035767  0.31219245  1
  Al  Al224  1  0.50166386  0.31904263  0.68892854  1
  Al  Al225  1  0.18461191  0.49922626  0.17134209  1
  Al  Al226  1  0.50083230  0.82823898  0.32053773  1
  Al  Al227  1  0.67910381  0.82806463  0.50031697  1
  Al  Al228  1  0.82734005  -0.00040774  0.66938620  1
  Al  Al229  1  0.49916744  0.17790004  0.30864298  1
  Al  Al230  1  0.16998635  0.17288483  0.50251009  1
  Al  Al231  1  0.49771655  0.82684963  0.82706419  1
  Al  Al232  1  0.32611563  0.17514862  0.50012719  1
  Al  Al233  1  0.18867025  -0.00017728  0.68985966  1
  Al  Al234  1  0.67394719  0.49876216  0.18201059  1
  Al  Al235  1  0.50028366  0.31295583  0.17349402  1
  Al  Al236  1  0.50030342  0.67175933  0.32247169  1
  Al  Al237  1  0.82439358  0.17476876  0.50101710  1
  Al  Al238  1  0.00125421  0.19281254  0.18882740  1
  Au  Au239  1  0.00194131  0.82635071  0.33241972  1
  Au  Au240  1  0.67671925  0.50063283  0.66810648  1
  Au  Au241  1  0.66380584  0.33578256  0.49914405  1
  Au  Au242  1  0.83070629  0.33702752  0.00260742  1
  Au  Au243  1  0.16388736  0.67278586  0.49527859  1
  Au  Au244  1  0.32714074  0.33977797  0.49905438  1
  Au  Au245  1  0.16865328  0.49930601  0.17582243  1
  Au  Au246  1  0.83332867  0.33588441  0.49651043  1
  Au  Au247  1  0.18109844  0.00275972  0.16436798  1
  Au  Au248  1  0.66531225  0.00250998  0.32900660  1
  Au  Au249  1  0.83408379  -0.00289308  0.16212336  1
  Au  Au250  1  0.66840602  0.00055889  0.16504046  1
  Au  Au251  1  0.16299114  0.67476102  0.00245562  1
  Au  Au252  1  0.33882215  0.67396263  0.49968362  1
  Au  Au253  1  0.49812383  0.17283281  0.66920892  1
  Au  Au254  1  0.33083173  0.67367071  0.00070224  1
  Au  Au255  1  0.17655860  -0.00211295  0.67842788  1
  Au  Au256  1  0.66417532  0.00076021  0.83256122  1
  Au  Au257  1  0.49385488  0.82633198  0.33589929  1
  Au  Au258  1  -0.00119571  0.67785449  0.66827248  1
  Au  Au259  1  0.83834455  -0.00975735  0.84462101  1
  Au  Au260  1  0.66470555  0.00386226  0.66560309  1
  Au  Au261  1  0.34511801  0.50214057  0.67299333  1
  Au  Au262  1  -0.00046512  0.33524362  0.66845410  1
  Au  Au263  1  0.16028072  0.49962560  0.83925406  1
  Au  Au264  1  0.49489870  0.17734915  0.83700768  1
  Au  Au265  1  0.83982115  0.00013421  0.67208884  1
  Au  Au266  1  0.16905613  0.32041293  0.00041065  1
  Au  Au267  1  0.66485657  0.16628962  0.49817357  1
  Au  Au268  1  0.67234563  0.84436274  0.49990347  1
  Au  Au269  1  -0.00071187  0.67913647  0.84042737  1
  Au  Au270  1  0.83666287  0.65852556  0.49626502  1
  Au  Au271  1  0.83455027  0.50096916  0.83045546  1
  Au  Au272  1  0.83717989  0.00068332  0.33061413  1
  Au  Au273  1  0.16984084  0.50054301  0.66051968  1
  Au  Au274  1  0.83627335  0.17099055  0.49960567  1
  Au  Au275  1  0.50366686  0.67211171  0.83246866  1
  Au  Au276  1  0.17272561  -0.00006223  0.34048366  1
  Au  Au277  1  0.00121666  0.82381349  0.16241966  1
  Au  Au278  1  0.67006722  0.49638772  0.83895069  1
  Au  Au279  1  0.49807255  0.83166421  0.67289653  1
  Au  Au280  1  0.32316569  0.16259402  0.50069753  1
  Au  Au281  1  0.33357156  0.49744095  0.83602647  1
  Au  Au282  1  0.83458545  0.16796651  0.00145089  1
  Au  Au283  1  0.84221590  0.82982742  0.50211817  1
  Au  Au284  1  0.67677786  0.81857828  -0.00064147  1
  Au  Au285  1  0.66049531  0.17362199  0.00187445  1
  Au  Au286  1  0.65713185  0.66448741  0.49821891  1
  Au  Au287  1  0.00471064  0.17015948  0.83385319  1
