# generated using pymatgen
data_Ca24Ti8Al207Au49
_symmetry_space_group_name_H-M   'P 1'
_cell_length_a   17.32608549
_cell_length_b   17.32358529
_cell_length_c   17.32610387
_cell_angle_alpha   89.99893339
_cell_angle_beta   90.00417526
_cell_angle_gamma   89.99938010
_symmetry_Int_Tables_number   1
_chemical_formula_structural   Ca24Ti8Al207Au49
_chemical_formula_sum   'Ca24 Ti8 Al207 Au49'
_cell_volume   5200.42867178
_cell_formula_units_Z   1
loop_
 _symmetry_equiv_pos_site_id
 _symmetry_equiv_pos_as_xyz
  1  'x, y, z'
loop_
 _atom_site_type_symbol
 _atom_site_label
 _atom_site_symmetry_multiplicity
 _atom_site_fract_x
 _atom_site_fract_y
 _atom_site_fract_z
 _atom_site_occupancy
  Ca  Ca0  1  0.24819198  0.00154295  0.00030818  1
  Ca  Ca1  1  0.25178251  0.00273143  0.50193891  1
  Ca  Ca2  1  0.25330738  0.50291609  -0.00306761  1
  Ca  Ca3  1  0.24881546  0.49687530  0.49594879  1
  Ca  Ca4  1  0.74644924  0.00312839  0.00161527  1
  Ca  Ca5  1  0.74811888  0.00211057  0.49837288  1
  Ca  Ca6  1  0.74848696  0.50151263  0.00695659  1
  Ca  Ca7  1  0.75093259  0.49651453  0.49657839  1
  Ca  Ca8  1  0.00074851  0.24733410  0.00121926  1
  Ca  Ca9  1  0.00589328  0.25115511  0.49987071  1
  Ca  Ca10  1  0.00213904  0.74219373  0.00456776  1
  Ca  Ca11  1  -0.00130420  0.74775906  0.49826184  1
  Ca  Ca12  1  0.49893869  0.24835117  -0.00259216  1
  Ca  Ca13  1  0.49706552  0.24978101  0.50033868  1
  Ca  Ca14  1  0.49643420  0.74510039  0.00046897  1
  Ca  Ca15  1  0.50161903  0.74781104  0.49899522  1
  Ca  Ca16  1  0.00301456  0.00019393  0.24896438  1
  Ca  Ca17  1  0.00151175  0.00397608  0.74966037  1
  Ca  Ca18  1  -0.00133163  0.49951003  0.25256309  1
  Ca  Ca19  1  0.00141713  0.49757205  0.74660373  1
  Ca  Ca20  1  0.49708974  0.00054776  0.25076205  1
  Ca  Ca21  1  0.49961053  0.00213432  0.74842552  1
  Ca  Ca22  1  0.50127906  0.50022180  0.24968303  1
  Ca  Ca23  1  0.49873059  0.50016784  0.74987952  1
  Ti  Ti24  1  0.24944293  0.24894211  0.25056424  1
  Ti  Ti25  1  0.25055432  0.24934724  0.74992135  1
  Ti  Ti26  1  0.25088334  0.75152241  0.25113280  1
  Ti  Ti27  1  0.24947536  0.75051860  0.75004541  1
  Ti  Ti28  1  0.74972560  0.25137877  0.24953453  1
  Ti  Ti29  1  0.74960033  0.24875608  0.74990672  1
  Ti  Ti30  1  0.74941428  0.74779819  0.24908845  1
  Ti  Ti31  1  0.74963943  0.74987800  0.74915788  1
  Al  Al32  1  0.08574504  0.09008174  0.07936571  1
  Al  Al33  1  0.09977725  0.08906276  0.58529155  1
  Al  Al34  1  0.08374347  0.58701875  0.09002919  1
  Al  Al35  1  0.07922503  0.57220248  0.57808141  1
  Al  Al36  1  0.58822470  0.08055794  0.08985680  1
  Al  Al37  1  0.57995664  0.08468342  0.58356496  1
  Al  Al38  1  0.57770065  0.58102323  0.08376363  1
  Al  Al39  1  0.57623109  0.58610248  0.58776102  1
  Al  Al40  1  0.42342917  0.41425850  0.08627941  1
  Al  Al41  1  0.41838963  0.41460823  0.57850001  1
  Al  Al42  1  0.41750177  0.91683938  0.08298912  1
  Al  Al43  1  0.41821794  0.91897822  0.58441257  1
  Al  Al44  1  0.90812143  0.42720182  0.08715127  1
  Al  Al45  1  0.91393145  0.41029475  0.57756065  1
  Al  Al46  1  0.91939163  0.91967083  0.08750135  1
  Al  Al47  1  0.91741419  0.92212146  0.57987708  1
  Al  Al48  1  0.39843977  0.08219949  0.41854721  1
  Al  Al49  1  0.41442375  0.08747749  0.91094880  1
  Al  Al50  1  0.41042749  0.57915991  0.41361544  1
  Al  Al51  1  0.40927964  0.58514889  0.91428237  1
  Al  Al52  1  0.92216492  0.08444391  0.41919440  1
  Al  Al53  1  0.91969708  0.08135062  0.91813640  1
  Al  Al54  1  0.91987799  0.58197927  0.41547428  1
  Al  Al55  1  0.92288548  0.57464368  0.92017991  1
  Al  Al56  1  0.09330441  0.41188352  0.41487131  1
  Al  Al57  1  0.08373178  0.41591278  0.91582722  1
  Al  Al58  1  0.08417359  0.92534040  0.42150201  1
  Al  Al59  1  0.08433565  0.92208606  0.91892922  1
  Al  Al60  1  0.59140914  0.41264766  0.41771368  1
  Al  Al61  1  0.57887547  0.41330243  0.91966509  1
  Al  Al62  1  0.57778168  0.91468491  0.41730994  1
  Al  Al63  1  0.57899808  0.92485965  0.92289037  1
  Al  Al64  1  0.09547021  0.09203542  0.42307333  1
  Al  Al65  1  0.09133765  0.08814560  0.91967998  1
  Al  Al66  1  0.08455206  0.57342596  0.40679237  1
  Al  Al67  1  0.08763089  0.58522945  0.92092192  1
  Al  Al68  1  0.58175801  0.08030816  0.42127843  1
  Al  Al69  1  0.57592983  0.08950368  0.91020281  1
  Al  Al70  1  0.57992953  0.57383613  0.41585509  1
  Al  Al71  1  0.57632023  0.58200335  0.91978646  1
  Al  Al72  1  0.40841873  0.41844429  0.41244002  1
  Al  Al73  1  0.41562600  0.42160118  0.90950732  1
  Al  Al74  1  0.41473912  0.92184339  0.40907528  1
  Al  Al75  1  0.41196939  0.92430319  0.92088581  1
  Al  Al76  1  0.91196204  0.41090755  0.41894089  1
  Al  Al77  1  0.92184779  0.41602201  0.92080389  1
  Al  Al78  1  0.91911810  0.91984156  0.42146356  1
  Al  Al79  1  0.91878323  0.92214862  0.91961796  1
  Al  Al80  1  0.08594462  0.42144982  0.07726071  1
  Al  Al81  1  0.08748706  0.41143918  0.57682522  1
  Al  Al82  1  0.07867076  0.91760181  0.08322832  1
  Al  Al83  1  0.08890030  0.92863589  0.58772365  1
  Al  Al84  1  0.58269035  0.41086513  0.08516454  1
  Al  Al85  1  0.58865439  0.40939033  0.57747185  1
  Al  Al86  1  0.58749561  0.92097148  0.08977681  1
  Al  Al87  1  0.57931863  0.91491237  0.58153996  1
  Al  Al88  1  0.41704165  0.08259516  0.08053716  1
  Al  Al89  1  0.40753949  0.09099071  0.58083441  1
  Al  Al90  1  0.41154767  0.58586791  0.08041330  1
  Al  Al91  1  0.41920251  0.58784589  0.58513162  1
  Al  Al92  1  0.92124861  0.08040654  0.08505729  1
  Al  Al93  1  0.92067389  0.08333810  0.58240906  1
  Al  Al94  1  0.91854699  0.58646161  0.09745963  1
  Al  Al95  1  0.91851824  0.57782648  0.57665017  1
  Al  Al96  1  0.24897366  0.13056452  0.13744791  1
  Al  Al97  1  0.25075382  0.13175239  0.63551490  1
  Al  Al98  1  0.25465146  0.63853377  0.13275770  1
  Al  Al99  1  0.25011388  0.63448596  0.63522897  1
  Al  Al100  1  0.74682117  0.13774577  0.13220867  1
  Al  Al101  1  0.74629669  0.13658334  0.63426072  1
  Al  Al102  1  0.75018154  0.62788180  0.13748126  1
  Al  Al103  1  0.74855064  0.63410421  0.63530808  1
  Al  Al104  1  0.24758771  0.36251442  0.13248949  1
  Al  Al105  1  0.24905664  0.36409002  0.63214210  1
  Al  Al106  1  0.25148623  0.87227484  0.13610302  1
  Al  Al107  1  0.25104601  0.86953612  0.63134629  1
  Al  Al108  1  0.75084079  0.37069411  0.13697047  1
  Al  Al109  1  0.74783225  0.36055634  0.63009682  1
  Al  Al110  1  0.74712508  0.86608446  0.13470388  1
  Al  Al111  1  0.75054878  0.86463955  0.63419544  1
  Al  Al112  1  0.25158767  0.13262631  0.36921136  1
  Al  Al113  1  0.24742083  0.13438408  0.86310964  1
  Al  Al114  1  0.24839876  0.62983407  0.36539143  1
  Al  Al115  1  0.25125119  0.62820001  0.86360839  1
  Al  Al116  1  0.74592894  0.13617423  0.36652241  1
  Al  Al117  1  0.74660960  0.13657619  0.86882595  1
  Al  Al118  1  0.75325637  0.63212871  0.36338367  1
  Al  Al119  1  0.74869949  0.64022583  0.86506504  1
  Al  Al120  1  0.24801178  0.36478651  0.36701160  1
  Al  Al121  1  0.24991724  0.37076376  0.86231256  1
  Al  Al122  1  0.25168171  0.87147010  0.36818026  1
  Al  Al123  1  0.24985340  0.86701687  0.86541218  1
  Al  Al124  1  0.75193841  0.36331236  0.36773137  1
  Al  Al125  1  0.75119928  0.35946145  0.86562825  1
  Al  Al126  1  0.74807900  0.86500753  0.36333414  1
  Al  Al127  1  0.74472850  0.86642271  0.86594013  1
  Al  Al128  1  0.13710414  0.24726611  0.13273877  1
  Al  Al129  1  0.13929268  0.24665751  0.63061638  1
  Al  Al130  1  0.13771622  0.74931794  0.13881736  1
  Al  Al131  1  0.13983803  0.75324691  0.63399399  1
  Al  Al132  1  0.63415834  0.25129140  0.13628425  1
  Al  Al133  1  0.62789946  0.25070430  0.63561805  1
  Al  Al134  1  0.63502627  0.75212867  0.13778079  1
  Al  Al135  1  0.63538950  0.74780926  0.63537708  1
  Al  Al136  1  0.14033410  0.24777751  0.37042606  1
  Al  Al137  1  0.13812621  0.24771757  0.86864783  1
  Al  Al138  1  0.14143967  0.75176605  0.36645947  1
  Al  Al139  1  0.13733065  0.75327250  0.86277413  1
  Al  Al140  1  0.63214169  0.25485457  0.36306881  1
  Al  Al141  1  0.63203253  0.24618617  0.86343108  1
  Al  Al142  1  0.63532152  0.74765440  0.36205562  1
  Al  Al143  1  0.63578229  0.74877170  0.86248253  1
  Al  Al144  1  0.36459402  0.25115358  0.13845244  1
  Al  Al145  1  0.36698589  0.24656087  0.63313546  1
  Al  Al146  1  0.36424812  0.75200861  0.13580044  1
  Al  Al147  1  0.36286595  0.75038650  0.63580635  1
  Al  Al148  1  0.86105980  0.25064274  0.13054774  1
  Al  Al149  1  0.86280594  0.24993589  0.62942590  1
  Al  Al150  1  0.86413844  0.74489393  0.13774586  1
  Al  Al151  1  0.86362191  0.75152822  0.63586407  1
  Al  Al152  1  0.36550057  0.24573066  0.36563724  1
  Al  Al153  1  0.36398782  0.24770529  0.86419175  1
  Al  Al154  1  0.36183231  0.75270975  0.36375493  1
  Al  Al155  1  0.36045419  0.74242597  0.86907226  1
  Al  Al156  1  0.86255415  0.25066341  0.36938024  1
  Al  Al157  1  0.86409780  0.24502519  0.87051246  1
  Al  Al158  1  0.86266281  0.74947630  0.36111475  1
  Al  Al159  1  0.86404211  0.75364393  0.86376000  1
  Al  Al160  1  0.13868829  0.13076164  0.25502050  1
  Al  Al161  1  0.13380870  0.13226342  0.74724236  1
  Al  Al162  1  0.13809503  0.63352817  0.25137356  1
  Al  Al163  1  0.13613669  0.63559291  0.75389101  1
  Al  Al164  1  0.63462770  0.13246532  0.24955513  1
  Al  Al165  1  0.63079939  0.13319296  0.74888969  1
  Al  Al166  1  0.63503564  0.63296866  0.24906453  1
  Al  Al167  1  0.63335613  0.63217685  0.74652425  1
  Al  Al168  1  0.36257186  0.12865436  0.25209036  1
  Al  Al169  1  0.36842423  0.13533573  0.74754755  1
  Al  Al170  1  0.36288764  0.63134628  0.25685628  1
  Al  Al171  1  0.36345707  0.63288616  0.75099853  1
  Al  Al172  1  0.86336958  0.14024299  0.25189186  1
  Al  Al173  1  0.86996978  0.13890298  0.74831406  1
  Al  Al174  1  0.86467272  0.62699470  0.24746337  1
  Al  Al175  1  0.86450466  0.63533834  0.74972366  1
  Al  Al176  1  0.13685672  0.36843424  0.25494506  1
  Al  Al177  1  0.13540583  0.36002381  0.75012684  1
  Al  Al178  1  0.13987208  0.87255432  0.25011763  1
  Al  Al179  1  0.13834571  0.87369083  0.74915829  1
  Al  Al180  1  0.63359681  0.36571888  0.24526980  1
  Al  Al181  1  0.63613281  0.36622011  0.74650333  1
  Al  Al182  1  0.63553011  0.86989084  0.24901419  1
  Al  Al183  1  0.63817845  0.87181614  0.74543990  1
  Al  Al184  1  0.36191687  0.36667024  0.25383887  1
  Al  Al185  1  0.36408116  0.36362804  0.74843691  1
  Al  Al186  1  0.36294064  0.87084203  0.25009779  1
  Al  Al187  1  0.36102242  0.86545355  0.74673827  1
  Al  Al188  1  0.86219621  0.36893543  0.25196936  1
  Al  Al189  1  0.86267754  0.36322423  0.74820638  1
  Al  Al190  1  0.86185008  0.86463608  0.24578538  1
  Al  Al191  1  0.86467499  0.86713230  0.75153100  1
  Al  Al192  1  0.67721413  0.49937213  0.82775000  1
  Al  Al193  1  0.67832403  0.31926312  0.00038464  1
  Al  Al194  1  0.49956748  0.32581379  0.32171671  1
  Al  Al195  1  -0.00097307  0.32030656  0.82433936  1
  Al  Al196  1  0.50030572  0.81249073  0.67289997  1
  Al  Al197  1  -0.00044944  0.32387875  0.17453933  1
  Al  Al198  1  0.82201963  0.49739348  0.66904386  1
  Al  Al199  1  0.49908585  0.81688901  0.31874361  1
  Al  Al200  1  0.81639847  0.00280294  0.17209847  1
  Al  Al201  1  0.00008665  0.67749985  0.82726465  1
  Al  Al202  1  0.49947880  0.31623818  0.81944079  1
  Al  Al203  1  0.82310752  0.49971858  0.82605065  1
  Al  Al204  1  0.49917329  0.18386492  0.18064601  1
  Al  Al205  1  0.32075614  0.81638271  0.00052252  1
  Al  Al206  1  0.49888684  0.67377118  0.81514110  1
  Al  Al207  1  0.81847359  0.00108644  0.32758082  1
  Al  Al208  1  0.32640602  0.67981791  0.49956485  1
  Al  Al209  1  0.31216995  0.31318225  0.49919316  1
  Al  Al210  1  0.82470072  0.68015608  0.49930756  1
  Al  Al211  1  0.68006455  0.18830287  0.49977074  1
  Al  Al212  1  0.82141518  0.00258554  0.82602370  1
  Al  Al213  1  0.82235251  0.00250784  0.67364435  1
  Al  Al214  1  0.31594191  0.17245328  0.00065654  1
  Al  Al215  1  0.00090074  0.17366081  0.18246246  1
  Al  Al216  1  0.82827395  0.66958980  0.00127063  1
  Al  Al217  1  0.32481631  0.50086255  0.18034591  1
  Al  Al218  1  0.67768759  0.82314359  0.49866379  1
  Al  Al219  1  0.67074888  0.66874850  0.49785476  1
  Al  Al220  1  0.16858135  0.67286558  0.49842415  1
  Al  Al221  1  0.49780449  0.68108896  0.18115668  1
  Al  Al222  1  0.32855807  0.49977528  0.67782811  1
  Al  Al223  1  0.17953958  0.50161250  0.18073142  1
  Al  Al224  1  0.68374479  0.49762062  0.31791663  1
  Al  Al225  1  0.00087932  0.31914689  0.32930367  1
  Al  Al226  1  0.32234336  0.32860962  -0.00066751  1
  Al  Al227  1  0.18834150  0.68126588  -0.00066902  1
  Al  Al228  1  0.50404288  0.82761729  0.82635617  1
  Al  Al229  1  0.00146006  0.67079749  0.67194812  1
  Al  Al230  1  0.00037804  0.81312485  0.17328634  1
  Al  Al231  1  -0.00002863  0.82831267  0.31983084  1
  Al  Al232  1  0.82164740  0.82759608  0.00226110  1
  Al  Al233  1  0.00081501  0.67279159  0.31294912  1
  Al  Al234  1  0.31832989  0.00165883  0.81639935  1
  Al  Al235  1  0.17404170  0.49802043  0.68146166  1
  Al  Al236  1  0.00114097  0.82780744  0.67994867  1
  Al  Al237  1  0.67255541  0.67801108  0.00207082  1
  Al  Al238  1  0.00076566  0.32085856  0.67032216  1
  Au  Au239  1  0.67250429  -0.00167191  0.66192170  1
  Au  Au240  1  0.16516904  0.00247114  0.16727048  1
  Au  Au241  1  0.33567563  0.49585978  0.17669728  1
  Au  Au242  1  0.16972850  0.66054352  0.49610151  1
  Au  Au243  1  0.83306900  0.50325822  0.83355920  1
  Au  Au244  1  0.82654136  0.83067444  0.50013975  1
  Au  Au245  1  0.16501204  0.82678306  0.00366339  1
  Au  Au246  1  -0.00189598  0.33885096  0.16776791  1
  Au  Au247  1  0.17077112  0.50577152  0.17295388  1
  Au  Au248  1  0.66906356  0.49925257  0.16839960  1
  Au  Au249  1  0.67163949  0.00376612  0.83569029  1
  Au  Au250  1  0.50122449  0.33363352  0.67250762  1
  Au  Au251  1  0.66478878  0.18066285  0.49967203  1
  Au  Au252  1  0.66290551  0.17044601  -0.00124499  1
  Au  Au253  1  0.00246428  0.17273405  0.83718751  1
  Au  Au254  1  0.83279576  0.49826606  0.32899700  1
  Au  Au255  1  0.49966676  0.17622417  0.16571835  1
  Au  Au256  1  0.17079734  0.49996973  0.83111948  1
  Au  Au257  1  0.66097589  0.82754662  0.00077440  1
  Au  Au258  1  0.17162017  0.83779122  0.50351057  1
  Au  Au259  1  0.49871549  0.66521161  0.33128282  1
  Au  Au260  1  0.50140669  0.83195179  0.17122720  1
  Au  Au261  1  0.16907874  0.00212796  0.82657647  1
  Au  Au262  1  0.32601330  0.82806146  -0.00001490  1
  Au  Au263  1  0.49747140  0.16586230  0.67616343  1
  Au  Au264  1  0.33469331  0.00110441  0.17414697  1
  Au  Au265  1  0.48798207  0.83237956  0.82607502  1
  Au  Au266  1  0.00345404  0.82860072  0.66339143  1
  Au  Au267  1  0.33452837  0.32510346  0.00037694  1
  Au  Au268  1  0.00537241  0.82401962  0.33544387  1
  Au  Au269  1  0.67148885  0.49964785  0.65821512  1
  Au  Au270  1  0.00547858  0.16946722  0.33331229  1
  Au  Au271  1  0.34077011  0.82943842  0.49734811  1
  Au  Au272  1  0.00072959  0.82642708  0.84152762  1
  Au  Au273  1  0.65776274  -0.00139471  0.32290632  1
  Au  Au274  1  0.32592861  0.32335589  0.49736321  1
  Au  Au275  1  0.83418882  0.82480566  0.00272669  1
  Au  Au276  1  0.82577373  0.33861385  0.00186239  1
  Au  Au277  1  0.83430283  0.16696340  0.00315632  1
  Au  Au278  1  0.83473767  0.00180916  0.32196387  1
  Au  Au279  1  0.00460093  0.17082083  0.66447179  1
  Au  Au280  1  0.16679710  0.32277387  -0.00221841  1
  Au  Au281  1  0.49261648  0.16351657  0.34004620  1
  Au  Au282  1  0.49985934  0.33832778  0.32535919  1
  Au  Au283  1  0.32619919  0.00090782  0.66777168  1
  Au  Au284  1  0.83827850  0.17788976  0.50036157  1
  Au  Au285  1  0.17887124  0.00241976  0.33744101  1
  Au  Au286  1  0.32839440  0.50234945  0.66512861  1
  Au  Au287  1  0.66896951  0.49922811  0.83681495  1
