# generated using pymatgen
data_Ca24Ti8Al207Au49
_symmetry_space_group_name_H-M   'P 1'
_cell_length_a   17.31833433
_cell_length_b   17.31875957
_cell_length_c   17.31848925
_cell_angle_alpha   89.99308959
_cell_angle_beta   89.99954965
_cell_angle_gamma   90.00399613
_symmetry_Int_Tables_number   1
_chemical_formula_structural   Ca24Ti8Al207Au49
_chemical_formula_sum   'Ca24 Ti8 Al207 Au49'
_cell_volume   5194.37025284
_cell_formula_units_Z   1
loop_
 _symmetry_equiv_pos_site_id
 _symmetry_equiv_pos_as_xyz
  1  'x, y, z'
loop_
 _atom_site_type_symbol
 _atom_site_label
 _atom_site_symmetry_multiplicity
 _atom_site_fract_x
 _atom_site_fract_y
 _atom_site_fract_z
 _atom_site_occupancy
  Ca  Ca0  1  0.24532066  -0.00173983  0.00381454  1
  Ca  Ca1  1  0.25057854  0.00007961  0.50004880  1
  Ca  Ca2  1  0.24077747  0.50054231  0.00037972  1
  Ca  Ca3  1  0.24880586  0.49570445  0.49897177  1
  Ca  Ca4  1  0.75739105  0.00217525  -0.00134985  1
  Ca  Ca5  1  0.75521245  0.00295928  0.50350720  1
  Ca  Ca6  1  0.75484952  0.49927539  0.00100929  1
  Ca  Ca7  1  0.75317973  0.49655440  0.49925447  1
  Ca  Ca8  1  0.00680000  0.24343923  -0.00288927  1
  Ca  Ca9  1  -0.00923413  0.24358537  0.49704463  1
  Ca  Ca10  1  0.00235611  0.75285782  -0.00048613  1
  Ca  Ca11  1  -0.00044861  0.75089613  0.49718581  1
  Ca  Ca12  1  0.49887108  0.24749845  0.00114314  1
  Ca  Ca13  1  0.50870223  0.24767526  0.49580304  1
  Ca  Ca14  1  0.49898351  0.75390597  -0.00101882  1
  Ca  Ca15  1  0.49976982  0.75215692  0.49843578  1
  Ca  Ca16  1  0.00026165  0.00198837  0.24490068  1
  Ca  Ca17  1  -0.00305195  0.00293323  0.75804721  1
  Ca  Ca18  1  0.00064724  0.49884606  0.24929353  1
  Ca  Ca19  1  0.00081366  0.49678598  0.75406478  1
  Ca  Ca20  1  0.49755637  0.00068240  0.24562393  1
  Ca  Ca21  1  0.50211434  -0.00174711  0.74977550  1
  Ca  Ca22  1  0.50160099  0.50070946  0.25219585  1
  Ca  Ca23  1  0.49773606  0.50151294  0.74911103  1
  Ti  Ti24  1  0.24762327  0.25101400  0.24674398  1
  Ti  Ti25  1  0.24712631  0.24955354  0.75328005  1
  Ti  Ti26  1  0.24960921  0.74873870  0.25074177  1
  Ti  Ti27  1  0.24781488  0.74923067  0.75122231  1
  Ti  Ti28  1  0.75169007  0.24915653  0.25140153  1
  Ti  Ti29  1  0.75210498  0.24989580  0.74995015  1
  Ti  Ti30  1  0.75088827  0.75077032  0.24977748  1
  Ti  Ti31  1  0.75122833  0.75040672  0.75238137  1
  Al  Al32  1  0.08924030  0.08164423  0.07887854  1
  Al  Al33  1  0.07922647  0.08187640  0.58924815  1
  Al  Al34  1  0.08210187  0.59313438  0.08160912  1
  Al  Al35  1  0.08345139  0.57694488  0.58299004  1
  Al  Al36  1  0.58137044  0.07759000  0.07858607  1
  Al  Al37  1  0.60218163  0.08383553  0.58492009  1
  Al  Al38  1  0.59105436  0.58044615  0.08773411  1
  Al  Al39  1  0.57984829  0.57904610  0.57543598  1
  Al  Al40  1  0.40305497  0.41715063  0.08509089  1
  Al  Al41  1  0.42511761  0.43067406  0.57209893  1
  Al  Al42  1  0.40741165  0.91154840  0.09160414  1
  Al  Al43  1  0.42267381  0.91538103  0.58342727  1
  Al  Al44  1  0.92348883  0.41745131  0.08752865  1
  Al  Al45  1  0.91771025  0.40106437  0.58183671  1
  Al  Al46  1  0.92646445  0.91812347  0.08038511  1
  Al  Al47  1  0.91334521  0.92291412  0.58761228  1
  Al  Al48  1  0.41628671  0.07846239  0.41498270  1
  Al  Al49  1  0.41162667  0.07850005  0.92193773  1
  Al  Al50  1  0.39869371  0.58600373  0.41355853  1
  Al  Al51  1  0.41651877  0.57950449  0.92399171  1
  Al  Al52  1  0.90904975  0.08870519  0.40886621  1
  Al  Al53  1  0.91631769  0.09125696  0.91144759  1
  Al  Al54  1  0.91673204  0.57992228  0.41320536  1
  Al  Al55  1  0.92553787  0.58646780  0.91217695  1
  Al  Al56  1  0.07492776  0.41551031  0.40580131  1
  Al  Al57  1  0.08744365  0.41280288  0.90561658  1
  Al  Al58  1  0.07485622  0.92282968  0.41465157  1
  Al  Al59  1  0.09001841  0.91926179  0.91949389  1
  Al  Al60  1  0.59805505  0.41488170  0.40990132  1
  Al  Al61  1  0.58872506  0.42701164  0.91412985  1
  Al  Al62  1  0.57883652  0.92291947  0.41448821  1
  Al  Al63  1  0.59020165  0.91966777  0.91541696  1
  Al  Al64  1  0.07359739  0.08591796  0.41010327  1
  Al  Al65  1  0.08467249  0.08783388  0.91407762  1
  Al  Al66  1  0.08213937  0.57897730  0.41256270  1
  Al  Al67  1  0.08693568  0.58834137  0.91128721  1
  Al  Al68  1  0.59223378  0.08800131  0.42355238  1
  Al  Al69  1  0.59304526  0.07743751  0.91469284  1
  Al  Al70  1  0.59047113  0.57479985  0.41367885  1
  Al  Al71  1  0.59085214  0.58060559  0.91557824  1
  Al  Al72  1  0.41830134  0.42878929  0.40928839  1
  Al  Al73  1  0.40650416  0.41406367  0.92834359  1
  Al  Al74  1  0.41417434  0.91821968  0.41336886  1
  Al  Al75  1  0.40841172  0.91660916  0.92493265  1
  Al  Al76  1  0.91295748  0.40737856  0.41476882  1
  Al  Al77  1  0.92703263  0.41056863  0.90782898  1
  Al  Al78  1  0.91023292  0.92520356  0.41222370  1
  Al  Al79  1  0.91711015  0.92650195  0.91545601  1
  Al  Al80  1  0.08145255  0.41152897  0.08421020  1
  Al  Al81  1  0.07405379  0.41229703  0.59686254  1
  Al  Al82  1  0.09205778  0.91195546  0.08504591  1
  Al  Al83  1  0.07563589  0.92491540  0.58985865  1
  Al  Al84  1  0.58701394  0.42564100  0.08741870  1
  Al  Al85  1  0.59551095  0.41553084  0.56985317  1
  Al  Al86  1  0.57481727  0.90965477  0.08973507  1
  Al  Al87  1  0.58410809  0.92373179  0.59422355  1
  Al  Al88  1  0.40472494  0.07446063  0.08886051  1
  Al  Al89  1  0.42457451  0.07494940  0.57343380  1
  Al  Al90  1  0.41187507  0.57780308  0.08455348  1
  Al  Al91  1  0.40830040  0.59272695  0.57223442  1
  Al  Al92  1  0.91720537  0.08719585  0.07487642  1
  Al  Al93  1  0.90801625  0.08725503  0.58643180  1
  Al  Al94  1  0.92206047  0.58764185  0.08848006  1
  Al  Al95  1  0.92171947  0.58105861  0.57762459  1
  Al  Al96  1  0.24701309  0.13019066  0.13245075  1
  Al  Al97  1  0.24387312  0.13743354  0.63997632  1
  Al  Al98  1  0.24859010  0.63676305  0.13479157  1
  Al  Al99  1  0.24710845  0.62963163  0.63747271  1
  Al  Al100  1  0.75308085  0.13207241  0.13085350  1
  Al  Al101  1  0.75423152  0.13555645  0.63586677  1
  Al  Al102  1  0.74749390  0.63357545  0.13722534  1
  Al  Al103  1  0.75426857  0.63193317  0.63723331  1
  Al  Al104  1  0.24544708  0.36549684  0.12740760  1
  Al  Al105  1  0.24439676  0.37204311  0.64211568  1
  Al  Al106  1  0.24827357  0.86944778  0.13835348  1
  Al  Al107  1  0.25002270  0.86497077  0.63715769  1
  Al  Al108  1  0.74711742  0.36703651  0.13730623  1
  Al  Al109  1  0.75256913  0.36509009  0.63127016  1
  Al  Al110  1  0.74963075  0.86690568  0.13541054  1
  Al  Al111  1  0.75068035  0.86584745  0.63792468  1
  Al  Al112  1  0.24648078  0.13836068  0.36285801  1
  Al  Al113  1  0.23902324  0.13447655  0.87264617  1
  Al  Al114  1  0.24994378  0.62886899  0.36199126  1
  Al  Al115  1  0.24643670  0.63336606  0.86519468  1
  Al  Al116  1  0.75484708  0.12969431  0.36617147  1
  Al  Al117  1  0.75698191  0.13486084  0.87033696  1
  Al  Al118  1  0.75289685  0.63015222  0.35984009  1
  Al  Al119  1  0.74740073  0.63274916  0.86515944  1
  Al  Al120  1  0.25159166  0.37113576  0.36186231  1
  Al  Al121  1  0.24557842  0.36327342  0.87213003  1
  Al  Al122  1  0.25041409  0.86437774  0.36381365  1
  Al  Al123  1  0.24075123  0.86357755  0.86954011  1
  Al  Al124  1  0.75047223  0.36711892  0.37115042  1
  Al  Al125  1  0.75077145  0.36416522  0.86450832  1
  Al  Al126  1  0.75244489  0.87164508  0.36138998  1
  Al  Al127  1  0.75164111  0.86648601  0.86616857  1
  Al  Al128  1  0.13761952  0.24804426  0.12521363  1
  Al  Al129  1  0.13133264  0.25424873  0.64237913  1
  Al  Al130  1  0.13648948  0.75263847  0.13480852  1
  Al  Al131  1  0.13546575  0.74851895  0.63863682  1
  Al  Al132  1  0.63891028  0.24593397  0.13623761  1
  Al  Al133  1  0.63774109  0.25119357  0.63549457  1
  Al  Al134  1  0.63668316  0.75188278  0.13154515  1
  Al  Al135  1  0.63708501  0.74640294  0.63913119  1
  Al  Al136  1  0.13358551  0.25412496  0.35946261  1
  Al  Al137  1  0.13098163  0.25139412  0.86840088  1
  Al  Al138  1  0.12946197  0.74693395  0.36218229  1
  Al  Al139  1  0.12610819  0.74835147  0.86129378  1
  Al  Al140  1  0.63940239  0.25205094  0.36508659  1
  Al  Al141  1  0.63732979  0.24106411  0.86566625  1
  Al  Al142  1  0.63775276  0.75211166  0.36201167  1
  Al  Al143  1  0.63673266  0.75303971  0.87180378  1
  Al  Al144  1  0.35970420  0.25397800  0.13295575  1
  Al  Al145  1  0.36061649  0.24952564  0.63826706  1
  Al  Al146  1  0.36502453  0.75220536  0.13640836  1
  Al  Al147  1  0.36042299  0.74830555  0.63097882  1
  Al  Al148  1  0.86579703  0.24689186  0.13693226  1
  Al  Al149  1  0.86455069  0.25039066  0.63165704  1
  Al  Al150  1  0.86486775  0.74932014  0.13561557  1
  Al  Al151  1  0.86427071  0.74973260  0.63765302  1
  Al  Al152  1  0.36295751  0.24861398  0.35847325  1
  Al  Al153  1  0.36120210  0.25216278  0.86876975  1
  Al  Al154  1  0.36404366  0.74927866  0.36890014  1
  Al  Al155  1  0.36285598  0.74714760  0.86669708  1
  Al  Al156  1  0.85958562  0.24852162  0.37129769  1
  Al  Al157  1  0.86996166  0.24847151  0.86379333  1
  Al  Al158  1  0.86866873  0.74778065  0.36149440  1
  Al  Al159  1  0.87110520  0.75181954  0.86458461  1
  Al  Al160  1  0.13262588  0.13430258  0.24304488  1
  Al  Al161  1  0.12802910  0.13587657  0.75876820  1
  Al  Al162  1  0.13240841  0.63211683  0.24832601  1
  Al  Al163  1  0.13460419  0.62761108  0.75461427  1
  Al  Al164  1  0.63821972  0.13565244  0.25295166  1
  Al  Al165  1  0.63701095  0.13485583  0.74631283  1
  Al  Al166  1  0.63420660  0.63179522  0.25125314  1
  Al  Al167  1  0.63589306  0.63299719  0.75356478  1
  Al  Al168  1  0.36130275  0.13569818  0.24445906  1
  Al  Al169  1  0.36400289  0.13813674  0.75801570  1
  Al  Al170  1  0.36848209  0.63468177  0.25419789  1
  Al  Al171  1  0.36520058  0.63370378  0.74605912  1
  Al  Al172  1  0.86310047  0.12869254  0.25016621  1
  Al  Al173  1  0.86760386  0.13483620  0.75503278  1
  Al  Al174  1  0.87252878  0.63490543  0.24722054  1
  Al  Al175  1  0.86622435  0.63434166  0.75617949  1
  Al  Al176  1  0.13779721  0.37133832  0.24805506  1
  Al  Al177  1  0.13217647  0.36646559  0.75657589  1
  Al  Al178  1  0.13405945  0.86749485  0.24890589  1
  Al  Al179  1  0.13306342  0.86665346  0.75639316  1
  Al  Al180  1  0.63872947  0.36874322  0.25255451  1
  Al  Al181  1  0.63678392  0.36630453  0.75562817  1
  Al  Al182  1  0.62920797  0.86463066  0.24906908  1
  Al  Al183  1  0.63573888  0.86484637  0.75096559  1
  Al  Al184  1  0.36295836  0.36704689  0.24964446  1
  Al  Al185  1  0.36150823  0.36633106  0.75315327  1
  Al  Al186  1  0.36803102  0.86297483  0.24664125  1
  Al  Al187  1  0.36169948  0.86142676  0.75432636  1
  Al  Al188  1  0.86506375  0.36419822  0.25402349  1
  Al  Al189  1  0.86754192  0.36347739  0.75058124  1
  Al  Al190  1  0.86398552  0.87036223  0.24957150  1
  Al  Al191  1  0.86543966  0.86748684  0.75533153  1
  Al  Al192  1  0.30918254  0.81890075  0.00227329  1
  Al  Al193  1  0.82407802  0.82872567  0.00029266  1
  Al  Al194  1  0.69613188  0.00178069  0.80649306  1
  Al  Al195  1  0.50137090  0.32644937  0.32842081  1
  Al  Al196  1  0.30485712  -0.00065939  0.82848227  1
  Al  Al197  1  0.16380284  0.32693047  0.50088416  1
  Al  Al198  1  0.32482937  0.00020808  0.31117324  1
  Al  Al199  1  0.67913950  0.49976526  0.68254901  1
  Al  Al200  1  -0.00341817  0.19037668  0.31479975  1
  Al  Al201  1  0.17370477  0.00125617  0.68914333  1
  Al  Al202  1  0.50025238  0.16688344  0.67509667  1
  Al  Al203  1  0.67050671  0.32352208  -0.00013161  1
  Al  Al204  1  0.82892532  0.67454672  -0.00099879  1
  Al  Al205  1  0.49827143  0.17049940  0.17190559  1
  Al  Al206  1  0.17627697  0.83172414  0.50191379  1
  Al  Al207  1  0.67585172  0.83049387  0.50069332  1
  Al  Al208  1  0.68293397  0.67238154  0.49848633  1
  Al  Al209  1  0.18591496  0.67331263  0.49840742  1
  Al  Al210  1  0.50042593  0.67838868  0.82360714  1
  Al  Al211  1  0.32448639  0.17198416  0.50090801  1
  Al  Al212  1  0.50167727  0.32768421  0.67065003  1
  Al  Al213  1  0.81853290  0.50017103  0.17616818  1
  Al  Al214  1  0.00084703  0.66897261  0.68626001  1
  Al  Al215  1  0.00219670  0.31662074  0.18974033  1
  Al  Al216  1  0.50001115  0.32199558  0.83489526  1
  Al  Al217  1  0.82306586  0.49901545  0.82612772  1
  Al  Al218  1  0.17373899  0.00256237  0.31608983  1
  Al  Al219  1  0.67604326  -0.00306549  0.18098583  1
  Al  Al220  1  0.31586932  0.49928777  0.82343138  1
  Al  Al221  1  0.49742563  0.67601609  0.33221817  1
  Al  Al222  1  0.16948864  0.17080670  0.50069357  1
  Al  Al223  1  0.50063817  0.17080968  0.32691539  1
  Al  Al224  1  0.32722578  0.00194610  0.67185614  1
  Al  Al225  1  0.50184786  0.68371181  0.17175213  1
  Al  Al226  1  0.49886458  0.82000943  0.68282241  1
  Al  Al227  1  0.50091847  0.32505084  0.17778311  1
  Al  Al228  1  0.17771519  0.69043490  -0.00234358  1
  Al  Al229  1  0.33002354  0.32849580  0.49578901  1
  Al  Al230  1  0.69640676  0.19130893  0.50007280  1
  Al  Al231  1  0.82842642  0.82193263  0.49918722  1
  Al  Al232  1  -0.00155132  0.82701451  0.68377845  1
  Al  Al233  1  -0.00233450  0.18433729  0.68569842  1
  Al  Al234  1  0.81305182  0.00082531  0.68910326  1
  Al  Al235  1  0.31487218  0.50091382  0.18745306  1
  Al  Al236  1  0.83444741  0.31602689  0.00003493  1
  Al  Al237  1  0.00012432  0.81520381  0.17854565  1
  Al  Al238  1  0.31442129  0.18351003  0.00132355  1
  Au  Au239  1  -0.00625377  0.83567429  0.32588563  1
  Au  Au240  1  0.14749662  0.32273893  0.50070943  1
  Au  Au241  1  0.66751633  0.00039262  0.17301700  1
  Au  Au242  1  0.67808986  0.00204693  0.33695067  1
  Au  Au243  1  0.50144852  0.66689657  0.33970348  1
  Au  Au244  1  0.33123594  0.50269759  0.66196248  1
  Au  Au245  1  0.85067421  0.32052615  0.00016215  1
  Au  Au246  1  0.83215579  0.66954351  0.49790249  1
  Au  Au247  1  0.83134302  0.49904489  0.83731057  1
  Au  Au248  1  0.33954385  0.82569003  0.50083104  1
  Au  Au249  1  0.82269610  0.31767495  0.50041499  1
  Au  Au250  1  0.49754755  0.33834617  0.83939769  1
  Au  Au251  1  0.50071042  0.16046088  0.83574969  1
  Au  Au252  1  0.00281990  0.17063165  0.16453855  1
  Au  Au253  1  0.84113001  0.49397476  0.66527437  1
  Au  Au254  1  0.66470138  0.50012618  0.67340494  1
  Au  Au255  1  0.82347574  0.49661724  0.33211763  1
  Au  Au256  1  0.32498762  0.67148071  0.00197045  1
  Au  Au257  1  0.67535448  0.16368878  0.00238171  1
  Au  Au258  1  0.67549676  0.34058699  0.00009407  1
  Au  Au259  1  0.49855295  0.67451574  0.65400741  1
  Au  Au260  1  0.34531056  0.32445630  0.49180938  1
  Au  Au261  1  0.66038011  0.82919085  0.50630465  1
  Au  Au262  1  0.83032081  0.49984779  0.17128643  1
  Au  Au263  1  0.67128071  0.83364373  0.00340501  1
  Au  Au264  1  0.68367231  0.00042025  0.81794576  1
  Au  Au265  1  0.50059332  0.66297154  0.83074540  1
  Au  Au266  1  0.49933195  0.32994433  0.16225687  1
  Au  Au267  1  0.16031549  0.83656894  0.50431772  1
  Au  Au268  1  0.50074947  0.67176867  0.16077489  1
  Au  Au269  1  0.00101554  0.67523742  0.67003617  1
  Au  Au270  1  0.49703651  0.16341938  0.66339269  1
  Au  Au271  1  0.00140715  0.66472881  0.32103123  1
  Au  Au272  1  0.84000438  0.00029817  0.16937068  1
  Au  Au273  1  0.32721242  0.17224011  0.00385008  1
  Au  Au274  1  0.17680119  0.65883799  0.49817093  1
  Au  Au275  1  0.49718579  0.84105140  0.83169615  1
  Au  Au276  1  -0.00243969  0.17649641  0.67063044  1
  Au  Au277  1  0.17724694  0.49781683  0.32964580  1
  Au  Au278  1  0.32136121  -0.00133347  0.82456769  1
  Au  Au279  1  0.17023232  0.00248024  0.32844938  1
  Au  Au280  1  0.49800260  0.83978848  0.32024570  1
  Au  Au281  1  0.16845836  0.50410235  0.16264549  1
  Au  Au282  1  0.31986890  0.49734393  0.83980815  1
  Au  Au283  1  0.68009621  0.65963109  0.00063800  1
  Au  Au284  1  0.16711992  0.32850602  -0.00208141  1
  Au  Au285  1  0.16269143  0.49625122  0.67993855  1
  Au  Au286  1  0.50436317  0.33205985  0.65416944  1
  Au  Au287  1  0.00058302  0.83355959  0.83626328  1
