# generated using pymatgen
data_Ca24Ti8Al207Au49
_symmetry_space_group_name_H-M   'P 1'
_cell_length_a   17.32375077
_cell_length_b   17.32362954
_cell_length_c   17.32227246
_cell_angle_alpha   89.99958865
_cell_angle_beta   89.99756693
_cell_angle_gamma   89.99763901
_symmetry_Int_Tables_number   1
_chemical_formula_structural   Ca24Ti8Al207Au49
_chemical_formula_sum   'Ca24 Ti8 Al207 Au49'
_cell_volume   5198.59134451
_cell_formula_units_Z   1
loop_
 _symmetry_equiv_pos_site_id
 _symmetry_equiv_pos_as_xyz
  1  'x, y, z'
loop_
 _atom_site_type_symbol
 _atom_site_label
 _atom_site_symmetry_multiplicity
 _atom_site_fract_x
 _atom_site_fract_y
 _atom_site_fract_z
 _atom_site_occupancy
  Ca  Ca0  1  0.25687344  -0.00204546  -0.00000196  1
  Ca  Ca1  1  0.25270462  -0.00160676  0.50484456  1
  Ca  Ca2  1  0.25366885  0.50362852  0.00401913  1
  Ca  Ca3  1  0.24942526  0.50211879  0.49694621  1
  Ca  Ca4  1  0.74593921  0.00196155  0.00105132  1
  Ca  Ca5  1  0.74765966  0.00147160  0.49942597  1
  Ca  Ca6  1  0.74953381  0.49733643  0.00607566  1
  Ca  Ca7  1  0.75278642  0.49743768  0.49815385  1
  Ca  Ca8  1  -0.00343738  0.25531050  0.00245980  1
  Ca  Ca9  1  -0.00392593  0.24875373  0.49836196  1
  Ca  Ca10  1  0.00111851  0.74423761  0.00236279  1
  Ca  Ca11  1  0.00141157  0.75041733  0.49712464  1
  Ca  Ca12  1  0.50147772  0.25252166  -0.00188618  1
  Ca  Ca13  1  0.50521450  0.24329538  0.50119475  1
  Ca  Ca14  1  0.50134096  0.74940108  0.00185893  1
  Ca  Ca15  1  0.49693124  0.75023968  0.49727380  1
  Ca  Ca16  1  -0.00225078  0.00050034  0.25098998  1
  Ca  Ca17  1  -0.00316639  0.00201965  0.74415960  1
  Ca  Ca18  1  0.00002289  0.50064031  0.24547921  1
  Ca  Ca19  1  0.00107042  0.49626934  0.75287535  1
  Ca  Ca20  1  0.49825831  -0.00108171  0.24695163  1
  Ca  Ca21  1  0.50118070  0.00262155  0.74769726  1
  Ca  Ca22  1  0.49733864  0.49977821  0.24578481  1
  Ca  Ca23  1  0.49796449  0.49456444  0.75812400  1
  Ti  Ti24  1  0.24924078  0.25187154  0.24925857  1
  Ti  Ti25  1  0.25139920  0.24918800  0.75041701  1
  Ti  Ti26  1  0.25032491  0.74829550  0.24842833  1
  Ti  Ti27  1  0.25099055  0.75030268  0.75209507  1
  Ti  Ti28  1  0.75121864  0.25141031  0.25084821  1
  Ti  Ti29  1  0.74938146  0.25001417  0.74989559  1
  Ti  Ti30  1  0.74973357  0.74884765  0.24930046  1
  Ti  Ti31  1  0.74934403  0.75026683  0.75150892  1
  Al  Al32  1  0.07261965  0.08166713  0.08915463  1
  Al  Al33  1  0.08818721  0.07934199  0.59358732  1
  Al  Al34  1  0.07825605  0.58239156  0.09058507  1
  Al  Al35  1  0.08288520  0.58398653  0.57982800  1
  Al  Al36  1  0.58113953  0.09032698  0.08666447  1
  Al  Al37  1  0.59326078  0.08854213  0.58373498  1
  Al  Al38  1  0.58714368  0.58094995  0.09139556  1
  Al  Al39  1  0.57175811  0.57905321  0.57635550  1
  Al  Al40  1  0.40852642  0.41956508  0.08097221  1
  Al  Al41  1  0.42530476  0.42191188  0.58461623  1
  Al  Al42  1  0.41890150  0.90630683  0.08441501  1
  Al  Al43  1  0.40937585  0.92127287  0.58341728  1
  Al  Al44  1  0.90604775  0.41154378  0.08908768  1
  Al  Al45  1  0.91879625  0.40719431  0.58253760  1
  Al  Al46  1  0.92191580  0.91654791  0.08447068  1
  Al  Al47  1  0.91390532  0.92229048  0.57933078  1
  Al  Al48  1  0.42652327  0.07908383  0.41761339  1
  Al  Al49  1  0.41932497  0.07949061  0.91912353  1
  Al  Al50  1  0.40172048  0.58863727  0.41205280  1
  Al  Al51  1  0.42052338  0.58046888  0.92285789  1
  Al  Al52  1  0.91431946  0.08569828  0.42254775  1
  Al  Al53  1  0.91092455  0.09016435  0.92315832  1
  Al  Al54  1  0.91940628  0.58241889  0.41029025  1
  Al  Al55  1  0.91869051  0.57761554  0.92740864  1
  Al  Al56  1  0.07897942  0.42248250  0.40859957  1
  Al  Al57  1  0.07772895  0.41974226  0.91448971  1
  Al  Al58  1  0.07475523  0.91077594  0.41666466  1
  Al  Al59  1  0.08639043  0.91827824  0.91867146  1
  Al  Al60  1  0.59295177  0.41580726  0.42216542  1
  Al  Al61  1  0.58517804  0.40796221  0.91853483  1
  Al  Al62  1  0.57911409  0.92253658  0.41681704  1
  Al  Al63  1  0.58858361  0.91476859  0.92303571  1
  Al  Al64  1  0.07646908  0.08066133  0.42071939  1
  Al  Al65  1  0.07731161  0.07755590  0.91572148  1
  Al  Al66  1  0.08581114  0.58542061  0.41086963  1
  Al  Al67  1  0.08532084  0.57708211  0.91973437  1
  Al  Al68  1  0.58950472  0.08962590  0.41975800  1
  Al  Al69  1  0.58376290  0.08212802  0.92092999  1
  Al  Al70  1  0.57615820  0.57857792  0.41404131  1
  Al  Al71  1  0.58157051  0.57911595  0.92134475  1
  Al  Al72  1  0.41445721  0.43123227  0.40837721  1
  Al  Al73  1  0.42151949  0.40747583  0.91903251  1
  Al  Al74  1  0.41842854  0.91589017  0.41978525  1
  Al  Al75  1  0.41321838  0.91263953  0.92392736  1
  Al  Al76  1  0.91506967  0.41552891  0.41488047  1
  Al  Al77  1  0.91240636  0.40717417  0.92535112  1
  Al  Al78  1  0.91843959  0.91189334  0.41475660  1
  Al  Al79  1  0.92067930  0.92347658  0.92219877  1
  Al  Al80  1  0.07690548  0.41820386  0.09224998  1
  Al  Al81  1  0.07411994  0.41507311  0.59285787  1
  Al  Al82  1  0.08302744  0.91601102  0.08302447  1
  Al  Al83  1  0.08905720  0.92286836  0.58552718  1
  Al  Al84  1  0.59552568  0.41767928  0.08103331  1
  Al  Al85  1  0.58631794  0.40362649  0.57780202  1
  Al  Al86  1  0.58083512  0.90562937  0.08387338  1
  Al  Al87  1  0.58632333  0.92874906  0.58537192  1
  Al  Al88  1  0.42267969  0.08724056  0.08844787  1
  Al  Al89  1  0.41728193  0.07817125  0.59020077  1
  Al  Al90  1  0.41402929  0.58256079  0.09158219  1
  Al  Al91  1  0.40910506  0.58820928  0.57407385  1
  Al  Al92  1  0.91326163  0.09676700  0.08231998  1
  Al  Al93  1  0.91156568  0.08505715  0.58220308  1
  Al  Al94  1  0.91245642  0.58062121  0.09221958  1
  Al  Al95  1  0.92501684  0.58015562  0.57786304  1
  Al  Al96  1  0.25161899  0.13647092  0.13585136  1
  Al  Al97  1  0.25085051  0.13558286  0.63358897  1
  Al  Al98  1  0.25286387  0.63516597  0.13066331  1
  Al  Al99  1  0.24998855  0.63414844  0.63075127  1
  Al  Al100  1  0.75523083  0.13739346  0.13208597  1
  Al  Al101  1  0.74353819  0.13709697  0.63153501  1
  Al  Al102  1  0.74979473  0.63053129  0.13712490  1
  Al  Al103  1  0.75657548  0.63594134  0.63441256  1
  Al  Al104  1  0.25290409  0.36659737  0.13523862  1
  Al  Al105  1  0.25013917  0.36389943  0.63594520  1
  Al  Al106  1  0.25189282  0.86099463  0.13167724  1
  Al  Al107  1  0.25065876  0.86632583  0.63545366  1
  Al  Al108  1  0.75267687  0.36465833  0.13115872  1
  Al  Al109  1  0.75079849  0.36130334  0.62867949  1
  Al  Al110  1  0.74483409  0.86506507  0.13542296  1
  Al  Al111  1  0.74855864  0.86368078  0.63376032  1
  Al  Al112  1  0.25000846  0.14020881  0.36898060  1
  Al  Al113  1  0.25372412  0.13338691  0.86627887  1
  Al  Al114  1  0.25025143  0.63224176  0.36410427  1
  Al  Al115  1  0.25232122  0.63677599  0.87299109  1
  Al  Al116  1  0.74656978  0.13701951  0.36456209  1
  Al  Al117  1  0.74889674  0.13659624  0.86676420  1
  Al  Al118  1  0.75359007  0.63263103  0.36045551  1
  Al  Al119  1  0.74789360  0.63383496  0.86679458  1
  Al  Al120  1  0.25224251  0.37138090  0.36075551  1
  Al  Al121  1  0.25584017  0.36326971  0.86566910  1
  Al  Al122  1  0.25291186  0.85785694  0.36331001  1
  Al  Al123  1  0.25225678  0.86617960  0.87144601  1
  Al  Al124  1  0.75028878  0.36454580  0.36766819  1
  Al  Al125  1  0.75057200  0.36230751  0.86992902  1
  Al  Al126  1  0.74897302  0.86107825  0.36120637  1
  Al  Al127  1  0.74387043  0.86312017  0.86653834  1
  Al  Al128  1  0.13405246  0.25589929  0.13320702  1
  Al  Al129  1  0.13087296  0.24703441  0.63641769  1
  Al  Al130  1  0.13567492  0.74638484  0.12994678  1
  Al  Al131  1  0.13687932  0.75004963  0.63588068  1
  Al  Al132  1  0.63639466  0.25322826  0.13284993  1
  Al  Al133  1  0.63520256  0.25150213  0.63139436  1
  Al  Al134  1  0.63669952  0.74760593  0.12928646  1
  Al  Al135  1  0.63390056  0.74610407  0.63593857  1
  Al  Al136  1  0.13051516  0.25147033  0.36305616  1
  Al  Al137  1  0.13720185  0.24964858  0.86559110  1
  Al  Al138  1  0.13098564  0.74600596  0.36390208  1
  Al  Al139  1  0.13904681  0.75095415  0.87269279  1
  Al  Al140  1  0.63738555  0.25076235  0.36468730  1
  Al  Al141  1  0.63403900  0.25629700  0.86868350  1
  Al  Al142  1  0.62855818  0.74869757  0.36013194  1
  Al  Al143  1  0.63528746  0.74784222  0.87114333  1
  Al  Al144  1  0.36376718  0.25061012  0.13062111  1
  Al  Al145  1  0.36378200  0.24923325  0.63380268  1
  Al  Al146  1  0.36568127  0.74970401  0.13070890  1
  Al  Al147  1  0.36369894  0.74752220  0.63626892  1
  Al  Al148  1  0.86407209  0.25534760  0.13134480  1
  Al  Al149  1  0.86803689  0.25049516  0.63498839  1
  Al  Al150  1  0.86674078  0.74762491  0.13536879  1
  Al  Al151  1  0.86475019  0.75021322  0.63719963  1
  Al  Al152  1  0.36340801  0.24913005  0.36277782  1
  Al  Al153  1  0.36479679  0.25072126  0.86916754  1
  Al  Al154  1  0.36898452  0.74617270  0.36227324  1
  Al  Al155  1  0.36474916  0.75108532  0.87034914  1
  Al  Al156  1  0.87028805  0.25589686  0.36368802  1
  Al  Al157  1  0.86211474  0.25004225  0.87074576  1
  Al  Al158  1  0.87140037  0.74710875  0.35949144  1
  Al  Al159  1  0.86470871  0.74919101  0.86696104  1
  Al  Al160  1  0.13514225  0.13754963  0.25013242  1
  Al  Al161  1  0.13303398  0.13389797  0.74674400  1
  Al  Al162  1  0.13102000  0.63535167  0.24961793  1
  Al  Al163  1  0.13863212  0.63751823  0.75338644  1
  Al  Al164  1  0.63677113  0.13782954  0.24452958  1
  Al  Al165  1  0.63589839  0.13552500  0.75006321  1
  Al  Al166  1  0.63537625  0.63112314  0.24668444  1
  Al  Al167  1  0.63640578  0.63675431  0.75055104  1
  Al  Al168  1  0.36491403  0.13661962  0.24649489  1
  Al  Al169  1  0.36374133  0.13122036  0.75007897  1
  Al  Al170  1  0.36234873  0.63110594  0.24866252  1
  Al  Al171  1  0.36142283  0.63384886  0.75204857  1
  Al  Al172  1  0.86375435  0.13943640  0.25094182  1
  Al  Al173  1  0.86326301  0.13729543  0.74684597  1
  Al  Al174  1  0.87036190  0.63145629  0.24554984  1
  Al  Al175  1  0.86393533  0.63315144  0.75494250  1
  Al  Al176  1  0.13116412  0.36656595  0.25055656  1
  Al  Al177  1  0.13648930  0.36267529  0.74892340  1
  Al  Al178  1  0.13688396  0.86017896  0.24938190  1
  Al  Al179  1  0.13880207  0.86540259  0.74989386  1
  Al  Al180  1  0.63797866  0.37043309  0.24161855  1
  Al  Al181  1  0.63075377  0.36049394  0.75067052  1
  Al  Al182  1  0.62750200  0.86049103  0.24526604  1
  Al  Al183  1  0.63671188  0.86557951  0.74699511  1
  Al  Al184  1  0.36778113  0.36740029  0.24621316  1
  Al  Al185  1  0.37140449  0.36428187  0.75079807  1
  Al  Al186  1  0.37121027  0.85997510  0.24684815  1
  Al  Al187  1  0.36104588  0.86727001  0.74998226  1
  Al  Al188  1  0.86635992  0.36939714  0.24601193  1
  Al  Al189  1  0.86121421  0.36319723  0.75102968  1
  Al  Al190  1  0.86586817  0.86449225  0.24879501  1
  Al  Al191  1  0.86087866  0.86499339  0.75053639  1
  Al  Al192  1  0.18349174  0.00077464  0.81296238  1
  Al  Al193  1  0.32811995  -0.00042107  0.32499464  1
  Al  Al194  1  0.00134326  0.81988202  0.82617482  1
  Al  Al195  1  0.50160173  0.17269413  0.31491776  1
  Al  Al196  1  0.17794731  -0.00159521  0.33059467  1
  Al  Al197  1  0.17988406  0.33249866  -0.00018849  1
  Al  Al198  1  0.67368218  -0.00022634  0.31965714  1
  Al  Al199  1  0.67559033  -0.00011571  0.81621671  1
  Al  Al200  1  0.32127230  0.50304969  0.67696225  1
  Al  Al201  1  0.00137999  0.81335952  0.18591137  1
  Al  Al202  1  0.49985709  0.67279021  0.82296723  1
  Al  Al203  1  0.82787769  0.00113074  0.82797069  1
  Al  Al204  1  0.18393765  0.49928013  0.82083811  1
  Al  Al205  1  0.81189368  0.18196328  0.49898360  1
  Al  Al206  1  0.83286318  0.49940091  0.68041982  1
  Al  Al207  1  0.17300232  0.81982409  0.50066368  1
  Al  Al208  1  0.82165080  0.00246555  0.17394077  1
  Al  Al209  1  0.68593071  0.18763629  -0.00053397  1
  Al  Al210  1  0.50073702  0.17835036  0.67362585  1
  Al  Al211  1  0.49864097  0.31976410  0.16691884  1
  Al  Al212  1  0.67111101  0.82972379  0.49889381  1
  Al  Al213  1  0.67688655  0.49674951  0.82780154  1
  Al  Al214  1  0.49995026  0.18775794  0.83044755  1
  Al  Al215  1  0.81810524  0.67428541  0.00273653  1
  Al  Al216  1  -0.00118959  0.19054659  0.18132682  1
  Al  Al217  1  0.50038672  0.82653027  0.82938891  1
  Al  Al218  1  0.82639774  -0.00028468  0.32993120  1
  Al  Al219  1  0.32986454  -0.00305646  0.17080916  1
  Al  Al220  1  0.68135351  0.49920028  0.32355165  1
  Al  Al221  1  0.81098703  0.00107270  0.67430101  1
  Al  Al222  1  0.33071182  0.32467773  0.49744511  1
  Al  Al223  1  0.49932539  0.82476486  0.66907248  1
  Al  Al224  1  0.67332800  0.49865715  0.66778360  1
  Al  Al225  1  0.17774508  0.17010061  0.00214368  1
  Al  Al226  1  -0.00107243  0.32759326  0.81733396  1
  Al  Al227  1  -0.00016229  0.82966436  0.67006944  1
  Al  Al228  1  0.50040110  0.68393237  0.17871071  1
  Al  Al229  1  0.00090985  0.67531825  0.68002600  1
  Al  Al230  1  0.81424440  0.83370485  0.00029604  1
  Al  Al231  1  0.67724766  0.67088626  0.49813778  1
  Al  Al232  1  0.18383227  0.50124862  0.18005628  1
  Al  Al233  1  -0.00252332  0.17891013  0.82501587  1
  Al  Al234  1  0.32867618  0.81605241  0.49959891  1
  Al  Al235  1  0.17633579  -0.00064414  0.17260302  1
  Al  Al236  1  0.50202459  0.32816517  0.32912026  1
  Al  Al237  1  0.16851377  0.32231585  0.50000480  1
  Al  Al238  1  0.82552549  0.82053460  0.49760003  1
  Au  Au239  1  0.49978655  0.84080317  0.67440552  1
  Au  Au240  1  0.16475133  0.66629702  0.00361293  1
  Au  Au241  1  0.82594471  0.49652170  0.84552914  1
  Au  Au242  1  0.33927963  -0.00381485  0.82460958  1
  Au  Au243  1  0.34066550  0.17479543  0.00206866  1
  Au  Au244  1  0.67100745  -0.00028489  0.82834173  1
  Au  Au245  1  0.16727585  0.15758706  0.00262393  1
  Au  Au246  1  0.17775127  0.83668179  0.00173840  1
  Au  Au247  1  -0.00200391  0.17019075  0.83550109  1
  Au  Au248  1  0.49490820  0.66424228  0.32500170  1
  Au  Au249  1  0.66760203  0.66794805  0.00172138  1
  Au  Au250  1  0.82432918  0.32866242  0.49864200  1
  Au  Au251  1  0.16785007  0.00099896  0.82022140  1
  Au  Au252  1  0.65760575  0.49756169  0.67399205  1
  Au  Au253  1  0.17648268  0.83193746  0.50161086  1
  Au  Au254  1  0.00071068  0.67394775  0.32299972  1
  Au  Au255  1  0.33651072  0.15985959  0.50015451  1
  Au  Au256  1  0.66116402  0.67715271  0.49878966  1
  Au  Au257  1  0.49470733  0.66051165  0.67394138  1
  Au  Au258  1  0.83046553  0.82766220  -0.00068712  1
  Au  Au259  1  -0.00280768  0.83626637  0.82430362  1
  Au  Au260  1  0.49970509  0.32932805  0.15404759  1
  Au  Au261  1  0.16256304  -0.00451368  0.32394375  1
  Au  Au262  1  0.17032209  0.15837916  0.50228302  1
  Au  Au263  1  0.15516398  0.33244805  0.50069728  1
  Au  Au264  1  0.83344029  0.49973258  0.31922165  1
  Au  Au265  1  0.50193341  0.32418174  0.34423481  1
  Au  Au266  1  -0.00151936  0.33426900  0.31783551  1
  Au  Au267  1  0.50058932  0.32756929  0.67168195  1
  Au  Au268  1  -0.00158397  0.17497202  0.66137289  1
  Au  Au269  1  0.15955638  0.50072575  0.67437660  1
  Au  Au270  1  0.66878267  0.50095925  0.32252784  1
  Au  Au271  1  -0.00028075  0.65619205  0.82843253  1
  Au  Au272  1  0.33789050  0.67476676  0.00151328  1
  Au  Au273  1  0.65783995  -0.00356645  0.17113457  1
  Au  Au274  1  0.50001093  0.83504659  0.32442988  1
  Au  Au275  1  0.17162022  0.34652696  0.00154158  1
  Au  Au276  1  0.33029658  0.50053715  0.66857256  1
  Au  Au277  1  0.84134502  0.67309632  0.49951064  1
  Au  Au278  1  0.83935140  0.49943411  0.66969317  1
  Au  Au279  1  0.67362528  0.17577428  0.00250122  1
  Au  Au280  1  0.00416330  0.82568149  0.17416734  1
  Au  Au281  1  0.33738422  0.33945863  0.49666372  1
  Au  Au282  1  0.49966481  0.17131644  0.82551657  1
  Au  Au283  1  -0.00268299  0.16680610  0.32773173  1
  Au  Au284  1  0.17657845  0.66633958  0.49859181  1
  Au  Au285  1  0.17799073  0.50080810  0.32644008  1
  Au  Au286  1  0.83369362  0.00177994  0.16971465  1
  Au  Au287  1  0.33139400  0.49567789  0.84195375  1
