# generated using pymatgen
data_Ca24Ti8Al207Au49
_symmetry_space_group_name_H-M   'P 1'
_cell_length_a   17.31847402
_cell_length_b   17.31658972
_cell_length_c   17.31627497
_cell_angle_alpha   89.99956138
_cell_angle_beta   89.99944758
_cell_angle_gamma   90.00094674
_symmetry_Int_Tables_number   1
_chemical_formula_structural   Ca24Ti8Al207Au49
_chemical_formula_sum   'Ca24 Ti8 Al207 Au49'
_cell_volume   5193.09734120
_cell_formula_units_Z   1
loop_
 _symmetry_equiv_pos_site_id
 _symmetry_equiv_pos_as_xyz
  1  'x, y, z'
loop_
 _atom_site_type_symbol
 _atom_site_label
 _atom_site_symmetry_multiplicity
 _atom_site_fract_x
 _atom_site_fract_y
 _atom_site_fract_z
 _atom_site_occupancy
  Ca  Ca0  1  0.25395769  0.00248636  0.00349064  1
  Ca  Ca1  1  0.25172380  0.00007363  0.49785409  1
  Ca  Ca2  1  0.24783975  0.49833992  -0.00155414  1
  Ca  Ca3  1  0.24875342  0.49572828  0.50088925  1
  Ca  Ca4  1  0.75410395  0.00758704  -0.00099948  1
  Ca  Ca5  1  0.75068232  -0.00499814  0.50113791  1
  Ca  Ca6  1  0.75405452  0.49753481  -0.00226098  1
  Ca  Ca7  1  0.75200335  0.50083500  0.49918369  1
  Ca  Ca8  1  0.00414568  0.24791808  -0.00408835  1
  Ca  Ca9  1  0.00271954  0.24858348  0.50047983  1
  Ca  Ca10  1  0.00787911  0.75647325  0.00371280  1
  Ca  Ca11  1  0.00127616  0.75565361  0.49445995  1
  Ca  Ca12  1  0.49641776  0.24608071  -0.00117084  1
  Ca  Ca13  1  0.49714354  0.24585268  0.50163253  1
  Ca  Ca14  1  0.49744301  0.75604983  0.00265709  1
  Ca  Ca15  1  0.49781466  0.75447856  0.49352143  1
  Ca  Ca16  1  0.00532902  -0.00215132  0.24857070  1
  Ca  Ca17  1  -0.00091441  0.00424951  0.74962059  1
  Ca  Ca18  1  0.00529728  0.50451225  0.25348919  1
  Ca  Ca19  1  0.00340682  0.49809653  0.74913573  1
  Ca  Ca20  1  0.49575508  0.00495943  0.25155768  1
  Ca  Ca21  1  0.49836329  0.00296159  0.74649375  1
  Ca  Ca22  1  0.49713947  0.49771614  0.25258844  1
  Ca  Ca23  1  0.49580519  0.49836557  0.74943065  1
  Ti  Ti24  1  0.24927006  0.25054436  0.25124693  1
  Ti  Ti25  1  0.24800786  0.25169331  0.74806124  1
  Ti  Ti26  1  0.24882432  0.75079392  0.25026304  1
  Ti  Ti27  1  0.24951007  0.74739506  0.74879590  1
  Ti  Ti28  1  0.74923705  0.24828827  0.24894874  1
  Ti  Ti29  1  0.75235708  0.24965002  0.75102072  1
  Ti  Ti30  1  0.75245116  0.75047482  0.25226520  1
  Ti  Ti31  1  0.75154438  0.75184595  0.74717245  1
  Al  Al32  1  0.09597176  0.07739885  0.08423035  1
  Al  Al33  1  0.08045181  0.09054713  0.58526956  1
  Al  Al34  1  0.08132541  0.59154318  0.09192274  1
  Al  Al35  1  0.08428699  0.57462721  0.58287270  1
  Al  Al36  1  0.57515591  0.09039008  0.09066523  1
  Al  Al37  1  0.57699561  0.07293390  0.57379439  1
  Al  Al38  1  0.57304472  0.57861999  0.09219608  1
  Al  Al39  1  0.58005377  0.57502525  0.57318602  1
  Al  Al40  1  0.41506338  0.41128099  0.07590875  1
  Al  Al41  1  0.40141127  0.41440251  0.58915087  1
  Al  Al42  1  0.40723751  0.91447389  0.08508901  1
  Al  Al43  1  0.41562203  0.92024838  0.58267730  1
  Al  Al44  1  0.91704528  0.42182074  0.07583187  1
  Al  Al45  1  0.92335456  0.41689891  0.58725059  1
  Al  Al46  1  0.92771393  0.91541938  0.08598000  1
  Al  Al47  1  0.92089793  0.91450603  0.58199970  1
  Al  Al48  1  0.41327161  0.08533419  0.40988321  1
  Al  Al49  1  0.41424030  0.09013965  0.92452858  1
  Al  Al50  1  0.41177236  0.59983011  0.41633092  1
  Al  Al51  1  0.41023946  0.57487961  0.92142041  1
  Al  Al52  1  0.91370852  0.07179132  0.41329215  1
  Al  Al53  1  0.91234813  0.09035013  0.91528311  1
  Al  Al54  1  0.92819068  0.59398552  0.41552751  1
  Al  Al55  1  0.92890159  0.56998805  0.91934919  1
  Al  Al56  1  0.09712049  0.41732535  0.41634845  1
  Al  Al57  1  0.08499358  0.41342730  0.90166667  1
  Al  Al58  1  0.08279098  0.91498223  0.40104521  1
  Al  Al59  1  0.08305297  0.92199002  0.92608425  1
  Al  Al60  1  0.57304574  0.41853419  0.42023169  1
  Al  Al61  1  0.57355430  0.40537301  0.91052702  1
  Al  Al62  1  0.58133108  0.90353997  0.41494341  1
  Al  Al63  1  0.57709913  0.92765995  0.91609651  1
  Al  Al64  1  0.09154128  0.07604834  0.41558295  1
  Al  Al65  1  0.08311283  0.08658073  0.92190893  1
  Al  Al66  1  0.08822567  0.58238552  0.40573667  1
  Al  Al67  1  0.08910555  0.57396234  0.91073975  1
  Al  Al68  1  0.57393885  0.08801603  0.41298983  1
  Al  Al69  1  0.57902529  0.08757692  0.91748618  1
  Al  Al70  1  0.57295417  0.59560292  0.40871522  1
  Al  Al71  1  0.57166304  0.56500123  0.92572429  1
  Al  Al72  1  0.41005613  0.40975209  0.42570475  1
  Al  Al73  1  0.41215585  0.40521827  0.91161449  1
  Al  Al74  1  0.41744440  0.91362292  0.40802625  1
  Al  Al75  1  0.41111402  0.91311151  0.92438484  1
  Al  Al76  1  0.93275474  0.42599028  0.42506960  1
  Al  Al77  1  0.92339573  0.40873563  0.90671631  1
  Al  Al78  1  0.91890815  0.91215124  0.40500139  1
  Al  Al79  1  0.91946200  0.92623061  0.92130363  1
  Al  Al80  1  0.08054776  0.42738241  0.07702425  1
  Al  Al81  1  0.09380917  0.40850992  0.58082173  1
  Al  Al82  1  0.09142614  0.91547613  0.09843088  1
  Al  Al83  1  0.07702384  0.91583041  0.58370129  1
  Al  Al84  1  0.57885323  0.41648594  0.08142455  1
  Al  Al85  1  0.57320373  0.41918934  0.58455041  1
  Al  Al86  1  0.56928816  0.92924091  0.08145452  1
  Al  Al87  1  0.58569789  0.91154499  0.57697868  1
  Al  Al88  1  0.41149746  0.09248809  0.09023245  1
  Al  Al89  1  0.41025403  0.07816475  0.58208778  1
  Al  Al90  1  0.41702656  0.58626183  0.08619603  1
  Al  Al91  1  0.40087806  0.57742150  0.57770150  1
  Al  Al92  1  0.91261372  0.08584312  0.07566337  1
  Al  Al93  1  0.92311149  0.08685578  0.58592382  1
  Al  Al94  1  0.92564364  0.58296191  0.09570014  1
  Al  Al95  1  0.91782604  0.58072387  0.57847838  1
  Al  Al96  1  0.25207125  0.13013989  0.13950294  1
  Al  Al97  1  0.25156664  0.13593547  0.62772870  1
  Al  Al98  1  0.24910213  0.63134832  0.13457710  1
  Al  Al99  1  0.25212271  0.62706413  0.63115317  1
  Al  Al100  1  0.74887647  0.13665577  0.13333073  1
  Al  Al101  1  0.75427110  0.13616114  0.63650825  1
  Al  Al102  1  0.74870183  0.63613435  0.13861585  1
  Al  Al103  1  0.75186269  0.63806377  0.63411511  1
  Al  Al104  1  0.25058113  0.36721061  0.13530225  1
  Al  Al105  1  0.24951083  0.37064289  0.63607168  1
  Al  Al106  1  0.24740364  0.86956526  0.13811679  1
  Al  Al107  1  0.25363380  0.86633717  0.62853036  1
  Al  Al108  1  0.74845530  0.36146777  0.13491016  1
  Al  Al109  1  0.75720181  0.36251898  0.63640201  1
  Al  Al110  1  0.75439871  0.86199409  0.14217049  1
  Al  Al111  1  0.75007417  0.86440549  0.62813795  1
  Al  Al112  1  0.24956700  0.13539580  0.37108538  1
  Al  Al113  1  0.24933577  0.13910910  0.86196810  1
  Al  Al114  1  0.24898823  0.63504482  0.36602190  1
  Al  Al115  1  0.24918492  0.62842222  0.86556346  1
  Al  Al116  1  0.75311043  0.13383916  0.36372068  1
  Al  Al117  1  0.75179936  0.14091352  0.87072161  1
  Al  Al118  1  0.74945717  0.63619700  0.36344788  1
  Al  Al119  1  0.75096169  0.63610002  0.86320579  1
  Al  Al120  1  0.24788040  0.36753668  0.36735790  1
  Al  Al121  1  0.24846841  0.37039910  0.86324060  1
  Al  Al122  1  0.24738574  0.86559690  0.36894379  1
  Al  Al123  1  0.24989088  0.86504026  0.86914385  1
  Al  Al124  1  0.74595522  0.36483497  0.36292081  1
  Al  Al125  1  0.75518764  0.36126091  0.86840437  1
  Al  Al126  1  0.75187943  0.86333066  0.36923235  1
  Al  Al127  1  0.75053994  0.86466793  0.86324634  1
  Al  Al128  1  0.13575535  0.24771943  0.13893736  1
  Al  Al129  1  0.14034542  0.25241132  0.62911212  1
  Al  Al130  1  0.13407302  0.75202003  0.13354241  1
  Al  Al131  1  0.13991239  0.75015414  0.63132881  1
  Al  Al132  1  0.62841481  0.24690521  0.13651413  1
  Al  Al133  1  0.63511709  0.25095126  0.63721944  1
  Al  Al134  1  0.63499353  0.74826663  0.14011564  1
  Al  Al135  1  0.63420536  0.75495704  0.63373634  1
  Al  Al136  1  0.13773623  0.24985925  0.37043665  1
  Al  Al137  1  0.12933760  0.25123212  0.86060533  1
  Al  Al138  1  0.13406863  0.75338514  0.36661358  1
  Al  Al139  1  0.13930586  0.75092032  0.86946092  1
  Al  Al140  1  0.63296048  0.24621350  0.36381089  1
  Al  Al141  1  0.63246998  0.25093125  0.86454591  1
  Al  Al142  1  0.63234540  0.75292861  0.36437821  1
  Al  Al143  1  0.63573806  0.75028694  0.86360882  1
  Al  Al144  1  0.36734814  0.24429833  0.13686715  1
  Al  Al145  1  0.36027076  0.25550692  0.62755713  1
  Al  Al146  1  0.36197935  0.75456023  0.13661492  1
  Al  Al147  1  0.35878085  0.74752618  0.62771051  1
  Al  Al148  1  0.86609320  0.24722226  0.12952876  1
  Al  Al149  1  0.86903709  0.24644034  0.62945700  1
  Al  Al150  1  0.87314922  0.75114179  0.14010611  1
  Al  Al151  1  0.86813739  0.75730228  0.63246463  1
  Al  Al152  1  0.36010163  0.24939985  0.37012024  1
  Al  Al153  1  0.36159004  0.25271326  0.86121460  1
  Al  Al154  1  0.36234604  0.75152595  0.36832602  1
  Al  Al155  1  0.36264408  0.75199042  0.86277217  1
  Al  Al156  1  0.86414048  0.24921927  0.36896644  1
  Al  Al157  1  0.87221352  0.24826799  0.86666126  1
  Al  Al158  1  0.86840271  0.75431888  0.36440999  1
  Al  Al159  1  0.86583016  0.75203383  0.86183079  1
  Al  Al160  1  0.13773681  0.13141710  0.25281235  1
  Al  Al161  1  0.13063236  0.13904200  0.74567856  1
  Al  Al162  1  0.13757894  0.63378723  0.24848971  1
  Al  Al163  1  0.13811723  0.62897177  0.74630386  1
  Al  Al164  1  0.63357733  0.13450448  0.25153214  1
  Al  Al165  1  0.63700881  0.13659604  0.75312729  1
  Al  Al166  1  0.63446667  0.63256643  0.25455098  1
  Al  Al167  1  0.63499059  0.63595662  0.74767059  1
  Al  Al168  1  0.36621353  0.13614906  0.25233592  1
  Al  Al169  1  0.36101969  0.13673006  0.74519990  1
  Al  Al170  1  0.36286222  0.63392866  0.25620150  1
  Al  Al171  1  0.36202995  0.62865016  0.75067094  1
  Al  Al172  1  0.86632865  0.13552245  0.25121880  1
  Al  Al173  1  0.87248997  0.13846114  0.75129430  1
  Al  Al174  1  0.86723199  0.63622008  0.25020949  1
  Al  Al175  1  0.86691611  0.63751524  0.74569526  1
  Al  Al176  1  0.13826668  0.37182830  0.25061501  1
  Al  Al177  1  0.13486228  0.37130945  0.75037714  1
  Al  Al178  1  0.13093672  0.86365377  0.25199285  1
  Al  Al179  1  0.13768717  0.86243408  0.74700664  1
  Al  Al180  1  0.63154379  0.36689208  0.24931806  1
  Al  Al181  1  0.63253353  0.36295174  0.75058874  1
  Al  Al182  1  0.63574794  0.86521240  0.25577139  1
  Al  Al183  1  0.63513314  0.86512528  0.75177640  1
  Al  Al184  1  0.36461280  0.36407326  0.24874141  1
  Al  Al185  1  0.36191353  0.37042838  0.75009960  1
  Al  Al186  1  0.36265053  0.86595503  0.25382772  1
  Al  Al187  1  0.35962547  0.86549104  0.74785396  1
  Al  Al188  1  0.86383970  0.36075700  0.24935531  1
  Al  Al189  1  0.87166838  0.36058884  0.75117966  1
  Al  Al190  1  0.87352335  0.86660955  0.25458953  1
  Al  Al191  1  0.86629184  0.86566701  0.74713793  1
  Al  Al192  1  0.32963121  0.00200748  0.81924098  1
  Al  Al193  1  0.31337049  0.00083084  0.31995417  1
  Al  Al194  1  0.67150104  0.49721026  0.82853633  1
  Al  Al195  1  0.49616607  0.18642999  0.82288369  1
  Al  Al196  1  0.00171906  0.16694057  0.32297269  1
  Al  Al197  1  0.00368533  0.32575945  0.32776967  1
  Al  Al198  1  0.00280185  0.69281591  0.30652232  1
  Al  Al199  1  0.19090057  0.17744818  0.00093690  1
  Al  Al200  1  0.17310248  0.00147707  0.82645223  1
  Al  Al201  1  0.82689961  0.49968175  0.81776990  1
  Al  Al202  1  0.49895477  0.67750258  0.83037764  1
  Al  Al203  1  0.67703053  0.17252795  0.50047019  1
  Al  Al204  1  0.00421252  0.31200252  0.68391083  1
  Al  Al205  1  0.66914828  0.66842582  0.00046718  1
  Al  Al206  1  0.82657582  0.50029394  0.33357549  1
  Al  Al207  1  0.00172044  0.83583361  0.81737278  1
  Al  Al208  1  0.67679306  0.32011864  -0.00281418  1
  Al  Al209  1  0.31985797  0.30727504  0.00031468  1
  Al  Al210  1  0.67090839  0.83491727  0.00391332  1
  Al  Al211  1  0.66851591  0.68561426  0.49896649  1
  Al  Al212  1  0.68121234  -0.00019641  0.33347061  1
  Al  Al213  1  0.82122096  0.49902272  0.17562281  1
  Al  Al214  1  0.67276035  0.00014027  0.17614595  1
  Al  Al215  1  0.83740974  0.66938929  0.00057999  1
  Al  Al216  1  0.00392071  0.67467571  0.82397218  1
  Al  Al217  1  0.17591194  0.67390792  0.49980996  1
  Al  Al218  1  0.32028136  0.68560730  0.00045052  1
  Al  Al219  1  0.49999132  0.83144990  0.18896168  1
  Al  Al220  1  0.18222347  0.00152115  0.67013224  1
  Al  Al221  1  0.83097903  0.00037245  0.67264840  1
  Al  Al222  1  0.49608704  0.32358131  0.68556809  1
  Al  Al223  1  0.16908560  0.32862051  -0.00155867  1
  Al  Al224  1  0.68067444  0.33012093  0.50069309  1
  Al  Al225  1  0.82869211  0.82686397  0.00150410  1
  Al  Al226  1  0.49654465  0.31224929  0.32118900  1
  Al  Al227  1  0.49740054  0.67537324  0.19034130  1
  Al  Al228  1  0.00037496  0.32710194  0.17071225  1
  Al  Al229  1  0.49744589  0.82661189  0.67799609  1
  Al  Al230  1  0.49583712  0.67054374  0.66517855  1
  Al  Al231  1  0.67548010  -0.00010217  0.67626410  1
  Al  Al232  1  0.49985640  0.16834559  0.67086879  1
  Al  Al233  1  0.32627734  0.49973203  0.32729486  1
  Al  Al234  1  0.82654118  0.68238097  0.49828222  1
  Al  Al235  1  0.00231622  0.68679508  0.66531224  1
  Al  Al236  1  0.67881916  0.49931546  0.67473596  1
  Al  Al237  1  0.83206411  -0.00050541  0.18246687  1
  Al  Al238  1  0.81908841  0.00225096  0.82493260  1
  Au  Au239  1  0.00059321  0.16910807  0.33558104  1
  Au  Au240  1  0.49061038  0.67045342  0.64999358  1
  Au  Au241  1  0.65751933  0.50095394  0.33200026  1
  Au  Au242  1  0.16655558  0.17549393  0.49982661  1
  Au  Au243  1  0.67186837  0.16423396  0.00382400  1
  Au  Au244  1  0.49981012  0.82525547  0.17279144  1
  Au  Au245  1  0.67429428  0.66954977  0.49793550  1
  Au  Au246  1  0.00116362  0.83124923  0.83407561  1
  Au  Au247  1  0.33698920  0.82811870  0.49859174  1
  Au  Au248  1  0.00029871  0.33961738  0.17383667  1
  Au  Au249  1  0.82700123  0.50066024  0.66723074  1
  Au  Au250  1  0.49721286  0.32021784  0.16214413  1
  Au  Au251  1  0.32374113  0.50131777  0.33973142  1
  Au  Au252  1  0.16541937  0.50211089  0.17423632  1
  Au  Au253  1  0.67245841  0.49829626  0.16447819  1
  Au  Au254  1  0.84157091  0.32294961  -0.00310404  1
  Au  Au255  1  0.66473198  -0.00070000  0.33441911  1
  Au  Au256  1  0.83275285  0.83393569  0.49688233  1
  Au  Au257  1  0.17535149  0.49814929  0.67310541  1
  Au  Au258  1  0.32343315  0.00108834  0.17182595  1
  Au  Au259  1  0.33607484  0.67947650  0.00181428  1
  Au  Au260  1  0.33527213  0.17488087  0.49970584  1
  Au  Au261  1  0.16550794  -0.00078182  0.67192174  1
  Au  Au262  1  0.17943258  0.84225683  0.00341854  1
  Au  Au263  1  0.82686365  -0.00110960  0.16614469  1
  Au  Au264  1  0.82688982  0.15538808  0.49926767  1
  Au  Au265  1  0.49618645  0.32824088  0.67353318  1
  Au  Au266  1  0.00262557  0.17004423  0.82837275  1
  Au  Au267  1  0.00565175  0.32238106  0.67050060  1
  Au  Au268  1  0.49756764  0.83838435  0.82885694  1
  Au  Au269  1  0.00256560  0.81995169  0.18021348  1
  Au  Au270  1  0.85320976  0.67414273  0.00016599  1
  Au  Au271  1  0.16263210  0.83496651  0.49661978  1
  Au  Au272  1  0.32927143  0.00291232  0.83573032  1
  Au  Au273  1  0.66403384  0.32789424  0.50388730  1
  Au  Au274  1  0.17562170  0.66134390  0.50221995  1
  Au  Au275  1  0.00049291  0.67015762  0.66931831  1
  Au  Au276  1  0.32719677  0.49697498  0.82836870  1
  Au  Au277  1  0.00441289  0.16408049  0.15868146  1
  Au  Au278  1  0.33274184  0.49644317  0.16529229  1
  Au  Au279  1  0.84263523  0.50149639  0.32797023  1
  Au  Au280  1  0.66890295  0.00531514  0.82592269  1
  Au  Au281  1  0.67711124  0.85068478  0.00487704  1
  Au  Au282  1  0.16135528  0.66831375  -0.00284918  1
  Au  Au283  1  0.84233321  0.33124874  0.49631460  1
  Au  Au284  1  0.65341100  0.66455501  0.00168470  1
  Au  Au285  1  0.49533207  0.31969041  0.33641092  1
  Au  Au286  1  0.66878668  0.32935969  -0.00031469  1
  Au  Au287  1  0.50032163  0.66125764  0.83428453  1
