# generated using pymatgen
data_Ca24Ti8Al207Au49
_symmetry_space_group_name_H-M   'P 1'
_cell_length_a   17.31975461
_cell_length_b   17.31978248
_cell_length_c   17.32057125
_cell_angle_alpha   90.00164079
_cell_angle_beta   90.00223357
_cell_angle_gamma   89.99838420
_symmetry_Int_Tables_number   1
_chemical_formula_structural   Ca24Ti8Al207Au49
_chemical_formula_sum   'Ca24 Ti8 Al207 Au49'
_cell_volume   5195.72765643
_cell_formula_units_Z   1
loop_
 _symmetry_equiv_pos_site_id
 _symmetry_equiv_pos_as_xyz
  1  'x, y, z'
loop_
 _atom_site_type_symbol
 _atom_site_label
 _atom_site_symmetry_multiplicity
 _atom_site_fract_x
 _atom_site_fract_y
 _atom_site_fract_z
 _atom_site_occupancy
  Ca  Ca0  1  0.25082119  0.00192739  0.00298632  1
  Ca  Ca1  1  0.25202045  0.00272490  0.49569731  1
  Ca  Ca2  1  0.25019173  0.49931821  0.00519789  1
  Ca  Ca3  1  0.25099674  0.49884737  0.49793866  1
  Ca  Ca4  1  0.74408768  -0.00051461  0.00661344  1
  Ca  Ca5  1  0.74406319  0.00521912  0.49303476  1
  Ca  Ca6  1  0.74429950  0.49775258  -0.00029250  1
  Ca  Ca7  1  0.74442294  0.49363408  0.50109166  1
  Ca  Ca8  1  -0.00294590  0.24635021  0.00353873  1
  Ca  Ca9  1  -0.00265769  0.24815043  0.49697757  1
  Ca  Ca10  1  -0.00062054  0.75575751  0.00302439  1
  Ca  Ca11  1  -0.00072577  0.75208784  0.49923812  1
  Ca  Ca12  1  0.50428941  0.25033832  0.00287439  1
  Ca  Ca13  1  0.50294695  0.24835374  0.49387931  1
  Ca  Ca14  1  0.50565136  0.75222163  0.00371914  1
  Ca  Ca15  1  0.50046746  0.75232933  0.49761271  1
  Ca  Ca16  1  -0.00299248  0.00228429  0.25066003  1
  Ca  Ca17  1  0.00103258  0.00081151  0.76023149  1
  Ca  Ca18  1  -0.00027169  0.49819510  0.25015340  1
  Ca  Ca19  1  -0.00633642  0.49719281  0.74843204  1
  Ca  Ca20  1  0.50109907  0.00330662  0.24823179  1
  Ca  Ca21  1  0.49853295  -0.00011026  0.75146544  1
  Ca  Ca22  1  0.50116346  0.49440727  0.24267305  1
  Ca  Ca23  1  0.50923973  0.49831273  0.75346131  1
  Ti  Ti24  1  0.25014711  0.24795473  0.24977032  1
  Ti  Ti25  1  0.25014968  0.24908362  0.75164979  1
  Ti  Ti26  1  0.25125751  0.75265159  0.25055988  1
  Ti  Ti27  1  0.25194025  0.75231966  0.75182503  1
  Ti  Ti28  1  0.74860353  0.24835005  0.24815418  1
  Ti  Ti29  1  0.74928634  0.25204156  0.75002455  1
  Ti  Ti30  1  0.74852945  0.75100025  0.24741135  1
  Ti  Ti31  1  0.74799666  0.74706680  0.75188318  1
  Al  Al32  1  0.08877536  0.08367337  0.07885215  1
  Al  Al33  1  0.08412900  0.08302510  0.57578275  1
  Al  Al34  1  0.08963840  0.58165429  0.08296288  1
  Al  Al35  1  0.06949652  0.57364872  0.57313940  1
  Al  Al36  1  0.58719827  0.08933325  0.08923668  1
  Al  Al37  1  0.58836834  0.09539157  0.57226197  1
  Al  Al38  1  0.59292467  0.58698254  0.08558898  1
  Al  Al39  1  0.59409208  0.57034613  0.58768012  1
  Al  Al40  1  0.42849110  0.40279783  0.08507934  1
  Al  Al41  1  0.43333391  0.40616676  0.58534262  1
  Al  Al42  1  0.41411214  0.91736674  0.09195947  1
  Al  Al43  1  0.42195393  0.92048247  0.57854127  1
  Al  Al44  1  0.91083837  0.40606227  0.07912892  1
  Al  Al45  1  0.89373059  0.41208105  0.58180546  1
  Al  Al46  1  0.89995328  0.92133126  0.08738809  1
  Al  Al47  1  0.92271022  0.92422088  0.57027418  1
  Al  Al48  1  0.41976149  0.09053109  0.40379126  1
  Al  Al49  1  0.41833281  0.08035914  0.92469775  1
  Al  Al50  1  0.41875888  0.57387891  0.41416457  1
  Al  Al51  1  0.42889421  0.57872674  0.92295350  1
  Al  Al52  1  0.91173358  0.09122261  0.40632112  1
  Al  Al53  1  0.92198807  0.08529357  0.93413929  1
  Al  Al54  1  0.92412708  0.57734473  0.42501025  1
  Al  Al55  1  0.90461449  0.58141069  0.91884802  1
  Al  Al56  1  0.08722493  0.40551770  0.41411610  1
  Al  Al57  1  0.08194586  0.41770584  0.92648912  1
  Al  Al58  1  0.07843206  0.92596309  0.41289320  1
  Al  Al59  1  0.09292706  0.91879787  0.91654684  1
  Al  Al60  1  0.58426839  0.40073857  0.41773449  1
  Al  Al61  1  0.59496838  0.41704986  0.91625329  1
  Al  Al62  1  0.58474550  0.92778172  0.40888662  1
  Al  Al63  1  0.58707845  0.90877943  0.91851230  1
  Al  Al64  1  0.07959109  0.09023833  0.40779072  1
  Al  Al65  1  0.09254186  0.08148799  0.91797474  1
  Al  Al66  1  0.08205967  0.57820939  0.41357170  1
  Al  Al67  1  0.08259904  0.58157722  0.92784271  1
  Al  Al68  1  0.58583698  0.09280041  0.40774800  1
  Al  Al69  1  0.58786827  0.08352690  0.92552354  1
  Al  Al70  1  0.57757657  0.57591726  0.42358140  1
  Al  Al71  1  0.59510413  0.58281396  0.91765289  1
  Al  Al72  1  0.42450706  0.41064920  0.40641038  1
  Al  Al73  1  0.42323373  0.41177745  0.92474280  1
  Al  Al74  1  0.41425396  0.92741187  0.40531648  1
  Al  Al75  1  0.42442919  0.91186522  0.91688506  1
  Al  Al76  1  0.91539015  0.40679567  0.42324462  1
  Al  Al77  1  0.90093092  0.41415076  0.92056158  1
  Al  Al78  1  0.91257659  0.92602417  0.40954873  1
  Al  Al79  1  0.92117365  0.91552659  0.93203504  1
  Al  Al80  1  0.07998125  0.41731105  0.08575184  1
  Al  Al81  1  0.08018731  0.40766017  0.56921755  1
  Al  Al82  1  0.09131206  0.92075584  0.07678039  1
  Al  Al83  1  0.08266916  0.92316136  0.57899180  1
  Al  Al84  1  0.59149154  0.41207683  0.08691706  1
  Al  Al85  1  0.59402281  0.40751303  0.59269545  1
  Al  Al86  1  0.58820953  0.91049128  0.08654293  1
  Al  Al87  1  0.58023614  0.92245661  0.58061120  1
  Al  Al88  1  0.41281365  0.08310488  0.09720200  1
  Al  Al89  1  0.42771910  0.08736261  0.56894778  1
  Al  Al90  1  0.43257074  0.58508670  0.08252935  1
  Al  Al91  1  0.43060102  0.57592874  0.57471035  1
  Al  Al92  1  0.90280681  0.08247398  0.09026374  1
  Al  Al93  1  0.91573713  0.08841180  0.56907271  1
  Al  Al94  1  0.90954244  0.58591170  0.07817367  1
  Al  Al95  1  0.90485685  0.56918653  0.58933869  1
  Al  Al96  1  0.25536247  0.13574326  0.13436130  1
  Al  Al97  1  0.24620265  0.13720904  0.63338234  1
  Al  Al98  1  0.25000394  0.63838011  0.13824615  1
  Al  Al99  1  0.25719995  0.63664504  0.63484540  1
  Al  Al100  1  0.74689819  0.13098083  0.13288014  1
  Al  Al101  1  0.74817277  0.13991090  0.62399918  1
  Al  Al102  1  0.74791181  0.62789958  0.13313181  1
  Al  Al103  1  0.74660168  0.62768033  0.63806289  1
  Al  Al104  1  0.24765085  0.36095763  0.13763362  1
  Al  Al105  1  0.24747566  0.36176136  0.63493319  1
  Al  Al106  1  0.25204510  0.86776597  0.13502065  1
  Al  Al107  1  0.25118293  0.86704221  0.63119310  1
  Al  Al108  1  0.74474853  0.36887539  0.13504309  1
  Al  Al109  1  0.74673905  0.36947352  0.63601065  1
  Al  Al110  1  0.74944500  0.87288679  0.13539964  1
  Al  Al111  1  0.74512563  0.86500465  0.63637083  1
  Al  Al112  1  0.24970201  0.12969268  0.36131813  1
  Al  Al113  1  0.25017468  0.13463976  0.87293524  1
  Al  Al114  1  0.24929525  0.63552334  0.36511935  1
  Al  Al115  1  0.24903637  0.63676982  0.86445618  1
  Al  Al116  1  0.74629457  0.13971675  0.37086029  1
  Al  Al117  1  0.74900414  0.13904811  0.87272596  1
  Al  Al118  1  0.74847725  0.63431554  0.36008937  1
  Al  Al119  1  0.74656280  0.62668965  0.86666327  1
  Al  Al120  1  0.24818344  0.35902286  0.36412462  1
  Al  Al121  1  0.24915379  0.36554790  0.86388754  1
  Al  Al122  1  0.25281093  0.87178627  0.36414756  1
  Al  Al123  1  0.24357734  0.86893893  0.87174834  1
  Al  Al124  1  0.74815305  0.36096555  0.36471424  1
  Al  Al125  1  0.74614208  0.37390027  0.86205241  1
  Al  Al126  1  0.74697698  0.86648572  0.36137299  1
  Al  Al127  1  0.75073462  0.86431844  0.86682374  1
  Al  Al128  1  0.13550186  0.24338745  0.12955127  1
  Al  Al129  1  0.13310568  0.24873161  0.63030090  1
  Al  Al130  1  0.13498440  0.75425971  0.13645749  1
  Al  Al131  1  0.13687056  0.75292582  0.63535600  1
  Al  Al132  1  0.63706687  0.25111471  0.12947487  1
  Al  Al133  1  0.63417093  0.25278822  0.63555029  1
  Al  Al134  1  0.63982069  0.74912065  0.13453484  1
  Al  Al135  1  0.63434423  0.74740855  0.63761433  1
  Al  Al136  1  0.13246092  0.24662082  0.36795459  1
  Al  Al137  1  0.13770537  0.24804772  0.87514475  1
  Al  Al138  1  0.13723839  0.75283009  0.36591840  1
  Al  Al139  1  0.13583185  0.75376248  0.86648613  1
  Al  Al140  1  0.62773756  0.24664378  0.35898252  1
  Al  Al141  1  0.63896662  0.25728067  0.87485993  1
  Al  Al142  1  0.63253587  0.75292914  0.35911909  1
  Al  Al143  1  0.63464926  0.74847205  0.86617026  1
  Al  Al144  1  0.36993129  0.24832623  0.13680497  1
  Al  Al145  1  0.36515910  0.25258192  0.63428073  1
  Al  Al146  1  0.36773049  0.75579396  0.13798263  1
  Al  Al147  1  0.36557799  0.75488345  0.62946340  1
  Al  Al148  1  0.86203480  0.24541780  0.13209789  1
  Al  Al149  1  0.85937539  0.25480341  0.62546716  1
  Al  Al150  1  0.86179862  0.75377364  0.13140956  1
  Al  Al151  1  0.86220323  0.74642996  0.64094846  1
  Al  Al152  1  0.37117735  0.24833795  0.36121966  1
  Al  Al153  1  0.36642630  0.24745461  0.86733080  1
  Al  Al154  1  0.36371126  0.75422444  0.36887243  1
  Al  Al155  1  0.37097790  0.75709274  0.86379125  1
  Al  Al156  1  0.86611514  0.24802778  0.36503986  1
  Al  Al157  1  0.86114133  0.25295357  0.86293125  1
  Al  Al158  1  0.86264755  0.75043021  0.35802546  1
  Al  Al159  1  0.86183195  0.74790994  0.86482145  1
  Al  Al160  1  0.13317234  0.13524356  0.25131345  1
  Al  Al161  1  0.13773259  0.13558278  0.75608856  1
  Al  Al162  1  0.13038988  0.63955719  0.25112096  1
  Al  Al163  1  0.13515661  0.63856495  0.74972058  1
  Al  Al164  1  0.63765994  0.12753205  0.25268762  1
  Al  Al165  1  0.64036196  0.13952157  0.74970273  1
  Al  Al166  1  0.63656012  0.62775098  0.24541668  1
  Al  Al167  1  0.63652753  0.62873315  0.75324887  1
  Al  Al168  1  0.36710246  0.13207071  0.25252285  1
  Al  Al169  1  0.36171994  0.13443568  0.75000507  1
  Al  Al170  1  0.36567710  0.63670507  0.25085191  1
  Al  Al171  1  0.36786658  0.63549009  0.75337110  1
  Al  Al172  1  0.86277047  0.13533620  0.24812152  1
  Al  Al173  1  0.85934971  0.13937004  0.74509047  1
  Al  Al174  1  0.86801763  0.63652526  0.24194704  1
  Al  Al175  1  0.85917578  0.62680714  0.75108441  1
  Al  Al176  1  0.13371095  0.36032032  0.25519282  1
  Al  Al177  1  0.13249196  0.35890490  0.75143303  1
  Al  Al178  1  0.13725809  0.86922064  0.25172114  1
  Al  Al179  1  0.13624196  0.86734914  0.75267506  1
  Al  Al180  1  0.63045130  0.36170434  0.24727417  1
  Al  Al181  1  0.63275380  0.36436988  0.75012452  1
  Al  Al182  1  0.63359768  0.87037834  0.24439579  1
  Al  Al183  1  0.63432001  0.86346074  0.75389335  1
  Al  Al184  1  0.36969912  0.36057792  0.24932761  1
  Al  Al185  1  0.37029102  0.36169035  0.75206005  1
  Al  Al186  1  0.36574761  0.87128086  0.24822404  1
  Al  Al187  1  0.36272304  0.86807685  0.75118816  1
  Al  Al188  1  0.86140594  0.36182662  0.24864311  1
  Al  Al189  1  0.85975391  0.37191936  0.74673456  1
  Al  Al190  1  0.86194361  0.86907983  0.24618157  1
  Al  Al191  1  0.86124213  0.86512610  0.74964739  1
  Al  Al192  1  -0.00018344  0.82217173  0.66979528  1
  Al  Al193  1  0.17895079  0.67752671  0.50228288  1
  Al  Al194  1  -0.00098899  0.32498908  0.18294879  1
  Al  Al195  1  0.82822308  0.67823786  0.50038612  1
  Al  Al196  1  0.82405032  0.82955055  0.49746055  1
  Al  Al197  1  0.33081565  0.67134101  0.00110867  1
  Al  Al198  1  0.17571905  0.49926187  0.18377061  1
  Al  Al199  1  0.32862254  0.49868513  0.17206977  1
  Al  Al200  1  0.50022395  0.67817951  0.82627181  1
  Al  Al201  1  -0.00030829  0.82756486  0.17002460  1
  Al  Al202  1  0.32033877  0.33362020  0.49871208  1
  Al  Al203  1  0.33333722  0.49635578  0.67689285  1
  Al  Al204  1  0.83151529  0.00267429  0.83631256  1
  Al  Al205  1  0.66868790  0.49647268  0.32341633  1
  Al  Al206  1  -0.00078878  0.17637562  0.67170531  1
  Al  Al207  1  -0.00113369  0.16905264  0.17949420  1
  Al  Al208  1  0.18112357  0.00072815  0.68451696  1
  Al  Al209  1  0.17810733  0.68829076  0.00145877  1
  Al  Al210  1  0.82083555  0.00115567  0.66909273  1
  Al  Al211  1  -0.00378005  0.32836981  0.82477183  1
  Al  Al212  1  -0.00066333  0.17146560  0.83031424  1
  Al  Al213  1  0.50385056  0.18496172  0.18873267  1
  Al  Al214  1  0.66953589  0.67504284  0.49871547  1
  Al  Al215  1  0.68908581  0.30491216  0.49857616  1
  Al  Al216  1  0.50331084  0.68964354  0.18112505  1
  Al  Al217  1  0.31600306  0.00003959  0.82491992  1
  Al  Al218  1  0.49976231  0.82446090  0.31835730  1
  Al  Al219  1  0.49981239  0.18433190  0.67083953  1
  Al  Al220  1  0.16891865  0.49956139  0.67313539  1
  Al  Al221  1  0.66986481  0.83032639  0.49745646  1
  Al  Al222  1  0.17940280  0.50123319  0.82946845  1
  Al  Al223  1  -0.00198974  0.67140541  0.82575725  1
  Al  Al224  1  -0.00137501  0.82327530  0.32482945  1
  Al  Al225  1  0.83003413  0.50015726  0.31910255  1
  Al  Al226  1  0.32017852  0.49650528  0.32364599  1
  Al  Al227  1  0.68880902  0.81216083  0.00077859  1
  Al  Al228  1  -0.00111687  0.82963359  0.82866709  1
  Al  Al229  1  0.49916493  0.82067010  0.68574614  1
  Al  Al230  1  0.80880204  0.00349705  0.31177580  1
  Al  Al231  1  0.31910897  0.17510636  0.49643021  1
  Al  Al232  1  0.80248674  0.69178355  -0.00069321  1
  Al  Al233  1  0.80153105  0.30679775  -0.00095445  1
  Al  Al234  1  0.31908469  0.31709265  0.00149890  1
  Al  Al235  1  0.31907872  0.82458472  0.00100734  1
  Al  Al236  1  0.67394758  0.00076151  0.82241431  1
  Al  Al237  1  0.50321342  0.17841227  0.82705790  1
  Al  Al238  1  0.18630564  0.00250685  0.17729038  1
  Au  Au239  1  0.00084404  0.66022147  0.16754672  1
  Au  Au240  1  0.34142132  0.66749617  0.49908815  1
  Au  Au241  1  -0.00820471  0.33587304  0.65833934  1
  Au  Au242  1  0.49960409  0.83456278  0.67609234  1
  Au  Au243  1  0.17123632  0.49550202  0.33272640  1
  Au  Au244  1  0.17026514  0.32682000  0.00599792  1
  Au  Au245  1  0.50744854  0.65880146  0.67139784  1
  Au  Au246  1  0.16380742  0.49039426  0.65883334  1
  Au  Au247  1  0.16763989  0.50130270  0.83394605  1
  Au  Au248  1  0.16721472  0.00139437  0.67485050  1
  Au  Au249  1  0.16770199  0.83966110  0.49416033  1
  Au  Au250  1  0.16830568  0.17292513  0.49550092  1
  Au  Au251  1  0.67445102  0.00019634  0.17684132  1
  Au  Au252  1  0.33041298  0.16884007  0.00542457  1
  Au  Au253  1  -0.00040243  0.32756667  0.84085026  1
  Au  Au254  1  0.82689400  0.00109052  0.65390403  1
  Au  Au255  1  0.50561391  0.67457856  0.83681206  1
  Au  Au256  1  0.65784762  0.49161141  0.32702874  1
  Au  Au257  1  0.33344831  0.49932588  0.84649181  1
  Au  Au258  1  -0.00254284  0.32059605  0.33376754  1
  Au  Au259  1  -0.00631701  0.65814114  0.66695163  1
  Au  Au260  1  0.82695848  0.00231055  0.85184944  1
  Au  Au261  1  -0.00073986  0.16554726  0.16729492  1
  Au  Au262  1  0.82208057  0.18171671  0.49503869  1
  Au  Au263  1  0.82019868  0.66399127  0.50500263  1
  Au  Au264  1  0.34906500  0.49608962  0.67093016  1
  Au  Au265  1  0.33992829  0.49748395  0.16038872  1
  Au  Au266  1  0.81674541  0.68205522  -0.00061035  1
  Au  Au267  1  0.49951203  0.66114514  0.32594365  1
  Au  Au268  1  0.83320424  0.49797062  0.33490559  1
  Au  Au269  1  0.00195594  0.67289526  0.84218221  1
  Au  Au270  1  -0.00036880  0.84342252  0.16661029  1
  Au  Au271  1  0.33927385  0.01048028  0.65966451  1
  Au  Au272  1  0.17223119  0.00210927  0.32477777  1
  Au  Au273  1  0.50129474  0.83664927  0.31530418  1
  Au  Au274  1  -0.00121001  0.15983064  0.67566203  1
  Au  Au275  1  0.32879093  -0.00234650  0.83583774  1
  Au  Au276  1  0.16533098  0.66755187  0.50280595  1
  Au  Au277  1  0.82443060  0.49591461  0.15805343  1
  Au  Au278  1  -0.00451999  0.83889927  0.67138358  1
  Au  Au279  1  0.33443491  0.83985381  0.49502712  1
  Au  Au280  1  0.65732197  0.00782295  0.67103799  1
  Au  Au281  1  -0.00215759  0.67428640  0.33692310  1
  Au  Au282  1  0.50465550  0.33865461  0.82705606  1
  Au  Au283  1  0.67999707  0.17897982  0.00169717  1
  Au  Au284  1  0.33109962  0.82900826  0.00039031  1
  Au  Au285  1  0.82168172  0.49909569  0.82561462  1
  Au  Au286  1  0.50287471  0.16185633  0.82366675  1
  Au  Au287  1  0.33598616  0.32786205  0.49771880  1
