# generated using pymatgen
data_Ca24Ti8Al207Au49
_symmetry_space_group_name_H-M   'P 1'
_cell_length_a   17.32400302
_cell_length_b   17.32559160
_cell_length_c   17.32442067
_cell_angle_alpha   90.00183415
_cell_angle_beta   89.99881372
_cell_angle_gamma   90.00239270
_symmetry_Int_Tables_number   1
_chemical_formula_structural   Ca24Ti8Al207Au49
_chemical_formula_sum   'Ca24 Ti8 Al207 Au49'
_cell_volume   5199.90062163
_cell_formula_units_Z   1
loop_
 _symmetry_equiv_pos_site_id
 _symmetry_equiv_pos_as_xyz
  1  'x, y, z'
loop_
 _atom_site_type_symbol
 _atom_site_label
 _atom_site_symmetry_multiplicity
 _atom_site_fract_x
 _atom_site_fract_y
 _atom_site_fract_z
 _atom_site_occupancy
  Ca  Ca0  1  0.25284272  0.00244244  -0.00243101  1
  Ca  Ca1  1  0.24979509  -0.00020691  0.50331072  1
  Ca  Ca2  1  0.25216582  0.49942948  0.00317449  1
  Ca  Ca3  1  0.25106582  0.49936935  0.49879217  1
  Ca  Ca4  1  0.75368526  0.00245772  0.00054286  1
  Ca  Ca5  1  0.75274012  0.00206792  0.49914300  1
  Ca  Ca6  1  0.75234492  0.49874467  -0.00100530  1
  Ca  Ca7  1  0.74919689  0.50016212  0.50580939  1
  Ca  Ca8  1  -0.00200698  0.25010901  -0.00002679  1
  Ca  Ca9  1  0.00316577  0.25322096  0.49907585  1
  Ca  Ca10  1  -0.00189546  0.74761454  0.00254161  1
  Ca  Ca11  1  0.00116422  0.74784021  0.49607243  1
  Ca  Ca12  1  0.49934379  0.24547877  -0.00225645  1
  Ca  Ca13  1  0.49890700  0.25399767  0.50579101  1
  Ca  Ca14  1  0.50040577  0.74640497  -0.00032473  1
  Ca  Ca15  1  0.49661751  0.74634261  0.50150763  1
  Ca  Ca16  1  -0.00390479  0.00061610  0.24593459  1
  Ca  Ca17  1  0.00154974  0.00354863  0.75330836  1
  Ca  Ca18  1  0.00267085  0.49739551  0.24709411  1
  Ca  Ca19  1  0.00109611  0.49500988  0.75227873  1
  Ca  Ca20  1  0.49778835  0.00184627  0.24413295  1
  Ca  Ca21  1  0.49924679  0.00219071  0.75162405  1
  Ca  Ca22  1  0.49751185  0.50157349  0.24878266  1
  Ca  Ca23  1  0.49829289  0.49855414  0.74994198  1
  Ti  Ti24  1  0.24940693  0.25176714  0.24898626  1
  Ti  Ti25  1  0.25138514  0.24969395  0.75002386  1
  Ti  Ti26  1  0.24993645  0.74819874  0.24952626  1
  Ti  Ti27  1  0.24994352  0.75010065  0.75038772  1
  Ti  Ti28  1  0.75190659  0.24939575  0.24727201  1
  Ti  Ti29  1  0.74854128  0.25009711  0.75274333  1
  Ti  Ti30  1  0.75010028  0.75047856  0.24810045  1
  Ti  Ti31  1  0.75039285  0.74949813  0.75280297  1
  Al  Al32  1  0.08007676  0.08617619  0.08338148  1
  Al  Al33  1  0.09575415  0.08626564  0.58520759  1
  Al  Al34  1  0.08442821  0.57709761  0.09007553  1
  Al  Al35  1  0.08654889  0.57820788  0.57562322  1
  Al  Al36  1  0.58611323  0.08551230  0.07611274  1
  Al  Al37  1  0.57931149  0.08833278  0.59080946  1
  Al  Al38  1  0.58846870  0.58625920  0.07445902  1
  Al  Al39  1  0.58683058  0.57414872  0.58833135  1
  Al  Al40  1  0.41005331  0.42103375  0.08631364  1
  Al  Al41  1  0.41587266  0.41191512  0.59105916  1
  Al  Al42  1  0.41190952  0.92412611  0.08542689  1
  Al  Al43  1  0.41095376  0.91937816  0.58137825  1
  Al  Al44  1  0.91793474  0.40678104  0.08055697  1
  Al  Al45  1  0.90964829  0.41415595  0.58996600  1
  Al  Al46  1  0.90901238  0.92100465  0.08323222  1
  Al  Al47  1  0.91648306  0.92390269  0.57893214  1
  Al  Al48  1  0.41621973  0.07925121  0.41773908  1
  Al  Al49  1  0.40750204  0.08574886  0.91684346  1
  Al  Al50  1  0.41250069  0.57950155  0.41471449  1
  Al  Al51  1  0.41941622  0.58779237  0.91422266  1
  Al  Al52  1  0.92020407  0.08270396  0.41493191  1
  Al  Al53  1  0.91391678  0.08489057  0.91317519  1
  Al  Al54  1  0.92264604  0.57987402  0.42076731  1
  Al  Al55  1  0.91545594  0.57697822  0.91984333  1
  Al  Al56  1  0.08988171  0.41838614  0.40958243  1
  Al  Al57  1  0.07591528  0.41310143  0.91195183  1
  Al  Al58  1  0.08002701  0.91903227  0.42227437  1
  Al  Al59  1  0.09073177  0.92693457  0.91470009  1
  Al  Al60  1  0.57771610  0.42059173  0.42437569  1
  Al  Al61  1  0.58420251  0.41455817  0.91524103  1
  Al  Al62  1  0.57980697  0.92151346  0.41912955  1
  Al  Al63  1  0.58346793  0.91782870  0.91985824  1
  Al  Al64  1  0.08656560  0.08931090  0.42264326  1
  Al  Al65  1  0.08927131  0.08559334  0.90813667  1
  Al  Al66  1  0.09293035  0.57962813  0.41410843  1
  Al  Al67  1  0.08095278  0.57423746  0.92005596  1
  Al  Al68  1  0.57793337  0.08108964  0.42025895  1
  Al  Al69  1  0.58618649  0.08970496  0.91849582  1
  Al  Al70  1  0.57890246  0.57811033  0.42409135  1
  Al  Al71  1  0.58248615  0.58938824  0.91403861  1
  Al  Al72  1  0.41303788  0.42021818  0.41952083  1
  Al  Al73  1  0.41723633  0.41810981  0.91497226  1
  Al  Al74  1  0.41204803  0.91741965  0.41956189  1
  Al  Al75  1  0.41298673  0.92301108  0.91207428  1
  Al  Al76  1  0.92014742  0.41336951  0.42109381  1
  Al  Al77  1  0.91385898  0.40663101  0.91636015  1
  Al  Al78  1  0.91674536  0.91963143  0.41674122  1
  Al  Al79  1  0.90908533  0.92404754  0.91995352  1
  Al  Al80  1  0.08171277  0.41374003  0.08963697  1
  Al  Al81  1  0.08108622  0.41559985  0.58458152  1
  Al  Al82  1  0.08069635  0.92033131  0.08076816  1
  Al  Al83  1  0.09254112  0.92661266  0.58666834  1
  Al  Al84  1  0.58354453  0.41687137  0.07681733  1
  Al  Al85  1  0.58025912  0.41405263  0.59498668  1
  Al  Al86  1  0.58396328  0.91858836  0.07997428  1
  Al  Al87  1  0.58037681  0.92491119  0.58265890  1
  Al  Al88  1  0.40813883  0.08408534  0.08053520  1
  Al  Al89  1  0.41988387  0.08951318  0.58877413  1
  Al  Al90  1  0.41081092  0.58041029  0.08128867  1
  Al  Al91  1  0.41173387  0.57459287  0.58735490  1
  Al  Al92  1  0.91493759  0.08493812  0.08680205  1
  Al  Al93  1  0.91912297  0.08174948  0.58276759  1
  Al  Al94  1  0.92160598  0.58249587  0.08192853  1
  Al  Al95  1  0.90753408  0.57225122  0.58731505  1
  Al  Al96  1  0.25125214  0.13631841  0.12816558  1
  Al  Al97  1  0.24842218  0.13185510  0.63436004  1
  Al  Al98  1  0.25059226  0.63288312  0.13723103  1
  Al  Al99  1  0.25472278  0.63300898  0.63563579  1
  Al  Al100  1  0.75385936  0.13503019  0.12890259  1
  Al  Al101  1  0.75177794  0.13758737  0.63651960  1
  Al  Al102  1  0.75021093  0.63734786  0.12936613  1
  Al  Al103  1  0.74966461  0.63101055  0.63802563  1
  Al  Al104  1  0.25156622  0.36634660  0.13341697  1
  Al  Al105  1  0.25276826  0.36490317  0.63647180  1
  Al  Al106  1  0.25420566  0.86688349  0.13517996  1
  Al  Al107  1  0.24704394  0.86851540  0.63696266  1
  Al  Al108  1  0.75281582  0.36236314  0.12702690  1
  Al  Al109  1  0.74851927  0.36767914  0.63820666  1
  Al  Al110  1  0.75095783  0.86870151  0.13459574  1
  Al  Al111  1  0.75253598  0.86562718  0.63775966  1
  Al  Al112  1  0.24806991  0.13813445  0.36646340  1
  Al  Al113  1  0.24942204  0.13339072  0.86668642  1
  Al  Al114  1  0.25138424  0.62580272  0.36161128  1
  Al  Al115  1  0.25227986  0.63384792  0.86586807  1
  Al  Al116  1  0.75252783  0.13208808  0.36435932  1
  Al  Al117  1  0.75053840  0.13774455  0.87149967  1
  Al  Al118  1  0.74984046  0.63814213  0.36306493  1
  Al  Al119  1  0.74703129  0.63360141  0.87320595  1
  Al  Al120  1  0.24545590  0.37183030  0.36186861  1
  Al  Al121  1  0.25553329  0.36329042  0.86775741  1
  Al  Al122  1  0.24980560  0.86244213  0.36209164  1
  Al  Al123  1  0.25072517  0.87002795  0.86349187  1
  Al  Al124  1  0.75111244  0.36067726  0.36302742  1
  Al  Al125  1  0.75064676  0.36390610  0.87246826  1
  Al  Al126  1  0.75124045  0.86929482  0.36119713  1
  Al  Al127  1  0.74822887  0.86643064  0.86729288  1
  Al  Al128  1  0.13422914  0.25190139  0.13329098  1
  Al  Al129  1  0.13980654  0.25083478  0.62988409  1
  Al  Al130  1  0.13837373  0.75035581  0.13226280  1
  Al  Al131  1  0.13605006  0.75001664  0.63759784  1
  Al  Al132  1  0.63733085  0.25031427  0.12653797  1
  Al  Al133  1  0.63241372  0.25138932  0.63688488  1
  Al  Al134  1  0.63389087  0.74956508  0.12962078  1
  Al  Al135  1  0.63789211  0.74763154  0.63863220  1
  Al  Al136  1  0.13338756  0.25474938  0.36947436  1
  Al  Al137  1  0.13605559  0.24925480  0.86513717  1
  Al  Al138  1  0.13208383  0.74939709  0.36295030  1
  Al  Al139  1  0.13796561  0.75132468  0.86518065  1
  Al  Al140  1  0.63677820  0.24883704  0.36632253  1
  Al  Al141  1  0.63424674  0.25225703  0.87027909  1
  Al  Al142  1  0.63280698  0.75082476  0.36211194  1
  Al  Al143  1  0.63350472  0.74908280  0.86934634  1
  Al  Al144  1  0.36321292  0.25047184  0.12919261  1
  Al  Al145  1  0.36694615  0.24818825  0.63694033  1
  Al  Al146  1  0.37036598  0.74629247  0.13815416  1
  Al  Al147  1  0.36312808  0.74855776  0.63836933  1
  Al  Al148  1  0.86433076  0.25010435  0.12696579  1
  Al  Al149  1  0.86358513  0.25159119  0.63959343  1
  Al  Al150  1  0.86485568  0.75113315  0.13532676  1
  Al  Al151  1  0.86346476  0.74874529  0.64021858  1
  Al  Al152  1  0.36189041  0.25038327  0.36316547  1
  Al  Al153  1  0.36498328  0.24523082  0.86903904  1
  Al  Al154  1  0.36331066  0.74415800  0.36236414  1
  Al  Al155  1  0.36564205  0.74870708  0.86335758  1
  Al  Al156  1  0.87141377  0.24874513  0.36072893  1
  Al  Al157  1  0.86357675  0.25124679  0.87005652  1
  Al  Al158  1  0.86879663  0.75132295  0.36120920  1
  Al  Al159  1  0.86278381  0.74661971  0.86343708  1
  Al  Al160  1  0.13499066  0.14084367  0.24972831  1
  Al  Al161  1  0.13939421  0.13136750  0.75122405  1
  Al  Al162  1  0.13616046  0.63178590  0.25401741  1
  Al  Al163  1  0.13794233  0.63434012  0.74939683  1
  Al  Al164  1  0.63776257  0.13724253  0.24651687  1
  Al  Al165  1  0.63051228  0.13844109  0.75433833  1
  Al  Al166  1  0.63154458  0.63762516  0.24485351  1
  Al  Al167  1  0.63611978  0.63382351  0.75296826  1
  Al  Al168  1  0.36205558  0.13688498  0.24431473  1
  Al  Al169  1  0.36451142  0.13220925  0.75320439  1
  Al  Al170  1  0.36672560  0.62814927  0.24835154  1
  Al  Al171  1  0.36446499  0.62978405  0.75261882  1
  Al  Al172  1  0.86341743  0.13084491  0.24764160  1
  Al  Al173  1  0.86236826  0.13060539  0.75404762  1
  Al  Al174  1  0.86432142  0.63560888  0.24988213  1
  Al  Al175  1  0.86158625  0.62813570  0.75025064  1
  Al  Al176  1  0.13045208  0.36268696  0.24943009  1
  Al  Al177  1  0.13724111  0.36250779  0.75111017  1
  Al  Al178  1  0.12817563  0.86201530  0.24835092  1
  Al  Al179  1  0.13531709  0.86953703  0.75225671  1
  Al  Al180  1  0.64031729  0.36196833  0.24612024  1
  Al  Al181  1  0.63454386  0.36948174  0.74704077  1
  Al  Al182  1  0.63388985  0.86456930  0.24672260  1
  Al  Al183  1  0.63629938  0.86536968  0.75376071  1
  Al  Al184  1  0.36138331  0.37136484  0.24917150  1
  Al  Al185  1  0.36701724  0.36790025  0.74754446  1
  Al  Al186  1  0.36503359  0.86439266  0.24636031  1
  Al  Al187  1  0.36375946  0.86753183  0.75459128  1
  Al  Al188  1  0.87233605  0.36112004  0.24568198  1
  Al  Al189  1  0.86126143  0.36657111  0.75389177  1
  Al  Al190  1  0.86716256  0.86906430  0.24828126  1
  Al  Al191  1  0.86359797  0.87206827  0.75288607  1
  Al  Al192  1  0.00101993  0.82844739  0.67137284  1
  Al  Al193  1  0.67601735  0.82355815  0.50210338  1
  Al  Al194  1  0.31715423  0.32804967  0.49986710  1
  Al  Al195  1  0.49969173  0.32675844  0.33212530  1
  Al  Al196  1  0.82793091  0.82454108  0.49920503  1
  Al  Al197  1  0.49861495  0.32015587  0.81586702  1
  Al  Al198  1  0.49845973  0.17378034  0.32472769  1
  Al  Al199  1  0.50034662  0.81781685  0.82591107  1
  Al  Al200  1  0.18053842  0.00246187  0.17876411  1
  Al  Al201  1  0.32840671  0.00061496  0.31343429  1
  Al  Al202  1  0.68455895  0.00326184  0.82827105  1
  Al  Al203  1  0.82245025  0.49838793  0.32496804  1
  Al  Al204  1  0.68051514  0.50134723  0.82414014  1
  Al  Al205  1  0.31996071  0.68179511  0.00084200  1
  Al  Al206  1  0.00175614  0.68040796  0.18078729  1
  Al  Al207  1  0.82683143  0.67236367  0.50087816  1
  Al  Al208  1  0.49957143  0.82662517  0.67210255  1
  Al  Al209  1  0.17612956  0.32367709  -0.00353906  1
  Al  Al210  1  -0.00206891  0.18653245  0.17965243  1
  Al  Al211  1  0.82878197  0.49772568  0.16985896  1
  Al  Al212  1  -0.00157041  0.82765622  0.82954623  1
  Al  Al213  1  0.00080557  0.67061319  0.82988509  1
  Al  Al214  1  0.67355430  0.66962296  0.50126197  1
  Al  Al215  1  0.18259534  0.68176196  0.49867580  1
  Al  Al216  1  0.49954175  0.66919205  0.68694066  1
  Al  Al217  1  0.67470866  0.50051321  0.17103427  1
  Al  Al218  1  0.66921543  0.50002520  0.32517402  1
  Al  Al219  1  -0.00031319  0.66915699  0.67335267  1
  Al  Al220  1  0.32120721  -0.00111334  0.68222896  1
  Al  Al221  1  -0.00085282  0.32879750  0.68748244  1
  Al  Al222  1  0.17195226  0.00036396  0.32176098  1
  Al  Al223  1  0.17814641  0.82137900  -0.00103260  1
  Al  Al224  1  0.81741178  0.81776986  -0.00033018  1
  Al  Al225  1  0.18308931  0.49930974  0.67260552  1
  Al  Al226  1  0.49963876  0.32484231  0.17794951  1
  Al  Al227  1  0.49992015  0.16949984  0.16996328  1
  Al  Al228  1  0.49918417  0.82255804  0.32444402  1
  Al  Al229  1  0.18048382  0.49749461  0.82541291  1
  Al  Al230  1  0.18643842  0.49745497  0.18967310  1
  Al  Al231  1  -0.00107505  0.18577534  0.82828584  1
  Al  Al232  1  0.81969451  0.31915851  0.50087117  1
  Al  Al233  1  0.31793026  0.81647625  0.50012484  1
  Al  Al234  1  0.68042913  0.00207126  0.67579833  1
  Al  Al235  1  0.67533373  0.17775576  0.49974521  1
  Al  Al236  1  0.67778930  0.00370524  0.17632021  1
  Al  Al237  1  0.00366273  0.17824868  0.67791670  1
  Al  Al238  1  0.31882045  0.17314101  0.50097364  1
  Au  Au239  1  0.49727496  0.83152333  0.33300968  1
  Au  Au240  1  0.32271426  0.49735670  0.32193965  1
  Au  Au241  1  0.17517180  0.00060718  0.33388300  1
  Au  Au242  1  -0.00058756  0.83138952  0.33272771  1
  Au  Au243  1  0.66946117  0.82377555  0.00054927  1
  Au  Au244  1  0.17256853  0.83253392  -0.00095908  1
  Au  Au245  1  0.33030402  0.50217371  0.82791377  1
  Au  Au246  1  0.82957978  0.00080251  0.67354687  1
  Au  Au247  1  0.33380373  0.83286018  -0.00017335  1
  Au  Au248  1  -0.00048405  0.65680716  0.66704671  1
  Au  Au249  1  0.83857556  0.17326303  0.49796473  1
  Au  Au250  1  0.67196746  0.00321889  0.83132979  1
  Au  Au251  1  0.83540909  0.49666764  0.82421186  1
  Au  Au252  1  0.00399830  0.16805739  0.66787067  1
  Au  Au253  1  0.50023346  0.82992630  0.83042308  1
  Au  Au254  1  0.82879595  0.66816582  0.00087578  1
  Au  Au255  1  -0.00473376  0.82956113  0.16137089  1
  Au  Au256  1  0.00305803  0.16808328  0.32694867  1
  Au  Au257  1  0.67169195  0.34207299  0.50407306  1
  Au  Au258  1  0.49952649  0.33496495  0.16823322  1
  Au  Au259  1  0.00416298  0.66152773  0.32859947  1
  Au  Au260  1  0.00175401  0.33538404  0.32280445  1
  Au  Au261  1  0.49612848  0.16434165  0.82624627  1
  Au  Au262  1  0.66697389  0.16852316  0.50169617  1
  Au  Au263  1  0.17438305  0.16589070  -0.00176803  1
  Au  Au264  1  0.66806380  0.50306091  0.82302402  1
  Au  Au265  1  0.33137747  0.17021386  0.50025781  1
  Au  Au266  1  0.50243426  0.66535992  0.33364453  1
  Au  Au267  1  0.17060024  0.83119576  0.50129545  1
  Au  Au268  1  0.50022316  0.66689659  0.67009876  1
  Au  Au269  1  0.16750512  0.33236412  -0.00148753  1
  Au  Au270  1  0.49855657  0.83608376  0.16784827  1
  Au  Au271  1  0.50067987  0.32793060  0.82578125  1
  Au  Au272  1  0.17290613  0.00130973  0.16900030  1
  Au  Au273  1  0.83212992  0.49824734  0.33565716  1
  Au  Au274  1  0.67414638  0.32716367  -0.00025987  1
  Au  Au275  1  0.17132229  0.65727012  0.00108795  1
  Au  Au276  1  0.82813474  0.16883559  -0.00060500  1
  Au  Au277  1  0.33215297  0.00444894  0.67787394  1
  Au  Au278  1  0.00001887  0.83799388  0.66345930  1
  Au  Au279  1  0.33022236  0.66646949  0.50151306  1
  Au  Au280  1  -0.00138885  0.83483860  0.84137601  1
  Au  Au281  1  0.33377637  0.32647109  0.00002834  1
  Au  Au282  1  0.66679032  0.00242568  0.32954745  1
  Au  Au283  1  0.83475170  0.00007882  0.32352688  1
  Au  Au284  1  0.50011009  0.66312944  0.16247272  1
  Au  Au285  1  0.16686281  0.32979314  0.50019874  1
  Au  Au286  1  0.66567181  0.83373463  0.50158221  1
  Au  Au287  1  0.67891287  0.00548792  0.16391643  1
