# generated using pymatgen
data_Ca24Ti8Al207Au49
_symmetry_space_group_name_H-M   'P 1'
_cell_length_a   17.32185887
_cell_length_b   17.32222351
_cell_length_c   17.32242331
_cell_angle_alpha   89.99623344
_cell_angle_beta   90.00108432
_cell_angle_gamma   90.00220232
_symmetry_Int_Tables_number   1
_chemical_formula_structural   Ca24Ti8Al207Au49
_chemical_formula_sum   'Ca24 Ti8 Al207 Au49'
_cell_volume   5197.64698329
_cell_formula_units_Z   1
loop_
 _symmetry_equiv_pos_site_id
 _symmetry_equiv_pos_as_xyz
  1  'x, y, z'
loop_
 _atom_site_type_symbol
 _atom_site_label
 _atom_site_symmetry_multiplicity
 _atom_site_fract_x
 _atom_site_fract_y
 _atom_site_fract_z
 _atom_site_occupancy
  Ca  Ca0  1  0.25478997  0.00325153  0.00056041  1
  Ca  Ca1  1  0.25905011  -0.00144506  0.49745846  1
  Ca  Ca2  1  0.24718895  0.49811795  0.00100154  1
  Ca  Ca3  1  0.25359213  0.50239557  0.49659352  1
  Ca  Ca4  1  0.74581020  0.00593098  0.00522483  1
  Ca  Ca5  1  0.74902821  -0.00551361  0.49576569  1
  Ca  Ca6  1  0.74948835  0.49180163  -0.00266749  1
  Ca  Ca7  1  0.75342969  0.50496909  0.50215188  1
  Ca  Ca8  1  0.00380781  0.25432027  -0.00245304  1
  Ca  Ca9  1  0.00407652  0.24985974  0.50154699  1
  Ca  Ca10  1  0.00322364  0.74525617  -0.00053562  1
  Ca  Ca11  1  -0.00149515  0.74637241  0.50067541  1
  Ca  Ca12  1  0.50120664  0.24543535  0.00103179  1
  Ca  Ca13  1  0.50574480  0.25056900  0.49796472  1
  Ca  Ca14  1  0.49558994  0.75414747  0.00197343  1
  Ca  Ca15  1  0.50011355  0.75515514  0.49700196  1
  Ca  Ca16  1  0.00004899  0.00239100  0.24493514  1
  Ca  Ca17  1  0.00064365  0.00018168  0.74931092  1
  Ca  Ca18  1  0.00504437  0.49836603  0.24633850  1
  Ca  Ca19  1  -0.00319687  0.50128219  0.75465687  1
  Ca  Ca20  1  0.49822654  0.00164605  0.24604521  1
  Ca  Ca21  1  0.49668334  0.00680730  0.75712489  1
  Ca  Ca22  1  0.49543182  0.49879665  0.24921622  1
  Ca  Ca23  1  0.50064507  0.49789870  0.75403132  1
  Ti  Ti24  1  0.25200464  0.25107250  0.24609433  1
  Ti  Ti25  1  0.25118938  0.24921169  0.75450803  1
  Ti  Ti26  1  0.25254063  0.74928823  0.24878253  1
  Ti  Ti27  1  0.24991789  0.75059948  0.75098582  1
  Ti  Ti28  1  0.74807089  0.24916265  0.24764866  1
  Ti  Ti29  1  0.74982989  0.25058753  0.75143975  1
  Ti  Ti30  1  0.74699458  0.75030861  0.25014888  1
  Ti  Ti31  1  0.74945263  0.74783163  0.74972123  1
  Al  Al32  1  0.09777290  0.08956726  0.07998802  1
  Al  Al33  1  0.08150189  0.07535343  0.59872960  1
  Al  Al34  1  0.08972909  0.57122441  0.08887204  1
  Al  Al35  1  0.07801797  0.57911988  0.58133271  1
  Al  Al36  1  0.58912074  0.08691258  0.08442282  1
  Al  Al37  1  0.57238439  0.08567713  0.58732111  1
  Al  Al38  1  0.57422916  0.57864678  0.08159530  1
  Al  Al39  1  0.58577488  0.59027774  0.57997625  1
  Al  Al40  1  0.41197571  0.41384896  0.08380080  1
  Al  Al41  1  0.42217032  0.41576388  0.57488182  1
  Al  Al42  1  0.41019573  0.91808771  0.09196262  1
  Al  Al43  1  0.41987611  0.91456150  0.58884874  1
  Al  Al44  1  0.91959058  0.40804025  0.07165792  1
  Al  Al45  1  0.92041295  0.41267710  0.59217836  1
  Al  Al46  1  0.91908768  0.92892070  0.09255136  1
  Al  Al47  1  0.91982954  0.91249182  0.57597673  1
  Al  Al48  1  0.41752057  0.07906926  0.39832822  1
  Al  Al49  1  0.41736263  0.09606552  0.91997967  1
  Al  Al50  1  0.40954060  0.58133432  0.41006443  1
  Al  Al51  1  0.41592286  0.57900203  0.92115875  1
  Al  Al52  1  0.90853673  0.07856026  0.41344935  1
  Al  Al53  1  0.91548613  0.08461947  0.92411537  1
  Al  Al54  1  0.91908039  0.59035585  0.42630937  1
  Al  Al55  1  0.91943419  0.57836782  0.90558629  1
  Al  Al56  1  0.09011970  0.42599507  0.40319008  1
  Al  Al57  1  0.09049008  0.41506641  0.91983212  1
  Al  Al58  1  0.08345276  0.92164138  0.41971363  1
  Al  Al59  1  0.08673872  0.91993105  0.91773398  1
  Al  Al60  1  0.57158417  0.42115286  0.41864266  1
  Al  Al61  1  0.59138724  0.40363346  0.91830521  1
  Al  Al62  1  0.58073796  0.91641609  0.40413735  1
  Al  Al63  1  0.57333284  0.93119691  0.92267228  1
  Al  Al64  1  0.07757098  0.07511509  0.41312291  1
  Al  Al65  1  0.09674951  0.09127537  0.92122992  1
  Al  Al66  1  0.09141980  0.58038160  0.40583776  1
  Al  Al67  1  0.08098168  0.57601343  0.90685038  1
  Al  Al68  1  0.57922510  0.07776984  0.40115168  1
  Al  Al69  1  0.58277177  0.09594819  0.91396659  1
  Al  Al70  1  0.58160362  0.59035337  0.42153728  1
  Al  Al71  1  0.58017629  0.57311407  0.91883784  1
  Al  Al72  1  0.40913854  0.42029657  0.40787446  1
  Al  Al73  1  0.41469758  0.40946376  0.91935499  1
  Al  Al74  1  0.41825198  0.91618728  0.40212819  1
  Al  Al75  1  0.41264872  0.91460711  0.92790713  1
  Al  Al76  1  0.92917912  0.42229734  0.42766735  1
  Al  Al77  1  0.90739353  0.41705256  0.91363407  1
  Al  Al78  1  0.90360287  0.91947246  0.41573860  1
  Al  Al79  1  0.92449737  0.92423925  0.91761324  1
  Al  Al80  1  0.09620983  0.40992810  0.08335200  1
  Al  Al81  1  0.07538731  0.41351791  0.59133635  1
  Al  Al82  1  0.08277790  0.92410377  0.08045537  1
  Al  Al83  1  0.08543120  0.91984109  0.58932212  1
  Al  Al84  1  0.58610312  0.40308007  0.07777205  1
  Al  Al85  1  0.57760422  0.41982703  0.58724325  1
  Al  Al86  1  0.57859965  0.92512506  0.09389058  1
  Al  Al87  1  0.57360120  0.91494703  0.58295200  1
  Al  Al88  1  0.40786376  0.08349930  0.08537147  1
  Al  Al89  1  0.42107674  0.08568179  0.59488822  1
  Al  Al90  1  0.41295205  0.58083990  0.08632292  1
  Al  Al91  1  0.42220776  0.58633211  0.57415900  1
  Al  Al92  1  0.90798862  0.08624314  0.08731880  1
  Al  Al93  1  0.92206866  0.08521201  0.57851548  1
  Al  Al94  1  0.92929701  0.57242200  0.07195831  1
  Al  Al95  1  0.91214182  0.58628695  0.58348894  1
  Al  Al96  1  0.25480101  0.13383825  0.13172933  1
  Al  Al97  1  0.24481852  0.13246232  0.64139230  1
  Al  Al98  1  0.25182951  0.62574342  0.13542064  1
  Al  Al99  1  0.25035147  0.63517989  0.63845613  1
  Al  Al100  1  0.74686935  0.13501709  0.13405655  1
  Al  Al101  1  0.75263624  0.13514744  0.63802229  1
  Al  Al102  1  0.74496226  0.63292749  0.13341231  1
  Al  Al103  1  0.75051791  0.63445913  0.63779177  1
  Al  Al104  1  0.25085525  0.36898584  0.12853957  1
  Al  Al105  1  0.25279162  0.36335778  0.63986320  1
  Al  Al106  1  0.25975156  0.86728540  0.13120122  1
  Al  Al107  1  0.24555169  0.86718093  0.63916228  1
  Al  Al108  1  0.74810335  0.36418931  0.13105596  1
  Al  Al109  1  0.75038093  0.36560193  0.63736355  1
  Al  Al110  1  0.74673843  0.86650864  0.13722561  1
  Al  Al111  1  0.75343375  0.86414384  0.63584845  1
  Al  Al112  1  0.25603814  0.13387757  0.36157519  1
  Al  Al113  1  0.25057911  0.13323387  0.86884514  1
  Al  Al114  1  0.25221376  0.62924935  0.35950251  1
  Al  Al115  1  0.24929290  0.62813321  0.86283779  1
  Al  Al116  1  0.74620686  0.13339380  0.35834538  1
  Al  Al117  1  0.74752039  0.13830708  0.86728689  1
  Al  Al118  1  0.74704250  0.63529912  0.36228531  1
  Al  Al119  1  0.75130325  0.62678347  0.86398641  1
  Al  Al120  1  0.25013992  0.36921607  0.36017099  1
  Al  Al121  1  0.25052460  0.36424200  0.87176110  1
  Al  Al122  1  0.25509105  0.86606133  0.36395669  1
  Al  Al123  1  0.25223480  0.86890276  0.86697863  1
  Al  Al124  1  0.74685053  0.36554273  0.36204196  1
  Al  Al125  1  0.74824767  0.36430715  0.86676520  1
  Al  Al126  1  0.74651765  0.86474903  0.36380409  1
  Al  Al127  1  0.74949085  0.86207472  0.86405468  1
  Al  Al128  1  0.14148404  0.24914254  0.12819843  1
  Al  Al129  1  0.13585942  0.25329723  0.63939480  1
  Al  Al130  1  0.14187097  0.74878012  0.13391843  1
  Al  Al131  1  0.13510742  0.74649092  0.63520463  1
  Al  Al132  1  0.63526439  0.24767046  0.13028899  1
  Al  Al133  1  0.63120293  0.24659254  0.63883946  1
  Al  Al134  1  0.63369941  0.75100901  0.13645886  1
  Al  Al135  1  0.63087989  0.74976053  0.63609259  1
  Al  Al136  1  0.13926910  0.24903846  0.35930096  1
  Al  Al137  1  0.13705635  0.25123018  0.87061457  1
  Al  Al138  1  0.14313608  0.74666338  0.36754229  1
  Al  Al139  1  0.13892030  0.74602363  0.86748147  1
  Al  Al140  1  0.63135592  0.24536275  0.36238978  1
  Al  Al141  1  0.63300507  0.24923840  0.86721937  1
  Al  Al142  1  0.62695795  0.75030392  0.36303714  1
  Al  Al143  1  0.63557617  0.74367321  0.86726234  1
  Al  Al144  1  0.36217265  0.24788709  0.12566829  1
  Al  Al145  1  0.36513134  0.24389215  0.63929764  1
  Al  Al146  1  0.36508857  0.74935662  0.13699198  1
  Al  Al147  1  0.36759752  0.74974262  0.63600917  1
  Al  Al148  1  0.86472291  0.25124414  0.13245450  1
  Al  Al149  1  0.86455668  0.25355410  0.63933457  1
  Al  Al150  1  0.86327642  0.74621123  0.13572529  1
  Al  Al151  1  0.86532966  0.74620803  0.63804405  1
  Al  Al152  1  0.36433377  0.24955454  0.35722219  1
  Al  Al153  1  0.36484773  0.24592005  0.87466817  1
  Al  Al154  1  0.36946325  0.75038692  0.35998673  1
  Al  Al155  1  0.36458450  0.75365252  0.86626529  1
  Al  Al156  1  0.86082862  0.24985203  0.36296119  1
  Al  Al157  1  0.86468095  0.25934313  0.87025245  1
  Al  Al158  1  0.86174116  0.74783501  0.36315129  1
  Al  Al159  1  0.86550414  0.74326337  0.85978378  1
  Al  Al160  1  0.13542405  0.13534160  0.24547475  1
  Al  Al161  1  0.13730087  0.13145779  0.75446061  1
  Al  Al162  1  0.13849917  0.63038787  0.24798621  1
  Al  Al163  1  0.12897821  0.63550087  0.75241269  1
  Al  Al164  1  0.62632050  0.13653499  0.24725969  1
  Al  Al165  1  0.63133223  0.13681059  0.75383423  1
  Al  Al166  1  0.62932057  0.63162093  0.25131168  1
  Al  Al167  1  0.63098199  0.63240688  0.75007740  1
  Al  Al168  1  0.36893547  0.13503823  0.24412984  1
  Al  Al169  1  0.36629131  0.13353695  0.75579881  1
  Al  Al170  1  0.36827702  0.62958359  0.24897461  1
  Al  Al171  1  0.36951761  0.63710993  0.75286765  1
  Al  Al172  1  0.86584265  0.13459654  0.24462215  1
  Al  Al173  1  0.86187943  0.13151987  0.75345395  1
  Al  Al174  1  0.86335209  0.63232317  0.24723701  1
  Al  Al175  1  0.86964930  0.63155140  0.75034848  1
  Al  Al176  1  0.13929598  0.36726329  0.24418977  1
  Al  Al177  1  0.13430594  0.36372494  0.75787801  1
  Al  Al178  1  0.14038952  0.86428683  0.24902528  1
  Al  Al179  1  0.13624377  0.86922023  0.75612619  1
  Al  Al180  1  0.63490956  0.36628961  0.24694830  1
  Al  Al181  1  0.63391438  0.36850394  0.75383765  1
  Al  Al182  1  0.63141999  0.86857531  0.25602471  1
  Al  Al183  1  0.63265083  0.86172946  0.74864080  1
  Al  Al184  1  0.36208410  0.37110999  0.24760168  1
  Al  Al185  1  0.36803601  0.36114681  0.75885745  1
  Al  Al186  1  0.36523062  0.87142704  0.25160110  1
  Al  Al187  1  0.36828524  0.86640838  0.74592284  1
  Al  Al188  1  0.86460311  0.36257525  0.24725560  1
  Al  Al189  1  0.86741103  0.36722209  0.75561280  1
  Al  Al190  1  0.86257269  0.86562349  0.24751865  1
  Al  Al191  1  0.86367534  0.86944689  0.75118317  1
  Al  Al192  1  -0.00127286  0.18148887  0.82822544  1
  Al  Al193  1  0.50144771  0.82295231  0.82358032  1
  Al  Al194  1  0.00276770  0.82489240  0.17166542  1
  Al  Al195  1  0.80845183  -0.00009912  0.30868432  1
  Al  Al196  1  0.33620957  0.17015849  0.49664617  1
  Al  Al197  1  0.81143156  0.19015197  0.00010621  1
  Al  Al198  1  0.82807837  0.82740024  0.00331460  1
  Al  Al199  1  0.18630570  -0.00052626  0.17285589  1
  Al  Al200  1  0.49804676  0.32039559  0.32544740  1
  Al  Al201  1  0.66673343  0.82972765  0.00102843  1
  Al  Al202  1  0.00251942  0.67067164  0.17086283  1
  Al  Al203  1  0.33145903  0.82805444  0.49896716  1
  Al  Al204  1  0.67752017  0.32900518  0.49973521  1
  Al  Al205  1  0.69039040  0.68073289  0.50013698  1
  Al  Al206  1  0.16919993  0.33118840  0.49809658  1
  Al  Al207  1  0.49739605  0.32068013  0.68137778  1
  Al  Al208  1  0.31992116  0.67643594  0.49774336  1
  Al  Al209  1  0.82415689  0.50034490  0.33000884  1
  Al  Al210  1  0.67279856  -0.00059941  0.67144215  1
  Al  Al211  1  0.00154027  0.33004472  0.32421235  1
  Al  Al212  1  -0.00066490  0.18428596  0.67454444  1
  Al  Al213  1  0.17996486  0.82389877  0.00250538  1
  Al  Al214  1  -0.00254665  0.17428506  0.32164707  1
  Al  Al215  1  0.17249578  0.49888894  0.68731162  1
  Al  Al216  1  0.18506874  0.00007076  0.32383441  1
  Al  Al217  1  0.66846356  0.83073203  0.49945643  1
  Al  Al218  1  0.82103455  0.49882784  0.67769445  1
  Al  Al219  1  0.32547338  0.32484158  0.49802113  1
  Al  Al220  1  0.31784861  0.68505304  -0.00016465  1
  Al  Al221  1  0.82324643  0.17759166  0.50025985  1
  Al  Al222  1  0.00083815  0.82116726  0.67561606  1
  Al  Al223  1  0.00110023  0.82349676  0.32838189  1
  Al  Al224  1  0.66927940  0.16661191  0.49799367  1
  Al  Al225  1  0.00109047  0.67265517  0.32390767  1
  Al  Al226  1  0.82435654  0.49558126  0.16712730  1
  Al  Al227  1  0.82377099  0.66766380  -0.00363755  1
  Al  Al228  1  0.68601605  0.00184872  0.19145697  1
  Al  Al229  1  0.17342376  0.82270283  0.50187683  1
  Al  Al230  1  0.32082261  -0.00168748  0.67748384  1
  Al  Al231  1  0.49769656  0.31712989  0.17396218  1
  Al  Al232  1  0.49877016  0.82273172  0.18578949  1
  Al  Al233  1  0.67771184  0.00101156  0.82930602  1
  Al  Al234  1  0.00347352  0.32070065  0.17077307  1
  Al  Al235  1  0.16930918  0.16592283  0.50444116  1
  Al  Al236  1  0.00134490  0.81237717  0.83305355  1
  Al  Al237  1  0.82113312  0.80904062  0.50036913  1
  Al  Al238  1  0.33315775  0.49987050  0.67903341  1
  Au  Au239  1  0.65719144  -0.00161458  0.67689117  1
  Au  Au240  1  0.67232027  0.34512085  0.49900091  1
  Au  Au241  1  0.66336415  0.84119534  -0.00292788  1
  Au  Au242  1  0.83528675  0.50067843  0.34167135  1
  Au  Au243  1  0.32582624  0.49775601  0.17411954  1
  Au  Au244  1  0.66919586  0.15115813  0.49332208  1
  Au  Au245  1  0.83357232  0.49714893  0.67882694  1
  Au  Au246  1  0.32434846  0.32267100  0.00086624  1
  Au  Au247  1  0.32381621  0.49653914  0.83968727  1
  Au  Au248  1  0.33579645  0.50127343  0.66209161  1
  Au  Au249  1  0.49933345  0.67889952  0.65960577  1
  Au  Au250  1  0.50063015  0.66100681  0.82854976  1
  Au  Au251  1  0.84622494  0.32391861  0.50117246  1
  Au  Au252  1  0.49517336  0.31932119  0.66881778  1
  Au  Au253  1  0.66095069  0.49518811  0.16408798  1
  Au  Au254  1  0.33257968  0.00359235  0.84112167  1
  Au  Au255  1  0.00441642  0.17157808  0.15836821  1
  Au  Au256  1  0.00139322  0.82863930  0.82702301  1
  Au  Au257  1  -0.00414470  0.83893406  0.32656493  1
  Au  Au258  1  0.84060157  -0.00087779  0.66452076  1
  Au  Au259  1  0.16488910  0.15034467  0.50514184  1
  Au  Au260  1  0.00155405  0.34156335  0.82884345  1
  Au  Au261  1  0.15928877  0.66119018  -0.00385816  1
  Au  Au262  1  -0.00227606  0.17047082  0.33383696  1
  Au  Au263  1  0.17368112  0.34745537  0.49816607  1
  Au  Au264  1  0.49758882  0.83946259  0.82685096  1
  Au  Au265  1  0.66252623  0.50408257  0.67233561  1
  Au  Au266  1  0.83577158  0.66405795  -0.00484496  1
  Au  Au267  1  0.00289166  0.16549243  0.82796487  1
  Au  Au268  1  0.67657006  0.49634955  0.83812807  1
  Au  Au269  1  0.17627560  0.83540506  0.50198350  1
  Au  Au270  1  0.65704552  0.50198395  0.33068643  1
  Au  Au271  1  0.32874404  0.00103284  0.66803066  1
  Au  Au272  1  0.83554022  0.49525134  0.16134034  1
  Au  Au273  1  -0.00089672  0.67211953  0.66786956  1
  Au  Au274  1  0.49989408  0.67503534  0.16908445  1
  Au  Au275  1  0.35236736  0.17377664  0.49347525  1
  Au  Au276  1  0.49793231  0.16792745  0.16939378  1
  Au  Au277  1  0.82658067  0.00110785  0.83730152  1
  Au  Au278  1  0.33317603  0.67788152  0.00020892  1
  Au  Au279  1  0.17250752  0.65888050  0.49858226  1
  Au  Au280  1  0.66234343  0.66596089  0.00082919  1
  Au  Au281  1  0.50031014  0.31864571  0.83508826  1
  Au  Au282  1  0.82167152  0.17641139  0.00148436  1
  Au  Au283  1  0.15626031  0.49801400  0.68298102  1
  Au  Au284  1  0.16772921  0.00166491  0.82626498  1
  Au  Au285  1  0.83509107  0.84288133  0.00750002  1
  Au  Au286  1  0.49719427  0.67554135  0.33632693  1
  Au  Au287  1  0.18072789  0.83658376  0.00456956  1
