# generated using pymatgen
data_Ca24Ti8Al207Au49
_symmetry_space_group_name_H-M   'P 1'
_cell_length_a   17.32316933
_cell_length_b   17.32342284
_cell_length_c   17.32389936
_cell_angle_alpha   89.99932495
_cell_angle_beta   89.99902835
_cell_angle_gamma   89.99534111
_symmetry_Int_Tables_number   1
_chemical_formula_structural   Ca24Ti8Al207Au49
_chemical_formula_sum   'Ca24 Ti8 Al207 Au49'
_cell_volume   5198.84305504
_cell_formula_units_Z   1
loop_
 _symmetry_equiv_pos_site_id
 _symmetry_equiv_pos_as_xyz
  1  'x, y, z'
loop_
 _atom_site_type_symbol
 _atom_site_label
 _atom_site_symmetry_multiplicity
 _atom_site_fract_x
 _atom_site_fract_y
 _atom_site_fract_z
 _atom_site_occupancy
  Ca  Ca0  1  0.25039630  0.00203943  -0.00253244  1
  Ca  Ca1  1  0.25285637  -0.00079719  0.50493707  1
  Ca  Ca2  1  0.24752396  0.50074785  0.00363316  1
  Ca  Ca3  1  0.24989222  0.50230207  0.49620599  1
  Ca  Ca4  1  0.75047862  0.00082441  0.00231942  1
  Ca  Ca5  1  0.74963285  -0.00137596  0.49715808  1
  Ca  Ca6  1  0.75444592  0.50212586  -0.00186571  1
  Ca  Ca7  1  0.75305643  0.50238649  0.49969138  1
  Ca  Ca8  1  -0.00067603  0.24596862  0.00225754  1
  Ca  Ca9  1  -0.00214152  0.24615295  0.49870685  1
  Ca  Ca10  1  -0.00223357  0.75192403  0.00146026  1
  Ca  Ca11  1  0.00143686  0.75187375  0.49677760  1
  Ca  Ca12  1  0.49639693  0.24504569  -0.00120783  1
  Ca  Ca13  1  0.50025726  0.24096641  0.50310164  1
  Ca  Ca14  1  0.49872572  0.75245001  0.00312494  1
  Ca  Ca15  1  0.49793882  0.75255003  0.49915909  1
  Ca  Ca16  1  -0.00633723  -0.00209416  0.25730623  1
  Ca  Ca17  1  0.00035881  -0.00220220  0.74850724  1
  Ca  Ca18  1  0.00495728  0.50189395  0.25369912  1
  Ca  Ca19  1  -0.00105416  0.50307873  0.74189456  1
  Ca  Ca20  1  0.50513487  0.00025057  0.25511882  1
  Ca  Ca21  1  0.49728455  -0.00191210  0.74331884  1
  Ca  Ca22  1  0.49552980  0.50003446  0.25195932  1
  Ca  Ca23  1  0.50338557  0.50408660  0.74357013  1
  Ti  Ti24  1  0.24907303  0.25293707  0.25308907  1
  Ti  Ti25  1  0.25066298  0.24881122  0.74672696  1
  Ti  Ti26  1  0.24990611  0.74749982  0.25260700  1
  Ti  Ti27  1  0.24994069  0.75140245  0.74696238  1
  Ti  Ti28  1  0.75102196  0.24802655  0.25227776  1
  Ti  Ti29  1  0.75000257  0.24790247  0.74662257  1
  Ti  Ti30  1  0.74961779  0.75143571  0.25253139  1
  Ti  Ti31  1  0.75028179  0.75232966  0.74599514  1
  Al  Al32  1  0.07235009  0.08389859  0.07627386  1
  Al  Al33  1  0.09401319  0.08082451  0.57892082  1
  Al  Al34  1  0.07884222  0.57487957  0.08637040  1
  Al  Al35  1  0.07711536  0.58848617  0.56954832  1
  Al  Al36  1  0.58811553  0.07576906  0.08491299  1
  Al  Al37  1  0.57918628  0.08531624  0.58716951  1
  Al  Al38  1  0.57445395  0.58274369  0.08423659  1
  Al  Al39  1  0.58140614  0.59224909  0.59072530  1
  Al  Al40  1  0.40795265  0.42238702  0.08856801  1
  Al  Al41  1  0.41052322  0.40905647  0.57740043  1
  Al  Al42  1  0.43276373  0.91131166  0.09002445  1
  Al  Al43  1  0.40832223  0.91435622  0.58781915  1
  Al  Al44  1  0.91262195  0.42643058  0.08853865  1
  Al  Al45  1  0.90175421  0.42184990  0.58388175  1
  Al  Al46  1  0.91023459  0.91900163  0.09391677  1
  Al  Al47  1  0.91644159  0.91981224  0.57830320  1
  Al  Al48  1  0.41706076  0.08534676  0.42876073  1
  Al  Al49  1  0.41472761  0.07893423  0.90057972  1
  Al  Al50  1  0.40979183  0.58753147  0.41964228  1
  Al  Al51  1  0.42490670  0.58890347  0.90949648  1
  Al  Al52  1  0.90116201  0.08178623  0.41277832  1
  Al  Al53  1  0.91348532  0.07802343  0.91487424  1
  Al  Al54  1  0.91972669  0.59166456  0.42457553  1
  Al  Al55  1  0.91260903  0.58085358  0.92262055  1
  Al  Al56  1  0.09775600  0.42191849  0.41155939  1
  Al  Al57  1  0.08722511  0.40992120  0.92729222  1
  Al  Al58  1  0.08094757  0.90900514  0.41425328  1
  Al  Al59  1  0.08453922  0.92399984  0.91308308  1
  Al  Al60  1  0.57933228  0.41206814  0.42747705  1
  Al  Al61  1  0.57902010  0.42209815  0.92112106  1
  Al  Al62  1  0.58724745  0.92109766  0.41104210  1
  Al  Al63  1  0.58216867  0.91703808  0.91658774  1
  Al  Al64  1  0.08679114  0.08427010  0.42069340  1
  Al  Al65  1  0.08786056  0.07971293  0.91432549  1
  Al  Al66  1  0.09135218  0.58587754  0.41056664  1
  Al  Al67  1  0.07634631  0.57673329  0.92355059  1
  Al  Al68  1  0.58989359  0.07950419  0.41450240  1
  Al  Al69  1  0.57985776  0.08160249  0.91472559  1
  Al  Al70  1  0.57319133  0.58631485  0.42770044  1
  Al  Al71  1  0.57777056  0.58902685  0.90798563  1
  Al  Al72  1  0.40462191  0.41268423  0.41988450  1
  Al  Al73  1  0.41773827  0.42017552  0.92419892  1
  Al  Al74  1  0.41595825  0.91076450  0.42498472  1
  Al  Al75  1  0.41639098  0.92342948  0.90348252  1
  Al  Al76  1  0.91481935  0.41062108  0.42541319  1
  Al  Al77  1  0.92091909  0.42528351  0.92050907  1
  Al  Al78  1  0.91532490  0.91564249  0.40639556  1
  Al  Al79  1  0.90902390  0.92263837  0.91143587  1
  Al  Al80  1  0.09408615  0.41422517  0.08278868  1
  Al  Al81  1  0.08684064  0.41628335  0.56777216  1
  Al  Al82  1  0.07193003  0.91696759  0.08071327  1
  Al  Al83  1  0.09098500  0.91540855  0.57937606  1
  Al  Al84  1  0.57746726  0.41999714  0.07901307  1
  Al  Al85  1  0.58630322  0.41446469  0.58344090  1
  Al  Al86  1  0.58890766  0.91227156  0.09379158  1
  Al  Al87  1  0.57746888  0.92210484  0.58272431  1
  Al  Al88  1  0.42881764  0.07573043  0.07381797  1
  Al  Al89  1  0.41116597  0.08768826  0.59167034  1
  Al  Al90  1  0.41483756  0.57920074  0.09737201  1
  Al  Al91  1  0.41832299  0.59743928  0.58224203  1
  Al  Al92  1  0.91132787  0.07847337  0.09076680  1
  Al  Al93  1  0.90554354  0.08408968  0.57338450  1
  Al  Al94  1  0.91056341  0.58276162  0.08657705  1
  Al  Al95  1  0.90904236  0.58542611  0.58494843  1
  Al  Al96  1  0.24899008  0.13893034  0.13313652  1
  Al  Al97  1  0.25372147  0.13117096  0.62809959  1
  Al  Al98  1  0.24833584  0.63007983  0.13820101  1
  Al  Al99  1  0.24889477  0.63414690  0.63246654  1
  Al  Al100  1  0.75252373  0.13188898  0.13689608  1
  Al  Al101  1  0.75355362  0.13319272  0.63303577  1
  Al  Al102  1  0.75576017  0.63488990  0.13887289  1
  Al  Al103  1  0.74996993  0.63325494  0.62973082  1
  Al  Al104  1  0.24784162  0.37219559  0.13916231  1
  Al  Al105  1  0.24950182  0.36777216  0.63276032  1
  Al  Al106  1  0.24887216  0.86100936  0.13635929  1
  Al  Al107  1  0.25260088  0.86854638  0.63040180  1
  Al  Al108  1  0.75403691  0.36511124  0.13808529  1
  Al  Al109  1  0.75365881  0.36952643  0.63396786  1
  Al  Al110  1  0.75300153  0.86722996  0.13929854  1
  Al  Al111  1  0.75132512  0.86463152  0.62674764  1
  Al  Al112  1  0.25202287  0.13820834  0.37293013  1
  Al  Al113  1  0.25364456  0.13332176  0.86543318  1
  Al  Al114  1  0.24945901  0.62806402  0.36551952  1
  Al  Al115  1  0.24793163  0.63443431  0.86317990  1
  Al  Al116  1  0.75248674  0.13107516  0.36627071  1
  Al  Al117  1  0.74906690  0.12853535  0.86320922  1
  Al  Al118  1  0.75367254  0.63827466  0.37233924  1
  Al  Al119  1  0.75389016  0.63824465  0.85969013  1
  Al  Al120  1  0.24822419  0.37255527  0.36760425  1
  Al  Al121  1  0.25116363  0.36576510  0.86417978  1
  Al  Al122  1  0.25303344  0.86289485  0.37249157  1
  Al  Al123  1  0.25343649  0.86473479  0.86313510  1
  Al  Al124  1  0.75948365  0.36477470  0.36827858  1
  Al  Al125  1  0.74782139  0.36335336  0.86282226  1
  Al  Al126  1  0.75082970  0.86829339  0.36909248  1
  Al  Al127  1  0.75163116  0.87177743  0.86056018  1
  Al  Al128  1  0.13815169  0.25552569  0.13447926  1
  Al  Al129  1  0.14083537  0.24901943  0.62422120  1
  Al  Al130  1  0.13610556  0.75006252  0.13518185  1
  Al  Al131  1  0.13936857  0.75242916  0.62582756  1
  Al  Al132  1  0.63908990  0.24997843  0.13782873  1
  Al  Al133  1  0.63232189  0.24721764  0.63377398  1
  Al  Al134  1  0.63058222  0.75348229  0.13893685  1
  Al  Al135  1  0.63778145  0.74844367  0.62746666  1
  Al  Al136  1  0.13528305  0.25412999  0.37178662  1
  Al  Al137  1  0.13921899  0.25087323  0.86455375  1
  Al  Al138  1  0.14103540  0.74683234  0.37313404  1
  Al  Al139  1  0.13773707  0.75338143  0.86715622  1
  Al  Al140  1  0.63813623  0.25012465  0.36695015  1
  Al  Al141  1  0.63713868  0.24947486  0.86127783  1
  Al  Al142  1  0.63650099  0.75199504  0.37161771  1
  Al  Al143  1  0.63620316  0.74844392  0.86045923  1
  Al  Al144  1  0.36116362  0.25331268  0.13619400  1
  Al  Al145  1  0.36982633  0.24441603  0.63502683  1
  Al  Al146  1  0.36962430  0.74709986  0.13882810  1
  Al  Al147  1  0.36320698  0.75251073  0.63372607  1
  Al  Al148  1  0.86357528  0.24620525  0.13916647  1
  Al  Al149  1  0.86334469  0.25047218  0.62873397  1
  Al  Al150  1  0.86271097  0.75476104  0.13754904  1
  Al  Al151  1  0.86277215  0.75050832  0.62665906  1
  Al  Al152  1  0.36295540  0.25336777  0.36491484  1
  Al  Al153  1  0.36350009  0.24738402  0.86475605  1
  Al  Al154  1  0.36455272  0.74994284  0.36443959  1
  Al  Al155  1  0.36604280  0.74579128  0.86347372  1
  Al  Al156  1  0.86902863  0.24616896  0.36467452  1
  Al  Al157  1  0.86217623  0.24771740  0.85932610  1
  Al  Al158  1  0.86511009  0.75362451  0.36787487  1
  Al  Al159  1  0.86436506  0.75736018  0.86104087  1
  Al  Al160  1  0.13758050  0.14025656  0.25633320  1
  Al  Al161  1  0.14016268  0.13583461  0.74474444  1
  Al  Al162  1  0.13681980  0.62911770  0.25409325  1
  Al  Al163  1  0.13557662  0.63664043  0.74652436  1
  Al  Al164  1  0.63784616  0.13319821  0.25516350  1
  Al  Al165  1  0.63552266  0.13394760  0.74742052  1
  Al  Al166  1  0.63646964  0.63624577  0.24819169  1
  Al  Al167  1  0.63405640  0.63651397  0.74415240  1
  Al  Al168  1  0.36256926  0.13509536  0.25494391  1
  Al  Al169  1  0.36285976  0.12977758  0.74552921  1
  Al  Al170  1  0.36285850  0.62888785  0.25105281  1
  Al  Al171  1  0.36607004  0.63648838  0.74554123  1
  Al  Al172  1  0.86272064  0.12794867  0.25309785  1
  Al  Al173  1  0.86208512  0.12754645  0.74962504  1
  Al  Al174  1  0.86452742  0.63766662  0.25300706  1
  Al  Al175  1  0.86321467  0.63652758  0.74211300  1
  Al  Al176  1  0.13714094  0.37418181  0.25565561  1
  Al  Al177  1  0.13563483  0.36363239  0.74491173  1
  Al  Al178  1  0.13414821  0.86086459  0.25784231  1
  Al  Al179  1  0.13226496  0.86236365  0.74518192  1
  Al  Al180  1  0.63797268  0.36448974  0.25416005  1
  Al  Al181  1  0.63451411  0.36508682  0.73959092  1
  Al  Al182  1  0.63803231  0.86661508  0.25366838  1
  Al  Al183  1  0.63530245  0.86483555  0.75009076  1
  Al  Al184  1  0.36120455  0.37204637  0.25252500  1
  Al  Al185  1  0.36350387  0.36413594  0.74546298  1
  Al  Al186  1  0.36269553  0.86591362  0.25220394  1
  Al  Al187  1  0.36524221  0.86782188  0.74827119  1
  Al  Al188  1  0.86734231  0.36409693  0.25169944  1
  Al  Al189  1  0.86463098  0.36451340  0.74672824  1
  Al  Al190  1  0.86532119  0.86874937  0.25627591  1
  Al  Al191  1  0.86617963  0.86800462  0.74404554  1
  Al  Al192  1  -0.00033204  0.17345496  0.18268961  1
  Al  Al193  1  0.50166146  0.17173991  0.17470238  1
  Al  Al194  1  0.49979150  0.32942309  0.81907768  1
  Al  Al195  1  0.16938023  0.00240452  0.17073225  1
  Al  Al196  1  0.33138441  0.00077863  0.17652571  1
  Al  Al197  1  0.49991734  0.17438188  0.32958512  1
  Al  Al198  1  0.00046987  0.32824960  0.82630259  1
  Al  Al199  1  0.82604994  0.68434402  -0.00033035  1
  Al  Al200  1  0.17943466  -0.00099867  0.32809396  1
  Al  Al201  1  0.68170779  0.82815321  0.00004159  1
  Al  Al202  1  0.49974524  0.17247379  0.81122282  1
  Al  Al203  1  0.67264374  0.50060937  0.81910699  1
  Al  Al204  1  0.67923375  -0.00127745  0.68090218  1
  Al  Al205  1  0.67346965  0.17449001  -0.00019660  1
  Al  Al206  1  0.32665619  0.50458550  0.67191831  1
  Al  Al207  1  0.68462054  0.49961849  0.17190922  1
  Al  Al208  1  0.68573409  0.00019219  0.18707382  1
  Al  Al209  1  0.50102518  0.81464006  0.67101758  1
  Al  Al210  1  -0.00047175  0.67830655  0.82752262  1
  Al  Al211  1  0.81709776  0.32800852  -0.00075241  1
  Al  Al212  1  0.31014322  0.69121785  0.49874614  1
  Al  Al213  1  0.00092049  0.17091334  0.82602021  1
  Al  Al214  1  -0.00109701  0.82293804  0.18994369  1
  Al  Al215  1  0.00004676  0.17116647  0.67041013  1
  Al  Al216  1  0.32623310  0.83257882  0.00090333  1
  Al  Al217  1  0.83272890  0.50226627  0.31939116  1
  Al  Al218  1  0.68240535  0.17066247  0.50060681  1
  Al  Al219  1  0.49991662  0.32841508  0.18321839  1
  Al  Al220  1  -0.00024703  0.67098239  0.17541894  1
  Al  Al221  1  0.00038012  0.33082444  0.66608119  1
  Al  Al222  1  0.18675138  -0.00046546  0.81625764  1
  Al  Al223  1  0.82777905  0.17253699  -0.00069031  1
  Al  Al224  1  0.66994246  0.50172060  0.33106540  1
  Al  Al225  1  0.17670390  0.17796525  0.00039851  1
  Al  Al226  1  0.30462657  0.30425274  0.50103893  1
  Al  Al227  1  0.31184217  0.32237865  0.00183055  1
  Al  Al228  1  0.67562869  0.66976870  0.00060686  1
  Al  Al229  1  0.00272475  0.32950069  0.17927410  1
  Al  Al230  1  0.50003526  0.81464081  0.82285283  1
  Al  Al231  1  0.68768863  0.32292594  0.50109566  1
  Al  Al232  1  0.17310959  0.49808936  0.82191650  1
  Al  Al233  1  0.50060139  0.82885919  0.31951640  1
  Al  Al234  1  0.49958426  0.67641323  0.32321985  1
  Al  Al235  1  0.00206619  0.68750900  0.32728492  1
  Al  Al236  1  0.82847292  0.50085010  0.81585484  1
  Al  Al237  1  0.32217448  0.66980233  0.00197782  1
  Al  Al238  1  0.00058533  0.68190926  0.66969175  1
  Au  Au239  1  -0.00553301  0.66228914  0.82581065  1
  Au  Au240  1  0.33219268  0.65684962  0.00192079  1
  Au  Au241  1  0.17033255  0.49614634  0.83880749  1
  Au  Au242  1  -0.00098613  0.32812446  0.16275573  1
  Au  Au243  1  0.34437450  0.50207294  0.82536650  1
  Au  Au244  1  0.49748674  0.32265202  0.34631319  1
  Au  Au245  1  0.65282908  0.50138416  0.33427761  1
  Au  Au246  1  0.33430920  0.84671950  0.00059906  1
  Au  Au247  1  0.00064297  0.83038209  0.66046049  1
  Au  Au248  1  0.18078700  0.17973761  0.49853725  1
  Au  Au249  1  0.00523420  0.33009637  0.34421707  1
  Au  Au250  1  0.84368139  0.50225167  0.33182740  1
  Au  Au251  1  0.31680684  0.33867111  0.00351087  1
  Au  Au252  1  0.66087298  0.67817562  -0.00143149  1
  Au  Au253  1  0.17975445  -0.00178036  0.67068156  1
  Au  Au254  1  0.83120963  0.83637173  -0.00035963  1
  Au  Au255  1  -0.00258332  0.15889214  0.33146021  1
  Au  Au256  1  0.33545295  0.50249906  0.66330159  1
  Au  Au257  1  0.67816037  0.50087251  0.83535606  1
  Au  Au258  1  0.67272703  0.00013962  0.83145585  1
  Au  Au259  1  -0.00389866  0.15580325  0.66844693  1
  Au  Au260  1  0.49915471  0.67427205  0.17610478  1
  Au  Au261  1  0.16134373  0.83363245  -0.00181909  1
  Au  Au262  1  0.34734288  0.00084441  0.17366878  1
  Au  Au263  1  0.49605983  0.32649593  0.16669207  1
  Au  Au264  1  0.16361883  0.50593540  0.65482251  1
  Au  Au265  1  0.49948531  0.32265335  0.83476900  1
  Au  Au266  1  0.83369563  0.33126666  0.00054758  1
  Au  Au267  1  0.49934579  0.32191312  0.65875448  1
  Au  Au268  1  0.17412928  0.50140678  0.17340429  1
  Au  Au269  1  0.17885450  0.82238370  0.49761438  1
  Au  Au270  1  0.65831578  0.32183623  -0.00025674  1
  Au  Au271  1  0.82700744  -0.00147085  0.66864883  1
  Au  Au272  1  0.67327555  0.66821740  0.49985951  1
  Au  Au273  1  -0.00113370  0.84117526  0.82861307  1
  Au  Au274  1  0.32833516  0.00078784  0.34858243  1
  Au  Au275  1  0.67727697  0.49927335  0.15641103  1
  Au  Au276  1  0.67682233  0.50177642  0.65999389  1
  Au  Au277  1  0.00028966  0.32497003  0.83892237  1
  Au  Au278  1  -0.00095298  0.82759849  0.17793364  1
  Au  Au279  1  0.15373573  0.00453369  0.17679185  1
  Au  Au280  1  0.32935032  0.50111096  0.32821263  1
  Au  Au281  1  0.16393748  0.17770192  0.00236761  1
  Au  Au282  1  0.66701808  0.83706456  0.50066650  1
  Au  Au283  1  0.33802002  0.16086740  -0.00323954  1
  Au  Au284  1  -0.00387504  0.34196804  0.66220687  1
  Au  Au285  1  0.15804534  0.66915947  0.00474180  1
  Au  Au286  1  0.83659626  0.82685221  0.49526436  1
  Au  Au287  1  0.50002978  0.82694342  0.82652071  1
