# generated using pymatgen
data_Ca24Ti8Al207Au49
_symmetry_space_group_name_H-M   'P 1'
_cell_length_a   17.32291839
_cell_length_b   17.32395753
_cell_length_c   17.32292867
_cell_angle_alpha   89.99918910
_cell_angle_beta   90.00322211
_cell_angle_gamma   90.00067630
_symmetry_Int_Tables_number   1
_chemical_formula_structural   Ca24Ti8Al207Au49
_chemical_formula_sum   'Ca24 Ti8 Al207 Au49'
_cell_volume   5198.63691329
_cell_formula_units_Z   1
loop_
 _symmetry_equiv_pos_site_id
 _symmetry_equiv_pos_as_xyz
  1  'x, y, z'
loop_
 _atom_site_type_symbol
 _atom_site_label
 _atom_site_symmetry_multiplicity
 _atom_site_fract_x
 _atom_site_fract_y
 _atom_site_fract_z
 _atom_site_occupancy
  Ca  Ca0  1  0.25317307  -0.00126642  0.00467974  1
  Ca  Ca1  1  0.25507106  0.00241159  0.49642606  1
  Ca  Ca2  1  0.24981687  0.50182680  0.00122438  1
  Ca  Ca3  1  0.25144995  0.49967161  0.49858821  1
  Ca  Ca4  1  0.74519488  -0.00181547  0.00278479  1
  Ca  Ca5  1  0.74501355  0.00238185  0.49672909  1
  Ca  Ca6  1  0.74538721  0.50501532  0.00404388  1
  Ca  Ca7  1  0.74465624  0.50065074  0.49384849  1
  Ca  Ca8  1  0.00282307  0.25233951  0.00330809  1
  Ca  Ca9  1  -0.00152343  0.24805919  0.49817264  1
  Ca  Ca10  1  0.00061069  0.74560860  -0.00045327  1
  Ca  Ca11  1  -0.00052118  0.74963972  0.49794384  1
  Ca  Ca12  1  0.49754375  0.24760321  0.00060070  1
  Ca  Ca13  1  0.50232509  0.24827938  0.49952859  1
  Ca  Ca14  1  0.49896190  0.75202013  0.00557018  1
  Ca  Ca15  1  0.49781295  0.75024626  0.49747705  1
  Ca  Ca16  1  0.00279947  -0.00129931  0.24764697  1
  Ca  Ca17  1  0.00258521  0.00145474  0.74883862  1
  Ca  Ca18  1  -0.00336789  0.49889862  0.24957195  1
  Ca  Ca19  1  0.00011025  0.49886574  0.75396371  1
  Ca  Ca20  1  0.49889731  0.00050302  0.24853449  1
  Ca  Ca21  1  0.49771751  -0.00384908  0.74817899  1
  Ca  Ca22  1  0.50160853  0.50264454  0.24758549  1
  Ca  Ca23  1  0.50248590  0.50179625  0.74919598  1
  Ti  Ti24  1  0.25222673  0.24891298  0.24966067  1
  Ti  Ti25  1  0.24945046  0.24832244  0.75018500  1
  Ti  Ti26  1  0.25136118  0.75077759  0.24916429  1
  Ti  Ti27  1  0.25124637  0.75164780  0.75280018  1
  Ti  Ti28  1  0.74787515  0.25037558  0.25039751  1
  Ti  Ti29  1  0.75123995  0.25104788  0.74871509  1
  Ti  Ti30  1  0.74904531  0.74884464  0.25060134  1
  Ti  Ti31  1  0.74926743  0.74939458  0.75067730  1
  Al  Al32  1  0.09222543  0.08072257  0.09063100  1
  Al  Al33  1  0.08521502  0.08410639  0.57861028  1
  Al  Al34  1  0.08846558  0.58235717  0.07389273  1
  Al  Al35  1  0.08830421  0.58851848  0.57682620  1
  Al  Al36  1  0.58275806  0.07811241  0.08909974  1
  Al  Al37  1  0.58188841  0.08150672  0.58186752  1
  Al  Al38  1  0.58659401  0.59598921  0.09004385  1
  Al  Al39  1  0.57939448  0.57704890  0.57849760  1
  Al  Al40  1  0.42210642  0.41659961  0.08253741  1
  Al  Al41  1  0.42111169  0.40457170  0.58361214  1
  Al  Al42  1  0.41660538  0.91711691  0.09187344  1
  Al  Al43  1  0.42004689  0.91921356  0.58379285  1
  Al  Al44  1  0.91154124  0.42207925  0.08462718  1
  Al  Al45  1  0.91328192  0.41062181  0.57116089  1
  Al  Al46  1  0.91755143  0.91653022  0.08229303  1
  Al  Al47  1  0.90943002  0.92932272  0.58726886  1
  Al  Al48  1  0.41902102  0.08569323  0.40354376  1
  Al  Al49  1  0.40493316  0.07902583  0.92374627  1
  Al  Al50  1  0.42339441  0.59471953  0.41277648  1
  Al  Al51  1  0.41966958  0.58348864  0.92366659  1
  Al  Al52  1  0.90947211  0.08201219  0.41655584  1
  Al  Al53  1  0.92253307  0.07814310  0.92204936  1
  Al  Al54  1  0.91049900  0.57353746  0.40811993  1
  Al  Al55  1  0.91885643  0.59588130  0.91746713  1
  Al  Al56  1  0.08376051  0.41361613  0.42390451  1
  Al  Al57  1  0.08584848  0.42151363  0.92297038  1
  Al  Al58  1  0.09142689  0.91966979  0.41229842  1
  Al  Al59  1  0.08301577  0.91996838  0.91811988  1
  Al  Al60  1  0.59018640  0.42336691  0.41266184  1
  Al  Al61  1  0.59054011  0.41191814  0.92463126  1
  Al  Al62  1  0.58524760  0.92217245  0.40950090  1
  Al  Al63  1  0.57297921  0.90651379  0.92050165  1
  Al  Al64  1  0.09249634  0.08166412  0.41455702  1
  Al  Al65  1  0.08721962  0.08388731  0.91939073  1
  Al  Al66  1  0.08504708  0.58693133  0.42204142  1
  Al  Al67  1  0.08338124  0.59181446  0.91401435  1
  Al  Al68  1  0.58283543  0.08506391  0.40770268  1
  Al  Al69  1  0.57572514  0.07617690  0.92721330  1
  Al  Al70  1  0.58599888  0.58466886  0.40128499  1
  Al  Al71  1  0.58873988  0.59305047  0.92698163  1
  Al  Al72  1  0.41721659  0.41477474  0.42368500  1
  Al  Al73  1  0.41882573  0.41795292  0.92113198  1
  Al  Al74  1  0.41519975  0.92386431  0.40675206  1
  Al  Al75  1  0.41420467  0.91714676  0.91259349  1
  Al  Al76  1  0.89962793  0.41410725  0.41294053  1
  Al  Al77  1  0.92009413  0.41882961  0.92535127  1
  Al  Al78  1  0.91588721  0.92451209  0.41272697  1
  Al  Al79  1  0.91759971  0.91482757  0.91882254  1
  Al  Al80  1  0.08439221  0.41972831  0.07990756  1
  Al  Al81  1  0.08617385  0.40975889  0.57802728  1
  Al  Al82  1  0.08906707  0.92116946  0.08992922  1
  Al  Al83  1  0.08452935  0.92032920  0.57426370  1
  Al  Al84  1  0.58610600  0.41406696  0.08476238  1
  Al  Al85  1  0.58144766  0.41097597  0.58542103  1
  Al  Al86  1  0.58059147  0.91185791  0.09217575  1
  Al  Al87  1  0.58434427  0.91914086  0.58315536  1
  Al  Al88  1  0.40459896  0.08145802  0.08815961  1
  Al  Al89  1  0.41996976  0.08359737  0.58185398  1
  Al  Al90  1  0.42249109  0.59412942  0.09090958  1
  Al  Al91  1  0.42038518  0.58397914  0.57504828  1
  Al  Al92  1  0.92173550  0.07919625  0.08502534  1
  Al  Al93  1  0.90642374  0.08459627  0.58477739  1
  Al  Al94  1  0.90514155  0.58369147  0.07818637  1
  Al  Al95  1  0.92462660  0.57643583  0.57201082  1
  Al  Al96  1  0.25146945  0.12895873  0.13444169  1
  Al  Al97  1  0.24835999  0.13606189  0.62643121  1
  Al  Al98  1  0.25622441  0.63717353  0.13174198  1
  Al  Al99  1  0.25234874  0.63651215  0.63657926  1
  Al  Al100  1  0.74585392  0.13365855  0.13685768  1
  Al  Al101  1  0.75370802  0.13630455  0.63453998  1
  Al  Al102  1  0.74520033  0.63601106  0.13336837  1
  Al  Al103  1  0.74799627  0.63612391  0.62983018  1
  Al  Al104  1  0.25767053  0.36398473  0.13467754  1
  Al  Al105  1  0.24962212  0.36246258  0.63380837  1
  Al  Al106  1  0.25212538  0.86958048  0.13655881  1
  Al  Al107  1  0.25223866  0.86582126  0.63713376  1
  Al  Al108  1  0.74330072  0.36578914  0.13495835  1
  Al  Al109  1  0.75270347  0.36288879  0.63309477  1
  Al  Al110  1  0.74778279  0.86272183  0.13637034  1
  Al  Al111  1  0.75094402  0.86475815  0.63766514  1
  Al  Al112  1  0.25490177  0.13354318  0.36789144  1
  Al  Al113  1  0.24951045  0.13103393  0.87042854  1
  Al  Al114  1  0.25046898  0.63581120  0.36319205  1
  Al  Al115  1  0.24965896  0.64077624  0.87461307  1
  Al  Al116  1  0.74583489  0.13338273  0.36299911  1
  Al  Al117  1  0.74900051  0.13657800  0.86513155  1
  Al  Al118  1  0.74750250  0.63269848  0.36651472  1
  Al  Al119  1  0.75046951  0.63881138  0.87253122  1
  Al  Al120  1  0.25080797  0.36406037  0.36531989  1
  Al  Al121  1  0.25367041  0.36430021  0.86395964  1
  Al  Al122  1  0.25432081  0.86530460  0.36084066  1
  Al  Al123  1  0.25231813  0.87008628  0.86661351  1
  Al  Al124  1  0.75041894  0.36851344  0.36456255  1
  Al  Al125  1  0.74735921  0.36713482  0.86359914  1
  Al  Al126  1  0.74504317  0.86280872  0.36200343  1
  Al  Al127  1  0.75038376  0.86096559  0.86566725  1
  Al  Al128  1  0.13842350  0.24550989  0.13538544  1
  Al  Al129  1  0.13212119  0.25032770  0.63101930  1
  Al  Al130  1  0.13823427  0.74776114  0.13541581  1
  Al  Al131  1  0.13536252  0.74676179  0.63665055  1
  Al  Al132  1  0.63509622  0.24772667  0.13205618  1
  Al  Al133  1  0.63571045  0.25197569  0.63399411  1
  Al  Al134  1  0.62964601  0.74689023  0.13938047  1
  Al  Al135  1  0.63672356  0.75010295  0.63430067  1
  Al  Al136  1  0.13719058  0.24842574  0.36829863  1
  Al  Al137  1  0.13759077  0.24733362  0.86766223  1
  Al  Al138  1  0.13172362  0.74976549  0.36132796  1
  Al  Al139  1  0.13271804  0.75099868  0.86802562  1
  Al  Al140  1  0.63498840  0.24944815  0.36396445  1
  Al  Al141  1  0.63558260  0.25277623  0.87116515  1
  Al  Al142  1  0.63151498  0.74337715  0.36220287  1
  Al  Al143  1  0.63403551  0.74959439  0.86819942  1
  Al  Al144  1  0.36391680  0.24243828  0.12976175  1
  Al  Al145  1  0.36476714  0.24744664  0.63581146  1
  Al  Al146  1  0.37062695  0.75061992  0.13956274  1
  Al  Al147  1  0.36500352  0.75371200  0.63646668  1
  Al  Al148  1  0.86302821  0.25206517  0.13908302  1
  Al  Al149  1  0.86726670  0.25070299  0.62876429  1
  Al  Al150  1  0.86250472  0.74367176  0.13711531  1
  Al  Al151  1  0.86383305  0.74387755  0.63285687  1
  Al  Al152  1  0.36928245  0.24418775  0.36189522  1
  Al  Al153  1  0.36111509  0.24534474  0.87291495  1
  Al  Al154  1  0.36718412  0.74764160  0.36116107  1
  Al  Al155  1  0.36727103  0.75384159  0.86587626  1
  Al  Al156  1  0.85980836  0.25107072  0.37225740  1
  Al  Al157  1  0.86623447  0.25209569  0.86384507  1
  Al  Al158  1  0.86721752  0.74696373  0.36302723  1
  Al  Al159  1  0.87012442  0.74938586  0.86499565  1
  Al  Al160  1  0.13979840  0.13414365  0.25095332  1
  Al  Al161  1  0.13700152  0.13583229  0.75006594  1
  Al  Al162  1  0.13368698  0.63653457  0.24781713  1
  Al  Al163  1  0.13553340  0.63830473  0.75743350  1
  Al  Al164  1  0.62628717  0.13650347  0.25146050  1
  Al  Al165  1  0.63625840  0.13896818  0.74963377  1
  Al  Al166  1  0.63525423  0.62951762  0.25044409  1
  Al  Al167  1  0.63793037  0.63606209  0.75452637  1
  Al  Al168  1  0.36584712  0.13056014  0.24758281  1
  Al  Al169  1  0.35828693  0.13028990  0.75038365  1
  Al  Al170  1  0.36628707  0.63253166  0.24933804  1
  Al  Al171  1  0.36303055  0.63471345  0.75542973  1
  Al  Al172  1  0.86359986  0.13707007  0.25248943  1
  Al  Al173  1  0.86745135  0.13728941  0.74739509  1
  Al  Al174  1  0.86402544  0.63155531  0.25323559  1
  Al  Al175  1  0.86456865  0.63679816  0.75800246  1
  Al  Al176  1  0.13826805  0.36122747  0.24869333  1
  Al  Al177  1  0.13101016  0.35971074  0.74982979  1
  Al  Al178  1  0.13798985  0.86626168  0.24930702  1
  Al  Al179  1  0.13616922  0.86711968  0.75276013  1
  Al  Al180  1  0.63588483  0.37243354  0.25353824  1
  Al  Al181  1  0.63706696  0.36271904  0.74775050  1
  Al  Al182  1  0.62994371  0.86258364  0.24803371  1
  Al  Al183  1  0.62879891  0.85942411  0.74950849  1
  Al  Al184  1  0.36493842  0.36883088  0.25287951  1
  Al  Al185  1  0.36500963  0.36184781  0.74822121  1
  Al  Al186  1  0.36864487  0.86841579  0.24549144  1
  Al  Al187  1  0.36927019  0.86750545  0.75212691  1
  Al  Al188  1  0.86071169  0.36681700  0.25315278  1
  Al  Al189  1  0.87062847  0.36266752  0.75004802  1
  Al  Al190  1  0.86322525  0.86344012  0.25117008  1
  Al  Al191  1  0.86433777  0.86285064  0.75043388  1
  Al  Al192  1  0.17963844  -0.00235246  0.67809363  1
  Al  Al193  1  0.17448431  0.81963512  0.00179962  1
  Al  Al194  1  0.81573520  0.50056465  0.18438251  1
  Al  Al195  1  -0.00032242  0.66668527  0.17321788  1
  Al  Al196  1  0.49524562  0.16867962  0.82958530  1
  Al  Al197  1  0.32938832  0.82981761  0.49728589  1
  Al  Al198  1  0.50105276  0.68305940  0.82824626  1
  Al  Al199  1  0.81424513  0.32868925  0.00100386  1
  Al  Al200  1  0.18164767  0.50055876  0.17227483  1
  Al  Al201  1  -0.00153957  0.31900517  0.32665412  1
  Al  Al202  1  0.82782524  0.80947456  0.00127043  1
  Al  Al203  1  0.00038563  0.32860647  0.17174772  1
  Al  Al204  1  0.50081008  0.18350716  0.67456006  1
  Al  Al205  1  0.67682443  0.17392774  0.49946799  1
  Al  Al206  1  0.68045741  -0.00122704  0.19031796  1
  Al  Al207  1  0.82921517  0.49951067  0.67188993  1
  Al  Al208  1  0.50006909  0.68024788  0.67415434  1
  Al  Al209  1  0.82565035  0.50454688  0.83166227  1
  Al  Al210  1  0.18952109  0.00041681  0.31326076  1
  Al  Al211  1  0.67236993  -0.00403313  0.82917042  1
  Al  Al212  1  0.82060791  0.17188489  0.00167701  1
  Al  Al213  1  0.00037676  0.82440112  0.17801274  1
  Al  Al214  1  0.17942598  0.49890916  0.32694291  1
  Al  Al215  1  -0.00013033  0.66757628  0.68523674  1
  Al  Al216  1  0.67087090  0.82166713  0.49744184  1
  Al  Al217  1  0.18453961  0.31858322  0.00092701  1
  Al  Al218  1  0.50113179  0.32762496  0.81428178  1
  Al  Al219  1  0.49907709  0.81589507  0.31710474  1
  Al  Al220  1  0.68409603  0.00114583  0.67449301  1
  Al  Al221  1  0.33274698  0.49903071  0.67657112  1
  Al  Al222  1  0.82726875  0.82476111  0.49833599  1
  Al  Al223  1  0.50030711  0.31543529  0.17474092  1
  Al  Al224  1  -0.00203464  0.17830770  0.82337009  1
  Al  Al225  1  0.33051293  0.82193311  0.00287346  1
  Al  Al226  1  0.67148713  0.50019340  0.68008435  1
  Al  Al227  1  0.00124377  0.17431221  0.17872780  1
  Al  Al228  1  0.31631688  0.67680519  0.49952391  1
  Al  Al229  1  0.67066619  0.81548623  0.00367852  1
  Al  Al230  1  -0.00105152  0.82789848  0.67756745  1
  Al  Al231  1  0.17283162  0.80761541  0.49871067  1
  Al  Al232  1  0.80894764  -0.00073149  0.31777510  1
  Al  Al233  1  0.31496629  0.31632168  0.49942552  1
  Al  Al234  1  0.68173631  0.32790257  0.49839956  1
  Al  Al235  1  0.17765958  0.50018068  0.66978564  1
  Al  Al236  1  0.17858036  0.50125686  0.82749615  1
  Al  Al237  1  0.82567564  0.00160153  0.81294415  1
  Al  Al238  1  0.50115170  0.32110581  0.32817387  1
  Au  Au239  1  0.16090684  0.49806658  0.67433625  1
  Au  Au240  1  0.82235420  0.82584612  0.00105567  1
  Au  Au241  1  0.83654187  0.17791623  0.00204418  1
  Au  Au242  1  0.17527526  0.16851941  0.00445654  1
  Au  Au243  1  0.83655675  0.49971403  0.83562261  1
  Au  Au244  1  0.49585545  0.16483860  0.17167959  1
  Au  Au245  1  0.32684185  0.50162452  0.83967974  1
  Au  Au246  1  0.82935799  -0.00071170  0.17209217  1
  Au  Au247  1  0.50175560  0.33342021  0.33126302  1
  Au  Au248  1  0.33699597  0.49871259  0.66714242  1
  Au  Au249  1  0.17102659  -0.00000528  0.66925650  1
  Au  Au250  1  0.00176716  0.82304522  0.83870045  1
  Au  Au251  1  0.82912267  0.66100908  0.49485985  1
  Au  Au252  1  0.66773868  0.50103017  0.17352411  1
  Au  Au253  1  0.50103748  0.83048054  0.67032805  1
  Au  Au254  1  0.49050740  0.15458715  0.82480818  1
  Au  Au255  1  0.66338617  0.50364054  0.83458265  1
  Au  Au256  1  -0.00228962  0.33474219  0.33064254  1
  Au  Au257  1  -0.00174943  0.66897172  0.33770357  1
  Au  Au258  1  0.65623360  -0.00896732  0.82752186  1
  Au  Au259  1  0.16769346  0.18046472  0.49862102  1
  Au  Au260  1  0.34145419  0.50306490  0.33365532  1
  Au  Au261  1  0.00143575  0.67036328  0.16131042  1
  Au  Au262  1  0.17808620  0.00065162  0.83485094  1
  Au  Au263  1  0.84123546  0.00100444  0.82154910  1
  Au  Au264  1  -0.00128795  0.66628503  0.66803542  1
  Au  Au265  1  0.32968437  0.67198198  0.00342267  1
  Au  Au266  1  0.00059583  0.15480562  0.32574495  1
  Au  Au267  1  0.33370743  0.32443795  0.00205509  1
  Au  Au268  1  0.82468095  0.84110394  0.50195866  1
  Au  Au269  1  0.50349905  0.33936933  0.82542910  1
  Au  Au270  1  -0.00286253  0.32989332  0.66081702  1
  Au  Au271  1  -0.00190812  0.84378891  0.66981990  1
  Au  Au272  1  0.49956588  0.83051207  0.32514867  1
  Au  Au273  1  0.17773636  0.82399488  0.49852116  1
  Au  Au274  1  0.00014205  0.16951726  0.83209597  1
  Au  Au275  1  0.65983009  0.17497250  0.00088689  1
  Au  Au276  1  0.00417426  0.33365000  0.83724925  1
  Au  Au277  1  0.82185513  0.49813288  0.65583191  1
  Au  Au278  1  0.65785733  0.67017172  0.49807241  1
  Au  Au279  1  -0.00094217  0.16296629  0.66817149  1
  Au  Au280  1  0.16325697  0.49908713  0.33005111  1
  Au  Au281  1  0.17051050  0.83174003  0.00198379  1
  Au  Au282  1  0.33796352  0.17026745  0.49566272  1
  Au  Au283  1  0.00035341  0.84067909  0.32619620  1
  Au  Au284  1  0.82657549  0.17469790  0.49909206  1
  Au  Au285  1  0.33303421  0.50093013  0.16353079  1
  Au  Au286  1  0.50099363  0.67078792  0.83224006  1
  Au  Au287  1  0.33549137  0.00079376  0.67397510  1
