# generated using pymatgen
data_Ca24Ti8Al207Au49
_symmetry_space_group_name_H-M   'P 1'
_cell_length_a   17.32110661
_cell_length_b   17.32055459
_cell_length_c   17.32218873
_cell_angle_alpha   90.00130356
_cell_angle_beta   89.99975054
_cell_angle_gamma   89.99917448
_symmetry_Int_Tables_number   1
_chemical_formula_structural   Ca24Ti8Al207Au49
_chemical_formula_sum   'Ca24 Ti8 Al207 Au49'
_cell_volume   5196.85015340
_cell_formula_units_Z   1
loop_
 _symmetry_equiv_pos_site_id
 _symmetry_equiv_pos_as_xyz
  1  'x, y, z'
loop_
 _atom_site_type_symbol
 _atom_site_label
 _atom_site_symmetry_multiplicity
 _atom_site_fract_x
 _atom_site_fract_y
 _atom_site_fract_z
 _atom_site_occupancy
  Ca  Ca0  1  0.24310979  0.00034118  0.00476135  1
  Ca  Ca1  1  0.25367825  -0.00183198  0.49439553  1
  Ca  Ca2  1  0.24287649  0.50064322  0.00186818  1
  Ca  Ca3  1  0.25285721  0.50109400  0.49802494  1
  Ca  Ca4  1  0.75342669  0.00214817  -0.00104057  1
  Ca  Ca5  1  0.75058408  0.00104702  0.50107751  1
  Ca  Ca6  1  0.75439325  0.49649839  0.00474953  1
  Ca  Ca7  1  0.74721728  0.50322413  0.49855477  1
  Ca  Ca8  1  -0.00426428  0.25222915  0.00610753  1
  Ca  Ca9  1  0.00007918  0.24716187  0.49947089  1
  Ca  Ca10  1  -0.00148299  0.74475994  -0.00108409  1
  Ca  Ca11  1  -0.00015939  0.75089430  0.50003002  1
  Ca  Ca12  1  0.50757419  0.25020104  0.00497187  1
  Ca  Ca13  1  0.50025560  0.24591648  0.49493890  1
  Ca  Ca14  1  0.50207405  0.74358257  0.00573702  1
  Ca  Ca15  1  0.49879049  0.74794885  0.49305891  1
  Ca  Ca16  1  0.00016765  0.00178037  0.24951056  1
  Ca  Ca17  1  -0.00733121  -0.00380209  0.74746240  1
  Ca  Ca18  1  0.00071314  0.49961851  0.24284052  1
  Ca  Ca19  1  0.00167828  0.50453987  0.75163401  1
  Ca  Ca20  1  0.50029656  0.00098820  0.25649025  1
  Ca  Ca21  1  0.50822399  0.00023867  0.74980892  1
  Ca  Ca22  1  0.49866580  0.50013355  0.25256018  1
  Ca  Ca23  1  0.50062471  0.50564081  0.74905636  1
  Ti  Ti24  1  0.25125003  0.25033524  0.25061615  1
  Ti  Ti25  1  0.24946818  0.24965591  0.75038681  1
  Ti  Ti26  1  0.25041228  0.74954516  0.25160551  1
  Ti  Ti27  1  0.24676094  0.75097104  0.74806197  1
  Ti  Ti28  1  0.75006022  0.24999985  0.25172510  1
  Ti  Ti29  1  0.75024343  0.24686668  0.74893241  1
  Ti  Ti30  1  0.74901384  0.74755501  0.24974233  1
  Ti  Ti31  1  0.75076945  0.75129473  0.74924375  1
  Al  Al32  1  0.07440614  0.09168986  0.09384798  1
  Al  Al33  1  0.07610503  0.08522057  0.57451049  1
  Al  Al34  1  0.08004143  0.58677200  0.08193145  1
  Al  Al35  1  0.08137504  0.59090689  0.57969051  1
  Al  Al36  1  0.59056637  0.09364820  0.08145492  1
  Al  Al37  1  0.60305147  0.08492415  0.57659962  1
  Al  Al38  1  0.58146768  0.57913610  0.08657400  1
  Al  Al39  1  0.59086616  0.58995317  0.57566364  1
  Al  Al40  1  0.41767543  0.41927599  0.08424974  1
  Al  Al41  1  0.41010882  0.42292743  0.57269804  1
  Al  Al42  1  0.42188057  0.91675729  0.08796257  1
  Al  Al43  1  0.41729903  0.91156687  0.56206632  1
  Al  Al44  1  0.91185426  0.41300142  0.09315688  1
  Al  Al45  1  0.91496225  0.42107339  0.57529423  1
  Al  Al46  1  0.92139571  0.92468774  0.08007241  1
  Al  Al47  1  0.91191564  0.91551080  0.59348339  1
  Al  Al48  1  0.41310842  0.08540731  0.40552797  1
  Al  Al49  1  0.42524078  0.08202182  0.92443089  1
  Al  Al50  1  0.42213768  0.59412636  0.41085313  1
  Al  Al51  1  0.41468095  0.58421499  0.92202704  1
  Al  Al52  1  0.91327306  0.09297266  0.42686682  1
  Al  Al53  1  0.90862729  0.08067477  0.91548627  1
  Al  Al54  1  0.91082908  0.59107425  0.42120615  1
  Al  Al55  1  0.92631826  0.58712618  0.91728711  1
  Al  Al56  1  0.07972132  0.42106905  0.41254985  1
  Al  Al57  1  0.08369451  0.41125266  0.92680405  1
  Al  Al58  1  0.09599927  0.91063722  0.42341865  1
  Al  Al59  1  0.07391650  0.90163354  0.91010966  1
  Al  Al60  1  0.57991605  0.41432305  0.41278712  1
  Al  Al61  1  0.59298641  0.41191675  0.92633189  1
  Al  Al62  1  0.57339913  0.91366358  0.41352154  1
  Al  Al63  1  0.58890959  0.92787300  0.91443256  1
  Al  Al64  1  0.08425778  0.08290930  0.41629491  1
  Al  Al65  1  0.07335746  0.08167839  0.92403970  1
  Al  Al66  1  0.08560615  0.58434101  0.41956463  1
  Al  Al67  1  0.08683895  0.59272640  0.92004958  1
  Al  Al68  1  0.58310037  0.09115297  0.41456222  1
  Al  Al69  1  0.60302719  0.08718143  0.92008930  1
  Al  Al70  1  0.58675646  0.59493332  0.41342471  1
  Al  Al71  1  0.58048063  0.57717441  0.92044458  1
  Al  Al72  1  0.41831138  0.40964028  0.41446452  1
  Al  Al73  1  0.41885980  0.42110638  0.92219423  1
  Al  Al74  1  0.40863608  0.91066773  0.40495362  1
  Al  Al75  1  0.42548182  0.92157293  0.92530320  1
  Al  Al76  1  0.91804951  0.41357553  0.41502109  1
  Al  Al77  1  0.92132275  0.41784944  0.92961818  1
  Al  Al78  1  0.92241513  0.92196617  0.42974920  1
  Al  Al79  1  0.91494598  0.91152764  0.90222243  1
  Al  Al80  1  0.07829862  0.40894330  0.08622430  1
  Al  Al81  1  0.07880451  0.42632422  0.57602466  1
  Al  Al82  1  0.08401930  0.91842761  0.08137189  1
  Al  Al83  1  0.07476310  0.90073392  0.58290968  1
  Al  Al84  1  0.59299313  0.40881586  0.08383582  1
  Al  Al85  1  0.58396281  0.42510424  0.57384291  1
  Al  Al86  1  0.58242743  0.91914724  0.08751356  1
  Al  Al87  1  0.58956138  0.92745832  0.58184899  1
  Al  Al88  1  0.42366524  0.08256657  0.08561676  1
  Al  Al89  1  0.41774737  0.08628378  0.56418444  1
  Al  Al90  1  0.41528151  0.58493868  0.08467560  1
  Al  Al91  1  0.41764326  0.58349149  0.57811809  1
  Al  Al92  1  0.91559385  0.09115847  0.08769190  1
  Al  Al93  1  0.90382512  0.08004491  0.58826970  1
  Al  Al94  1  0.91788745  0.57960658  0.08845467  1
  Al  Al95  1  0.91055103  0.59543500  0.58066885  1
  Al  Al96  1  0.25208914  0.13896369  0.13913327  1
  Al  Al97  1  0.24973975  0.13092767  0.63671664  1
  Al  Al98  1  0.25120532  0.63606268  0.14054115  1
  Al  Al99  1  0.24711138  0.63797510  0.63499252  1
  Al  Al100  1  0.74673724  0.13989650  0.13079428  1
  Al  Al101  1  0.75304306  0.13128317  0.63021327  1
  Al  Al102  1  0.74763106  0.62860706  0.13912211  1
  Al  Al103  1  0.75219630  0.63762848  0.63166821  1
  Al  Al104  1  0.24825851  0.36098244  0.13031754  1
  Al  Al105  1  0.24952830  0.36335907  0.63445891  1
  Al  Al106  1  0.24780725  0.86194622  0.14149311  1
  Al  Al107  1  0.24543184  0.86535484  0.63033260  1
  Al  Al108  1  0.75124134  0.36773671  0.13865639  1
  Al  Al109  1  0.74955186  0.36327530  0.62665277  1
  Al  Al110  1  0.74540444  0.86233198  0.13977803  1
  Al  Al111  1  0.75348115  0.86662331  0.63271297  1
  Al  Al112  1  0.25345630  0.12759141  0.36043600  1
  Al  Al113  1  0.24716410  0.13273781  0.86459824  1
  Al  Al114  1  0.25558417  0.63646905  0.36662189  1
  Al  Al115  1  0.24459854  0.63554101  0.86610193  1
  Al  Al116  1  0.74772649  0.13521166  0.36736260  1
  Al  Al117  1  0.74967893  0.12941052  0.86920171  1
  Al  Al118  1  0.74892508  0.63526107  0.36560602  1
  Al  Al119  1  0.75080387  0.63486002  0.86546604  1
  Al  Al120  1  0.25438377  0.36294610  0.36316606  1
  Al  Al121  1  0.24534233  0.36677012  0.87237236  1
  Al  Al122  1  0.25258157  0.86930181  0.36443595  1
  Al  Al123  1  0.24130528  0.86842966  0.85858003  1
  Al  Al124  1  0.75037413  0.36302004  0.37101448  1
  Al  Al125  1  0.74736153  0.36387646  0.86809039  1
  Al  Al126  1  0.74898333  0.86308873  0.36214952  1
  Al  Al127  1  0.75164709  0.87052714  0.86176270  1
  Al  Al128  1  0.12995295  0.25240236  0.13770565  1
  Al  Al129  1  0.13614052  0.24643182  0.63475756  1
  Al  Al130  1  0.13073255  0.74348345  0.13190887  1
  Al  Al131  1  0.12999952  0.75416224  0.63259177  1
  Al  Al132  1  0.63387184  0.25171020  0.13472148  1
  Al  Al133  1  0.64176090  0.24235970  0.62429315  1
  Al  Al134  1  0.62991397  0.74773413  0.13499671  1
  Al  Al135  1  0.63718656  0.74685202  0.63250502  1
  Al  Al136  1  0.13627755  0.24886708  0.36428895  1
  Al  Al137  1  0.13440669  0.25095758  0.86675943  1
  Al  Al138  1  0.13739809  0.75336195  0.36696431  1
  Al  Al139  1  0.13185762  0.74915665  0.86566611  1
  Al  Al140  1  0.63587265  0.24753197  0.37062390  1
  Al  Al141  1  0.63611283  0.24761255  0.86797441  1
  Al  Al142  1  0.63216464  0.74496108  0.36552436  1
  Al  Al143  1  0.63747744  0.75058013  0.86542682  1
  Al  Al144  1  0.37369311  0.25080546  0.14121647  1
  Al  Al145  1  0.36492457  0.24252296  0.63431182  1
  Al  Al146  1  0.37220699  0.75006509  0.14260124  1
  Al  Al147  1  0.36081158  0.75222316  0.62823501  1
  Al  Al148  1  0.86617772  0.25006197  0.13559953  1
  Al  Al149  1  0.85995863  0.24454361  0.62682276  1
  Al  Al150  1  0.86661006  0.74356041  0.13627802  1
  Al  Al151  1  0.86681242  0.75242377  0.63634450  1
  Al  Al152  1  0.36571673  0.24202940  0.36578860  1
  Al  Al153  1  0.36483825  0.25259013  0.86669100  1
  Al  Al154  1  0.36327155  0.75381831  0.37067438  1
  Al  Al155  1  0.36407061  0.74745164  0.86374541  1
  Al  Al156  1  0.86295414  0.24946362  0.36981991  1
  Al  Al157  1  0.86202487  0.24253360  0.86577471  1
  Al  Al158  1  0.86446535  0.74422297  0.36451106  1
  Al  Al159  1  0.86775193  0.75392748  0.86255128  1
  Al  Al160  1  0.13258567  0.13691476  0.25126563  1
  Al  Al161  1  0.13380075  0.13397224  0.75189966  1
  Al  Al162  1  0.13215093  0.63588454  0.24802237  1
  Al  Al163  1  0.13157255  0.63561802  0.75250766  1
  Al  Al164  1  0.63119122  0.13894677  0.25167342  1
  Al  Al165  1  0.63643438  0.13539604  0.75064236  1
  Al  Al166  1  0.62888327  0.63537672  0.25089033  1
  Al  Al167  1  0.63846534  0.63573088  0.75076071  1
  Al  Al168  1  0.37361131  0.13384633  0.25309089  1
  Al  Al169  1  0.36957040  0.13695605  0.75548699  1
  Al  Al170  1  0.36969636  0.63485206  0.25460062  1
  Al  Al171  1  0.36056733  0.63729729  0.74999687  1
  Al  Al172  1  0.86462029  0.13653314  0.24834761  1
  Al  Al173  1  0.85787305  0.12544390  0.74930481  1
  Al  Al174  1  0.86780507  0.63197489  0.24504854  1
  Al  Al175  1  0.86604307  0.63774450  0.75339460  1
  Al  Al176  1  0.13185513  0.36458689  0.24873579  1
  Al  Al177  1  0.13740714  0.36587336  0.74974608  1
  Al  Al178  1  0.13338006  0.86363160  0.25289414  1
  Al  Al179  1  0.12654784  0.86288826  0.74700853  1
  Al  Al180  1  0.63630439  0.36248989  0.24985058  1
  Al  Al181  1  0.64009947  0.35972592  0.74820157  1
  Al  Al182  1  0.62896045  0.86013622  0.25378108  1
  Al  Al183  1  0.63612542  0.86426382  0.74699764  1
  Al  Al184  1  0.36288812  0.37091273  0.24741365  1
  Al  Al185  1  0.36088089  0.36396962  0.75237830  1
  Al  Al186  1  0.37105063  0.86461642  0.25503310  1
  Al  Al187  1  0.36334444  0.86152014  0.75064933  1
  Al  Al188  1  0.86908438  0.36284673  0.24840167  1
  Al  Al189  1  0.85923948  0.35955506  0.74967412  1
  Al  Al190  1  0.86600040  0.86320852  0.25053932  1
  Al  Al191  1  0.86489897  0.86876210  0.74712117  1
  Al  Al192  1  0.17053821  0.32876285  0.49851179  1
  Al  Al193  1  0.31077468  0.67238742  0.00272038  1
  Al  Al194  1  0.17572380  0.81408686  0.00014955  1
  Al  Al195  1  -0.00359914  0.82023894  0.17622224  1
  Al  Al196  1  0.18257153  0.68730263  0.49989390  1
  Al  Al197  1  0.67320782  0.82392436  -0.00094459  1
  Al  Al198  1  0.81966301  0.00055217  0.17374273  1
  Al  Al199  1  0.82863914  0.49802947  0.82963091  1
  Al  Al200  1  0.17271992  0.00152080  0.18275550  1
  Al  Al201  1  0.17368398  0.49905463  0.17051584  1
  Al  Al202  1  0.49977204  0.67219464  0.67734284  1
  Al  Al203  1  0.49906349  0.82930157  0.66864709  1
  Al  Al204  1  0.32072513  0.50119268  0.67790722  1
  Al  Al205  1  -0.00102303  0.68480165  0.68728870  1
  Al  Al206  1  0.82455259  0.67187046  0.00113679  1
  Al  Al207  1  0.49934090  0.33098758  0.66952732  1
  Al  Al208  1  0.32124627  -0.00045879  0.83049865  1
  Al  Al209  1  0.32337438  0.30980320  0.49994558  1
  Al  Al210  1  0.49962553  0.31109230  0.31835055  1
  Al  Al211  1  0.16729952  0.18181128  0.00383205  1
  Al  Al212  1  0.00062988  0.67718930  0.32372364  1
  Al  Al213  1  0.67033149  0.81558813  0.49735533  1
  Al  Al214  1  0.82565994  0.00063900  0.32930949  1
  Al  Al215  1  0.17224364  0.49703071  0.82685971  1
  Al  Al216  1  0.16065388  -0.00365709  0.67246017  1
  Al  Al217  1  -0.00220173  0.17733583  0.31855272  1
  Al  Al218  1  0.33803974  -0.00045857  0.67125341  1
  Al  Al219  1  0.67482706  0.50043537  0.67600349  1
  Al  Al220  1  0.18941249  0.17563716  0.49822523  1
  Al  Al221  1  0.67146037  0.50019137  0.32015210  1
  Al  Al222  1  0.32966038  -0.00044793  0.18648098  1
  Al  Al223  1  0.82717223  0.50099608  0.67207303  1
  Al  Al224  1  0.50293439  0.82301329  0.82960150  1
  Al  Al225  1  0.50390482  0.16920179  0.66973479  1
  Al  Al226  1  0.32221648  0.82572895  0.00133100  1
  Al  Al227  1  0.81533106  0.31987822  0.00200379  1
  Al  Al228  1  0.18125222  0.50073712  0.32479024  1
  Al  Al229  1  0.69568966  0.00008822  0.69177110  1
  Al  Al230  1  -0.00098612  0.32462664  0.66866782  1
  Al  Al231  1  -0.00251870  0.31913751  0.82896946  1
  Al  Al232  1  -0.00455856  0.17153633  0.68009977  1
  Al  Al233  1  0.82992287  0.82685825  0.00086644  1
  Al  Al234  1  0.33084414  0.18387090  0.00273068  1
  Al  Al235  1  0.82706591  0.81622956  0.49948942  1
  Al  Al236  1  0.82757685  0.49941478  0.31618031  1
  Al  Al237  1  0.50291542  0.32114515  0.83230048  1
  Al  Al238  1  0.66961289  -0.00053919  0.32025511  1
  Au  Au239  1  0.67513762  0.83146168  0.49555295  1
  Au  Au240  1  0.50122932  0.33520008  0.17281644  1
  Au  Au241  1  0.67638798  0.83634875  -0.00113511  1
  Au  Au242  1  0.16285076  0.49931550  0.83484812  1
  Au  Au243  1  0.82546784  0.50120657  0.33289392  1
  Au  Au244  1  0.50455739  0.16238210  0.65895285  1
  Au  Au245  1  0.82381664  0.17200283  0.00226176  1
  Au  Au246  1  0.33243579  -0.00118774  0.83637223  1
  Au  Au247  1  0.33986945  0.82041652  0.00153169  1
  Au  Au248  1  0.67427047  0.49765727  0.16947822  1
  Au  Au249  1  0.17021281  0.82555286  0.00038632  1
  Au  Au250  1  0.00312386  0.66462864  0.32462184  1
  Au  Au251  1  0.67529061  0.65953153  0.00166504  1
  Au  Au252  1  0.33154264  0.50118842  0.33800243  1
  Au  Au253  1  0.00188013  0.33318937  0.32063914  1
  Au  Au254  1  0.50137982  0.83283461  0.18146944  1
  Au  Au255  1  0.50850003  0.15823220  0.83370984  1
  Au  Au256  1  0.33651249  0.50153782  0.82637436  1
  Au  Au257  1  -0.00050696  0.33994438  0.67588685  1
  Au  Au258  1  0.32472710  0.33714016  0.00100964  1
  Au  Au259  1  0.33114553  0.67751864  0.50006628  1
  Au  Au260  1  0.49465863  0.34777540  0.67010682  1
  Au  Au261  1  0.33537857  -0.00338450  0.65468052  1
  Au  Au262  1  -0.00341825  0.16810367  0.83104326  1
  Au  Au263  1  0.16958697  0.16959157  0.00546546  1
  Au  Au264  1  -0.00237981  0.17276792  0.33041063  1
  Au  Au265  1  0.84116062  0.49781202  0.82659076  1
  Au  Au266  1  0.49890448  0.66503515  0.17810069  1
  Au  Au267  1  -0.00106971  0.67728974  0.67196690  1
  Au  Au268  1  0.49937208  0.66775409  0.83206891  1
  Au  Au269  1  0.32836420  0.17179836  0.00120100  1
  Au  Au270  1  0.17371051  -0.00131357  0.33374495  1
  Au  Au271  1  0.00010966  0.83551085  0.33894193  1
  Au  Au272  1  0.50357131  0.16815118  0.17784847  1
  Au  Au273  1  0.66475820  0.49722485  0.82660846  1
  Au  Au274  1  0.15760871  -0.00168324  0.83561726  1
  Au  Au275  1  0.49968239  0.82559263  0.65617524  1
  Au  Au276  1  0.83368388  0.32261852  0.49978804  1
  Au  Au277  1  -0.00128379  0.82895025  0.16716233  1
  Au  Au278  1  0.50454935  0.33334246  0.83044939  1
  Au  Au279  1  0.17456240  0.50275060  0.65817701  1
  Au  Au280  1  0.83481104  0.00128408  0.33991612  1
  Au  Au281  1  0.81910629  -0.00220408  0.81971287  1
  Au  Au282  1  0.50334938  0.83541522  0.82646342  1
  Au  Au283  1  0.32443343  -0.00036433  0.16999573  1
  Au  Au284  1  0.66502866  0.32587253  0.49788935  1
  Au  Au285  1  0.32369420  0.50128773  0.16675598  1
  Au  Au286  1  0.67053416  0.00438422  0.16863841  1
  Au  Au287  1  0.16289221  -0.00431723  0.65981716  1
