# generated using pymatgen
data_Ca24Ti8Al207Au49
_symmetry_space_group_name_H-M   'P 1'
_cell_length_a   17.31866566
_cell_length_b   17.31990840
_cell_length_c   17.32234578
_cell_angle_alpha   89.99686409
_cell_angle_beta   89.99559171
_cell_angle_gamma   90.00112023
_symmetry_Int_Tables_number   1
_chemical_formula_structural   Ca24Ti8Al207Au49
_chemical_formula_sum   'Ca24 Ti8 Al207 Au49'
_cell_volume   5195.97102539
_cell_formula_units_Z   1
loop_
 _symmetry_equiv_pos_site_id
 _symmetry_equiv_pos_as_xyz
  1  'x, y, z'
loop_
 _atom_site_type_symbol
 _atom_site_label
 _atom_site_symmetry_multiplicity
 _atom_site_fract_x
 _atom_site_fract_y
 _atom_site_fract_z
 _atom_site_occupancy
  Ca  Ca0  1  0.24565978  -0.00521063  0.00011208  1
  Ca  Ca1  1  0.25034227  -0.00422899  0.50014114  1
  Ca  Ca2  1  0.24426423  0.50536016  -0.00300872  1
  Ca  Ca3  1  0.24964338  0.50402143  0.50461648  1
  Ca  Ca4  1  0.75129319  -0.00218687  0.00031861  1
  Ca  Ca5  1  0.75312717  0.00015504  0.50235798  1
  Ca  Ca6  1  0.75205094  0.50502066  -0.00164518  1
  Ca  Ca7  1  0.74712591  0.50350435  0.50172313  1
  Ca  Ca8  1  0.00414119  0.24392686  -0.00025512  1
  Ca  Ca9  1  -0.00005241  0.24417849  0.50080573  1
  Ca  Ca10  1  0.00640162  0.75821194  0.00255943  1
  Ca  Ca11  1  0.00232912  0.74905211  0.49972969  1
  Ca  Ca12  1  0.49492981  0.24837042  -0.00380955  1
  Ca  Ca13  1  0.49982958  0.24650669  0.50311728  1
  Ca  Ca14  1  0.49445189  0.75389646  -0.00057561  1
  Ca  Ca15  1  0.49820402  0.75197284  0.50316658  1
  Ca  Ca16  1  0.00017334  -0.00631393  0.25239298  1
  Ca  Ca17  1  0.00435412  -0.00510963  0.74903015  1
  Ca  Ca18  1  -0.00064491  0.50259149  0.25411040  1
  Ca  Ca19  1  -0.00156172  0.50485304  0.74306492  1
  Ca  Ca20  1  0.49883906  -0.00729413  0.25337070  1
  Ca  Ca21  1  0.49733253  -0.00250016  0.74275607  1
  Ca  Ca22  1  0.49922835  0.50462844  0.25466890  1
  Ca  Ca23  1  0.50053030  0.50446093  0.73961466  1
  Ti  Ti24  1  0.24828488  0.24800316  0.25131453  1
  Ti  Ti25  1  0.25113372  0.24554248  0.74769440  1
  Ti  Ti26  1  0.24995471  0.75131371  0.25028119  1
  Ti  Ti27  1  0.24937024  0.75294156  0.74956117  1
  Ti  Ti28  1  0.75120844  0.24844870  0.25374330  1
  Ti  Ti29  1  0.74927276  0.24855513  0.74605480  1
  Ti  Ti30  1  0.75062085  0.75183091  0.25135255  1
  Ti  Ti31  1  0.75076777  0.75185477  0.74802900  1
  Al  Al32  1  0.08685039  0.06984717  0.08601956  1
  Al  Al33  1  0.08729273  0.08161197  0.58139968  1
  Al  Al34  1  0.09017729  0.60467528  0.08256635  1
  Al  Al35  1  0.08629580  0.59015159  0.58886120  1
  Al  Al36  1  0.57868906  0.07080179  0.08218904  1
  Al  Al37  1  0.58922836  0.08205223  0.58091297  1
  Al  Al38  1  0.57197006  0.58430925  0.08273578  1
  Al  Al39  1  0.58282494  0.59164281  0.58918655  1
  Al  Al40  1  0.41843489  0.42773993  0.07476962  1
  Al  Al41  1  0.40627459  0.42832361  0.59109667  1
  Al  Al42  1  0.41292233  0.90606256  0.08464912  1
  Al  Al43  1  0.41585017  0.90907040  0.58875979  1
  Al  Al44  1  0.92191165  0.42835255  0.07945315  1
  Al  Al45  1  0.91183547  0.41180624  0.57615911  1
  Al  Al46  1  0.92464550  0.90788428  0.10127815  1
  Al  Al47  1  0.91152904  0.91753409  0.58879902  1
  Al  Al48  1  0.41058761  0.07311045  0.41833957  1
  Al  Al49  1  0.40857409  0.07778289  0.91694146  1
  Al  Al50  1  0.41467457  0.60020901  0.42446628  1
  Al  Al51  1  0.40984666  0.59326123  0.91971864  1
  Al  Al52  1  0.91473576  0.08595075  0.41103130  1
  Al  Al53  1  0.92816692  0.07376049  0.91399694  1
  Al  Al54  1  0.92341144  0.58308106  0.41798005  1
  Al  Al55  1  0.93296325  0.59118260  0.91013144  1
  Al  Al56  1  0.09059497  0.41484967  0.42157794  1
  Al  Al57  1  0.08247199  0.41746015  0.92246271  1
  Al  Al58  1  0.07670852  0.91234484  0.40948377  1
  Al  Al59  1  0.09476797  0.91030276  0.91652827  1
  Al  Al60  1  0.59298574  0.41197736  0.43507206  1
  Al  Al61  1  0.58273603  0.42349570  0.90772322  1
  Al  Al62  1  0.58457307  0.90878917  0.42411737  1
  Al  Al63  1  0.57476266  0.91788217  0.91560765  1
  Al  Al64  1  0.07947922  0.08671608  0.41230783  1
  Al  Al65  1  0.08933498  0.07449955  0.91036626  1
  Al  Al66  1  0.08476459  0.58716389  0.41904264  1
  Al  Al67  1  0.09094303  0.60554196  0.91912450  1
  Al  Al68  1  0.58749588  0.08430057  0.42606941  1
  Al  Al69  1  0.57360432  0.07579055  0.91658517  1
  Al  Al70  1  0.57539555  0.59297723  0.42124229  1
  Al  Al71  1  0.58065685  0.57927902  0.90710728  1
  Al  Al72  1  0.42158676  0.42576144  0.43484001  1
  Al  Al73  1  0.42070010  0.42142210  0.91651763  1
  Al  Al74  1  0.41242949  0.91381489  0.41626343  1
  Al  Al75  1  0.40829970  0.91194145  0.91695765  1
  Al  Al76  1  0.90947401  0.41231436  0.42094857  1
  Al  Al77  1  0.92672144  0.42397440  0.92112952  1
  Al  Al78  1  0.91618174  0.91454422  0.40920336  1
  Al  Al79  1  0.92461462  0.91555089  0.91515070  1
  Al  Al80  1  0.08562698  0.42242517  0.07842640  1
  Al  Al81  1  0.09185918  0.41639551  0.57975008  1
  Al  Al82  1  0.08828657  0.90638141  0.09187243  1
  Al  Al83  1  0.08176489  0.91817441  0.58550778  1
  Al  Al84  1  0.57852706  0.42405378  0.07235335  1
  Al  Al85  1  0.59626409  0.41928624  0.59131499  1
  Al  Al86  1  0.57551752  0.91098540  0.09478574  1
  Al  Al87  1  0.58372592  0.90629929  0.58617874  1
  Al  Al88  1  0.41089216  0.07560026  0.07767967  1
  Al  Al89  1  0.41208621  0.07203339  0.58207537  1
  Al  Al90  1  0.40959280  0.59709470  0.07793411  1
  Al  Al91  1  0.41093778  0.59387653  0.58797686  1
  Al  Al92  1  0.91748425  0.06617545  0.09428589  1
  Al  Al93  1  0.90680446  0.08022115  0.58342417  1
  Al  Al94  1  0.93162298  0.58913953  0.09346965  1
  Al  Al95  1  0.92516457  0.58783755  0.58761540  1
  Al  Al96  1  0.24437218  0.12873933  0.13747458  1
  Al  Al97  1  0.24943419  0.12464153  0.63523151  1
  Al  Al98  1  0.24822909  0.63826901  0.13200787  1
  Al  Al99  1  0.25310525  0.63897970  0.63546700  1
  Al  Al100  1  0.75719044  0.13225903  0.13884164  1
  Al  Al101  1  0.74881226  0.13790664  0.62658354  1
  Al  Al102  1  0.74977137  0.64224216  0.13728683  1
  Al  Al103  1  0.74601018  0.63834023  0.63553061  1
  Al  Al104  1  0.24679831  0.36769143  0.13521020  1
  Al  Al105  1  0.25020078  0.36475218  0.63536991  1
  Al  Al106  1  0.24516998  0.86665141  0.13370798  1
  Al  Al107  1  0.24995172  0.86846412  0.63716039  1
  Al  Al108  1  0.75109824  0.36165898  0.13429082  1
  Al  Al109  1  0.74691037  0.36409585  0.62929922  1
  Al  Al110  1  0.75465479  0.86361238  0.13350391  1
  Al  Al111  1  0.74881287  0.86110838  0.63344098  1
  Al  Al112  1  0.24799098  0.13014358  0.36655600  1
  Al  Al113  1  0.24826645  0.12462562  0.86107536  1
  Al  Al114  1  0.25141347  0.64230943  0.36437720  1
  Al  Al115  1  0.25118718  0.63884540  0.86695616  1
  Al  Al116  1  0.75024816  0.13521374  0.37172098  1
  Al  Al117  1  0.75206998  0.13443936  0.86167483  1
  Al  Al118  1  0.75081258  0.64312647  0.36350178  1
  Al  Al119  1  0.74634930  0.64102323  0.85888838  1
  Al  Al120  1  0.24621456  0.36432786  0.36636884  1
  Al  Al121  1  0.25313491  0.36293682  0.86342185  1
  Al  Al122  1  0.25261116  0.86395034  0.36159119  1
  Al  Al123  1  0.24656896  0.86911891  0.86438181  1
  Al  Al124  1  0.74986025  0.36211428  0.37079817  1
  Al  Al125  1  0.74990583  0.36143830  0.86450947  1
  Al  Al126  1  0.74669087  0.86276288  0.36366372  1
  Al  Al127  1  0.75738049  0.86179009  0.86814178  1
  Al  Al128  1  0.13270092  0.24600804  0.13756184  1
  Al  Al129  1  0.13884489  0.24760475  0.62796180  1
  Al  Al130  1  0.13564379  0.75314994  0.13183872  1
  Al  Al131  1  0.13145025  0.75157273  0.63705065  1
  Al  Al132  1  0.63658173  0.24622613  0.13655519  1
  Al  Al133  1  0.63388559  0.25014247  0.62811134  1
  Al  Al134  1  0.63343776  0.75588437  0.13502612  1
  Al  Al135  1  0.62984543  0.75299397  0.63413687  1
  Al  Al136  1  0.13545140  0.24703384  0.36894597  1
  Al  Al137  1  0.13776711  0.24255225  0.86138406  1
  Al  Al138  1  0.12887425  0.75254262  0.36075451  1
  Al  Al139  1  0.13522234  0.75247009  0.86676413  1
  Al  Al140  1  0.63597857  0.24713325  0.37181944  1
  Al  Al141  1  0.63038871  0.24764641  0.86008115  1
  Al  Al142  1  0.62765200  0.75411981  0.36480943  1
  Al  Al143  1  0.63228954  0.75682062  0.86195539  1
  Al  Al144  1  0.36085548  0.24372875  0.13656273  1
  Al  Al145  1  0.36828204  0.24703811  0.63586739  1
  Al  Al146  1  0.36262054  0.75197698  0.13411125  1
  Al  Al147  1  0.36776684  0.75258080  0.63603385  1
  Al  Al148  1  0.86890585  0.25367242  0.13934445  1
  Al  Al149  1  0.86376320  0.24992402  0.62548210  1
  Al  Al150  1  0.87344571  0.75206147  0.13712412  1
  Al  Al151  1  0.87100120  0.75232642  0.63532505  1
  Al  Al152  1  0.36306908  0.24928246  0.36574975  1
  Al  Al153  1  0.36600691  0.24614646  0.86055234  1
  Al  Al154  1  0.37262219  0.75054940  0.36430277  1
  Al  Al155  1  0.36438867  0.75116758  0.86275008  1
  Al  Al156  1  0.86462318  0.24777082  0.37174404  1
  Al  Al157  1  0.86474813  0.24992931  0.86232244  1
  Al  Al158  1  0.87518298  0.75495948  0.36207391  1
  Al  Al159  1  0.87333006  0.74903259  0.86342819  1
  Al  Al160  1  0.13387900  0.13215523  0.25416080  1
  Al  Al161  1  0.13616131  0.12698643  0.74545643  1
  Al  Al162  1  0.12831132  0.64147930  0.24620178  1
  Al  Al163  1  0.13450112  0.64045178  0.75053583  1
  Al  Al164  1  0.63386592  0.13420988  0.25223289  1
  Al  Al165  1  0.62949405  0.13704731  0.74376957  1
  Al  Al166  1  0.63092472  0.64007036  0.25446419  1
  Al  Al167  1  0.62949554  0.63822357  0.74274707  1
  Al  Al168  1  0.36293439  0.13055732  0.25465297  1
  Al  Al169  1  0.36529639  0.12661413  0.74879092  1
  Al  Al170  1  0.36523492  0.63726564  0.24935487  1
  Al  Al171  1  0.36720295  0.63628123  0.74194927  1
  Al  Al172  1  0.86731155  0.13603425  0.25584883  1
  Al  Al173  1  0.86131197  0.13005309  0.74249749  1
  Al  Al174  1  0.87178523  0.64014451  0.25181095  1
  Al  Al175  1  0.86807402  0.63684026  0.74584461  1
  Al  Al176  1  0.13331961  0.36283367  0.25046350  1
  Al  Al177  1  0.13848066  0.36125975  0.74770249  1
  Al  Al178  1  0.13148437  0.86490946  0.24631894  1
  Al  Al179  1  0.13114215  0.86789018  0.75134888  1
  Al  Al180  1  0.63668241  0.35915527  0.25234421  1
  Al  Al181  1  0.63710274  0.36502245  0.74554299  1
  Al  Al182  1  0.62884263  0.86531625  0.25036086  1
  Al  Al183  1  0.62864121  0.86422643  0.74544486  1
  Al  Al184  1  0.36168446  0.36331307  0.24521875  1
  Al  Al185  1  0.36491526  0.36556403  0.74582669  1
  Al  Al186  1  0.36887750  0.86319560  0.24965354  1
  Al  Al187  1  0.36500414  0.86883753  0.74966421  1
  Al  Al188  1  0.86525662  0.36404463  0.25606448  1
  Al  Al189  1  0.86269072  0.36066285  0.74314896  1
  Al  Al190  1  0.86775819  0.86494541  0.24870958  1
  Al  Al191  1  0.86959115  0.86583703  0.74893322  1
  Al  Al192  1  0.81821965  0.82340049  0.49816873  1
  Al  Al193  1  0.49758702  0.32646957  0.67324693  1
  Al  Al194  1  0.66879409  0.50200363  0.33121329  1
  Al  Al195  1  0.83088531  0.50174246  0.82564758  1
  Al  Al196  1  0.49577291  0.67883089  0.81932825  1
  Al  Al197  1  0.32782636  0.50211097  0.81218578  1
  Al  Al198  1  0.82073056  -0.00056628  0.31348064  1
  Al  Al199  1  0.31911742  0.17170463  0.50135303  1
  Al  Al200  1  0.31086704  0.81322730  -0.00106829  1
  Al  Al201  1  0.82338038  0.32912401  -0.00041047  1
  Al  Al202  1  0.66996707  0.67923066  -0.00275813  1
  Al  Al203  1  0.00062932  0.17259007  0.81863817  1
  Al  Al204  1  0.81484624  0.50089461  0.66894924  1
  Al  Al205  1  0.83374496  0.67701478  0.00205005  1
  Al  Al206  1  0.82935765  0.50342607  0.17595119  1
  Al  Al207  1  0.32289606  0.81361821  0.50007972  1
  Al  Al208  1  0.17125849  0.82821646  0.49796788  1
  Al  Al209  1  0.17592045  0.31537997  -0.00106152  1
  Al  Al210  1  0.68392597  -0.00114001  0.66957974  1
  Al  Al211  1  0.31648300  -0.00248617  0.18404909  1
  Al  Al212  1  0.00118953  0.32639808  0.82561870  1
  Al  Al213  1  0.68858466  -0.00109470  0.18262528  1
  Al  Al214  1  0.67383748  0.68819653  0.49934295  1
  Al  Al215  1  0.31728185  0.50306912  0.16891618  1
  Al  Al216  1  0.67153673  0.17499873  -0.00093397  1
  Al  Al217  1  0.32820241  0.32766928  -0.00071787  1
  Al  Al218  1  0.49867087  0.32009778  0.16674381  1
  Al  Al219  1  0.18149040  -0.00331005  0.31852068  1
  Al  Al220  1  0.00087743  0.31819721  0.32762197  1
  Al  Al221  1  0.31523358  0.17476272  -0.00116576  1
  Al  Al222  1  0.33217927  0.50170932  0.33025290  1
  Al  Al223  1  0.82781367  0.67189528  0.49985849  1
  Al  Al224  1  0.67677139  0.50177605  0.80812654  1
  Al  Al225  1  0.49864520  0.16591892  0.32429361  1
  Al  Al226  1  0.18592037  0.67758496  0.50054958  1
  Al  Al227  1  0.16784041  0.50302714  0.82771788  1
  Al  Al228  1  0.31760430  0.32634574  0.50188690  1
  Al  Al229  1  0.50029313  0.32841332  0.33162775  1
  Al  Al230  1  0.49927333  0.68913578  0.18460492  1
  Al  Al231  1  0.83456158  0.17006043  0.00118219  1
  Al  Al232  1  0.18568613  0.50192914  0.67437453  1
  Al  Al233  1  0.67227875  0.50074478  0.17394201  1
  Al  Al234  1  0.82575718  0.50248176  0.32877825  1
  Al  Al235  1  0.68311794  -0.00329319  0.82486811  1
  Al  Al236  1  -0.00025457  0.17151890  0.18284340  1
  Al  Al237  1  0.17419115  0.50288097  0.32141299  1
  Al  Al238  1  0.00179368  0.32231822  0.66886142  1
  Au  Au239  1  0.32321761  -0.00349841  0.82704764  1
  Au  Au240  1  0.84908963  0.67201776  0.00285632  1
  Au  Au241  1  0.49911368  0.83060671  0.32992427  1
  Au  Au242  1  0.67928916  0.50070289  0.15789144  1
  Au  Au243  1  0.32620907  0.50511359  0.34601160  1
  Au  Au244  1  -0.00326969  0.15796476  0.67142904  1
  Au  Au245  1  0.66902110  0.34056082  -0.00683423  1
  Au  Au246  1  0.49977954  0.33469545  0.66414130  1
  Au  Au247  1  0.82738652  0.17213975  0.49850497  1
  Au  Au248  1  0.82664675  0.50573519  0.84149598  1
  Au  Au249  1  0.16924189  0.17439096  0.49792710  1
  Au  Au250  1  0.00145995  0.33490981  0.67166330  1
  Au  Au251  1  0.49675942  0.67620564  0.17339772  1
  Au  Au252  1  0.49978278  0.33685531  0.16334485  1
  Au  Au253  1  0.49518826  0.16022066  0.16450655  1
  Au  Au254  1  0.32806373  -0.00491152  0.17205709  1
  Au  Au255  1  0.50022964  0.33047952  0.82954701  1
  Au  Au256  1  0.00080954  0.32682487  0.34190708  1
  Au  Au257  1  0.00237498  0.15518162  0.17925265  1
  Au  Au258  1  0.17461918  -0.00357036  0.67167139  1
  Au  Au259  1  0.83840322  0.15302920  0.00191007  1
  Au  Au260  1  0.66676709  0.00063024  0.82274190  1
  Au  Au261  1  0.82865147  0.83320196  0.49833629  1
  Au  Au262  1  0.82240683  0.50148620  0.65456023  1
  Au  Au263  1  0.83395561  0.84371279  0.00427265  1
  Au  Au264  1  0.83529046  0.33329608  0.00037330  1
  Au  Au265  1  0.00496424  0.82180623  0.83471482  1
  Au  Au266  1  0.67548119  -0.00174948  0.34697414  1
  Au  Au267  1  0.32862430  0.50291255  0.16330507  1
  Au  Au268  1  0.49797956  0.66974641  0.82775196  1
  Au  Au269  1  0.16749647  0.16290842  -0.00000989  1
  Au  Au270  1  0.00152228  0.67416988  0.32821822  1
  Au  Au271  1  0.66525400  0.66273052  -0.00431262  1
  Au  Au272  1  0.00044536  0.33430781  0.16193316  1
  Au  Au273  1  0.33361432  0.50224545  0.82818756  1
  Au  Au274  1  0.67615115  -0.00304774  0.17124124  1
  Au  Au275  1  0.84182360  -0.00137777  0.81829865  1
  Au  Au276  1  0.67313566  0.50438362  0.34736827  1
  Au  Au277  1  0.49996353  0.16191483  0.33600938  1
  Au  Au278  1  0.16646306  -0.00331815  0.32594429  1
  Au  Au279  1  0.49756815  0.16076369  0.66338844  1
  Au  Au280  1  0.65583849  0.16854309  -0.00039015  1
  Au  Au281  1  0.49345245  0.16379472  0.83174272  1
  Au  Au282  1  0.15133881  0.50576376  0.82488964  1
  Au  Au283  1  0.49605313  0.83479950  0.82099289  1
  Au  Au284  1  0.15650866  0.50700317  0.17235886  1
  Au  Au285  1  0.50181442  0.33476945  0.34782926  1
  Au  Au286  1  0.66039254  0.83566782  0.00126992  1
  Au  Au287  1  0.00009328  0.82476545  0.66655205  1
