# generated using pymatgen
data_Ca24Ti8Al207Au49
_symmetry_space_group_name_H-M   'P 1'
_cell_length_a   17.32087449
_cell_length_b   17.32208299
_cell_length_c   17.32147556
_cell_angle_alpha   89.99922309
_cell_angle_beta   89.99931755
_cell_angle_gamma   90.00104072
_symmetry_Int_Tables_number   1
_chemical_formula_structural   Ca24Ti8Al207Au49
_chemical_formula_sum   'Ca24 Ti8 Al207 Au49'
_cell_volume   5197.02510644
_cell_formula_units_Z   1
loop_
 _symmetry_equiv_pos_site_id
 _symmetry_equiv_pos_as_xyz
  1  'x, y, z'
loop_
 _atom_site_type_symbol
 _atom_site_label
 _atom_site_symmetry_multiplicity
 _atom_site_fract_x
 _atom_site_fract_y
 _atom_site_fract_z
 _atom_site_occupancy
  Ca  Ca0  1  0.25227714  0.00319933  0.00234897  1
  Ca  Ca1  1  0.25598718  -0.00003151  0.49774096  1
  Ca  Ca2  1  0.24992798  0.49587972  -0.00040143  1
  Ca  Ca3  1  0.25389330  0.49884589  0.50007050  1
  Ca  Ca4  1  0.75077733  -0.00297854  0.00577655  1
  Ca  Ca5  1  0.74448096  0.00316210  0.49404466  1
  Ca  Ca6  1  0.75314866  0.50270903  -0.00409742  1
  Ca  Ca7  1  0.75259074  0.49802096  0.50314727  1
  Ca  Ca8  1  0.00391383  0.25586300  -0.00624270  1
  Ca  Ca9  1  -0.00215041  0.25535217  0.50658846  1
  Ca  Ca10  1  -0.00642657  0.74790150  0.00062054  1
  Ca  Ca11  1  0.00103284  0.74662999  0.50025759  1
  Ca  Ca12  1  0.49558782  0.24792079  0.00233316  1
  Ca  Ca13  1  0.50247038  0.25241227  0.49789032  1
  Ca  Ca14  1  0.50353341  0.74752876  -0.00061967  1
  Ca  Ca15  1  0.50095997  0.74716396  0.50076033  1
  Ca  Ca16  1  -0.00193125  -0.00019269  0.24831891  1
  Ca  Ca17  1  0.00121556  0.00131593  0.74774907  1
  Ca  Ca18  1  0.00056932  0.49834402  0.25287850  1
  Ca  Ca19  1  -0.00137657  0.49718401  0.74975950  1
  Ca  Ca20  1  0.50335094  0.00554002  0.25547149  1
  Ca  Ca21  1  0.50031633  -0.00482287  0.74924900  1
  Ca  Ca22  1  0.49807841  0.49781751  0.25771111  1
  Ca  Ca23  1  0.49775579  0.50062252  0.74451640  1
  Ti  Ti24  1  0.25117181  0.24993498  0.24920603  1
  Ti  Ti25  1  0.25066314  0.25201083  0.74910492  1
  Ti  Ti26  1  0.24958994  0.74987871  0.25093390  1
  Ti  Ti27  1  0.25067234  0.74719859  0.74770033  1
  Ti  Ti28  1  0.74761391  0.24896584  0.24982578  1
  Ti  Ti29  1  0.74989824  0.25220181  0.74968862  1
  Ti  Ti30  1  0.74897067  0.75128372  0.25092098  1
  Ti  Ti31  1  0.75046840  0.74754331  0.74878567  1
  Al  Al32  1  0.09384521  0.08092666  0.08002631  1
  Al  Al33  1  0.07871152  0.09247165  0.58763085  1
  Al  Al34  1  0.08183829  0.57872062  0.08447250  1
  Al  Al35  1  0.07714593  0.58843324  0.58987134  1
  Al  Al36  1  0.58403385  0.07821397  0.09282585  1
  Al  Al37  1  0.58261201  0.09270375  0.58208002  1
  Al  Al38  1  0.57612950  0.57426019  0.07014538  1
  Al  Al39  1  0.58600927  0.57622100  0.59279927  1
  Al  Al40  1  0.40802031  0.41217830  0.08353875  1
  Al  Al41  1  0.41064797  0.41832652  0.58255569  1
  Al  Al42  1  0.41588997  0.93300686  0.09345403  1
  Al  Al43  1  0.42109381  0.91608251  0.57661281  1
  Al  Al44  1  0.92020375  0.42423666  0.08237051  1
  Al  Al45  1  0.90946077  0.41374433  0.59184444  1
  Al  Al46  1  0.90027415  0.91376318  0.08417560  1
  Al  Al47  1  0.91662597  0.91520335  0.57553833  1
  Al  Al48  1  0.42160241  0.08889185  0.41194769  1
  Al  Al49  1  0.41029630  0.08747518  0.92793611  1
  Al  Al50  1  0.40883973  0.58323620  0.42331566  1
  Al  Al51  1  0.41983847  0.58205183  0.90109886  1
  Al  Al52  1  0.90690328  0.07718679  0.41831191  1
  Al  Al53  1  0.92144305  0.08826576  0.91476191  1
  Al  Al54  1  0.91516924  0.57646264  0.41391026  1
  Al  Al55  1  0.91206082  0.58387143  0.91400874  1
  Al  Al56  1  0.08290515  0.41997722  0.42179022  1
  Al  Al57  1  0.08196362  0.41405330  0.90843214  1
  Al  Al58  1  0.09070837  0.92337060  0.41304405  1
  Al  Al59  1  0.07204318  0.92272143  0.91870030  1
  Al  Al60  1  0.58718517  0.41082894  0.42016851  1
  Al  Al61  1  0.58765717  0.42775307  0.91116963  1
  Al  Al62  1  0.58410311  0.92188618  0.40502431  1
  Al  Al63  1  0.58469748  0.91012237  0.92328603  1
  Al  Al64  1  0.09164117  0.07685418  0.41740852  1
  Al  Al65  1  0.08202991  0.09057126  0.91652125  1
  Al  Al66  1  0.07916372  0.57952813  0.41987309  1
  Al  Al67  1  0.07969344  0.57710957  0.91340174  1
  Al  Al68  1  0.58645410  0.08793583  0.41206267  1
  Al  Al69  1  0.57621802  0.07604772  0.92338273  1
  Al  Al70  1  0.58031523  0.57596707  0.41879645  1
  Al  Al71  1  0.58273720  0.58717280  0.89889546  1
  Al  Al72  1  0.41336710  0.41219425  0.41924324  1
  Al  Al73  1  0.40740394  0.42215814  0.91949975  1
  Al  Al74  1  0.42198685  0.91147132  0.40884925  1
  Al  Al75  1  0.42780872  0.92699986  0.91695949  1
  Al  Al76  1  0.90596038  0.41733271  0.41693732  1
  Al  Al77  1  0.92021323  0.41593296  0.90516425  1
  Al  Al78  1  0.90660120  0.92010191  0.41640313  1
  Al  Al79  1  0.91331073  0.90762190  0.92442324  1
  Al  Al80  1  0.08393506  0.41890858  0.08031912  1
  Al  Al81  1  0.07668048  0.41219980  0.58804558  1
  Al  Al82  1  0.08229463  0.92368224  0.08496381  1
  Al  Al83  1  0.07902980  0.92013709  0.57793266  1
  Al  Al84  1  0.57460826  0.41563996  0.07936124  1
  Al  Al85  1  0.59578371  0.41429810  0.58393771  1
  Al  Al86  1  0.59338408  0.92038644  0.08502658  1
  Al  Al87  1  0.57754459  0.91790514  0.57621851  1
  Al  Al88  1  0.40485800  0.09016568  0.08868622  1
  Al  Al89  1  0.42375034  0.09351355  0.58461418  1
  Al  Al90  1  0.41221917  0.56849827  0.08655540  1
  Al  Al91  1  0.40861541  0.58263337  0.58731091  1
  Al  Al92  1  0.90855613  0.07301206  0.08662834  1
  Al  Al93  1  0.92163722  0.09397308  0.58361241  1
  Al  Al94  1  0.91099063  0.58385887  0.08040145  1
  Al  Al95  1  0.91519452  0.57818335  0.59340009  1
  Al  Al96  1  0.25370635  0.12990555  0.13408283  1
  Al  Al97  1  0.25429903  0.14012299  0.63462002  1
  Al  Al98  1  0.25145219  0.63071384  0.13486334  1
  Al  Al99  1  0.25719353  0.63143800  0.63097327  1
  Al  Al100  1  0.74789974  0.13575079  0.13392720  1
  Al  Al101  1  0.75120243  0.13525146  0.63506871  1
  Al  Al102  1  0.75029785  0.63867925  0.13641379  1
  Al  Al103  1  0.74966596  0.62771540  0.63609445  1
  Al  Al104  1  0.25103232  0.36916233  0.13643806  1
  Al  Al105  1  0.25231887  0.36387240  0.63057282  1
  Al  Al106  1  0.24761227  0.86969006  0.13609833  1
  Al  Al107  1  0.25094884  0.85764308  0.62859512  1
  Al  Al108  1  0.74944951  0.36305807  0.13341446  1
  Al  Al109  1  0.74740995  0.36874161  0.63616316  1
  Al  Al110  1  0.75226199  0.86670807  0.13751387  1
  Al  Al111  1  0.74720245  0.86716843  0.63547129  1
  Al  Al112  1  0.25110974  0.13303895  0.36539997  1
  Al  Al113  1  0.25063344  0.13799308  0.86611086  1
  Al  Al114  1  0.25422068  0.63551055  0.36909900  1
  Al  Al115  1  0.25588296  0.63236476  0.86220678  1
  Al  Al116  1  0.74451007  0.13250304  0.36341443  1
  Al  Al117  1  0.75062383  0.13506973  0.86228733  1
  Al  Al118  1  0.75327512  0.63434380  0.36676634  1
  Al  Al119  1  0.74837544  0.62541778  0.85842001  1
  Al  Al120  1  0.25236681  0.36321652  0.37082610  1
  Al  Al121  1  0.25249083  0.36513590  0.86309895  1
  Al  Al122  1  0.25236388  0.86468958  0.36912798  1
  Al  Al123  1  0.25026675  0.86185063  0.86283898  1
  Al  Al124  1  0.74756356  0.36270478  0.36674300  1
  Al  Al125  1  0.74824673  0.37334042  0.86156536  1
  Al  Al126  1  0.74609171  0.86585177  0.36410048  1
  Al  Al127  1  0.75345916  0.86243400  0.86525493  1
  Al  Al128  1  0.14344056  0.24748673  0.13029083  1
  Al  Al129  1  0.13409736  0.25045525  0.63260506  1
  Al  Al130  1  0.13271660  0.75042567  0.14051146  1
  Al  Al131  1  0.13380923  0.74558230  0.63478986  1
  Al  Al132  1  0.62810102  0.24904915  0.13563642  1
  Al  Al133  1  0.63217811  0.25562636  0.63532833  1
  Al  Al134  1  0.63418986  0.75280887  0.13732299  1
  Al  Al135  1  0.63632331  0.74556845  0.63511238  1
  Al  Al136  1  0.13859820  0.25213219  0.36338538  1
  Al  Al137  1  0.13668116  0.25204919  0.86937837  1
  Al  Al138  1  0.13857826  0.74892757  0.36649587  1
  Al  Al139  1  0.13849216  0.74531739  0.86531556  1
  Al  Al140  1  0.63274125  0.24942284  0.36566721  1
  Al  Al141  1  0.63608311  0.25286566  0.86306384  1
  Al  Al142  1  0.62985185  0.75083670  0.36817631  1
  Al  Al143  1  0.63614912  0.74522626  0.86208788  1
  Al  Al144  1  0.36852214  0.24682911  0.13533237  1
  Al  Al145  1  0.36936703  0.25579415  0.63135081  1
  Al  Al146  1  0.36177398  0.74757061  0.13595144  1
  Al  Al147  1  0.36561849  0.74510160  0.62753109  1
  Al  Al148  1  0.86141565  0.25106308  0.13370655  1
  Al  Al149  1  0.86421712  0.25136482  0.63737894  1
  Al  Al150  1  0.86812185  0.75241332  0.13658531  1
  Al  Al151  1  0.86677647  0.74196295  0.63644416  1
  Al  Al152  1  0.36416209  0.24920924  0.36748516  1
  Al  Al153  1  0.36634180  0.25118735  0.86477727  1
  Al  Al154  1  0.36731351  0.74999536  0.36575682  1
  Al  Al155  1  0.36879030  0.74237726  0.86257214  1
  Al  Al156  1  0.86101208  0.24653048  0.36453726  1
  Al  Al157  1  0.86395698  0.25515673  0.86439180  1
  Al  Al158  1  0.86251733  0.75090296  0.36306186  1
  Al  Al159  1  0.86309646  0.74393833  0.86092209  1
  Al  Al160  1  0.14074126  0.12840983  0.24873554  1
  Al  Al161  1  0.13624943  0.13861011  0.74966023  1
  Al  Al162  1  0.13893441  0.62891745  0.24914676  1
  Al  Al163  1  0.13054318  0.63467570  0.74836035  1
  Al  Al164  1  0.62839388  0.13626878  0.25278837  1
  Al  Al165  1  0.63337673  0.13790675  0.74321020  1
  Al  Al166  1  0.63238426  0.63930961  0.25749851  1
  Al  Al167  1  0.63086919  0.63174748  0.74880396  1
  Al  Al168  1  0.36903567  0.13581400  0.25039293  1
  Al  Al169  1  0.36472107  0.14068569  0.74539806  1
  Al  Al170  1  0.36546017  0.63467601  0.25317238  1
  Al  Al171  1  0.36891184  0.63304186  0.74593093  1
  Al  Al172  1  0.86348212  0.13258047  0.24738851  1
  Al  Al173  1  0.86585210  0.13332769  0.74889757  1
  Al  Al174  1  0.86430275  0.63653196  0.24972108  1
  Al  Al175  1  0.86787790  0.62738511  0.74855674  1
  Al  Al176  1  0.13881324  0.36925218  0.25060694  1
  Al  Al177  1  0.13576602  0.36363251  0.75013787  1
  Al  Al178  1  0.13731674  0.87156797  0.25240606  1
  Al  Al179  1  0.13580251  0.86317126  0.74710318  1
  Al  Al180  1  0.63322571  0.36320781  0.25030848  1
  Al  Al181  1  0.63342863  0.37180665  0.74633993  1
  Al  Al182  1  0.63399468  0.86840341  0.25600791  1
  Al  Al183  1  0.63619695  0.86671206  0.75057012  1
  Al  Al184  1  0.36392129  0.36330643  0.24892090  1
  Al  Al185  1  0.36524665  0.36938500  0.74647853  1
  Al  Al186  1  0.36544827  0.86444441  0.25185583  1
  Al  Al187  1  0.36488202  0.85907992  0.74860301  1
  Al  Al188  1  0.86298553  0.36332408  0.25478925  1
  Al  Al189  1  0.86149638  0.37255131  0.74780298  1
  Al  Al190  1  0.86581034  0.86842436  0.24576808  1
  Al  Al191  1  0.86492905  0.86585954  0.74797222  1
  Al  Al192  1  0.17111810  0.00011607  0.82775914  1
  Al  Al193  1  0.32407391  0.66597084  -0.00134394  1
  Al  Al194  1  0.33079640  0.82838399  0.00079446  1
  Al  Al195  1  0.18144268  0.17801633  0.50206832  1
  Al  Al196  1  0.49859508  0.31715714  0.32433894  1
  Al  Al197  1  0.66916959  0.50368188  0.17869055  1
  Al  Al198  1  0.82579502  -0.00475633  0.82624971  1
  Al  Al199  1  0.32124295  0.49817271  0.31913245  1
  Al  Al200  1  0.81585009  0.81688095  0.50067941  1
  Al  Al201  1  0.67852607  0.18901532  0.50079793  1
  Al  Al202  1  0.50056476  0.81696140  0.67425793  1
  Al  Al203  1  0.82637878  0.49901996  0.18731759  1
  Al  Al204  1  0.17233087  0.00117363  0.67280647  1
  Al  Al205  1  0.67258270  -0.00146842  0.67504754  1
  Al  Al206  1  0.67086142  0.66918961  -0.00265682  1
  Al  Al207  1  0.16552549  0.82147041  -0.00106087  1
  Al  Al208  1  0.69089725  0.00185200  0.19288085  1
  Al  Al209  1  0.00143805  0.17198805  0.16857574  1
  Al  Al210  1  0.67505340  0.32416094  -0.00374178  1
  Al  Al211  1  0.50057329  0.17060787  0.81561744  1
  Al  Al212  1  0.50148399  0.33162616  0.82224640  1
  Al  Al213  1  0.50094483  0.83216087  0.18233288  1
  Al  Al214  1  0.67931853  0.67250372  0.50403800  1
  Al  Al215  1  0.81169165  0.32012576  0.50201425  1
  Al  Al216  1  0.00016754  0.82807080  0.32339052  1
  Al  Al217  1  0.31704489  0.31363364  0.00068555  1
  Al  Al218  1  0.49949288  0.67109994  0.17806347  1
  Al  Al219  1  -0.00046275  0.32774404  0.32958375  1
  Al  Al220  1  0.32450755  0.00124311  0.82802331  1
  Al  Al221  1  0.18553137  0.49974591  0.82661610  1
  Al  Al222  1  0.82092720  0.68816316  -0.00038976  1
  Al  Al223  1  -0.00155691  0.31228515  0.69179165  1
  Al  Al224  1  0.00258534  0.17082889  0.32962444  1
  Al  Al225  1  -0.00055081  0.81612852  0.67166562  1
  Al  Al226  1  0.82107277  0.17669673  0.00204423  1
  Al  Al227  1  0.68495752  0.49861787  0.32825582  1
  Al  Al228  1  0.17733379  0.67562794  0.49872365  1
  Al  Al229  1  0.00007745  0.81578803  0.82762663  1
  Al  Al230  1  0.00144148  0.67310937  0.32108580  1
  Al  Al231  1  0.68982532  0.82047752  0.00164338  1
  Al  Al232  1  0.50111112  0.81825893  0.82742860  1
  Al  Al233  1  0.31840946  0.00005118  0.31653198  1
  Al  Al234  1  0.32300179  -0.00276298  0.67106004  1
  Al  Al235  1  0.18419356  0.49952539  0.67084840  1
  Al  Al236  1  0.00134171  0.32791660  0.17527934  1
  Al  Al237  1  0.80950822  -0.00056550  0.31111638  1
  Al  Al238  1  0.00025219  0.19335434  0.80845516  1
  Au  Au239  1  -0.00098344  0.17089101  0.34535454  1
  Au  Au240  1  0.67064346  -0.00259222  0.84007024  1
  Au  Au241  1  0.66395522  0.16697861  0.00169379  1
  Au  Au242  1  0.66817915  0.83772778  0.49391354  1
  Au  Au243  1  0.66359416  0.00062705  0.66644147  1
  Au  Au244  1  0.33906505  0.00212410  0.67367584  1
  Au  Au245  1  0.17479283  -0.00052942  0.17670276  1
  Au  Au246  1  0.16856955  0.66666055  0.50100928  1
  Au  Au247  1  0.00164681  0.18145648  0.82073449  1
  Au  Au248  1  0.49867630  0.66726682  0.67255311  1
  Au  Au249  1  0.17912108  0.49892066  0.16579822  1
  Au  Au250  1  0.66656517  0.33327583  -0.00187497  1
  Au  Au251  1  0.17544453  0.83950086  0.49960641  1
  Au  Au252  1  0.82579269  0.17257083  0.50115432  1
  Au  Au253  1  0.33523535  0.66002610  -0.00106391  1
  Au  Au254  1  0.34050719  0.84277258  0.00232797  1
  Au  Au255  1  0.49455439  0.33880763  0.82985613  1
  Au  Au256  1  0.49563228  0.33564981  0.17645754  1
  Au  Au257  1  0.83707996  0.00264636  0.66188251  1
  Au  Au258  1  0.16918630  0.83330177  -0.00310293  1
  Au  Au259  1  -0.00196292  0.66046907  0.17271975  1
  Au  Au260  1  -0.00091393  0.82834861  0.66782894  1
  Au  Au261  1  0.49588058  0.15779319  0.82591837  1
  Au  Au262  1  0.83469853  -0.00258244  0.83478757  1
  Au  Au263  1  0.00070564  0.83151433  0.33937265  1
  Au  Au264  1  0.16842088  0.49975295  0.67680294  1
  Au  Au265  1  0.49930303  0.66036611  0.16585104  1
  Au  Au266  1  0.84039559  0.33287165  -0.00158668  1
  Au  Au267  1  -0.00313776  0.83350083  0.16063253  1
  Au  Au268  1  -0.00017554  0.66571536  0.82465517  1
  Au  Au269  1  0.33829545  0.17943212  0.49988892  1
  Au  Au270  1  0.67683052  0.49946573  0.16415104  1
  Au  Au271  1  0.16054130  0.66812677  -0.00082267  1
  Au  Au272  1  0.17497788  0.16807343  0.49832276  1
  Au  Au273  1  0.17283374  0.49960976  0.33282794  1
  Au  Au274  1  0.84347151  0.66894790  0.50205845  1
  Au  Au275  1  0.67057905  0.66391736  0.50145184  1
  Au  Au276  1  0.18477325  0.16646250  -0.00104832  1
  Au  Au277  1  0.82981729  0.16790601  -0.00018150  1
  Au  Au278  1  0.34180107  0.82103918  0.49667604  1
  Au  Au279  1  0.49610706  0.67170562  0.34218711  1
  Au  Au280  1  0.82567729  0.49896028  0.82462130  1
  Au  Au281  1  -0.00003365  0.17588063  0.15229011  1
  Au  Au282  1  0.33305121  -0.00012569  0.32542777  1
  Au  Au283  1  0.49824920  0.16322216  0.17665538  1
  Au  Au284  1  0.50021728  0.32964870  0.65799870  1
  Au  Au285  1  0.17292341  0.33381998  0.50083324  1
  Au  Au286  1  0.16966722  0.33237753  -0.00240367  1
  Au  Au287  1  0.50256451  0.84804234  0.17804172  1
