# generated using pymatgen
data_Ca24Ti8Al207Au49
_symmetry_space_group_name_H-M   'P 1'
_cell_length_a   17.31711380
_cell_length_b   17.31766917
_cell_length_c   17.31606247
_cell_angle_alpha   90.00256640
_cell_angle_beta   89.99601417
_cell_angle_gamma   89.99669142
_symmetry_Int_Tables_number   1
_chemical_formula_structural   Ca24Ti8Al207Au49
_chemical_formula_sum   'Ca24 Ti8 Al207 Au49'
_cell_volume   5192.94940829
_cell_formula_units_Z   1
loop_
 _symmetry_equiv_pos_site_id
 _symmetry_equiv_pos_as_xyz
  1  'x, y, z'
loop_
 _atom_site_type_symbol
 _atom_site_label
 _atom_site_symmetry_multiplicity
 _atom_site_fract_x
 _atom_site_fract_y
 _atom_site_fract_z
 _atom_site_occupancy
  Ca  Ca0  1  0.24635356  0.00140598  -0.00179720  1
  Ca  Ca1  1  0.25214962  -0.00424049  0.50277870  1
  Ca  Ca2  1  0.25438391  0.50093670  -0.00766032  1
  Ca  Ca3  1  0.25124154  0.50235277  0.50421781  1
  Ca  Ca4  1  0.74744947  -0.00535097  0.00029930  1
  Ca  Ca5  1  0.74877454  -0.00111786  0.50334876  1
  Ca  Ca6  1  0.74426624  0.50418222  0.00067913  1
  Ca  Ca7  1  0.74878452  0.50191950  0.49628434  1
  Ca  Ca8  1  0.00131079  0.24939051  -0.00083817  1
  Ca  Ca9  1  -0.00286347  0.24595918  0.49734065  1
  Ca  Ca10  1  -0.00912365  0.75001429  -0.00456478  1
  Ca  Ca11  1  -0.00270186  0.75243287  0.50243832  1
  Ca  Ca12  1  0.49950635  0.25526505  0.00135004  1
  Ca  Ca13  1  0.50315508  0.25120502  0.49639225  1
  Ca  Ca14  1  0.50528602  0.75041093  -0.00073052  1
  Ca  Ca15  1  0.50273100  0.74781848  0.49907528  1
  Ca  Ca16  1  -0.00331986  -0.00557245  0.25212719  1
  Ca  Ca17  1  -0.00584780  -0.00520531  0.74923054  1
  Ca  Ca18  1  -0.00630813  0.50015389  0.25063332  1
  Ca  Ca19  1  -0.00667207  0.50374192  0.75384493  1
  Ca  Ca20  1  0.50294080  -0.00332301  0.25227195  1
  Ca  Ca21  1  0.50216485  -0.00302723  0.74785451  1
  Ca  Ca22  1  0.50788784  0.50180585  0.24911486  1
  Ca  Ca23  1  0.50716199  0.50110243  0.75083240  1
  Ti  Ti24  1  0.25309931  0.25038878  0.24951608  1
  Ti  Ti25  1  0.25240915  0.24933797  0.74987311  1
  Ti  Ti26  1  0.25063554  0.75122733  0.25137043  1
  Ti  Ti27  1  0.25128607  0.74906303  0.74991370  1
  Ti  Ti28  1  0.74817927  0.25127907  0.24955700  1
  Ti  Ti29  1  0.74948271  0.24956929  0.74886648  1
  Ti  Ti30  1  0.75040738  0.74962351  0.24989792  1
  Ti  Ti31  1  0.74904490  0.75159955  0.74852752  1
  Al  Al32  1  0.07883258  0.08219343  0.07959142  1
  Al  Al33  1  0.07324310  0.07939814  0.58314455  1
  Al  Al34  1  0.06108003  0.57987905  0.07162604  1
  Al  Al35  1  0.07760899  0.59599333  0.59313055  1
  Al  Al36  1  0.58018474  0.08456928  0.09341408  1
  Al  Al37  1  0.57691278  0.08497245  0.58688794  1
  Al  Al38  1  0.59239460  0.58397795  0.09328629  1
  Al  Al39  1  0.59241281  0.58078310  0.59398157  1
  Al  Al40  1  0.42242074  0.40557535  0.07782104  1
  Al  Al41  1  0.42161490  0.42085362  0.57969858  1
  Al  Al42  1  0.43411775  0.90901297  0.09238775  1
  Al  Al43  1  0.42496320  0.91228715  0.58527033  1
  Al  Al44  1  0.91253606  0.42449142  0.08445514  1
  Al  Al45  1  0.91373266  0.42358668  0.57617464  1
  Al  Al46  1  0.90488979  0.90799055  0.07290640  1
  Al  Al47  1  0.90707692  0.91124718  0.58907473  1
  Al  Al48  1  0.41816445  0.09063647  0.42383544  1
  Al  Al49  1  0.41576917  0.08725051  0.92720609  1
  Al  Al50  1  0.42613405  0.59159631  0.42015731  1
  Al  Al51  1  0.42429492  0.57542417  0.90316692  1
  Al  Al52  1  0.91770360  0.07291891  0.42406138  1
  Al  Al53  1  0.91662559  0.08456971  0.90949111  1
  Al  Al54  1  0.90869992  0.58157131  0.41496710  1
  Al  Al55  1  0.91216785  0.59815267  0.91141237  1
  Al  Al56  1  0.06654524  0.41893435  0.42046808  1
  Al  Al57  1  0.09459432  0.42550836  0.91050675  1
  Al  Al58  1  0.09633686  0.91020387  0.41897521  1
  Al  Al59  1  0.06909213  0.90946608  0.91446661  1
  Al  Al60  1  0.59325955  0.41544270  0.41563974  1
  Al  Al61  1  0.58332676  0.42618927  0.92067188  1
  Al  Al62  1  0.58796728  0.91378723  0.40219303  1
  Al  Al63  1  0.59462509  0.90938141  0.91658042  1
  Al  Al64  1  0.09129246  0.06860592  0.41231263  1
  Al  Al65  1  0.07530889  0.08694184  0.91140244  1
  Al  Al66  1  0.07571472  0.58652890  0.42684522  1
  Al  Al67  1  0.07583061  0.58684580  0.89874203  1
  Al  Al68  1  0.58542586  0.07477799  0.41211710  1
  Al  Al69  1  0.58486378  0.07377444  0.91825932  1
  Al  Al70  1  0.58754033  0.58203209  0.40912015  1
  Al  Al71  1  0.58656116  0.58828600  0.90701440  1
  Al  Al72  1  0.42815280  0.41570572  0.41764794  1
  Al  Al73  1  0.40836546  0.41532566  0.91579744  1
  Al  Al74  1  0.42742523  0.90954999  0.41345558  1
  Al  Al75  1  0.43082542  0.91982556  0.91839297  1
  Al  Al76  1  0.90720182  0.41977640  0.40660484  1
  Al  Al77  1  0.91801869  0.42810982  0.92004323  1
  Al  Al78  1  0.91099103  0.91178829  0.42497007  1
  Al  Al79  1  0.90896475  0.89921775  0.91088447  1
  Al  Al80  1  0.07613619  0.41483989  0.07194072  1
  Al  Al81  1  0.07617540  0.42982313  0.57992602  1
  Al  Al82  1  0.07340347  0.91965032  0.07654140  1
  Al  Al83  1  0.08234519  0.90694886  0.58027765  1
  Al  Al84  1  0.58476579  0.41580151  0.09019043  1
  Al  Al85  1  0.59763557  0.41792158  0.58396630  1
  Al  Al86  1  0.59287224  0.90441665  0.08864758  1
  Al  Al87  1  0.58138140  0.91442112  0.58884460  1
  Al  Al88  1  0.42110272  0.10166796  0.08661970  1
  Al  Al89  1  0.41754006  0.10056346  0.58309190  1
  Al  Al90  1  0.43401027  0.58582945  0.08650852  1
  Al  Al91  1  0.42384921  0.58613081  0.58299536  1
  Al  Al92  1  0.92247469  0.07444454  0.07911867  1
  Al  Al93  1  0.91222526  0.07449563  0.59573795  1
  Al  Al94  1  0.90290274  0.59241457  0.07771096  1
  Al  Al95  1  0.91718780  0.59156108  0.59088326  1
  Al  Al96  1  0.24968274  0.13689594  0.13514008  1
  Al  Al97  1  0.25413020  0.13181561  0.63481694  1
  Al  Al98  1  0.25881427  0.63809602  0.13572000  1
  Al  Al99  1  0.24713942  0.63708013  0.63890689  1
  Al  Al100  1  0.74675643  0.13601925  0.13255302  1
  Al  Al101  1  0.75198635  0.12679494  0.63471458  1
  Al  Al102  1  0.74901046  0.63749080  0.13234950  1
  Al  Al103  1  0.74895445  0.63847095  0.63784124  1
  Al  Al104  1  0.26090231  0.36329612  0.13147783  1
  Al  Al105  1  0.25600354  0.36400380  0.63501221  1
  Al  Al106  1  0.24831409  0.86351611  0.14096171  1
  Al  Al107  1  0.24775617  0.86202250  0.63913652  1
  Al  Al108  1  0.74559802  0.36853814  0.13386720  1
  Al  Al109  1  0.74731904  0.36634619  0.62792989  1
  Al  Al110  1  0.74815839  0.86201606  0.13357334  1
  Al  Al111  1  0.75245167  0.86951244  0.63851115  1
  Al  Al112  1  0.25254804  0.13706469  0.36576120  1
  Al  Al113  1  0.25269116  0.13433210  0.86285828  1
  Al  Al114  1  0.24896680  0.63729405  0.36476587  1
  Al  Al115  1  0.25300173  0.63451824  0.86128342  1
  Al  Al116  1  0.74521013  0.13538380  0.36611862  1
  Al  Al117  1  0.74965559  0.13292096  0.86744526  1
  Al  Al118  1  0.75158893  0.63687423  0.36452752  1
  Al  Al119  1  0.74838101  0.63955833  0.86411121  1
  Al  Al120  1  0.25885541  0.36699642  0.36366656  1
  Al  Al121  1  0.25771110  0.36659905  0.86521568  1
  Al  Al122  1  0.24441671  0.86532220  0.36626435  1
  Al  Al123  1  0.24969309  0.86240854  0.85957285  1
  Al  Al124  1  0.74746785  0.36739115  0.36733663  1
  Al  Al125  1  0.74638265  0.36631376  0.86432089  1
  Al  Al126  1  0.74851892  0.86171032  0.36244661  1
  Al  Al127  1  0.75125204  0.86026310  0.86679348  1
  Al  Al128  1  0.13661382  0.25319861  0.13262453  1
  Al  Al129  1  0.13774476  0.24781691  0.63667705  1
  Al  Al130  1  0.13317904  0.75166052  0.13631394  1
  Al  Al131  1  0.12902133  0.74858432  0.63600462  1
  Al  Al132  1  0.62803981  0.25033880  0.13791103  1
  Al  Al133  1  0.63907143  0.24909859  0.63270435  1
  Al  Al134  1  0.63104545  0.75145435  0.13411351  1
  Al  Al135  1  0.62990769  0.75150473  0.63633113  1
  Al  Al136  1  0.13790895  0.25467219  0.36535489  1
  Al  Al137  1  0.13681097  0.24688392  0.86596547  1
  Al  Al138  1  0.13146800  0.74965954  0.37384072  1
  Al  Al139  1  0.13075313  0.74910980  0.86173067  1
  Al  Al140  1  0.63596684  0.25485237  0.36699773  1
  Al  Al141  1  0.63700209  0.24752608  0.86246004  1
  Al  Al142  1  0.63336875  0.75048208  0.36336084  1
  Al  Al143  1  0.63003050  0.75101135  0.86261420  1
  Al  Al144  1  0.37385950  0.25058770  0.13730980  1
  Al  Al145  1  0.36810506  0.24904686  0.63008803  1
  Al  Al146  1  0.37272493  0.75134346  0.13770872  1
  Al  Al147  1  0.37302057  0.75048607  0.63770349  1
  Al  Al148  1  0.86131727  0.25463608  0.13375762  1
  Al  Al149  1  0.85894968  0.25045862  0.63106876  1
  Al  Al150  1  0.86055069  0.75175773  0.12926534  1
  Al  Al151  1  0.86573102  0.75164402  0.63255497  1
  Al  Al152  1  0.36697687  0.24830539  0.36780603  1
  Al  Al153  1  0.36725922  0.25088828  0.86484906  1
  Al  Al154  1  0.36669625  0.75519332  0.36391967  1
  Al  Al155  1  0.37469622  0.74760446  0.86116561  1
  Al  Al156  1  0.85839696  0.25310704  0.37178736  1
  Al  Al157  1  0.86381922  0.24680441  0.86366353  1
  Al  Al158  1  0.86673369  0.75070020  0.37136914  1
  Al  Al159  1  0.86495986  0.74867061  0.86443513  1
  Al  Al160  1  0.13926354  0.13489984  0.25283066  1
  Al  Al161  1  0.13606911  0.13229758  0.75124522  1
  Al  Al162  1  0.13356981  0.63908617  0.25261243  1
  Al  Al163  1  0.12964985  0.63771218  0.75302204  1
  Al  Al164  1  0.63398099  0.13631677  0.24887300  1
  Al  Al165  1  0.63483369  0.13410285  0.74489862  1
  Al  Al166  1  0.63429105  0.63717402  0.24510219  1
  Al  Al167  1  0.63213384  0.63669430  0.75001271  1
  Al  Al168  1  0.36871387  0.13587031  0.24685071  1
  Al  Al169  1  0.36891463  0.13543688  0.74404555  1
  Al  Al170  1  0.36656680  0.63400731  0.25233462  1
  Al  Al171  1  0.37379154  0.63614289  0.74931071  1
  Al  Al172  1  0.86165463  0.13697490  0.25188472  1
  Al  Al173  1  0.86038711  0.12876749  0.75184041  1
  Al  Al174  1  0.86376685  0.63814279  0.25311171  1
  Al  Al175  1  0.86897960  0.63978065  0.75019994  1
  Al  Al176  1  0.13864288  0.36598263  0.24597588  1
  Al  Al177  1  0.13928578  0.36621340  0.75844769  1
  Al  Al178  1  0.12750569  0.86204883  0.25685779  1
  Al  Al179  1  0.12406188  0.86094134  0.74905533  1
  Al  Al180  1  0.63521088  0.36802233  0.24522072  1
  Al  Al181  1  0.63864965  0.36872574  0.74709591  1
  Al  Al182  1  0.63086664  0.86099448  0.25009867  1
  Al  Al183  1  0.63097962  0.86411926  0.74954288  1
  Al  Al184  1  0.36984841  0.36533431  0.24809638  1
  Al  Al185  1  0.36863736  0.36428639  0.75119627  1
  Al  Al186  1  0.36676845  0.86721720  0.25141491  1
  Al  Al187  1  0.37122191  0.86548979  0.74961258  1
  Al  Al188  1  0.86021330  0.36731209  0.25201090  1
  Al  Al189  1  0.86129304  0.36488589  0.75206302  1
  Al  Al190  1  0.87024121  0.85917605  0.25106769  1
  Al  Al191  1  0.86941855  0.86276837  0.74989590  1
  Al  Al192  1  0.50130995  0.16910529  0.81600312  1
  Al  Al193  1  0.80982337  0.50253701  0.18887768  1
  Al  Al194  1  0.68983375  0.50214680  0.31027663  1
  Al  Al195  1  0.81461692  0.50396395  0.82925843  1
  Al  Al196  1  -0.00268424  0.17163458  0.68789146  1
  Al  Al197  1  -0.00122794  0.32738253  0.67178740  1
  Al  Al198  1  0.67454385  0.17284663  0.50007981  1
  Al  Al199  1  0.17915312  0.17109687  0.50004638  1
  Al  Al200  1  0.17164113  0.50393638  0.16370082  1
  Al  Al201  1  0.67501720  0.32081001  -0.00047430  1
  Al  Al202  1  0.50343062  0.32506451  0.31493330  1
  Al  Al203  1  0.16720130  0.66855102  -0.00309388  1
  Al  Al204  1  0.50351872  0.31668267  0.66912038  1
  Al  Al205  1  0.00014453  0.31751558  0.83136866  1
  Al  Al206  1  0.17443783  -0.00499141  0.67501862  1
  Al  Al207  1  0.33051158  -0.00030335  0.16897463  1
  Al  Al208  1  0.17267295  0.82719277  -0.00155897  1
  Al  Al209  1  0.32924596  0.82689165  0.00018274  1
  Al  Al210  1  -0.00070307  0.18055281  0.17473259  1
  Al  Al211  1  0.81155364  0.50091562  0.67328455  1
  Al  Al212  1  0.32846973  0.50139350  0.68799051  1
  Al  Al213  1  0.18162011  0.33105667  0.50033236  1
  Al  Al214  1  -0.00411179  0.67924100  0.17677047  1
  Al  Al215  1  0.82622051  -0.00206395  0.17309342  1
  Al  Al216  1  0.82564108  0.17590887  0.00370008  1
  Al  Al217  1  0.33734063  0.49872064  0.17352655  1
  Al  Al218  1  0.68034297  0.68584622  -0.00112628  1
  Al  Al219  1  0.50109676  0.68473450  0.31469372  1
  Al  Al220  1  0.31816623  0.19315208  0.00096573  1
  Al  Al221  1  0.68459805  -0.00245784  0.81885944  1
  Al  Al222  1  0.17008012  -0.00241945  0.18770422  1
  Al  Al223  1  0.67359959  -0.00161776  0.18630550  1
  Al  Al224  1  0.31807396  0.67307864  0.50177204  1
  Al  Al225  1  0.17058375  0.50099082  0.68854907  1
  Al  Al226  1  0.68041000  0.67328092  0.50017833  1
  Al  Al227  1  0.32478688  -0.00023953  0.82293948  1
  Al  Al228  1  0.80773617  -0.00071816  0.32834526  1
  Al  Al229  1  0.31759804  0.00026010  0.33170851  1
  Al  Al230  1  0.19007920  0.32103569  -0.00240452  1
  Al  Al231  1  0.31945127  0.82978654  0.50185550  1
  Al  Al232  1  0.50370757  0.32867004  0.82869714  1
  Al  Al233  1  0.50161316  0.17237026  0.31964577  1
  Al  Al234  1  -0.00035643  0.17384517  0.33475636  1
  Al  Al235  1  -0.00195557  0.32518554  0.31590719  1
  Al  Al236  1  0.68315351  0.82979299  0.50171988  1
  Al  Al237  1  0.33577157  0.66685638  -0.00351940  1
  Al  Al238  1  0.17642075  0.49895519  0.33021443  1
  Au  Au239  1  0.34059290  0.32499176  0.49743361  1
  Au  Au240  1  0.00055776  0.33402247  0.83618289  1
  Au  Au241  1  -0.00225693  0.31879332  0.65685802  1
  Au  Au242  1  0.16526647  0.33639581  0.50018083  1
  Au  Au243  1  0.82255298  0.33792085  0.49618792  1
  Au  Au244  1  0.33271212  0.50246728  0.67132459  1
  Au  Au245  1  0.82146403  0.50596259  0.17703566  1
  Au  Au246  1  0.33184646  -0.00057990  0.83810666  1
  Au  Au247  1  0.16684687  0.67478444  0.50450241  1
  Au  Au248  1  0.16439236  0.49904194  0.34128541  1
  Au  Au249  1  0.15578963  0.50805938  0.16414935  1
  Au  Au250  1  0.15463142  0.50304041  0.68347302  1
  Au  Au251  1  0.65981092  0.17025731  0.00378729  1
  Au  Au252  1  0.50385967  0.67395705  0.66987649  1
  Au  Au253  1  -0.00349214  0.66208275  0.32602427  1
  Au  Au254  1  0.66692944  0.82930914  0.49841217  1
  Au  Au255  1  0.82352629  0.34129097  -0.00331305  1
  Au  Au256  1  0.34154151  0.00446552  0.16505301  1
  Au  Au257  1  0.66734275  0.00042766  0.67185947  1
  Au  Au258  1  0.82467638  -0.00395861  0.32772976  1
  Au  Au259  1  0.33977803  0.00297069  0.66156625  1
  Au  Au260  1  0.15155463  0.67451573  -0.00530762  1
  Au  Au261  1  0.17497149  0.15473438  0.50158043  1
  Au  Au262  1  -0.00489487  0.82601396  0.15876441  1
  Au  Au263  1  0.66925290  0.67329551  -0.00062424  1
  Au  Au264  1  0.32949214  0.84203487  0.00659041  1
  Au  Au265  1  0.00080889  0.83283575  0.33892823  1
  Au  Au266  1  0.17223363  0.16045886  -0.00310141  1
  Au  Au267  1  0.00552241  0.16048713  0.32576225  1
  Au  Au268  1  0.15316953  -0.00664108  0.82911269  1
  Au  Au269  1  0.66224838  0.17516123  0.49831532  1
  Au  Au270  1  0.33147707  0.00029235  0.34102684  1
  Au  Au271  1  0.50215474  0.16777837  0.83288586  1
  Au  Au272  1  0.83559032  0.16499169  0.50632618  1
  Au  Au273  1  0.50689412  0.33331657  0.66990137  1
  Au  Au274  1  0.33820306  0.49649217  0.16116337  1
  Au  Au275  1  0.34232663  0.50377136  0.33773004  1
  Au  Au276  1  0.50351290  0.82714014  0.82895909  1
  Au  Au277  1  -0.00311764  0.82371722  0.67009167  1
  Au  Au278  1  0.18319989  0.33653823  -0.00220053  1
  Au  Au279  1  0.82786336  0.50128035  0.67823341  1
  Au  Au280  1  0.16204121  -0.00253519  0.17266210  1
  Au  Au281  1  0.33516400  0.82315305  0.50209479  1
  Au  Au282  1  0.83301154  -0.00532821  0.82708782  1
  Au  Au283  1  0.83178001  0.67334388  0.50125263  1
  Au  Au284  1  -0.00276157  0.33005790  0.16537677  1
  Au  Au285  1  0.34749337  0.66433331  -0.00719588  1
  Au  Au286  1  0.83460624  0.16729165  0.00193119  1
  Au  Au287  1  0.16590314  -0.00286190  0.66602382  1
