# generated using pymatgen
data_Ca24Ti8Al207Au49
_symmetry_space_group_name_H-M   'P 1'
_cell_length_a   17.32376778
_cell_length_b   17.32196861
_cell_length_c   17.32135584
_cell_angle_alpha   89.99802463
_cell_angle_beta   89.99974896
_cell_angle_gamma   89.99754083
_symmetry_Int_Tables_number   1
_chemical_formula_structural   Ca24Ti8Al207Au49
_chemical_formula_sum   'Ca24 Ti8 Al207 Au49'
_cell_volume   5197.82296708
_cell_formula_units_Z   1
loop_
 _symmetry_equiv_pos_site_id
 _symmetry_equiv_pos_as_xyz
  1  'x, y, z'
loop_
 _atom_site_type_symbol
 _atom_site_label
 _atom_site_symmetry_multiplicity
 _atom_site_fract_x
 _atom_site_fract_y
 _atom_site_fract_z
 _atom_site_occupancy
  Ca  Ca0  1  0.24629926  -0.00297582  -0.00106528  1
  Ca  Ca1  1  0.24744562  -0.00489880  0.50072019  1
  Ca  Ca2  1  0.25025567  0.50021994  0.00516662  1
  Ca  Ca3  1  0.25214027  0.50279009  0.49835626  1
  Ca  Ca4  1  0.75366184  -0.00251570  -0.00040478  1
  Ca  Ca5  1  0.74863744  0.00162825  0.49932141  1
  Ca  Ca6  1  0.74739065  0.50086051  0.00362846  1
  Ca  Ca7  1  0.74941131  0.49747528  0.49779334  1
  Ca  Ca8  1  0.00035415  0.24807311  -0.00053923  1
  Ca  Ca9  1  0.00064220  0.25047640  0.49976323  1
  Ca  Ca10  1  -0.00022437  0.75694855  -0.00269025  1
  Ca  Ca11  1  0.00468497  0.74937494  0.49950843  1
  Ca  Ca12  1  0.49967363  0.25146531  -0.00005758  1
  Ca  Ca13  1  0.50070399  0.25375689  0.49940542  1
  Ca  Ca14  1  0.50117055  0.75227511  -0.00174668  1
  Ca  Ca15  1  0.49426907  0.75155322  0.49962330  1
  Ca  Ca16  1  0.00100739  -0.00497210  0.24955859  1
  Ca  Ca17  1  0.00494415  -0.00435114  0.75254690  1
  Ca  Ca18  1  -0.00344419  0.50480138  0.25267686  1
  Ca  Ca19  1  0.00151127  0.50622157  0.74850397  1
  Ca  Ca20  1  0.49477149  -0.00003560  0.25225087  1
  Ca  Ca21  1  0.49699506  -0.00517318  0.75025260  1
  Ca  Ca22  1  0.50111758  0.49667118  0.25529787  1
  Ca  Ca23  1  0.50018197  0.49974173  0.74695331  1
  Ti  Ti24  1  0.24700285  0.25039526  0.25298832  1
  Ti  Ti25  1  0.24830316  0.24941717  0.74774585  1
  Ti  Ti26  1  0.24920261  0.74947030  0.25083284  1
  Ti  Ti27  1  0.24926009  0.75113327  0.74856617  1
  Ti  Ti28  1  0.75304259  0.24957121  0.25225829  1
  Ti  Ti29  1  0.75062873  0.25076120  0.74818406  1
  Ti  Ti30  1  0.75015278  0.75036388  0.24976056  1
  Ti  Ti31  1  0.74976173  0.74910497  0.75011297  1
  Al  Al32  1  0.07964072  0.07633776  0.07960397  1
  Al  Al33  1  0.07724479  0.07362236  0.57779690  1
  Al  Al34  1  0.07526417  0.59590580  0.08934923  1
  Al  Al35  1  0.07966262  0.59484203  0.57838121  1
  Al  Al36  1  0.58908760  0.07552408  0.08559733  1
  Al  Al37  1  0.58631741  0.08036402  0.58230668  1
  Al  Al38  1  0.58841640  0.57594601  0.08717476  1
  Al  Al39  1  0.57722781  0.58408834  0.58454214  1
  Al  Al40  1  0.42901752  0.41574075  0.08013375  1
  Al  Al41  1  0.41707675  0.41137689  0.57842292  1
  Al  Al42  1  0.41934838  0.91753051  0.07566564  1
  Al  Al43  1  0.41528959  0.90051598  0.58376404  1
  Al  Al44  1  0.91352227  0.42685315  0.08422551  1
  Al  Al45  1  0.91382917  0.41824092  0.57881315  1
  Al  Al46  1  0.90864218  0.91082099  0.08388111  1
  Al  Al47  1  0.91651336  0.91535929  0.59280080  1
  Al  Al48  1  0.41670188  0.08176741  0.41305688  1
  Al  Al49  1  0.41421125  0.08290756  0.91403281  1
  Al  Al50  1  0.41209574  0.59020954  0.42066173  1
  Al  Al51  1  0.42147646  0.58850982  0.90929464  1
  Al  Al52  1  0.91865261  0.07978175  0.42037745  1
  Al  Al53  1  0.92693623  0.07649763  0.92073730  1
  Al  Al54  1  0.92770243  0.58694512  0.41253169  1
  Al  Al55  1  0.92224389  0.59088154  0.91780069  1
  Al  Al56  1  0.09240753  0.42610971  0.41054408  1
  Al  Al57  1  0.07513843  0.40689970  0.91454734  1
  Al  Al58  1  0.09459177  0.90926788  0.41482489  1
  Al  Al59  1  0.08863630  0.90936662  0.91169348  1
  Al  Al60  1  0.58272518  0.40827024  0.41327374  1
  Al  Al61  1  0.58053997  0.41987835  0.92213652  1
  Al  Al62  1  0.57209074  0.92213514  0.42298955  1
  Al  Al63  1  0.57662501  0.90308901  0.91502749  1
  Al  Al64  1  0.08910913  0.07124518  0.41226679  1
  Al  Al65  1  0.09040803  0.07329534  0.90805716  1
  Al  Al66  1  0.09040456  0.58880450  0.40699385  1
  Al  Al67  1  0.07748974  0.59764246  0.91438293  1
  Al  Al68  1  0.57869613  0.08834730  0.41725138  1
  Al  Al69  1  0.57208503  0.08135045  0.92057919  1
  Al  Al70  1  0.57631366  0.57717847  0.41828221  1
  Al  Al71  1  0.57641977  0.59210280  0.91213902  1
  Al  Al72  1  0.41782616  0.40864692  0.41669660  1
  Al  Al73  1  0.41988509  0.42118006  0.91709011  1
  Al  Al74  1  0.40490144  0.90895769  0.42108661  1
  Al  Al75  1  0.41599436  0.90977992  0.90942670  1
  Al  Al76  1  0.91537760  0.41832312  0.42035977  1
  Al  Al77  1  0.92129916  0.41008130  0.91258902  1
  Al  Al78  1  0.92518737  0.91961192  0.41652396  1
  Al  Al79  1  0.92305594  0.90863913  0.92034106  1
  Al  Al80  1  0.07908316  0.42050267  0.07875782  1
  Al  Al81  1  0.07906048  0.41789645  0.57344011  1
  Al  Al82  1  0.08671140  0.91232426  0.07733748  1
  Al  Al83  1  0.08519519  0.90707621  0.58034297  1
  Al  Al84  1  0.58995778  0.41680541  0.09306074  1
  Al  Al85  1  0.58236734  0.40910141  0.57664007  1
  Al  Al86  1  0.59044778  0.91680593  0.08414635  1
  Al  Al87  1  0.57670629  0.91658625  0.59366971  1
  Al  Al88  1  0.41747811  0.07852325  0.07293606  1
  Al  Al89  1  0.42316928  0.08008664  0.57875850  1
  Al  Al90  1  0.42624887  0.58252551  0.07682631  1
  Al  Al91  1  0.41300486  0.59372467  0.57955348  1
  Al  Al92  1  0.91232345  0.07125040  0.08946693  1
  Al  Al93  1  0.90916679  0.07569268  0.58746967  1
  Al  Al94  1  0.91454572  0.58815623  0.09315511  1
  Al  Al95  1  0.92247280  0.58135466  0.58778232  1
  Al  Al96  1  0.24492962  0.13719028  0.13745185  1
  Al  Al97  1  0.24463322  0.13528539  0.63067022  1
  Al  Al98  1  0.24548945  0.63625045  0.13474686  1
  Al  Al99  1  0.25344624  0.64213816  0.62570114  1
  Al  Al100  1  0.75331090  0.13472549  0.13658529  1
  Al  Al101  1  0.75343502  0.13551184  0.63088831  1
  Al  Al102  1  0.75104392  0.63625728  0.13627893  1
  Al  Al103  1  0.74440539  0.63657305  0.63510884  1
  Al  Al104  1  0.24666513  0.36514213  0.13760237  1
  Al  Al105  1  0.24841563  0.36344474  0.62930566  1
  Al  Al106  1  0.24384978  0.86201489  0.13462239  1
  Al  Al107  1  0.24816622  0.86356682  0.63258326  1
  Al  Al108  1  0.75013000  0.36405062  0.13707318  1
  Al  Al109  1  0.74610871  0.36329724  0.63386549  1
  Al  Al110  1  0.75638080  0.86511690  0.13381746  1
  Al  Al111  1  0.75236281  0.86300079  0.63579329  1
  Al  Al112  1  0.24484520  0.13504622  0.36692153  1
  Al  Al113  1  0.24542000  0.13516927  0.86160579  1
  Al  Al114  1  0.24936005  0.63299415  0.36869952  1
  Al  Al115  1  0.24576180  0.64270640  0.86547709  1
  Al  Al116  1  0.75283686  0.13651635  0.37147409  1
  Al  Al117  1  0.75102608  0.13657841  0.86225099  1
  Al  Al118  1  0.75062775  0.63552777  0.36624509  1
  Al  Al119  1  0.74959418  0.63636646  0.86404816  1
  Al  Al120  1  0.24895534  0.36892174  0.36743025  1
  Al  Al121  1  0.24910496  0.36020772  0.86888224  1
  Al  Al122  1  0.24821344  0.86192446  0.37182430  1
  Al  Al123  1  0.24693187  0.86463853  0.86325928  1
  Al  Al124  1  0.74870206  0.36569968  0.36550340  1
  Al  Al125  1  0.74958327  0.36577498  0.86490095  1
  Al  Al126  1  0.75044686  0.86519831  0.36654790  1
  Al  Al127  1  0.75381795  0.86426980  0.86404298  1
  Al  Al128  1  0.12612402  0.25156730  0.14012076  1
  Al  Al129  1  0.13186447  0.25131267  0.62974973  1
  Al  Al130  1  0.13292246  0.74786947  0.13632701  1
  Al  Al131  1  0.13741794  0.75163303  0.62747636  1
  Al  Al132  1  0.63960141  0.24805893  0.13641463  1
  Al  Al133  1  0.63788533  0.24926073  0.62747619  1
  Al  Al134  1  0.63149010  0.75234246  0.13579470  1
  Al  Al135  1  0.63197537  0.75424113  0.63430041  1
  Al  Al136  1  0.13230531  0.25323825  0.37015078  1
  Al  Al137  1  0.12908736  0.24857450  0.86204667  1
  Al  Al138  1  0.13801556  0.74892129  0.37246743  1
  Al  Al139  1  0.13331402  0.75676433  0.86926106  1
  Al  Al140  1  0.63759245  0.25253911  0.36979944  1
  Al  Al141  1  0.63575112  0.25068401  0.86186861  1
  Al  Al142  1  0.63403027  0.75039617  0.36381716  1
  Al  Al143  1  0.63116354  0.75074456  0.86279604  1
  Al  Al144  1  0.36128287  0.25372903  0.13872551  1
  Al  Al145  1  0.36356769  0.25243475  0.63027315  1
  Al  Al146  1  0.37160537  0.74813679  0.13688488  1
  Al  Al147  1  0.36619957  0.75360608  0.63253832  1
  Al  Al148  1  0.87007765  0.25098330  0.13895712  1
  Al  Al149  1  0.86780195  0.24908831  0.63396653  1
  Al  Al150  1  0.86688772  0.75039780  0.13384369  1
  Al  Al151  1  0.86616987  0.74470861  0.63290461  1
  Al  Al152  1  0.36217199  0.25562204  0.37054661  1
  Al  Al153  1  0.36333387  0.25059175  0.86282943  1
  Al  Al154  1  0.36121602  0.74979293  0.37024415  1
  Al  Al155  1  0.36809331  0.75215194  0.86307652  1
  Al  Al156  1  0.87278181  0.24793100  0.36371770  1
  Al  Al157  1  0.87157655  0.24758848  0.86190541  1
  Al  Al158  1  0.86659999  0.74988221  0.36733522  1
  Al  Al159  1  0.86692726  0.75297797  0.86571791  1
  Al  Al160  1  0.12979493  0.13221625  0.25212267  1
  Al  Al161  1  0.13145477  0.13177531  0.74802912  1
  Al  Al162  1  0.13106933  0.63835674  0.25639171  1
  Al  Al163  1  0.13611056  0.63998313  0.74393448  1
  Al  Al164  1  0.63786529  0.13694042  0.25482114  1
  Al  Al165  1  0.63682996  0.13745947  0.74477966  1
  Al  Al166  1  0.63576724  0.63247961  0.24604404  1
  Al  Al167  1  0.63220909  0.63267581  0.75201871  1
  Al  Al168  1  0.35992062  0.13797463  0.25540356  1
  Al  Al169  1  0.36256055  0.13607694  0.74657159  1
  Al  Al170  1  0.36144864  0.63400941  0.25290968  1
  Al  Al171  1  0.36329426  0.63814332  0.74946857  1
  Al  Al172  1  0.87030214  0.13420703  0.24915507  1
  Al  Al173  1  0.86917133  0.13462363  0.74779138  1
  Al  Al174  1  0.86962784  0.63926750  0.25096053  1
  Al  Al175  1  0.86582140  0.63566619  0.75009001  1
  Al  Al176  1  0.13082162  0.36609191  0.25461968  1
  Al  Al177  1  0.13510894  0.36313295  0.75079413  1
  Al  Al178  1  0.13632796  0.86467921  0.25548655  1
  Al  Al179  1  0.13572122  0.86809282  0.75039744  1
  Al  Al180  1  0.63724423  0.36297310  0.25016934  1
  Al  Al181  1  0.63683327  0.36995879  0.74961579  1
  Al  Al182  1  0.63645076  0.86508153  0.24775974  1
  Al  Al183  1  0.63209742  0.86214894  0.75133280  1
  Al  Al184  1  0.36455575  0.36614494  0.25822463  1
  Al  Al185  1  0.36156343  0.36466448  0.74804250  1
  Al  Al186  1  0.35934376  0.86268689  0.25022145  1
  Al  Al187  1  0.36670702  0.86118758  0.75039847  1
  Al  Al188  1  0.87008427  0.36456965  0.25283069  1
  Al  Al189  1  0.86436256  0.36379874  0.75144439  1
  Al  Al190  1  0.86708377  0.86491980  0.24840978  1
  Al  Al191  1  0.86747343  0.86211054  0.74780605  1
  Al  Al192  1  0.17608901  0.31780749  0.00037341  1
  Al  Al193  1  0.31269353  -0.00146200  0.32599514  1
  Al  Al194  1  0.00121811  0.81872445  0.17267601  1
  Al  Al195  1  0.31531923  0.82836420  0.00013773  1
  Al  Al196  1  0.82530883  0.82544833  0.49767872  1
  Al  Al197  1  0.67760016  0.49667962  0.31916300  1
  Al  Al198  1  0.81842228  0.00005379  0.31356147  1
  Al  Al199  1  0.81827044  0.49988328  0.67173809  1
  Al  Al200  1  0.49685122  0.82734423  0.32205521  1
  Al  Al201  1  0.68617639  -0.00098716  0.67413045  1
  Al  Al202  1  0.49823585  0.67438068  0.32244788  1
  Al  Al203  1  0.49874738  0.68783330  0.68708130  1
  Al  Al204  1  0.67013003  0.67349436  0.00029610  1
  Al  Al205  1  0.82816300  0.50002462  0.82753411  1
  Al  Al206  1  0.00240278  0.81531685  0.32557277  1
  Al  Al207  1  0.00256834  0.80721270  0.68837713  1
  Al  Al208  1  0.69151567  -0.00033393  0.18235454  1
  Al  Al209  1  0.31623306  -0.00036499  0.82675412  1
  Al  Al210  1  0.32185323  -0.00227752  0.67135717  1
  Al  Al211  1  0.81050337  0.50039144  0.18363207  1
  Al  Al212  1  0.31904198  0.17967313  0.00010821  1
  Al  Al213  1  0.32302530  0.67353498  -0.00175033  1
  Al  Al214  1  0.67391604  0.67716225  0.49580568  1
  Al  Al215  1  0.68676215  0.82451920  -0.00070782  1
  Al  Al216  1  0.49842778  0.17508258  0.16861778  1
  Al  Al217  1  0.32682702  0.00038705  0.17160813  1
  Al  Al218  1  0.32513249  0.50163367  0.82495936  1
  Al  Al219  1  0.81463958  0.31916135  0.49932631  1
  Al  Al220  1  0.66874208  0.00033249  0.82755508  1
  Al  Al221  1  0.50047931  0.32495209  0.18937406  1
  Al  Al222  1  0.50060003  0.31730346  0.67977664  1
  Al  Al223  1  0.32154564  0.17352448  0.50020245  1
  Al  Al224  1  0.82760265  0.32689582  0.00033723  1
  Al  Al225  1  0.17373577  0.50225906  0.67060283  1
  Al  Al226  1  0.16935256  0.50038509  0.83145021  1
  Al  Al227  1  0.32899091  0.50093721  0.67004138  1
  Al  Al228  1  0.49888860  0.19107420  0.32542058  1
  Al  Al229  1  0.32818483  0.49820977  0.17919255  1
  Al  Al230  1  -0.00036662  0.32405877  0.68258271  1
  Al  Al231  1  0.00156957  0.69558080  0.80617869  1
  Al  Al232  1  0.82563005  0.68596217  0.00037607  1
  Al  Al233  1  0.17505608  -0.00141663  0.18534389  1
  Al  Al234  1  0.16884448  0.50324582  0.18625113  1
  Al  Al235  1  0.83057695  -0.00142481  0.81567349  1
  Al  Al236  1  0.49870556  0.18111469  0.81794348  1
  Al  Al237  1  0.67349746  0.32219587  0.00086226  1
  Al  Al238  1  0.82043385  0.17046598  -0.00116379  1
  Au  Au239  1  0.66431767  0.50315804  0.83470439  1
  Au  Au240  1  0.00462052  0.16421153  0.33489506  1
  Au  Au241  1  0.00195689  0.82012783  0.67722406  1
  Au  Au242  1  0.34012935  0.32735122  0.00117092  1
  Au  Au243  1  0.17338179  0.50690625  0.65517001  1
  Au  Au244  1  0.16613116  0.32557219  0.00180245  1
  Au  Au245  1  0.32699618  0.49911374  0.34306783  1
  Au  Au246  1  0.65908980  0.83303198  0.50231674  1
  Au  Au247  1  0.17673930  0.33703695  0.49670950  1
  Au  Au248  1  0.83467693  0.50435016  0.32883373  1
  Au  Au249  1  -0.00470568  0.33423574  0.16588418  1
  Au  Au250  1  0.83494353  0.17249113  0.50168615  1
  Au  Au251  1  0.83036189  0.67398967  0.00034449  1
  Au  Au252  1  0.17057145  -0.00188553  0.17334222  1
  Au  Au253  1  0.83339220  -0.00056337  0.32136963  1
  Au  Au254  1  0.00246271  0.33626758  0.33539242  1
  Au  Au255  1  0.66868349  0.49497317  0.65954824  1
  Au  Au256  1  0.83991358  0.50381542  0.83009410  1
  Au  Au257  1  0.83688411  0.17068867  0.00273373  1
  Au  Au258  1  0.17309457  0.67630929  0.49812196  1
  Au  Au259  1  0.16518201  0.16525708  0.49911149  1
  Au  Au260  1  0.15972792  0.68187101  0.00260770  1
  Au  Au261  1  0.65315414  -0.00330111  0.82601080  1
  Au  Au262  1  0.33402377  0.17366928  0.50272432  1
  Au  Au263  1  0.66665463  0.17685309  0.49839779  1
  Au  Au264  1  0.65521090  -0.00034020  0.32634035  1
  Au  Au265  1  0.50300556  0.16698509  0.67065459  1
  Au  Au266  1  0.83390832  0.83439616  0.49988571  1
  Au  Au267  1  0.33738073  -0.00697763  0.67247990  1
  Au  Au268  1  0.50492334  0.66300244  0.17366485  1
  Au  Au269  1  0.49864494  0.83931778  0.17189279  1
  Au  Au270  1  0.17190241  0.16073145  -0.00255099  1
  Au  Au271  1  0.66839742  0.49907051  0.32727087  1
  Au  Au272  1  0.84476486  -0.00555652  0.82386463  1
  Au  Au273  1  -0.00117440  0.33936573  0.67475056  1
  Au  Au274  1  0.66522000  0.66828227  0.49803538  1
  Au  Au275  1  0.50080092  0.33178376  0.82920656  1
  Au  Au276  1  0.17284817  0.50019433  0.84790992  1
  Au  Au277  1  0.16280420  -0.00216534  0.67254224  1
  Au  Au278  1  0.33802881  0.49822560  0.16556104  1
  Au  Au279  1  0.49598154  0.67622953  0.67487940  1
  Au  Au280  1  0.49455757  0.16145196  0.17685645  1
  Au  Au281  1  0.00313415  0.17209705  0.83607294  1
  Au  Au282  1  0.65862371  0.17281083  -0.00267686  1
  Au  Au283  1  -0.00174000  0.16309727  0.16757274  1
  Au  Au284  1  0.15490306  0.50428730  0.17665091  1
  Au  Au285  1  0.84196901  0.66896227  0.50127272  1
  Au  Au286  1  0.33533090  0.67712225  -0.00216262  1
  Au  Au287  1  -0.00111532  0.15956279  0.67008280  1
