# generated using pymatgen
data_Ca24Ti8Al207Au49
_symmetry_space_group_name_H-M   'P 1'
_cell_length_a   17.32582819
_cell_length_b   17.32544626
_cell_length_c   17.32599396
_cell_angle_alpha   90.00522924
_cell_angle_beta   89.99759023
_cell_angle_gamma   89.99813265
_symmetry_Int_Tables_number   1
_chemical_formula_structural   Ca24Ti8Al207Au49
_chemical_formula_sum   'Ca24 Ti8 Al207 Au49'
_cell_volume   5200.87707752
_cell_formula_units_Z   1
loop_
 _symmetry_equiv_pos_site_id
 _symmetry_equiv_pos_as_xyz
  1  'x, y, z'
loop_
 _atom_site_type_symbol
 _atom_site_label
 _atom_site_symmetry_multiplicity
 _atom_site_fract_x
 _atom_site_fract_y
 _atom_site_fract_z
 _atom_site_occupancy
  Ca  Ca0  1  0.25283539  -0.00160097  -0.00610046  1
  Ca  Ca1  1  0.24994844  -0.00029666  0.50497893  1
  Ca  Ca2  1  0.25338687  0.50021421  -0.00214253  1
  Ca  Ca3  1  0.24947505  0.50089302  0.50129115  1
  Ca  Ca4  1  0.74763421  0.00294428  -0.00581230  1
  Ca  Ca5  1  0.75128333  0.00025184  0.50308351  1
  Ca  Ca6  1  0.75163371  0.49617216  -0.00075841  1
  Ca  Ca7  1  0.75399938  0.49985672  0.49971929  1
  Ca  Ca8  1  -0.00175436  0.25253020  0.00071634  1
  Ca  Ca9  1  0.00179738  0.25215102  0.49834570  1
  Ca  Ca10  1  0.00277573  0.75177424  0.00295735  1
  Ca  Ca11  1  -0.00381186  0.74851595  0.49667494  1
  Ca  Ca12  1  0.50175504  0.24833149  -0.00292119  1
  Ca  Ca13  1  0.49948535  0.24980435  0.50199441  1
  Ca  Ca14  1  0.49668115  0.75105602  -0.00040001  1
  Ca  Ca15  1  0.50067114  0.74978369  0.50005122  1
  Ca  Ca16  1  -0.00037236  0.00013919  0.25249388  1
  Ca  Ca17  1  0.00219183  0.00043285  0.75443390  1
  Ca  Ca18  1  -0.00041595  0.49862641  0.24753797  1
  Ca  Ca19  1  -0.00134843  0.49816336  0.75414953  1
  Ca  Ca20  1  0.50079296  -0.00221948  0.24816119  1
  Ca  Ca21  1  0.49866222  0.00188462  0.75743062  1
  Ca  Ca22  1  0.50090158  0.49971128  0.24777332  1
  Ca  Ca23  1  0.49876854  0.50069245  0.75564219  1
  Ti  Ti24  1  0.24972888  0.25034779  0.24821981  1
  Ti  Ti25  1  0.25003876  0.24941738  0.75155212  1
  Ti  Ti26  1  0.24934103  0.74982377  0.24895338  1
  Ti  Ti27  1  0.25156510  0.75033956  0.75125953  1
  Ti  Ti28  1  0.74915835  0.25090415  0.24907184  1
  Ti  Ti29  1  0.74993670  0.24950311  0.75030213  1
  Ti  Ti30  1  0.75007513  0.74903975  0.24954030  1
  Ti  Ti31  1  0.74891998  0.74997894  0.75010383  1
  Al  Al32  1  0.07712594  0.09363730  0.08146541  1
  Al  Al33  1  0.08383253  0.07773911  0.58670334  1
  Al  Al34  1  0.07988113  0.59073275  0.07747170  1
  Al  Al35  1  0.07632017  0.57687910  0.57775061  1
  Al  Al36  1  0.58155195  0.08792098  0.07425219  1
  Al  Al37  1  0.58324749  0.08237142  0.58594342  1
  Al  Al38  1  0.57477906  0.57792774  0.08530923  1
  Al  Al39  1  0.58246761  0.58159720  0.57996318  1
  Al  Al40  1  0.42456715  0.40848242  0.08154019  1
  Al  Al41  1  0.41417280  0.41929138  0.58277419  1
  Al  Al42  1  0.41276569  0.91014339  0.07154017  1
  Al  Al43  1  0.41499553  0.91982670  0.58633940  1
  Al  Al44  1  0.90925140  0.41224074  0.08964337  1
  Al  Al45  1  0.91817784  0.42190416  0.58428978  1
  Al  Al46  1  0.92480717  0.91506830  0.07683938  1
  Al  Al47  1  0.91458163  0.92027318  0.57637764  1
  Al  Al48  1  0.41860025  0.08106643  0.42194678  1
  Al  Al49  1  0.41291748  0.08683535  0.91064501  1
  Al  Al50  1  0.42303679  0.58701652  0.40920923  1
  Al  Al51  1  0.40454136  0.58589095  0.91518427  1
  Al  Al52  1  0.92046864  0.09145837  0.42169159  1
  Al  Al53  1  0.91118292  0.08321125  0.91197111  1
  Al  Al54  1  0.91521428  0.59884603  0.41647191  1
  Al  Al55  1  0.91445081  0.57574928  0.92436925  1
  Al  Al56  1  0.08013812  0.41645747  0.41145058  1
  Al  Al57  1  0.07797081  0.41357216  0.91215686  1
  Al  Al58  1  0.08292397  0.89880585  0.41854715  1
  Al  Al59  1  0.09896044  0.91589176  0.91421866  1
  Al  Al60  1  0.57815906  0.41645640  0.42012630  1
  Al  Al61  1  0.59215867  0.41409606  0.91905547  1
  Al  Al62  1  0.57733398  0.91487872  0.41665904  1
  Al  Al63  1  0.58345258  0.92148138  0.91219049  1
  Al  Al64  1  0.07778473  0.08703787  0.42098344  1
  Al  Al65  1  0.08858740  0.07889086  0.91284417  1
  Al  Al66  1  0.07505458  0.58646850  0.40760297  1
  Al  Al67  1  0.09211735  0.58124158  0.92167443  1
  Al  Al68  1  0.58078844  0.08325979  0.42019826  1
  Al  Al69  1  0.58650803  0.08719060  0.91097760  1
  Al  Al70  1  0.57846635  0.59186601  0.41392681  1
  Al  Al71  1  0.58334376  0.57444575  0.90984811  1
  Al  Al72  1  0.41824415  0.41634665  0.41985940  1
  Al  Al73  1  0.41313991  0.42171540  0.91630270  1
  Al  Al74  1  0.42061917  0.91438564  0.41559594  1
  Al  Al75  1  0.40662214  0.91468605  0.91155667  1
  Al  Al76  1  0.92305022  0.41381458  0.41640166  1
  Al  Al77  1  0.91567731  0.40804610  0.91658357  1
  Al  Al78  1  0.92453257  0.90248077  0.41443295  1
  Al  Al79  1  0.91159471  0.92385296  0.91225820  1
  Al  Al80  1  0.07089734  0.41114743  0.08424196  1
  Al  Al81  1  0.08184071  0.41622520  0.58338329  1
  Al  Al82  1  0.08560163  0.90633906  0.07397836  1
  Al  Al83  1  0.09440363  0.91701729  0.57878574  1
  Al  Al84  1  0.58630563  0.40268032  0.08170598  1
  Al  Al85  1  0.58146404  0.41861514  0.58224977  1
  Al  Al86  1  0.57804398  0.91798836  0.07355635  1
  Al  Al87  1  0.58094669  0.92145500  0.58575963  1
  Al  Al88  1  0.41521931  0.09133792  0.07257594  1
  Al  Al89  1  0.41515047  0.08237140  0.58577161  1
  Al  Al90  1  0.41508154  0.59365727  0.07660822  1
  Al  Al91  1  0.41969068  0.57636466  0.58548251  1
  Al  Al92  1  0.92146457  0.09460609  0.08237525  1
  Al  Al93  1  0.91585889  0.08408851  0.58163001  1
  Al  Al94  1  0.91209833  0.57780411  0.08853176  1
  Al  Al95  1  0.91060998  0.58553922  0.57814070  1
  Al  Al96  1  0.25514596  0.13662567  0.13248904  1
  Al  Al97  1  0.25046357  0.13483019  0.63960224  1
  Al  Al98  1  0.25262364  0.63514703  0.13372994  1
  Al  Al99  1  0.25304480  0.63606577  0.63738070  1
  Al  Al100  1  0.74914103  0.13765755  0.13501665  1
  Al  Al101  1  0.74680072  0.13551712  0.63732332  1
  Al  Al102  1  0.75181361  0.62775543  0.13753218  1
  Al  Al103  1  0.74871124  0.63632540  0.63108512  1
  Al  Al104  1  0.25220529  0.36263546  0.13507529  1
  Al  Al105  1  0.24723905  0.36457105  0.63891466  1
  Al  Al106  1  0.24986660  0.86365696  0.12908121  1
  Al  Al107  1  0.25219006  0.86401952  0.63185828  1
  Al  Al108  1  0.74821956  0.36715061  0.13574790  1
  Al  Al109  1  0.74800986  0.36296857  0.63177574  1
  Al  Al110  1  0.75075276  0.86552294  0.13680743  1
  Al  Al111  1  0.74919321  0.86696685  0.63730396  1
  Al  Al112  1  0.24699229  0.13757926  0.36202673  1
  Al  Al113  1  0.25441695  0.13191278  0.86550118  1
  Al  Al114  1  0.24915726  0.63748514  0.36487986  1
  Al  Al115  1  0.25408370  0.63148440  0.86671775  1
  Al  Al116  1  0.74822733  0.13616616  0.36189578  1
  Al  Al117  1  0.74838194  0.13352996  0.86354450  1
  Al  Al118  1  0.75473746  0.63637260  0.37101463  1
  Al  Al119  1  0.74909432  0.62833484  0.86323752  1
  Al  Al120  1  0.24983121  0.36373177  0.36156616  1
  Al  Al121  1  0.25033296  0.36585841  0.86368227  1
  Al  Al122  1  0.24756487  0.85849934  0.37061944  1
  Al  Al123  1  0.25198019  0.86531772  0.87012461  1
  Al  Al124  1  0.75010622  0.36449007  0.36690349  1
  Al  Al125  1  0.75017909  0.36674014  0.86411260  1
  Al  Al126  1  0.74961083  0.86124622  0.36266827  1
  Al  Al127  1  0.75091041  0.87002821  0.86264740  1
  Al  Al128  1  0.13115349  0.24801356  0.13349482  1
  Al  Al129  1  0.13401133  0.24922672  0.63331107  1
  Al  Al130  1  0.13541217  0.75146016  0.13387371  1
  Al  Al131  1  0.13906019  0.75403876  0.63467490  1
  Al  Al132  1  0.63139040  0.25367779  0.13330703  1
  Al  Al133  1  0.63170514  0.24919558  0.63564114  1
  Al  Al134  1  0.63672510  0.74852462  0.13605806  1
  Al  Al135  1  0.63011837  0.74760433  0.63840782  1
  Al  Al136  1  0.13420051  0.24914615  0.36919600  1
  Al  Al137  1  0.13174858  0.24844113  0.86436437  1
  Al  Al138  1  0.12930389  0.75121505  0.36501575  1
  Al  Al139  1  0.13936145  0.75344615  0.86842843  1
  Al  Al140  1  0.63408319  0.25246015  0.36771032  1
  Al  Al141  1  0.63393125  0.24923330  0.86483772  1
  Al  Al142  1  0.63427451  0.74362765  0.36484459  1
  Al  Al143  1  0.63586141  0.75071666  0.86383765  1
  Al  Al144  1  0.37120358  0.25079667  0.13482837  1
  Al  Al145  1  0.36876883  0.24722071  0.63903008  1
  Al  Al146  1  0.36293979  0.74882818  0.13085979  1
  Al  Al147  1  0.37051489  0.75344177  0.63935911  1
  Al  Al148  1  0.86715972  0.25181451  0.13473165  1
  Al  Al149  1  0.86714419  0.25205977  0.63833420  1
  Al  Al150  1  0.86443661  0.75155808  0.13684039  1
  Al  Al151  1  0.86313592  0.74883097  0.63651807  1
  Al  Al152  1  0.36619105  0.25152006  0.36522043  1
  Al  Al153  1  0.36965833  0.24281986  0.86532724  1
  Al  Al154  1  0.36504589  0.74927714  0.36635007  1
  Al  Al155  1  0.36132838  0.75043151  0.87189128  1
  Al  Al156  1  0.86548384  0.25090992  0.36260100  1
  Al  Al157  1  0.86759118  0.24791572  0.86395774  1
  Al  Al158  1  0.87013750  0.74747724  0.36268049  1
  Al  Al159  1  0.86089114  0.75256722  0.86379201  1
  Al  Al160  1  0.12935929  0.13659152  0.24518622  1
  Al  Al161  1  0.13566843  0.13288839  0.75511183  1
  Al  Al162  1  0.13391228  0.63820638  0.25144904  1
  Al  Al163  1  0.13866903  0.63645876  0.75317606  1
  Al  Al164  1  0.63511937  0.13363712  0.24709299  1
  Al  Al165  1  0.62872928  0.13369391  0.75388471  1
  Al  Al166  1  0.63695105  0.63352892  0.24957558  1
  Al  Al167  1  0.63122045  0.63550533  0.75321040  1
  Al  Al168  1  0.36490536  0.13631609  0.24818186  1
  Al  Al169  1  0.36845460  0.13047342  0.75235660  1
  Al  Al170  1  0.36435613  0.63275118  0.25118251  1
  Al  Al171  1  0.36974703  0.63752678  0.75486086  1
  Al  Al172  1  0.87136996  0.13836774  0.24655527  1
  Al  Al173  1  0.86398076  0.12946227  0.75290902  1
  Al  Al174  1  0.86479420  0.63516603  0.25027885  1
  Al  Al175  1  0.86213400  0.63579192  0.75160160  1
  Al  Al176  1  0.13405957  0.36198944  0.24614315  1
  Al  Al177  1  0.12939815  0.36412001  0.75356455  1
  Al  Al178  1  0.13579581  0.86282270  0.25207761  1
  Al  Al179  1  0.13986964  0.86653803  0.75542487  1
  Al  Al180  1  0.63012401  0.36388405  0.24641799  1
  Al  Al181  1  0.63447474  0.36432986  0.75487050  1
  Al  Al182  1  0.63682795  0.86701269  0.25009517  1
  Al  Al183  1  0.63343726  0.86787804  0.75285281  1
  Al  Al184  1  0.36983152  0.36544087  0.24701918  1
  Al  Al185  1  0.36494683  0.36360391  0.75410303  1
  Al  Al186  1  0.36109654  0.86180201  0.24928345  1
  Al  Al187  1  0.36000993  0.87265438  0.75319197  1
  Al  Al188  1  0.86445022  0.36711797  0.24367402  1
  Al  Al189  1  0.86755113  0.36373307  0.75508225  1
  Al  Al190  1  0.86773596  0.86502298  0.25484416  1
  Al  Al191  1  0.86319724  0.86992065  0.75127562  1
  Al  Al192  1  0.82401702  0.00021621  0.33373766  1
  Al  Al193  1  0.18103232  -0.00115256  0.68633655  1
  Al  Al194  1  -0.00016220  0.67393979  0.82481582  1
  Al  Al195  1  0.32728293  -0.00069141  0.32653059  1
  Al  Al196  1  0.00136010  0.82955262  0.82908737  1
  Al  Al197  1  0.68108669  0.18844560  -0.00095306  1
  Al  Al198  1  0.81236481  0.31943436  0.00023488  1
  Al  Al199  1  0.33142671  0.49905831  0.17604050  1
  Al  Al200  1  0.32560570  0.31460205  -0.00157494  1
  Al  Al201  1  0.17200923  0.49910483  0.16752168  1
  Al  Al202  1  0.68275684  0.00064635  0.68325421  1
  Al  Al203  1  -0.00144112  0.67334191  0.18231559  1
  Al  Al204  1  0.17333333  0.50216887  0.68144687  1
  Al  Al205  1  0.32132249  0.17319035  0.50059684  1
  Al  Al206  1  0.17195709  0.32948637  -0.00008128  1
  Al  Al207  1  0.83160365  0.50006227  0.31908528  1
  Al  Al208  1  0.50040566  0.81151981  0.32131903  1
  Al  Al209  1  0.33105880  -0.00212309  0.17041452  1
  Al  Al210  1  0.32790344  0.50011085  0.68752378  1
  Al  Al211  1  0.49755748  0.82080014  0.82230663  1
  Al  Al212  1  0.82750794  0.68020927  0.00174274  1
  Al  Al213  1  0.81953674  0.18251824  0.50098326  1
  Al  Al214  1  0.18576145  0.17580949  -0.00167618  1
  Al  Al215  1  -0.00034931  0.67162068  0.67249683  1
  Al  Al216  1  0.32847247  0.68014137  0.50231292  1
  Al  Al217  1  0.17776648  0.50107198  0.32506331  1
  Al  Al218  1  0.67116150  0.50043863  0.68943795  1
  Al  Al219  1  0.18777135  0.68605870  0.00041736  1
  Al  Al220  1  0.17058636  0.00169474  0.16694780  1
  Al  Al221  1  0.82405782  0.00159698  0.17009563  1
  Al  Al222  1  0.31982625  0.32539715  0.50237855  1
  Al  Al223  1  0.16958265  0.68193500  0.49892097  1
  Al  Al224  1  0.49954005  0.82764121  0.16978562  1
  Al  Al225  1  -0.00023575  0.31876388  0.31144154  1
  Al  Al226  1  0.68125254  0.82760651  -0.00174438  1
  Al  Al227  1  0.00053824  0.18116912  0.67776769  1
  Al  Al228  1  0.67127736  0.81991173  0.50126267  1
  Al  Al229  1  0.17177413  -0.00149543  0.33025496  1
  Al  Al230  1  0.49673312  0.17859348  0.32015906  1
  Al  Al231  1  -0.00004699  0.82940817  0.67476599  1
  Al  Al232  1  0.00101468  0.82519030  0.18285724  1
  Al  Al233  1  0.49951219  0.67678896  0.18679503  1
  Al  Al234  1  0.67262814  0.49995810  0.31951989  1
  Al  Al235  1  0.49997713  0.32685845  0.82456583  1
  Al  Al236  1  0.82567348  0.50038692  0.68307400  1
  Al  Al237  1  0.82688073  0.81302003  0.49921436  1
  Al  Al238  1  0.67544945  0.67440667  -0.00006578  1
  Au  Au239  1  0.66054479  0.00009209  0.16228295  1
  Au  Au240  1  0.32749917  0.00164080  0.67796762  1
  Au  Au241  1  0.83473938  0.00056414  0.67519561  1
  Au  Au242  1  0.33727857  0.49932420  0.16497212  1
  Au  Au243  1  -0.00181007  0.33772465  0.67862369  1
  Au  Au244  1  0.84529902  0.50222802  0.32748055  1
  Au  Au245  1  0.49709643  0.66979140  0.83736139  1
  Au  Au246  1  0.66159828  0.50048342  0.33111092  1
  Au  Au247  1  0.15970500  0.49961567  0.17103448  1
  Au  Au248  1  0.49847333  0.33458854  0.32379390  1
  Au  Au249  1  0.17739753  0.49678557  0.83556799  1
  Au  Au250  1  -0.00025151  0.66784445  0.84021632  1
  Au  Au251  1  0.83719276  0.32938625  0.50162318  1
  Au  Au252  1  0.00006428  0.17172092  0.32252507  1
  Au  Au253  1  0.66480989  0.66217360  -0.00033086  1
  Au  Au254  1  0.15978499  -0.00262596  0.16258159  1
  Au  Au255  1  0.65987323  -0.00118418  0.32939168  1
  Au  Au256  1  0.83305450  -0.00153534  0.34719331  1
  Au  Au257  1  0.49911626  0.16410465  0.67599549  1
  Au  Au258  1  0.83301852  0.83124392  -0.00357952  1
  Au  Au259  1  0.67736146  0.66200833  0.49924637  1
  Au  Au260  1  0.67253060  0.49542851  0.15808386  1
  Au  Au261  1  0.32707960  0.49957664  0.33998612  1
  Au  Au262  1  0.49924937  0.16991068  0.32873601  1
  Au  Au263  1  0.50183172  0.32351584  0.83653479  1
  Au  Au264  1  0.82741519  0.49656730  0.83455425  1
  Au  Au265  1  0.67348601  0.16370397  0.50082859  1
  Au  Au266  1  0.00036734  0.16969143  0.67305245  1
  Au  Au267  1  0.00019879  0.17091637  0.83318075  1
  Au  Au268  1  0.82843253  0.17207548  -0.00219081  1
  Au  Au269  1  0.32507409  0.84044895  0.49965665  1
  Au  Au270  1  0.66821307  0.33090243  0.50011164  1
  Au  Au271  1  0.67233727  0.50010242  0.67238509  1
  Au  Au272  1  0.17381507  0.17108607  -0.00162484  1
  Au  Au273  1  0.33919249  0.66794443  0.50205305  1
  Au  Au274  1  0.17103395  0.33605139  0.49646715  1
  Au  Au275  1  0.33415964  0.00269223  0.15909042  1
  Au  Au276  1  0.83841094  0.00086509  0.16247549  1
  Au  Au277  1  0.15356716  0.67650379  0.49724542  1
  Au  Au278  1  0.67704569  0.83608062  0.50036308  1
  Au  Au279  1  0.50014133  0.66817630  0.66799257  1
  Au  Au280  1  0.00421773  0.82800874  0.65892923  1
  Au  Au281  1  0.17381252  0.50444398  0.66888689  1
  Au  Au282  1  0.50103090  0.17749597  0.16204689  1
  Au  Au283  1  0.17183058  -0.00647400  0.34558647  1
  Au  Au284  1  0.67033482  0.00006112  0.68122218  1
  Au  Au285  1  0.49868913  0.83535952  0.67388929  1
  Au  Au286  1  0.49736191  0.33038567  0.66684252  1
  Au  Au287  1  0.17308233  0.16480574  0.50445332  1
