# generated using pymatgen
data_Ca24Ti8Al207Au49
_symmetry_space_group_name_H-M   'P 1'
_cell_length_a   17.31548101
_cell_length_b   17.31529570
_cell_length_c   17.31526650
_cell_angle_alpha   90.00391296
_cell_angle_beta   89.99251998
_cell_angle_gamma   89.99716016
_symmetry_Int_Tables_number   1
_chemical_formula_structural   Ca24Ti8Al207Au49
_chemical_formula_sum   'Ca24 Ti8 Al207 Au49'
_cell_volume   5191.50943597
_cell_formula_units_Z   1
loop_
 _symmetry_equiv_pos_site_id
 _symmetry_equiv_pos_as_xyz
  1  'x, y, z'
loop_
 _atom_site_type_symbol
 _atom_site_label
 _atom_site_symmetry_multiplicity
 _atom_site_fract_x
 _atom_site_fract_y
 _atom_site_fract_z
 _atom_site_occupancy
  Ca  Ca0  1  0.25146590  -0.00205218  -0.00395178  1
  Ca  Ca1  1  0.25051183  -0.00237365  0.50592982  1
  Ca  Ca2  1  0.25331695  0.50310893  0.00000007  1
  Ca  Ca3  1  0.25098558  0.50322537  0.50363687  1
  Ca  Ca4  1  0.74105796  0.00361627  -0.00165707  1
  Ca  Ca5  1  0.74467028  0.00180241  0.50044107  1
  Ca  Ca6  1  0.74272011  0.49933618  0.00138458  1
  Ca  Ca7  1  0.74835210  0.49722275  0.49837578  1
  Ca  Ca8  1  -0.00055941  0.24356546  0.00144933  1
  Ca  Ca9  1  -0.00284468  0.24460906  0.49551445  1
  Ca  Ca10  1  0.00322804  0.75580557  -0.00265759  1
  Ca  Ca11  1  0.00371852  0.75093865  0.50226449  1
  Ca  Ca12  1  0.50321678  0.24433668  0.00164441  1
  Ca  Ca13  1  0.50219527  0.24740542  0.50009801  1
  Ca  Ca14  1  0.49862690  0.75502452  -0.00349995  1
  Ca  Ca15  1  0.49839839  0.75404690  0.50477988  1
  Ca  Ca16  1  0.00474730  -0.00322065  0.25098178  1
  Ca  Ca17  1  0.00339832  -0.00772208  0.74382845  1
  Ca  Ca18  1  -0.00295329  0.49728661  0.25384615  1
  Ca  Ca19  1  0.00301599  0.50324295  0.74290534  1
  Ca  Ca20  1  0.50217922  0.00267715  0.24609906  1
  Ca  Ca21  1  0.50221715  -0.00029463  0.75078783  1
  Ca  Ca22  1  0.49898234  0.49908215  0.24987573  1
  Ca  Ca23  1  0.49762788  0.50107102  0.74601790  1
  Ti  Ti24  1  0.25068604  0.25042845  0.25106315  1
  Ti  Ti25  1  0.25345267  0.24790426  0.74925689  1
  Ti  Ti26  1  0.25116361  0.75210035  0.25252864  1
  Ti  Ti27  1  0.25227028  0.75047571  0.74784626  1
  Ti  Ti28  1  0.74807328  0.25051668  0.25071617  1
  Ti  Ti29  1  0.74625081  0.24875231  0.74804757  1
  Ti  Ti30  1  0.74973882  0.75050675  0.25077640  1
  Ti  Ti31  1  0.74743955  0.75176418  0.74934369  1
  Al  Al32  1  0.08760439  0.07462400  0.09250117  1
  Al  Al33  1  0.08999531  0.07384930  0.58650766  1
  Al  Al34  1  0.08115995  0.59436109  0.08704795  1
  Al  Al35  1  0.08340260  0.59245878  0.58526865  1
  Al  Al36  1  0.58184309  0.08557034  0.09036299  1
  Al  Al37  1  0.58611423  0.08462396  0.59300467  1
  Al  Al38  1  0.58192465  0.57968842  0.09425640  1
  Al  Al39  1  0.57056073  0.59453760  0.58513328  1
  Al  Al40  1  0.43060378  0.40500115  0.08481961  1
  Al  Al41  1  0.41007406  0.42446813  0.58674246  1
  Al  Al42  1  0.41811337  0.92138761  0.07398077  1
  Al  Al43  1  0.41313852  0.91305319  0.59664936  1
  Al  Al44  1  0.91282563  0.41708627  0.08412702  1
  Al  Al45  1  0.90945243  0.41724815  0.57470520  1
  Al  Al46  1  0.91635338  0.92405713  0.08534506  1
  Al  Al47  1  0.92470316  0.91835288  0.58650797  1
  Al  Al48  1  0.42642417  0.08063843  0.41766187  1
  Al  Al49  1  0.41680506  0.08946530  0.91710581  1
  Al  Al50  1  0.41163967  0.59006876  0.43085666  1
  Al  Al51  1  0.41020736  0.59735313  0.91844660  1
  Al  Al52  1  0.89926477  0.08494270  0.41843518  1
  Al  Al53  1  0.90434654  0.07545126  0.91494516  1
  Al  Al54  1  0.92330053  0.57819405  0.42545328  1
  Al  Al55  1  0.93019334  0.58304656  0.91120145  1
  Al  Al56  1  0.10028077  0.41713423  0.41273429  1
  Al  Al57  1  0.07724206  0.43044196  0.92670224  1
  Al  Al58  1  0.09503712  0.91243470  0.41892437  1
  Al  Al59  1  0.09023105  0.90937678  0.92044222  1
  Al  Al60  1  0.58334142  0.41117658  0.41432743  1
  Al  Al61  1  0.57481679  0.41449623  0.92296415  1
  Al  Al62  1  0.58183403  0.92664391  0.41632145  1
  Al  Al63  1  0.58828901  0.91125771  0.90751181  1
  Al  Al64  1  0.09070794  0.07294327  0.41660747  1
  Al  Al65  1  0.08351187  0.06878415  0.92243545  1
  Al  Al66  1  0.09292900  0.57923980  0.41336427  1
  Al  Al67  1  0.08219050  0.59399616  0.91585629  1
  Al  Al68  1  0.58846503  0.08638051  0.41319039  1
  Al  Al69  1  0.58118000  0.08212974  0.90775931  1
  Al  Al70  1  0.58082916  0.57941744  0.42223476  1
  Al  Al71  1  0.56976557  0.58580241  0.91841698  1
  Al  Al72  1  0.42074978  0.41496452  0.42211666  1
  Al  Al73  1  0.41924815  0.41577676  0.91668217  1
  Al  Al74  1  0.41824109  0.91720840  0.42686843  1
  Al  Al75  1  0.42433928  0.91185723  0.90953292  1
  Al  Al76  1  0.91423272  0.40939063  0.42133407  1
  Al  Al77  1  0.91364858  0.42197405  0.92879726  1
  Al  Al78  1  0.91697714  0.92563715  0.41481630  1
  Al  Al79  1  0.91583533  0.92012565  0.90695635  1
  Al  Al80  1  0.07542255  0.42325373  0.08430949  1
  Al  Al81  1  0.09118002  0.41478625  0.56995828  1
  Al  Al82  1  0.09909422  0.91392820  0.08494823  1
  Al  Al83  1  0.09247113  0.90935338  0.58458827  1
  Al  Al84  1  0.58822595  0.41565839  0.09851664  1
  Al  Al85  1  0.57866894  0.41254236  0.57668495  1
  Al  Al86  1  0.59060279  0.92164037  0.08070204  1
  Al  Al87  1  0.57946023  0.91702461  0.59610530  1
  Al  Al88  1  0.41768039  0.09687042  0.08263459  1
  Al  Al89  1  0.41765876  0.07839721  0.59628883  1
  Al  Al90  1  0.42210502  0.60192418  0.08038035  1
  Al  Al91  1  0.40841620  0.59018644  0.59280993  1
  Al  Al92  1  0.91454970  0.08109327  0.08370119  1
  Al  Al93  1  0.90758355  0.08565704  0.57967899  1
  Al  Al94  1  0.92483334  0.58319992  0.09664172  1
  Al  Al95  1  0.92303311  0.58716953  0.58916055  1
  Al  Al96  1  0.25048770  0.13792454  0.13495315  1
  Al  Al97  1  0.25098474  0.12988676  0.63491828  1
  Al  Al98  1  0.25239576  0.63530435  0.13332262  1
  Al  Al99  1  0.25553886  0.63595613  0.62874051  1
  Al  Al100  1  0.74599608  0.13296970  0.13539769  1
  Al  Al101  1  0.74652181  0.13264395  0.63475471  1
  Al  Al102  1  0.74437044  0.62978790  0.13576626  1
  Al  Al103  1  0.74798944  0.64008820  0.63845756  1
  Al  Al104  1  0.25119330  0.36401431  0.13516109  1
  Al  Al105  1  0.25355179  0.36469904  0.63786441  1
  Al  Al106  1  0.24823914  0.86412833  0.13053162  1
  Al  Al107  1  0.25245909  0.86386316  0.62926170  1
  Al  Al108  1  0.74686710  0.36812768  0.13955140  1
  Al  Al109  1  0.74554265  0.36096955  0.63028107  1
  Al  Al110  1  0.74625470  0.86639950  0.13412908  1
  Al  Al111  1  0.74763158  0.86653312  0.63524652  1
  Al  Al112  1  0.24396309  0.13330926  0.36562818  1
  Al  Al113  1  0.25710794  0.13377228  0.86657075  1
  Al  Al114  1  0.24928179  0.63704788  0.36962518  1
  Al  Al115  1  0.25485718  0.63786017  0.86390573  1
  Al  Al116  1  0.75139519  0.13679493  0.36683385  1
  Al  Al117  1  0.74910072  0.13344913  0.86171182  1
  Al  Al118  1  0.74821852  0.63363529  0.36260823  1
  Al  Al119  1  0.73931742  0.63797166  0.86294725  1
  Al  Al120  1  0.24804220  0.36769014  0.36429765  1
  Al  Al121  1  0.25687712  0.36450211  0.86569234  1
  Al  Al122  1  0.24643518  0.86541332  0.37367027  1
  Al  Al123  1  0.24986423  0.86591342  0.86434188  1
  Al  Al124  1  0.74861680  0.36346613  0.36825126  1
  Al  Al125  1  0.74316024  0.36356139  0.86298714  1
  Al  Al126  1  0.75235949  0.86766853  0.36260380  1
  Al  Al127  1  0.74454036  0.86442068  0.86318209  1
  Al  Al128  1  0.13512312  0.25157200  0.13574666  1
  Al  Al129  1  0.14072489  0.24845796  0.63159672  1
  Al  Al130  1  0.13779736  0.75017119  0.13620771  1
  Al  Al131  1  0.14165807  0.74986549  0.62714232  1
  Al  Al132  1  0.62952881  0.24972704  0.13780383  1
  Al  Al133  1  0.62603008  0.24868366  0.63551330  1
  Al  Al134  1  0.63477935  0.74957891  0.13775883  1
  Al  Al135  1  0.62895093  0.75364566  0.63615184  1
  Al  Al136  1  0.13698496  0.25295693  0.37230636  1
  Al  Al137  1  0.14003054  0.24870906  0.86544966  1
  Al  Al138  1  0.13648498  0.75093028  0.37213807  1
  Al  Al139  1  0.13645169  0.75345907  0.86336933  1
  Al  Al140  1  0.63335878  0.25216370  0.36418517  1
  Al  Al141  1  0.62832009  0.24345118  0.86139556  1
  Al  Al142  1  0.63555354  0.75063464  0.36248815  1
  Al  Al143  1  0.62567479  0.75616632  0.86428659  1
  Al  Al144  1  0.36915368  0.24588073  0.13523516  1
  Al  Al145  1  0.37053480  0.24771824  0.63837251  1
  Al  Al146  1  0.36616945  0.74823453  0.13147471  1
  Al  Al147  1  0.36664282  0.75097952  0.63116073  1
  Al  Al148  1  0.86062035  0.24802618  0.13736464  1
  Al  Al149  1  0.86103877  0.24795825  0.63103071  1
  Al  Al150  1  0.86289039  0.75015090  0.13623423  1
  Al  Al151  1  0.86609896  0.75016113  0.63500104  1
  Al  Al152  1  0.36314845  0.25125668  0.36385354  1
  Al  Al153  1  0.37214406  0.24674375  0.86176672  1
  Al  Al154  1  0.36176211  0.75118362  0.37277877  1
  Al  Al155  1  0.37047539  0.75309287  0.85918367  1
  Al  Al156  1  0.86554738  0.25055618  0.36765547  1
  Al  Al157  1  0.86147150  0.24924842  0.86363337  1
  Al  Al158  1  0.86402240  0.74694663  0.36798827  1
  Al  Al159  1  0.86312322  0.75109472  0.86414634  1
  Al  Al160  1  0.13660273  0.13503802  0.25032922  1
  Al  Al161  1  0.14022911  0.13067542  0.74885775  1
  Al  Al162  1  0.13897777  0.63864063  0.25242199  1
  Al  Al163  1  0.14058456  0.63740497  0.74522902  1
  Al  Al164  1  0.63415780  0.13502757  0.24717094  1
  Al  Al165  1  0.63088003  0.13273307  0.74595267  1
  Al  Al166  1  0.63261633  0.63213255  0.24900476  1
  Al  Al167  1  0.62404840  0.63977653  0.74932367  1
  Al  Al168  1  0.36596622  0.13340366  0.24900567  1
  Al  Al169  1  0.36899789  0.13096777  0.74583620  1
  Al  Al170  1  0.36411276  0.63750561  0.24924823  1
  Al  Al171  1  0.37206810  0.63724068  0.74508162  1
  Al  Al172  1  0.86197548  0.13283760  0.25309824  1
  Al  Al173  1  0.86311963  0.13577304  0.74843554  1
  Al  Al174  1  0.86534238  0.63284437  0.24529930  1
  Al  Al175  1  0.86402657  0.63634603  0.74978561  1
  Al  Al176  1  0.13162380  0.36466165  0.25328437  1
  Al  Al177  1  0.13924120  0.36442469  0.75076600  1
  Al  Al178  1  0.13874089  0.86713654  0.25110302  1
  Al  Al179  1  0.14076974  0.86898485  0.74401766  1
  Al  Al180  1  0.62986617  0.36720092  0.24976332  1
  Al  Al181  1  0.62708490  0.36256542  0.75000721  1
  Al  Al182  1  0.63494475  0.86763712  0.24744100  1
  Al  Al183  1  0.62854614  0.86553912  0.74697207  1
  Al  Al184  1  0.36903302  0.36398869  0.24713942  1
  Al  Al185  1  0.37153579  0.36471457  0.74874623  1
  Al  Al186  1  0.36170025  0.86352297  0.24984239  1
  Al  Al187  1  0.36511884  0.86771667  0.74538139  1
  Al  Al188  1  0.86978228  0.36172136  0.25148807  1
  Al  Al189  1  0.85996057  0.36177968  0.74762779  1
  Al  Al190  1  0.86640704  0.86557577  0.24945223  1
  Al  Al191  1  0.86414264  0.86606024  0.75234316  1
  Al  Al192  1  0.00191141  0.81504946  0.16846790  1
  Al  Al193  1  0.81327512  0.00000581  0.68584886  1
  Al  Al194  1  0.32547480  0.00025539  0.82294484  1
  Al  Al195  1  0.66738912  0.50161075  0.67475092  1
  Al  Al196  1  0.68433128  -0.00048441  0.81123525  1
  Al  Al197  1  0.00152483  0.17142209  0.67084355  1
  Al  Al198  1  0.49880172  0.82818813  0.32575874  1
  Al  Al199  1  0.00131372  0.17087879  0.32910581  1
  Al  Al200  1  0.49961100  0.81963104  0.16737834  1
  Al  Al201  1  0.81524672  0.83221838  -0.00146352  1
  Al  Al202  1  0.31350918  -0.00087509  0.32941737  1
  Al  Al203  1  0.33240584  0.50116851  0.16691676  1
  Al  Al204  1  0.17882227  0.17548435  0.00088863  1
  Al  Al205  1  0.67006143  0.83038961  0.49974100  1
  Al  Al206  1  -0.00000231  0.32993949  0.66582969  1
  Al  Al207  1  0.83267532  0.67126183  0.00040626  1
  Al  Al208  1  0.67601184  0.17336690  -0.00119869  1
  Al  Al209  1  0.68808706  0.00165001  0.31208303  1
  Al  Al210  1  0.80772484  -0.00182455  0.18854368  1
  Al  Al211  1  0.66943724  0.68363854  0.00120710  1
  Al  Al212  1  0.82661519  0.82595731  0.49782037  1
  Al  Al213  1  0.32537104  0.17054241  0.50116359  1
  Al  Al214  1  0.82044407  0.31812220  0.00093771  1
  Al  Al215  1  0.00025140  0.66893858  0.31449147  1
  Al  Al216  1  0.32003470  0.50186128  0.33068161  1
  Al  Al217  1  0.00229809  0.68372413  0.80656371  1
  Al  Al218  1  0.82191870  0.50148418  0.83048103  1
  Al  Al219  1  0.00396226  0.81091463  0.68084608  1
  Al  Al220  1  0.00207480  0.82663409  0.32688891  1
  Al  Al221  1  0.31499404  0.00038869  0.17144135  1
  Al  Al222  1  0.50017331  0.17934282  0.31499288  1
  Al  Al223  1  0.32535881  0.31182364  0.00061656  1
  Al  Al224  1  0.67630332  0.67645350  0.50045264  1
  Al  Al225  1  0.32572234  0.50182908  0.81562488  1
  Al  Al226  1  0.31688317  0.32680977  0.50144725  1
  Al  Al227  1  0.00103221  0.16558046  0.82921616  1
  Al  Al228  1  0.82401834  0.49895914  0.67219923  1
  Al  Al229  1  -0.00004990  0.32877946  0.83000055  1
  Al  Al230  1  0.17242428  0.50179516  0.18445925  1
  Al  Al231  1  0.49856818  0.67087929  0.32027846  1
  Al  Al232  1  -0.00021987  0.17523482  0.17350417  1
  Al  Al233  1  0.68167915  0.17885824  0.50091732  1
  Al  Al234  1  0.82109495  0.49784521  0.32099653  1
  Al  Al235  1  0.66922499  0.32655062  0.00267579  1
  Al  Al236  1  0.18354686  0.49982061  0.67564988  1
  Al  Al237  1  0.31840226  0.81395614  -0.00256078  1
  Al  Al238  1  0.18653418  0.68528403  -0.00061342  1
  Au  Au239  1  0.82397047  0.00205600  0.18386139  1
  Au  Au240  1  0.49606681  0.67354505  0.33709810  1
  Au  Au241  1  0.82860707  0.00048623  0.67861133  1
  Au  Au242  1  -0.00128479  0.32447410  0.64996194  1
  Au  Au243  1  -0.00102714  0.14939377  0.82271352  1
  Au  Au244  1  0.65623660  0.67340283  0.00301717  1
  Au  Au245  1  0.17164215  -0.00402532  0.82297265  1
  Au  Au246  1  0.82978550  0.49794755  0.33546852  1
  Au  Au247  1  0.65897918  0.49896158  0.83825728  1
  Au  Au248  1  -0.00301872  0.32378852  0.16142650  1
  Au  Au249  1  0.50291391  0.83665383  0.16920323  1
  Au  Au250  1  0.17090141  0.67801370  -0.00023098  1
  Au  Au251  1  0.00027766  0.33200476  0.84611552  1
  Au  Au252  1  0.82751001  0.16845605  -0.00049631  1
  Au  Au253  1  0.15621271  0.50421130  0.17938149  1
  Au  Au254  1  0.17310800  0.67187329  0.49881439  1
  Au  Au255  1  0.66720313  0.50618344  0.65893421  1
  Au  Au256  1  -0.00327226  0.15532126  0.32898420  1
  Au  Au257  1  0.16310505  0.50285303  0.83336452  1
  Au  Au258  1  0.33038968  0.82599809  -0.00541129  1
  Au  Au259  1  0.49723317  0.67892486  0.82447593  1
  Au  Au260  1  0.34607801  0.50182353  0.15854351  1
  Au  Au261  1  0.00373608  0.83214545  0.16735107  1
  Au  Au262  1  0.84855447  0.66779900  0.00149650  1
  Au  Au263  1  0.82054921  0.50008590  0.16171623  1
  Au  Au264  1  0.65992367  0.49962131  0.32392848  1
  Au  Au265  1  0.34104215  0.17379469  0.50381399  1
  Au  Au266  1  0.67638772  0.32603937  0.49896097  1
  Au  Au267  1  0.00149699  0.66788621  0.33153833  1
  Au  Au268  1  0.82170670  0.84776702  -0.00318850  1
  Au  Au269  1  0.32390056  0.00467182  0.15756544  1
  Au  Au270  1  0.17382673  0.49954112  0.66205948  1
  Au  Au271  1  0.16263791  0.17117143  0.50170645  1
  Au  Au272  1  0.33002913  -0.00173121  0.33450328  1
  Au  Au273  1  0.00246804  0.82984367  0.82922607  1
  Au  Au274  1  0.33768663  0.00189144  0.82015289  1
  Au  Au275  1  0.33187802  0.82690612  0.50303220  1
  Au  Au276  1  0.82590799  0.66215649  0.50498771  1
  Au  Au277  1  0.50200965  0.32018216  0.83180325  1
  Au  Au278  1  0.16822756  0.33943036  0.00095660  1
  Au  Au279  1  0.00511808  0.33548883  0.33621056  1
  Au  Au280  1  0.17198961  0.15980773  0.00239268  1
  Au  Au281  1  0.83789841  0.50100520  0.82442077  1
  Au  Au282  1  0.49554672  0.32679956  0.66336249  1
  Au  Au283  1  0.33614750  0.50259246  0.82898588  1
  Au  Au284  1  0.33980220  0.32066790  0.00082369  1
  Au  Au285  1  0.49672156  0.32614397  0.32502785  1
  Au  Au286  1  0.82992147  0.83775803  0.49550368  1
  Au  Au287  1  0.32409271  0.50142826  0.34661459  1
