# generated using pymatgen
data_Ca24Ti8Al207Au49
_symmetry_space_group_name_H-M   'P 1'
_cell_length_a   17.32169428
_cell_length_b   17.32209108
_cell_length_c   17.32073287
_cell_angle_alpha   89.99939509
_cell_angle_beta   89.99999075
_cell_angle_gamma   90.00497911
_symmetry_Int_Tables_number   1
_chemical_formula_structural   Ca24Ti8Al207Au49
_chemical_formula_sum   'Ca24 Ti8 Al207 Au49'
_cell_volume   5197.05064727
_cell_formula_units_Z   1
loop_
 _symmetry_equiv_pos_site_id
 _symmetry_equiv_pos_as_xyz
  1  'x, y, z'
loop_
 _atom_site_type_symbol
 _atom_site_label
 _atom_site_symmetry_multiplicity
 _atom_site_fract_x
 _atom_site_fract_y
 _atom_site_fract_z
 _atom_site_occupancy
  Ca  Ca0  1  0.25073545  -0.00184854  0.00026728  1
  Ca  Ca1  1  0.24965527  0.00587143  0.50404782  1
  Ca  Ca2  1  0.24698485  0.50158533  -0.00356105  1
  Ca  Ca3  1  0.24745480  0.49556130  0.50166703  1
  Ca  Ca4  1  0.75170752  0.00693171  0.00326921  1
  Ca  Ca5  1  0.75176272  0.00234159  0.49927751  1
  Ca  Ca6  1  0.75232443  0.49492195  -0.00431480  1
  Ca  Ca7  1  0.75289172  0.50018691  0.50436334  1
  Ca  Ca8  1  -0.00468160  0.25297570  -0.00224236  1
  Ca  Ca9  1  0.00320499  0.25072766  0.50509306  1
  Ca  Ca10  1  0.00400151  0.74915690  0.00132240  1
  Ca  Ca11  1  -0.00041971  0.74839831  0.50209880  1
  Ca  Ca12  1  0.50407952  0.24901748  -0.00192265  1
  Ca  Ca13  1  0.49686984  0.24805803  0.50027311  1
  Ca  Ca14  1  0.49646889  0.75135102  0.00231076  1
  Ca  Ca15  1  0.50049601  0.74884394  0.49983724  1
  Ca  Ca16  1  0.00254488  0.00411305  0.25308612  1
  Ca  Ca17  1  0.00262448  0.00566752  0.74749218  1
  Ca  Ca18  1  -0.00472094  0.49886255  0.24637834  1
  Ca  Ca19  1  -0.00288317  0.49084687  0.74544551  1
  Ca  Ca20  1  0.49819468  -0.00242960  0.25186152  1
  Ca  Ca21  1  0.48973980  0.00091034  0.74838424  1
  Ca  Ca22  1  0.50178936  0.50290241  0.25366358  1
  Ca  Ca23  1  0.50099084  0.49787226  0.74527738  1
  Ti  Ti24  1  0.24871047  0.24779824  0.25250442  1
  Ti  Ti25  1  0.24951454  0.25152142  0.74808068  1
  Ti  Ti26  1  0.24970054  0.75209391  0.25015866  1
  Ti  Ti27  1  0.24834647  0.74770497  0.74952242  1
  Ti  Ti28  1  0.75213415  0.24984632  0.24988110  1
  Ti  Ti29  1  0.75087769  0.25143646  0.74842037  1
  Ti  Ti30  1  0.74882509  0.74827319  0.25078204  1
  Ti  Ti31  1  0.75129685  0.74581732  0.74937082  1
  Al  Al32  1  0.08405772  0.07523092  0.09430742  1
  Al  Al33  1  0.09203577  0.09247463  0.58848082  1
  Al  Al34  1  0.09379984  0.58636223  0.07721389  1
  Al  Al35  1  0.08189974  0.58271652  0.59468403  1
  Al  Al36  1  0.58903154  0.09228789  0.07545394  1
  Al  Al37  1  0.56890262  0.09192496  0.58283765  1
  Al  Al38  1  0.57597278  0.58149435  0.08682836  1
  Al  Al39  1  0.58655662  0.57905899  0.58344968  1
  Al  Al40  1  0.42213482  0.42317017  0.07974676  1
  Al  Al41  1  0.41111569  0.40639047  0.58380705  1
  Al  Al42  1  0.41640744  0.91348868  0.09497860  1
  Al  Al43  1  0.40917585  0.92614369  0.58544683  1
  Al  Al44  1  0.91009298  0.40812717  0.07348222  1
  Al  Al45  1  0.91555371  0.41195474  0.58862287  1
  Al  Al46  1  0.91700371  0.92338519  0.08368837  1
  Al  Al47  1  0.92533089  0.91749056  0.57232008  1
  Al  Al48  1  0.41024106  0.08600759  0.41942458  1
  Al  Al49  1  0.41780787  0.07730802  0.90525526  1
  Al  Al50  1  0.43273285  0.58929886  0.41884745  1
  Al  Al51  1  0.41471643  0.58707721  0.92062165  1
  Al  Al52  1  0.91228420  0.08209940  0.41278058  1
  Al  Al53  1  0.91373651  0.10287053  0.91543419  1
  Al  Al54  1  0.91948114  0.57464538  0.42487242  1
  Al  Al55  1  0.91554240  0.56762573  0.91030006  1
  Al  Al56  1  0.07803424  0.40695623  0.42943251  1
  Al  Al57  1  0.07385141  0.41236380  0.90654015  1
  Al  Al58  1  0.08583962  0.92723152  0.41469756  1
  Al  Al59  1  0.08967716  0.92445079  0.91978745  1
  Al  Al60  1  0.58945448  0.42471180  0.41476626  1
  Al  Al61  1  0.59658118  0.41702041  0.91326028  1
  Al  Al62  1  0.58450257  0.91745460  0.41302049  1
  Al  Al63  1  0.57898715  0.92665688  0.92163545  1
  Al  Al64  1  0.09528148  0.08791818  0.42121478  1
  Al  Al65  1  0.07454892  0.08406889  0.90144839  1
  Al  Al66  1  0.07514283  0.57928199  0.42809336  1
  Al  Al67  1  0.09184062  0.58538568  0.91817873  1
  Al  Al68  1  0.58055464  0.07882074  0.41623253  1
  Al  Al69  1  0.58986229  0.09055078  0.91676355  1
  Al  Al70  1  0.59132825  0.58510858  0.40799722  1
  Al  Al71  1  0.58719730  0.57465776  0.90959094  1
  Al  Al72  1  0.41511741  0.40981695  0.42878251  1
  Al  Al73  1  0.42276161  0.42349444  0.91809675  1
  Al  Al74  1  0.41462183  0.91998138  0.41543666  1
  Al  Al75  1  0.41239273  0.92360833  0.91507988  1
  Al  Al76  1  0.91300609  0.40787310  0.42457124  1
  Al  Al77  1  0.90916731  0.40552172  0.90741704  1
  Al  Al78  1  0.91061260  0.92187162  0.41282302  1
  Al  Al79  1  0.91867390  0.92735661  0.92663688  1
  Al  Al80  1  0.07534936  0.42470805  0.08045841  1
  Al  Al81  1  0.08693557  0.40922328  0.59158172  1
  Al  Al82  1  0.09095416  0.91707948  0.08718539  1
  Al  Al83  1  0.08938004  0.92692175  0.58780770  1
  Al  Al84  1  0.58701752  0.41587786  0.07750796  1
  Al  Al85  1  0.58195932  0.41833453  0.58825860  1
  Al  Al86  1  0.57527908  0.91028012  0.08708740  1
  Al  Al87  1  0.57361714  0.92019037  0.57197640  1
  Al  Al88  1  0.42076913  0.07149942  0.08583135  1
  Al  Al89  1  0.40701430  0.09051155  0.59320143  1
  Al  Al90  1  0.41455253  0.59229480  0.08154938  1
  Al  Al91  1  0.42231124  0.57589834  0.58006942  1
  Al  Al92  1  0.90913523  0.08790567  0.07792581  1
  Al  Al93  1  0.93022793  0.09297025  0.58266838  1
  Al  Al94  1  0.92913980  0.57030505  0.07627457  1
  Al  Al95  1  0.91759774  0.57864623  0.59586989  1
  Al  Al96  1  0.24228893  0.13375548  0.13451092  1
  Al  Al97  1  0.24637220  0.13833086  0.62886694  1
  Al  Al98  1  0.25108291  0.63800890  0.13946787  1
  Al  Al99  1  0.24776490  0.62693380  0.63728187  1
  Al  Al100  1  0.75423061  0.13836951  0.13237635  1
  Al  Al101  1  0.75626303  0.13919774  0.63014599  1
  Al  Al102  1  0.74351088  0.63771195  0.13929119  1
  Al  Al103  1  0.75108032  0.62624570  0.63825817  1
  Al  Al104  1  0.24825544  0.35958416  0.13025701  1
  Al  Al105  1  0.24910294  0.36936603  0.63443272  1
  Al  Al106  1  0.24701987  0.86439743  0.13525561  1
  Al  Al107  1  0.24521986  0.86553400  0.63499288  1
  Al  Al108  1  0.75090558  0.36112803  0.12716556  1
  Al  Al109  1  0.75279040  0.37042862  0.63176444  1
  Al  Al110  1  0.74813606  0.86029363  0.13577932  1
  Al  Al111  1  0.75129621  0.86347522  0.63527822  1
  Al  Al112  1  0.24734284  0.13047798  0.37051137  1
  Al  Al113  1  0.25567897  0.13377061  0.86165276  1
  Al  Al114  1  0.25104207  0.63654206  0.36380565  1
  Al  Al115  1  0.24535902  0.62703469  0.86123699  1
  Al  Al116  1  0.75419443  0.13706001  0.36943657  1
  Al  Al117  1  0.75251751  0.13912823  0.86750910  1
  Al  Al118  1  0.74558159  0.62976713  0.36295334  1
  Al  Al119  1  0.74761198  0.62940228  0.86383263  1
  Al  Al120  1  0.25413848  0.36459936  0.36819609  1
  Al  Al121  1  0.24666870  0.36675743  0.86529015  1
  Al  Al122  1  0.24936713  0.87218766  0.36108604  1
  Al  Al123  1  0.24822991  0.86549853  0.86456281  1
  Al  Al124  1  0.75292878  0.36267033  0.36799720  1
  Al  Al125  1  0.75260178  0.36009620  0.87015892  1
  Al  Al126  1  0.74775548  0.86269308  0.36410794  1
  Al  Al127  1  0.75249002  0.86443281  0.86360508  1
  Al  Al128  1  0.12742304  0.24837987  0.13614641  1
  Al  Al129  1  0.13362882  0.25189378  0.63541594  1
  Al  Al130  1  0.13100592  0.74855928  0.13450714  1
  Al  Al131  1  0.12997655  0.74565970  0.63778269  1
  Al  Al132  1  0.63876814  0.24817528  0.12635985  1
  Al  Al133  1  0.63731843  0.25001691  0.63511212  1
  Al  Al134  1  0.62675794  0.74917594  0.13548458  1
  Al  Al135  1  0.63675830  0.74781351  0.63849281  1
  Al  Al136  1  0.13568953  0.24504801  0.36849856  1
  Al  Al137  1  0.13597650  0.24894694  0.86197642  1
  Al  Al138  1  0.13439027  0.75355006  0.36591412  1
  Al  Al139  1  0.13550267  0.74535033  0.86435904  1
  Al  Al140  1  0.63618698  0.24930530  0.36762187  1
  Al  Al141  1  0.63801712  0.24785751  0.87250773  1
  Al  Al142  1  0.63266011  0.74790416  0.36534010  1
  Al  Al143  1  0.63607397  0.74949395  0.86553917  1
  Al  Al144  1  0.36302035  0.24788156  0.13573170  1
  Al  Al145  1  0.35905709  0.25149058  0.62900751  1
  Al  Al146  1  0.36894554  0.75085832  0.13733288  1
  Al  Al147  1  0.36029734  0.74998851  0.63752266  1
  Al  Al148  1  0.86932380  0.24984244  0.13266930  1
  Al  Al149  1  0.86679091  0.25620288  0.62951705  1
  Al  Al150  1  0.87038511  0.74924718  0.13942667  1
  Al  Al151  1  0.87036420  0.74735457  0.63758332  1
  Al  Al152  1  0.36200157  0.24759093  0.37087920  1
  Al  Al153  1  0.36525219  0.25303037  0.86246834  1
  Al  Al154  1  0.36459474  0.75165146  0.36421574  1
  Al  Al155  1  0.36459008  0.74608374  0.86166850  1
  Al  Al156  1  0.86584554  0.24818120  0.37252599  1
  Al  Al157  1  0.86522956  0.25054059  0.86672082  1
  Al  Al158  1  0.86474955  0.74908434  0.36448360  1
  Al  Al159  1  0.86397419  0.74587330  0.86181388  1
  Al  Al160  1  0.13236049  0.13348429  0.25312178  1
  Al  Al161  1  0.13610383  0.13429988  0.74660871  1
  Al  Al162  1  0.13157576  0.63703329  0.24983788  1
  Al  Al163  1  0.13296082  0.62588304  0.74595135  1
  Al  Al164  1  0.63805613  0.14009039  0.24861932  1
  Al  Al165  1  0.63454008  0.14006558  0.75184132  1
  Al  Al166  1  0.62565852  0.63638083  0.25294765  1
  Al  Al167  1  0.63662516  0.62748997  0.75078836  1
  Al  Al168  1  0.36038726  0.13484050  0.25283404  1
  Al  Al169  1  0.36853563  0.14124289  0.74490119  1
  Al  Al170  1  0.37090496  0.63704442  0.24996115  1
  Al  Al171  1  0.36201252  0.62775108  0.74996458  1
  Al  Al172  1  0.86969506  0.13958245  0.25230697  1
  Al  Al173  1  0.86563555  0.13718583  0.75279654  1
  Al  Al174  1  0.86811314  0.63437614  0.25171960  1
  Al  Al175  1  0.86817487  0.62955155  0.74413766  1
  Al  Al176  1  0.13675622  0.35898909  0.24981486  1
  Al  Al177  1  0.13463363  0.36891008  0.74565459  1
  Al  Al178  1  0.13617739  0.87076402  0.24782929  1
  Al  Al179  1  0.13275379  0.86563163  0.74647789  1
  Al  Al180  1  0.63973960  0.36200110  0.24968126  1
  Al  Al181  1  0.64281967  0.37003474  0.75147815  1
  Al  Al182  1  0.63282022  0.86336025  0.24916049  1
  Al  Al183  1  0.63717774  0.86320432  0.75154200  1
  Al  Al184  1  0.36019888  0.36597696  0.24815677  1
  Al  Al185  1  0.36172643  0.37152155  0.74716793  1
  Al  Al186  1  0.36665237  0.86690941  0.24836989  1
  Al  Al187  1  0.36043516  0.86598235  0.75144350  1
  Al  Al188  1  0.86372514  0.36203354  0.24873715  1
  Al  Al189  1  0.86602596  0.36331212  0.74561752  1
  Al  Al190  1  0.86258237  0.86653629  0.25234439  1
  Al  Al191  1  0.86563798  0.86545151  0.74746464  1
  Al  Al192  1  0.33272758  0.17619215  -0.00043957  1
  Al  Al193  1  0.17970602  0.49881314  0.17477939  1
  Al  Al194  1  0.49915236  0.67352551  0.67679997  1
  Al  Al195  1  0.50367806  0.32099039  0.82532821  1
  Al  Al196  1  0.80867831  0.49571826  0.80848209  1
  Al  Al197  1  0.66449378  0.00292924  0.67027830  1
  Al  Al198  1  0.32220779  0.82702123  0.49987960  1
  Al  Al199  1  0.49944631  0.81474423  0.31689537  1
  Al  Al200  1  0.68058954  0.00194170  0.82636452  1
  Al  Al201  1  0.00130695  0.82466334  0.32564712  1
  Al  Al202  1  0.33175299  0.82782590  0.00057881  1
  Al  Al203  1  0.30577523  0.67886170  -0.00143301  1
  Al  Al204  1  0.18998830  -0.00027826  0.80804843  1
  Al  Al205  1  0.49828965  0.82472596  0.82794596  1
  Al  Al206  1  0.30720477  0.00310355  0.69054769  1
  Al  Al207  1  0.83087359  0.00126914  0.67449946  1
  Al  Al208  1  0.82024211  0.82301575  0.49959046  1
  Al  Al209  1  0.49891257  0.17353471  0.32278400  1
  Al  Al210  1  0.00022027  0.19232118  0.69024334  1
  Al  Al211  1  0.82017178  0.49746293  0.32729994  1
  Al  Al212  1  0.82804169  0.66678229  0.00170070  1
  Al  Al213  1  0.82613048  0.49917480  0.17126432  1
  Al  Al214  1  -0.00002708  0.67002887  0.81654532  1
  Al  Al215  1  0.31181198  0.00010260  0.18142227  1
  Al  Al216  1  0.82168594  0.82501288  0.00130397  1
  Al  Al217  1  0.18832780  0.31031211  0.50151867  1
  Al  Al218  1  -0.00016653  0.30695602  0.80766646  1
  Al  Al219  1  0.33323356  0.50238359  0.32627502  1
  Al  Al220  1  0.82773705  0.00261477  0.18644004  1
  Al  Al221  1  0.50193645  0.31874001  0.17482209  1
  Al  Al222  1  0.17667556  0.81214024  -0.00060690  1
  Al  Al223  1  0.50005128  0.32793160  0.33074966  1
  Al  Al224  1  0.82977247  0.66937243  0.50393756  1
  Al  Al225  1  0.49686108  0.82741413  0.67051891  1
  Al  Al226  1  0.68764351  0.00185434  0.32697687  1
  Al  Al227  1  0.16617754  0.49573758  0.33115402  1
  Al  Al228  1  0.67629452  0.32674008  0.49890502  1
  Al  Al229  1  0.66975941  0.50031842  0.18774664  1
  Al  Al230  1  0.17274192  0.67786113  0.50316097  1
  Al  Al231  1  0.16607034  0.17488229  -0.00228589  1
  Al  Al232  1  0.49893820  0.31286535  0.67157180  1
  Al  Al233  1  0.32955054  0.67269845  0.50045907  1
  Al  Al234  1  -0.00065324  0.31825452  0.32241957  1
  Al  Al235  1  0.67793436  0.00075205  0.17727118  1
  Al  Al236  1  0.67623699  0.67955349  0.50157329  1
  Al  Al237  1  -0.00091180  0.83002063  0.82135082  1
  Al  Al238  1  0.66996847  0.67627390  -0.00080364  1
  Au  Au239  1  0.49998613  0.15832464  0.17456841  1
  Au  Au240  1  0.00333589  0.66089046  0.16694347  1
  Au  Au241  1  0.84466486  0.67182120  -0.00019150  1
  Au  Au242  1  0.83228207  0.49785259  0.33165744  1
  Au  Au243  1  -0.00235893  0.33776971  0.17232128  1
  Au  Au244  1  0.17907115  0.00295749  0.82107031  1
  Au  Au245  1  0.50140636  0.16114276  0.81992003  1
  Au  Au246  1  0.32981714  0.50049864  0.83214893  1
  Au  Au247  1  0.15012239  0.49305853  0.32705970  1
  Au  Au248  1  -0.00168644  0.83904654  0.17148483  1
  Au  Au249  1  -0.00315709  0.83773406  0.83651121  1
  Au  Au250  1  0.32570282  0.49863771  0.66026206  1
  Au  Au251  1  0.67177049  0.84016568  -0.00064511  1
  Au  Au252  1  0.15382541  0.16423261  -0.00208752  1
  Au  Au253  1  0.00060007  0.65489290  0.82312013  1
  Au  Au254  1  0.83755466  0.17500284  0.50147981  1
  Au  Au255  1  0.34506952  0.50244157  0.33746323  1
  Au  Au256  1  0.17190722  0.82418445  -0.00091314  1
  Au  Au257  1  0.00422269  0.16887461  0.33783940  1
  Au  Au258  1  0.32217978  0.17824435  0.50070905  1
  Au  Au259  1  0.67095208  0.83025882  0.50159094  1
  Au  Au260  1  0.49769662  0.67575729  0.17436430  1
  Au  Au261  1  0.32173987  0.00219240  0.32909356  1
  Au  Au262  1  0.66598998  0.66455734  -0.00223069  1
  Au  Au263  1  0.50419603  0.33747982  0.82161728  1
  Au  Au264  1  0.16307554  0.49618842  0.82306903  1
  Au  Au265  1  0.67277726  0.33762963  0.50392592  1
  Au  Au266  1  -0.00348292  0.16639606  0.16777774  1
  Au  Au267  1  0.67746264  0.32495337  -0.00164846  1
  Au  Au268  1  0.49771241  0.33529058  0.17632074  1
  Au  Au269  1  0.67656090  0.49921599  0.67964726  1
  Au  Au270  1  0.33218076  0.33769230  -0.00208386  1
  Au  Au271  1  0.00162823  0.83594160  0.33059711  1
  Au  Au272  1  0.33897284  0.16088216  -0.00079260  1
  Au  Au273  1  0.50085645  0.65998085  0.82519326  1
  Au  Au274  1  0.66521267  0.16726076  0.49913565  1
  Au  Au275  1  0.17463092  0.84321547  0.49822101  1
  Au  Au276  1  0.67500745  0.50026429  0.17133764  1
  Au  Au277  1  0.84251460  0.00156783  0.66310796  1
  Au  Au278  1  0.32635256  0.50232128  0.15883088  1
  Au  Au279  1  0.49803855  0.83721548  0.82469513  1
  Au  Au280  1  0.17540087  0.66526946  0.50355667  1
  Au  Au281  1  0.64899038  0.00283830  0.67574752  1
  Au  Au282  1  0.66580793  0.00064763  0.16633332  1
  Au  Au283  1  0.82854387  0.00612193  0.84351920  1
  Au  Au284  1  0.49853671  0.82892199  0.32627147  1
  Au  Au285  1  0.00280301  0.82638696  0.65845737  1
  Au  Au286  1  0.16368211  0.33984516  -0.00090542  1
  Au  Au287  1  -0.00347308  0.66892882  0.33717501  1
