# generated using pymatgen
data_Ca24Ti8Al207Au49
_symmetry_space_group_name_H-M   'P 1'
_cell_length_a   17.31925268
_cell_length_b   17.32019177
_cell_length_c   17.32074668
_cell_angle_alpha   90.00302360
_cell_angle_beta   90.00172194
_cell_angle_gamma   90.00449645
_symmetry_Int_Tables_number   1
_chemical_formula_structural   Ca24Ti8Al207Au49
_chemical_formula_sum   'Ca24 Ti8 Al207 Au49'
_cell_volume   5195.75246661
_cell_formula_units_Z   1
loop_
 _symmetry_equiv_pos_site_id
 _symmetry_equiv_pos_as_xyz
  1  'x, y, z'
loop_
 _atom_site_type_symbol
 _atom_site_label
 _atom_site_symmetry_multiplicity
 _atom_site_fract_x
 _atom_site_fract_y
 _atom_site_fract_z
 _atom_site_occupancy
  Ca  Ca0  1  0.24775941  -0.00229678  0.00033547  1
  Ca  Ca1  1  0.24907128  -0.00080028  0.49998274  1
  Ca  Ca2  1  0.25377453  0.50128975  -0.00166370  1
  Ca  Ca3  1  0.25154439  0.50292252  0.50240458  1
  Ca  Ca4  1  0.75210856  0.00061077  0.00191777  1
  Ca  Ca5  1  0.75224242  0.00089834  0.49908665  1
  Ca  Ca6  1  0.75054771  0.50030787  0.00067323  1
  Ca  Ca7  1  0.74656482  0.49987816  0.49826928  1
  Ca  Ca8  1  -0.00260370  0.24650521  0.00406468  1
  Ca  Ca9  1  0.00027959  0.24750045  0.50007105  1
  Ca  Ca10  1  -0.00039163  0.75596205  0.00155450  1
  Ca  Ca11  1  0.00557492  0.75120340  0.50031132  1
  Ca  Ca12  1  0.50456717  0.24758786  0.00039373  1
  Ca  Ca13  1  0.49965106  0.25086786  0.49950733  1
  Ca  Ca14  1  0.49891347  0.74751237  0.00429083  1
  Ca  Ca15  1  0.49703772  0.74880260  0.49499721  1
  Ca  Ca16  1  -0.00135216  -0.00035006  0.24616479  1
  Ca  Ca17  1  0.00265413  -0.00332163  0.75054449  1
  Ca  Ca18  1  -0.00169883  0.49941054  0.25396516  1
  Ca  Ca19  1  0.00298650  0.50836853  0.74575745  1
  Ca  Ca20  1  0.50154333  -0.00100148  0.25059778  1
  Ca  Ca21  1  0.49816685  -0.00408297  0.74531735  1
  Ca  Ca22  1  0.50000914  0.50144642  0.25119396  1
  Ca  Ca23  1  0.49743923  0.50141195  0.74548643  1
  Ti  Ti24  1  0.24965973  0.24546325  0.25066111  1
  Ti  Ti25  1  0.25068597  0.24774547  0.74880098  1
  Ti  Ti26  1  0.25013307  0.75359645  0.25129449  1
  Ti  Ti27  1  0.24864846  0.75144093  0.74856019  1
  Ti  Ti28  1  0.75010029  0.24900229  0.25005203  1
  Ti  Ti29  1  0.74826490  0.24943283  0.75020376  1
  Ti  Ti30  1  0.75073667  0.75106050  0.25048582  1
  Ti  Ti31  1  0.75246129  0.75119355  0.75004902  1
  Al  Al32  1  0.08711359  0.07368219  0.08487722  1
  Al  Al33  1  0.09092442  0.08214695  0.58190472  1
  Al  Al34  1  0.07919417  0.58571367  0.07542951  1
  Al  Al35  1  0.08782995  0.59987231  0.58722771  1
  Al  Al36  1  0.60350634  0.08322112  0.08790543  1
  Al  Al37  1  0.58114245  0.07963607  0.59049378  1
  Al  Al38  1  0.57939124  0.59576747  0.08464875  1
  Al  Al39  1  0.58633519  0.57389738  0.58667335  1
  Al  Al40  1  0.42043929  0.42097701  0.07435309  1
  Al  Al41  1  0.42048716  0.41388615  0.58591258  1
  Al  Al42  1  0.41135323  0.91611921  0.08063942  1
  Al  Al43  1  0.40708602  0.91827601  0.57531500  1
  Al  Al44  1  0.91322364  0.40890284  0.08460346  1
  Al  Al45  1  0.91901406  0.42357640  0.57202966  1
  Al  Al46  1  0.90831506  0.91758693  0.08603693  1
  Al  Al47  1  0.90890485  0.91156542  0.58182242  1
  Al  Al48  1  0.40990185  0.07959042  0.40994992  1
  Al  Al49  1  0.40653136  0.07460432  0.91599225  1
  Al  Al50  1  0.41342321  0.59366889  0.42302225  1
  Al  Al51  1  0.41507377  0.57696476  0.91321182  1
  Al  Al52  1  0.91665582  0.07514291  0.41101767  1
  Al  Al53  1  0.91042064  0.08265694  0.92829016  1
  Al  Al54  1  0.91998127  0.58062128  0.42303460  1
  Al  Al55  1  0.92486895  0.60034582  0.91414347  1
  Al  Al56  1  0.07802302  0.41010060  0.41085296  1
  Al  Al57  1  0.08091317  0.42258685  0.91975616  1
  Al  Al58  1  0.09249628  0.91285719  0.42067427  1
  Al  Al59  1  0.09417704  0.90996690  0.91708355  1
  Al  Al60  1  0.58161920  0.41506145  0.41557561  1
  Al  Al61  1  0.58709874  0.41086743  0.92211106  1
  Al  Al62  1  0.59191733  0.91999473  0.41209237  1
  Al  Al63  1  0.58708584  0.92126050  0.92528260  1
  Al  Al64  1  0.09132533  0.08682581  0.41977944  1
  Al  Al65  1  0.09103990  0.07110216  0.91777988  1
  Al  Al66  1  0.09173092  0.58918646  0.42746759  1
  Al  Al67  1  0.08244539  0.59141518  0.91057528  1
  Al  Al68  1  0.58485460  0.07725515  0.40815711  1
  Al  Al69  1  0.59244747  0.08471146  0.92688596  1
  Al  Al70  1  0.57830562  0.57820465  0.41883699  1
  Al  Al71  1  0.57808151  0.58365469  0.92626914  1
  Al  Al72  1  0.42622014  0.41065953  0.42189906  1
  Al  Al73  1  0.40808955  0.42016776  0.91401734  1
  Al  Al74  1  0.40366175  0.91784303  0.41442926  1
  Al  Al75  1  0.39895438  0.91869911  0.91703544  1
  Al  Al76  1  0.92042009  0.40896358  0.40834859  1
  Al  Al77  1  0.92019668  0.40986969  0.92871911  1
  Al  Al78  1  0.90532160  0.91576737  0.41888687  1
  Al  Al79  1  0.91715013  0.91113378  0.92466807  1
  Al  Al80  1  0.07724390  0.41371650  0.08102339  1
  Al  Al81  1  0.07984253  0.42775511  0.57331119  1
  Al  Al82  1  0.08958428  0.91372958  0.08115966  1
  Al  Al83  1  0.08915527  0.91514646  0.58214899  1
  Al  Al84  1  0.58643789  0.40899592  0.07762190  1
  Al  Al85  1  0.58285760  0.41365895  0.58810737  1
  Al  Al86  1  0.59498828  0.92081111  0.09116064  1
  Al  Al87  1  0.59441442  0.92265189  0.58381209  1
  Al  Al88  1  0.41562622  0.07778251  0.08291240  1
  Al  Al89  1  0.41706608  0.08369319  0.58364060  1
  Al  Al90  1  0.42366924  0.58491926  0.08466368  1
  Al  Al91  1  0.40939072  0.58563535  0.58102795  1
  Al  Al92  1  0.89893567  0.07994368  0.08827440  1
  Al  Al93  1  0.91906048  0.07126068  0.58688041  1
  Al  Al94  1  0.91687105  0.58624139  0.07830303  1
  Al  Al95  1  0.92552039  0.59430519  0.58758580  1
  Al  Al96  1  0.24874017  0.12518541  0.13937618  1
  Al  Al97  1  0.25251741  0.13334719  0.62693122  1
  Al  Al98  1  0.25004054  0.63826266  0.13836784  1
  Al  Al99  1  0.24913013  0.63806780  0.63098033  1
  Al  Al100  1  0.75135782  0.13079206  0.13768141  1
  Al  Al101  1  0.74860423  0.13269035  0.63473485  1
  Al  Al102  1  0.75487301  0.63601546  0.13546629  1
  Al  Al103  1  0.74918323  0.63734623  0.63371881  1
  Al  Al104  1  0.24928548  0.36028538  0.13944879  1
  Al  Al105  1  0.24986458  0.36435029  0.63327502  1
  Al  Al106  1  0.24775238  0.87259451  0.13870007  1
  Al  Al107  1  0.24701210  0.86357899  0.63161193  1
  Al  Al108  1  0.74975516  0.36473604  0.13674650  1
  Al  Al109  1  0.74924362  0.36656942  0.63514937  1
  Al  Al110  1  0.75047907  0.86712693  0.13358462  1
  Al  Al111  1  0.75388714  0.86290593  0.62961736  1
  Al  Al112  1  0.25088432  0.13098739  0.36676111  1
  Al  Al113  1  0.25023658  0.12862718  0.86531796  1
  Al  Al114  1  0.25159915  0.63992761  0.36727322  1
  Al  Al115  1  0.25063992  0.63530536  0.86273074  1
  Al  Al116  1  0.74863333  0.13497137  0.36366829  1
  Al  Al117  1  0.75072253  0.13208622  0.86617264  1
  Al  Al118  1  0.75337619  0.63727941  0.36487731  1
  Al  Al119  1  0.75233193  0.63678085  0.86457102  1
  Al  Al120  1  0.24776982  0.36092870  0.36285318  1
  Al  Al121  1  0.25419799  0.36589814  0.86314275  1
  Al  Al122  1  0.24923145  0.87094823  0.36462000  1
  Al  Al123  1  0.24344233  0.86790636  0.86552521  1
  Al  Al124  1  0.75455162  0.36354163  0.36218972  1
  Al  Al125  1  0.74204477  0.36577761  0.86641550  1
  Al  Al126  1  0.74795012  0.86557130  0.36500564  1
  Al  Al127  1  0.75321738  0.86479531  0.87236574  1
  Al  Al128  1  0.13045112  0.24543148  0.13844322  1
  Al  Al129  1  0.13884264  0.24327307  0.63062637  1
  Al  Al130  1  0.13708323  0.75603343  0.13620278  1
  Al  Al131  1  0.13289436  0.74960307  0.63239310  1
  Al  Al132  1  0.63397519  0.24954244  0.13594868  1
  Al  Al133  1  0.63366460  0.25320301  0.63537873  1
  Al  Al134  1  0.63594649  0.75189698  0.13606324  1
  Al  Al135  1  0.63829744  0.75299432  0.63092919  1
  Al  Al136  1  0.13643932  0.24647089  0.36533732  1
  Al  Al137  1  0.14055535  0.25094722  0.86632643  1
  Al  Al138  1  0.13719871  0.75320444  0.37037391  1
  Al  Al139  1  0.13130395  0.75131242  0.86210062  1
  Al  Al140  1  0.62821243  0.24717465  0.36149458  1
  Al  Al141  1  0.63282586  0.25174626  0.86302308  1
  Al  Al142  1  0.63042451  0.75317672  0.36540234  1
  Al  Al143  1  0.63722247  0.75480410  0.86290588  1
  Al  Al144  1  0.36577861  0.24342464  0.13762514  1
  Al  Al145  1  0.36486010  0.24871032  0.63553718  1
  Al  Al146  1  0.36328398  0.75413052  0.13698981  1
  Al  Al147  1  0.36168865  0.74964556  0.63338804  1
  Al  Al148  1  0.86766468  0.24677638  0.13578178  1
  Al  Al149  1  0.85946644  0.24883165  0.62975698  1
  Al  Al150  1  0.86271881  0.75268023  0.12924921  1
  Al  Al151  1  0.86726476  0.74978702  0.63155974  1
  Al  Al152  1  0.36901555  0.24183843  0.36323013  1
  Al  Al153  1  0.36431001  0.24668770  0.86378289  1
  Al  Al154  1  0.36867154  0.75223025  0.36324879  1
  Al  Al155  1  0.35844373  0.75374913  0.86369685  1
  Al  Al156  1  0.86450021  0.24860029  0.36654010  1
  Al  Al157  1  0.86227877  0.24807915  0.86607825  1
  Al  Al158  1  0.86621354  0.75335420  0.36805871  1
  Al  Al159  1  0.86866270  0.74984918  0.86751594  1
  Al  Al160  1  0.13480974  0.12577921  0.25241710  1
  Al  Al161  1  0.13803953  0.13351325  0.75213997  1
  Al  Al162  1  0.13268491  0.64140316  0.25161046  1
  Al  Al163  1  0.13257133  0.63884123  0.74849804  1
  Al  Al164  1  0.63436646  0.13212375  0.24865647  1
  Al  Al165  1  0.63668309  0.13490715  0.74721731  1
  Al  Al166  1  0.63126617  0.63945514  0.25034698  1
  Al  Al167  1  0.63684505  0.63769702  0.74887889  1
  Al  Al168  1  0.36686180  0.12716339  0.25083851  1
  Al  Al169  1  0.36024681  0.12791594  0.74893999  1
  Al  Al170  1  0.37034761  0.64064777  0.24962349  1
  Al  Al171  1  0.36319538  0.63679096  0.74967845  1
  Al  Al172  1  0.86692310  0.13181542  0.24739948  1
  Al  Al173  1  0.86246382  0.13541567  0.74981588  1
  Al  Al174  1  0.87006768  0.63735097  0.25036000  1
  Al  Al175  1  0.86891684  0.63772903  0.74898728  1
  Al  Al176  1  0.12961868  0.36106096  0.25024543  1
  Al  Al177  1  0.13727028  0.36227397  0.74830847  1
  Al  Al178  1  0.13518735  0.87367986  0.25253800  1
  Al  Al179  1  0.13192943  0.86652213  0.75133937  1
  Al  Al180  1  0.63246038  0.36328456  0.25333927  1
  Al  Al181  1  0.63299721  0.36849223  0.74360087  1
  Al  Al182  1  0.63634168  0.87073724  0.24896025  1
  Al  Al183  1  0.64228470  0.86768518  0.74437413  1
  Al  Al184  1  0.36575370  0.36044484  0.25484450  1
  Al  Al185  1  0.36495383  0.36354450  0.74738457  1
  Al  Al186  1  0.36400156  0.87321002  0.25224753  1
  Al  Al187  1  0.35615318  0.87346775  0.75264527  1
  Al  Al188  1  0.86772474  0.36496723  0.24829429  1
  Al  Al189  1  0.86162402  0.36180665  0.75144556  1
  Al  Al190  1  0.86315756  0.86736761  0.24671988  1
  Al  Al191  1  0.86719254  0.86191895  0.75155089  1
  Al  Al192  1  0.50043516  0.16671333  0.82712866  1
  Al  Al193  1  0.49939146  0.18416126  0.67512961  1
  Al  Al194  1  0.00033662  0.82441704  0.67707211  1
  Al  Al195  1  0.49721864  0.32178233  0.18091907  1
  Al  Al196  1  0.00078885  0.17046722  0.82681854  1
  Al  Al197  1  0.67617986  0.67525100  0.50105323  1
  Al  Al198  1  -0.00110186  0.82644276  0.32931739  1
  Al  Al199  1  0.17580556  0.69421055  -0.00068058  1
  Al  Al200  1  -0.00015751  0.32559948  0.66794731  1
  Al  Al201  1  0.67821874  0.32645136  0.49777943  1
  Al  Al202  1  0.33028386  0.67182803  0.00060316  1
  Al  Al203  1  0.68041611  0.68433158  -0.00043487  1
  Al  Al204  1  0.80664275  0.30646521  0.00026166  1
  Al  Al205  1  0.18011463  0.17452476  0.00285584  1
  Al  Al206  1  -0.00038536  0.82402193  0.17311559  1
  Al  Al207  1  0.00033297  0.17231458  0.67288463  1
  Al  Al208  1  0.00091119  0.32530014  0.82707390  1
  Al  Al209  1  0.30693633  0.82304958  0.00201911  1
  Al  Al210  1  0.17450925  0.50252523  0.66973393  1
  Al  Al211  1  0.69337853  0.19028012  0.00055212  1
  Al  Al212  1  0.32672466  0.31639870  0.49858138  1
  Al  Al213  1  0.67684912  0.17123824  0.50036316  1
  Al  Al214  1  0.32715591  0.49977584  0.68163513  1
  Al  Al215  1  0.32968227  0.50031040  0.17362303  1
  Al  Al216  1  0.49678293  0.83099783  0.83227884  1
  Al  Al217  1  0.17309372  0.50110144  0.32886016  1
  Al  Al218  1  0.67677272  0.50290731  0.17075292  1
  Al  Al219  1  0.00085863  0.18219743  0.32151538  1
  Al  Al220  1  0.32911275  0.50416414  0.32882413  1
  Al  Al221  1  0.18485225  0.49965794  0.82672866  1
  Al  Al222  1  0.81890188  0.50240952  0.67122425  1
  Al  Al223  1  0.32016465  0.32148341  0.00198077  1
  Al  Al224  1  0.17182395  0.32056925  0.49913058  1
  Al  Al225  1  0.49953552  0.82976198  0.66871365  1
  Al  Al226  1  0.68170079  -0.00033130  0.81483248  1
  Al  Al227  1  0.81307208  -0.00269553  0.68234320  1
  Al  Al228  1  0.18139420  -0.00039080  0.68333310  1
  Al  Al229  1  0.50000885  0.82064571  0.17742816  1
  Al  Al230  1  0.31111817  0.81424698  0.49697281  1
  Al  Al231  1  0.81240414  -0.00047870  0.31485255  1
  Al  Al232  1  0.50037823  0.67247789  0.67185500  1
  Al  Al233  1  0.67895321  0.50024213  0.32506245  1
  Al  Al234  1  0.66676025  0.50296184  0.81736919  1
  Al  Al235  1  0.49878813  0.33109871  0.81415934  1
  Al  Al236  1  0.49957137  0.67423865  0.82635286  1
  Al  Al237  1  0.17797166  0.49891361  0.17335367  1
  Al  Al238  1  0.83436757  0.49972010  0.82989516  1
  Au  Au239  1  -0.00328463  0.83858334  0.33209989  1
  Au  Au240  1  0.49767578  0.33698793  0.82918754  1
  Au  Au241  1  0.82964252  0.33154734  0.49657849  1
  Au  Au242  1  0.50474969  0.15828425  0.16766165  1
  Au  Au243  1  0.66394458  0.50450405  0.83406974  1
  Au  Au244  1  0.50027716  0.82544409  0.65245696  1
  Au  Au245  1  0.83872760  0.50138742  0.16995657  1
  Au  Au246  1  0.32893129  -0.00060270  0.67477143  1
  Au  Au247  1  0.17519267  0.67727920  -0.00223844  1
  Au  Au248  1  0.84095822  -0.00372002  0.82991765  1
  Au  Au249  1  0.50089702  0.66367834  0.32560916  1
  Au  Au250  1  0.00524365  0.66257288  0.33333798  1
  Au  Au251  1  0.17473960  0.00088154  0.33309221  1
  Au  Au252  1  0.00108327  0.17373333  0.33593427  1
  Au  Au253  1  0.84047559  0.68112571  0.49974498  1
  Au  Au254  1  0.00155191  0.16735284  0.84302323  1
  Au  Au255  1  0.82865980  0.67607191  -0.00175954  1
  Au  Au256  1  -0.00136342  0.67503350  0.16399903  1
  Au  Au257  1  0.50042019  0.82870309  0.16294573  1
  Au  Au258  1  0.00048637  0.82105204  0.66446466  1
  Au  Au259  1  -0.00206356  0.16209208  0.16035081  1
  Au  Au260  1  0.68169224  0.83958935  0.49771154  1
  Au  Au261  1  -0.00068927  0.33100926  0.17766032  1
  Au  Au262  1  0.82534503  0.50550139  0.65586391  1
  Au  Au263  1  0.00040112  0.82277011  0.83915325  1
  Au  Au264  1  0.49597772  0.15173200  0.82627823  1
  Au  Au265  1  0.66729190  0.66668029  0.49907539  1
  Au  Au266  1  0.49855422  0.83560625  0.33793883  1
  Au  Au267  1  0.66668543  0.00000814  0.82260521  1
  Au  Au268  1  0.82885417  0.50044199  0.33813611  1
  Au  Au269  1  0.49428473  0.82696746  0.84850145  1
  Au  Au270  1  0.83980136  0.16183628  0.50231234  1
  Au  Au271  1  0.16157860  0.50254654  0.17083480  1
  Au  Au272  1  0.32629201  -0.00085819  0.17305256  1
  Au  Au273  1  0.17278785  0.16432442  0.00231699  1
  Au  Au274  1  0.33245039  0.49088613  0.33802808  1
  Au  Au275  1  0.32730780  0.16616525  0.49757068  1
  Au  Au276  1  0.16977049  0.33045936  -0.00086533  1
  Au  Au277  1  0.81774126  0.31981029  -0.00085869  1
  Au  Au278  1  0.66116695  0.16752827  0.50039205  1
  Au  Au279  1  0.16847092  0.50014792  0.82185866  1
  Au  Au280  1  0.00067633  0.34117992  0.67512192  1
  Au  Au281  1  0.85112846  0.49967649  0.83421409  1
  Au  Au282  1  0.33717013  0.17338250  0.00060492  1
  Au  Au283  1  0.17011388  0.33303814  0.50168417  1
  Au  Au284  1  0.49894398  0.16933630  0.33343387  1
  Au  Au285  1  0.49676338  0.33573008  0.17151059  1
  Au  Au286  1  0.67889982  0.83351205  0.00277805  1
  Au  Au287  1  0.66054060  0.50281249  0.16754017  1
