# generated using pymatgen
data_Ca24Ti8Al207Au49
_symmetry_space_group_name_H-M   'P 1'
_cell_length_a   17.32492763
_cell_length_b   17.32392176
_cell_length_c   17.32396124
_cell_angle_alpha   89.99972486
_cell_angle_beta   90.00007062
_cell_angle_gamma   90.00127682
_symmetry_Int_Tables_number   1
_chemical_formula_structural   Ca24Ti8Al207Au49
_chemical_formula_sum   'Ca24 Ti8 Al207 Au49'
_cell_volume   5199.53907088
_cell_formula_units_Z   1
loop_
 _symmetry_equiv_pos_site_id
 _symmetry_equiv_pos_as_xyz
  1  'x, y, z'
loop_
 _atom_site_type_symbol
 _atom_site_label
 _atom_site_symmetry_multiplicity
 _atom_site_fract_x
 _atom_site_fract_y
 _atom_site_fract_z
 _atom_site_occupancy
  Ca  Ca0  1  0.25015080  -0.00449296  0.00210654  1
  Ca  Ca1  1  0.25296435  0.00110660  0.49999834  1
  Ca  Ca2  1  0.24820798  0.50499868  -0.00146282  1
  Ca  Ca3  1  0.25005346  0.49970177  0.50360718  1
  Ca  Ca4  1  0.74716853  -0.00137290  0.00204143  1
  Ca  Ca5  1  0.74576018  -0.00007545  0.49414102  1
  Ca  Ca6  1  0.74759813  0.50190319  0.00083791  1
  Ca  Ca7  1  0.74662130  0.50071754  0.50024894  1
  Ca  Ca8  1  0.00055224  0.24731407  0.00131159  1
  Ca  Ca9  1  0.00167007  0.24738094  0.49730274  1
  Ca  Ca10  1  0.00390643  0.75045822  -0.00001996  1
  Ca  Ca11  1  0.00576084  0.74850991  0.49878678  1
  Ca  Ca12  1  0.50178116  0.24809091  0.00006669  1
  Ca  Ca13  1  0.49834726  0.24422412  0.50055069  1
  Ca  Ca14  1  0.49901491  0.75234115  0.00075799  1
  Ca  Ca15  1  0.49634361  0.75217966  0.49896732  1
  Ca  Ca16  1  0.00408178  -0.00115961  0.25330082  1
  Ca  Ca17  1  0.00355562  0.00023021  0.74560900  1
  Ca  Ca18  1  -0.00272780  0.50388940  0.25084560  1
  Ca  Ca19  1  -0.00021017  0.50284288  0.74667906  1
  Ca  Ca20  1  0.49564089  -0.00236177  0.25457109  1
  Ca  Ca21  1  0.49694028  -0.00133144  0.74327982  1
  Ca  Ca22  1  0.49648191  0.49993350  0.25475252  1
  Ca  Ca23  1  0.50195126  0.50034864  0.74584218  1
  Ti  Ti24  1  0.24847686  0.24810277  0.25047597  1
  Ti  Ti25  1  0.25092042  0.24933529  0.74808895  1
  Ti  Ti26  1  0.25083243  0.75114676  0.25063453  1
  Ti  Ti27  1  0.25142155  0.75104574  0.74875297  1
  Ti  Ti28  1  0.75070967  0.24874026  0.25113094  1
  Ti  Ti29  1  0.74827574  0.25094923  0.74834262  1
  Ti  Ti30  1  0.74979304  0.74989495  0.24983346  1
  Ti  Ti31  1  0.74848340  0.74951193  0.75140103  1
  Al  Al32  1  0.08015422  0.08240326  0.09483791  1
  Al  Al33  1  0.09402939  0.08176229  0.58333364  1
  Al  Al34  1  0.07480119  0.59084698  0.08775632  1
  Al  Al35  1  0.08109729  0.58245613  0.57907960  1
  Al  Al36  1  0.58235867  0.08340010  0.08499050  1
  Al  Al37  1  0.57751640  0.08675565  0.58196794  1
  Al  Al38  1  0.57848347  0.58946056  0.08376451  1
  Al  Al39  1  0.57460112  0.58521605  0.58397392  1
  Al  Al40  1  0.42410874  0.41287551  0.07755988  1
  Al  Al41  1  0.40888270  0.41890409  0.58811928  1
  Al  Al42  1  0.41309416  0.90455113  0.08564926  1
  Al  Al43  1  0.40305120  0.91639178  0.58011375  1
  Al  Al44  1  0.92500372  0.41620898  0.08011125  1
  Al  Al45  1  0.92134605  0.41458115  0.58970409  1
  Al  Al46  1  0.92177278  0.91601116  0.08400773  1
  Al  Al47  1  0.92305668  0.92055077  0.57314399  1
  Al  Al48  1  0.42229483  0.08135987  0.41457136  1
  Al  Al49  1  0.42329807  0.07997872  0.91169221  1
  Al  Al50  1  0.42257759  0.58908960  0.42410372  1
  Al  Al51  1  0.41919294  0.59644426  0.91571588  1
  Al  Al52  1  0.91160498  0.07844209  0.40939575  1
  Al  Al53  1  0.91854353  0.07834342  0.92692806  1
  Al  Al54  1  0.92348162  0.59159030  0.41064877  1
  Al  Al55  1  0.91288858  0.59783388  0.91770445  1
  Al  Al56  1  0.08302582  0.42260285  0.42134852  1
  Al  Al57  1  0.07958409  0.42015761  0.92343416  1
  Al  Al58  1  0.08778955  0.91992842  0.41312746  1
  Al  Al59  1  0.08870091  0.91377948  0.91704739  1
  Al  Al60  1  0.58508463  0.42061282  0.40875851  1
  Al  Al61  1  0.58210707  0.41691494  0.92082537  1
  Al  Al62  1  0.58075699  0.91925136  0.40313891  1
  Al  Al63  1  0.57450534  0.91779666  0.91666872  1
  Al  Al64  1  0.08985989  0.08105188  0.41620811  1
  Al  Al65  1  0.08550803  0.07347450  0.92126295  1
  Al  Al66  1  0.08274967  0.58887070  0.41123699  1
  Al  Al67  1  0.07062815  0.59037153  0.91607903  1
  Al  Al68  1  0.58689697  0.08356835  0.40932438  1
  Al  Al69  1  0.58045675  0.08765030  0.91382220  1
  Al  Al70  1  0.58533155  0.58091185  0.40730778  1
  Al  Al71  1  0.57830950  0.59340651  0.91161888  1
  Al  Al72  1  0.42445555  0.41154735  0.42930044  1
  Al  Al73  1  0.42065178  0.41779258  0.92076560  1
  Al  Al74  1  0.41385612  0.90945196  0.41469941  1
  Al  Al75  1  0.40992778  0.90884571  0.92067323  1
  Al  Al76  1  0.92146062  0.42088524  0.42251067  1
  Al  Al77  1  0.92087576  0.42440851  0.92300373  1
  Al  Al78  1  0.91181452  0.92031081  0.41066877  1
  Al  Al79  1  0.92268261  0.91474362  0.91882191  1
  Al  Al80  1  0.08270725  0.41643280  0.08482287  1
  Al  Al81  1  0.07994948  0.40992743  0.58848472  1
  Al  Al82  1  0.08697022  0.91713502  0.08378271  1
  Al  Al83  1  0.09360877  0.92205031  0.58709010  1
  Al  Al84  1  0.58120656  0.41452404  0.07947785  1
  Al  Al85  1  0.57675435  0.41681266  0.58059839  1
  Al  Al86  1  0.57237511  0.90957007  0.09359972  1
  Al  Al87  1  0.57282876  0.92370551  0.57719761  1
  Al  Al88  1  0.42353703  0.07984759  0.08346964  1
  Al  Al89  1  0.41377723  0.08002376  0.59080650  1
  Al  Al90  1  0.42101631  0.59607561  0.07820450  1
  Al  Al91  1  0.41215953  0.58452578  0.59200934  1
  Al  Al92  1  0.92198210  0.09277684  0.08739605  1
  Al  Al93  1  0.92252488  0.07998623  0.57633304  1
  Al  Al94  1  0.91656241  0.60296762  0.07955654  1
  Al  Al95  1  0.92034867  0.57775250  0.58179829  1
  Al  Al96  1  0.24660309  0.13520344  0.13645311  1
  Al  Al97  1  0.25323139  0.13178209  0.63410392  1
  Al  Al98  1  0.25019984  0.63769087  0.13763304  1
  Al  Al99  1  0.25393984  0.62933760  0.63749401  1
  Al  Al100  1  0.74904857  0.13306559  0.14044482  1
  Al  Al101  1  0.75032953  0.13724878  0.63463659  1
  Al  Al102  1  0.75150173  0.63942250  0.12980404  1
  Al  Al103  1  0.74585610  0.63713341  0.63123370  1
  Al  Al104  1  0.24472577  0.36521773  0.13717277  1
  Al  Al105  1  0.25071883  0.36838391  0.63712578  1
  Al  Al106  1  0.25146088  0.86366557  0.13785442  1
  Al  Al107  1  0.25363004  0.87130966  0.63607982  1
  Al  Al108  1  0.75157987  0.36462406  0.13901389  1
  Al  Al109  1  0.74504595  0.36137439  0.63231445  1
  Al  Al110  1  0.74989558  0.86377921  0.13536284  1
  Al  Al111  1  0.74794802  0.86327771  0.63651958  1
  Al  Al112  1  0.24710925  0.13313612  0.36220789  1
  Al  Al113  1  0.24873937  0.13558359  0.86432878  1
  Al  Al114  1  0.25369149  0.63765342  0.36329625  1
  Al  Al115  1  0.25323323  0.63741506  0.86483114  1
  Al  Al116  1  0.74994136  0.13138821  0.36141838  1
  Al  Al117  1  0.74632645  0.13457557  0.86295240  1
  Al  Al118  1  0.74637013  0.63800413  0.36891288  1
  Al  Al119  1  0.74919526  0.63949646  0.87296923  1
  Al  Al120  1  0.24640232  0.35974078  0.36387047  1
  Al  Al121  1  0.24841296  0.36723181  0.86077369  1
  Al  Al122  1  0.25295482  0.86333298  0.36499306  1
  Al  Al123  1  0.25427165  0.86145288  0.86365285  1
  Al  Al124  1  0.74883752  0.36304221  0.36715732  1
  Al  Al125  1  0.74882965  0.36771371  0.86206345  1
  Al  Al126  1  0.74744615  0.86578996  0.36144312  1
  Al  Al127  1  0.74468201  0.86042231  0.86848510  1
  Al  Al128  1  0.12983410  0.24758559  0.13357275  1
  Al  Al129  1  0.13440060  0.25044198  0.63445442  1
  Al  Al130  1  0.13161570  0.75063785  0.13733759  1
  Al  Al131  1  0.13923877  0.75113992  0.63441966  1
  Al  Al132  1  0.63461685  0.24366915  0.13971763  1
  Al  Al133  1  0.62643757  0.25029511  0.63683792  1
  Al  Al134  1  0.63603046  0.75170516  0.13257941  1
  Al  Al135  1  0.63337355  0.74978930  0.63420355  1
  Al  Al136  1  0.12677787  0.24934998  0.36309618  1
  Al  Al137  1  0.13603641  0.25133933  0.86786037  1
  Al  Al138  1  0.13387456  0.74782160  0.36600116  1
  Al  Al139  1  0.13313321  0.75036303  0.86277712  1
  Al  Al140  1  0.63479071  0.24645220  0.36460689  1
  Al  Al141  1  0.63413370  0.25034196  0.86168657  1
  Al  Al142  1  0.62720388  0.75073853  0.36361626  1
  Al  Al143  1  0.62871216  0.74678979  0.86799469  1
  Al  Al144  1  0.36295637  0.24650897  0.13582272  1
  Al  Al145  1  0.36986637  0.24632854  0.63610853  1
  Al  Al146  1  0.36738268  0.75621044  0.13490878  1
  Al  Al147  1  0.36159649  0.75256404  0.62775676  1
  Al  Al148  1  0.86893620  0.24814599  0.13747112  1
  Al  Al149  1  0.87171321  0.24974114  0.63623729  1
  Al  Al150  1  0.87128180  0.74883541  0.13641113  1
  Al  Al151  1  0.86360581  0.74801502  0.63582596  1
  Al  Al152  1  0.36401859  0.24393435  0.36667536  1
  Al  Al153  1  0.36403318  0.24976636  0.86106455  1
  Al  Al154  1  0.36881722  0.75213445  0.36977485  1
  Al  Al155  1  0.37067878  0.75055690  0.86110543  1
  Al  Al156  1  0.86928439  0.24841320  0.36648718  1
  Al  Al157  1  0.86483441  0.24977905  0.86383865  1
  Al  Al158  1  0.86467293  0.74596695  0.36424051  1
  Al  Al159  1  0.87030455  0.74794395  0.86754272  1
  Al  Al160  1  0.12944227  0.13585679  0.25197749  1
  Al  Al161  1  0.13563747  0.13459687  0.74232100  1
  Al  Al162  1  0.13160136  0.63812145  0.24999201  1
  Al  Al163  1  0.13708882  0.63663266  0.74876444  1
  Al  Al164  1  0.62748013  0.13160264  0.25655992  1
  Al  Al165  1  0.63424879  0.13490706  0.74625895  1
  Al  Al166  1  0.63672754  0.63553777  0.25120828  1
  Al  Al167  1  0.63679006  0.63170201  0.75295827  1
  Al  Al168  1  0.37018478  0.13506699  0.25239382  1
  Al  Al169  1  0.36440449  0.13014807  0.74346900  1
  Al  Al170  1  0.36796692  0.63842041  0.25003407  1
  Al  Al171  1  0.36542790  0.63629807  0.74897817  1
  Al  Al172  1  0.87036265  0.13647364  0.25351945  1
  Al  Al173  1  0.86598805  0.13672367  0.74751611  1
  Al  Al174  1  0.86580587  0.63528825  0.24983734  1
  Al  Al175  1  0.86298044  0.63726668  0.75395127  1
  Al  Al176  1  0.12836984  0.36289381  0.24788600  1
  Al  Al177  1  0.13439247  0.36531087  0.74424872  1
  Al  Al178  1  0.13440504  0.86523080  0.25490513  1
  Al  Al179  1  0.13602127  0.86531537  0.74665893  1
  Al  Al180  1  0.63528974  0.36381227  0.25355580  1
  Al  Al181  1  0.62917839  0.36788853  0.74875687  1
  Al  Al182  1  0.62995228  0.86172149  0.25213659  1
  Al  Al183  1  0.62787129  0.86088751  0.75245539  1
  Al  Al184  1  0.36360183  0.36379473  0.25053366  1
  Al  Al185  1  0.36910698  0.36496708  0.74471319  1
  Al  Al186  1  0.37164795  0.86266094  0.25329462  1
  Al  Al187  1  0.37099886  0.86478949  0.74507336  1
  Al  Al188  1  0.87015802  0.36385001  0.25263729  1
  Al  Al189  1  0.86366586  0.36484460  0.74679484  1
  Al  Al190  1  0.86573054  0.86388605  0.25211143  1
  Al  Al191  1  0.86721148  0.86089598  0.75591170  1
  Al  Al192  1  0.82401268  0.32308327  0.50325926  1
  Al  Al193  1  0.67105303  0.82683296  0.49749959  1
  Al  Al194  1  0.32838080  -0.00123147  0.17341064  1
  Al  Al195  1  0.66762953  0.49870889  0.18248372  1
  Al  Al196  1  0.00042368  0.32828979  0.81297190  1
  Al  Al197  1  0.17400781  -0.00043432  0.81425553  1
  Al  Al198  1  0.18921862  0.82341258  0.00066173  1
  Al  Al199  1  0.82941964  0.00089552  0.18684825  1
  Al  Al200  1  0.32393970  0.16899840  -0.00152663  1
  Al  Al201  1  0.18505687  0.82948256  0.49987826  1
  Al  Al202  1  0.82712091  0.82279155  0.49849208  1
  Al  Al203  1  0.31632590  -0.00089598  0.32566575  1
  Al  Al204  1  0.18151889  0.67491512  0.50031582  1
  Al  Al205  1  0.81389330  0.50077840  0.32844814  1
  Al  Al206  1  0.82029934  -0.00056574  0.82965608  1
  Al  Al207  1  0.82673895  -0.00197747  0.67060870  1
  Al  Al208  1  0.00114423  0.82741940  0.67499184  1
  Al  Al209  1  0.00267824  0.16841970  0.82003278  1
  Al  Al210  1  0.67217078  -0.00074526  0.67458927  1
  Al  Al211  1  0.82194110  0.81252052  0.00116335  1
  Al  Al212  1  0.82245621  0.50295868  0.83110432  1
  Al  Al213  1  0.49964143  0.68328533  0.68788296  1
  Al  Al214  1  -0.00050219  0.82270487  0.32091616  1
  Al  Al215  1  0.17480185  0.50070649  0.32110047  1
  Al  Al216  1  0.33200757  0.49993038  0.81787012  1
  Al  Al217  1  0.67219097  -0.00263759  0.19117427  1
  Al  Al218  1  0.50138527  0.69052014  0.18108598  1
  Al  Al219  1  0.17078004  0.67263665  0.00014483  1
  Al  Al220  1  0.82798147  0.32733312  -0.00006749  1
  Al  Al221  1  0.32222331  0.69280731  -0.00053603  1
  Al  Al222  1  0.82972488  0.50389098  0.16956637  1
  Al  Al223  1  0.16887682  0.50333757  0.82021329  1
  Al  Al224  1  0.49838359  0.17976391  0.80769716  1
  Al  Al225  1  0.31686035  0.31640393  0.50228544  1
  Al  Al226  1  0.67652240  0.31724292  0.00174175  1
  Al  Al227  1  0.49983109  0.31887238  0.17536085  1
  Al  Al228  1  -0.00003857  0.67189789  0.68360985  1
  Al  Al229  1  0.32357811  -0.00159515  0.81785667  1
  Al  Al230  1  0.32027750  0.32557703  -0.00101261  1
  Al  Al231  1  0.49833091  0.31586707  0.32798393  1
  Al  Al232  1  0.18473278  0.18098902  0.49874517  1
  Al  Al233  1  0.81876518  0.50070526  0.67414751  1
  Al  Al234  1  0.81977379  0.17473211  0.00158704  1
  Al  Al235  1  0.32945318  0.49742366  0.33356687  1
  Al  Al236  1  0.32564527  0.50023853  0.16653126  1
  Al  Al237  1  0.17666060  -0.00033980  0.18945873  1
  Al  Al238  1  0.67682632  0.17880863  0.50011715  1
  Au  Au239  1  0.66111199  -0.00443296  0.17858753  1
  Au  Au240  1  0.17286413  0.50010508  0.66028168  1
  Au  Au241  1  0.00403646  0.82147821  0.83548551  1
  Au  Au242  1  0.33638179  0.17229158  -0.00208953  1
  Au  Au243  1  0.50011173  0.67448541  0.32706223  1
  Au  Au244  1  0.83445807  0.33002423  0.50323559  1
  Au  Au245  1  0.00337974  0.82112291  0.16719518  1
  Au  Au246  1  0.32949054  0.67440241  0.50301998  1
  Au  Au247  1  0.16757654  0.32982052  0.50003347  1
  Au  Au248  1  0.00226768  0.16511003  0.83689088  1
  Au  Au249  1  0.83503550  0.50283122  0.82833485  1
  Au  Au250  1  0.67247825  0.66480059  0.00055554  1
  Au  Au251  1  0.49884837  0.81927139  0.83311163  1
  Au  Au252  1  0.00130157  0.15998341  0.32750835  1
  Au  Au253  1  0.84231507  0.00323413  0.17601461  1
  Au  Au254  1  0.66044212  0.32847113  0.49551460  1
  Au  Au255  1  0.82589085  0.50244970  0.34030168  1
  Au  Au256  1  -0.00101043  0.32061289  0.16456139  1
  Au  Au257  1  0.33655710  0.50110527  0.15468280  1
  Au  Au258  1  0.17351803  0.33602876  0.00020878  1
  Au  Au259  1  0.49587647  0.32454415  0.66597912  1
  Au  Au260  1  0.67159016  0.16787324  -0.00066062  1
  Au  Au261  1  0.66664302  0.66328433  0.49824688  1
  Au  Au262  1  -0.00047388  0.82612684  0.33306391  1
  Au  Au263  1  0.49521808  0.82985272  0.66229916  1
  Au  Au264  1  0.16248401  0.50561378  0.83488512  1
  Au  Au265  1  0.33208361  -0.00183826  0.82939681  1
  Au  Au266  1  0.83648071  -0.00038483  0.82403157  1
  Au  Au267  1  0.83794279  0.50528136  0.15633031  1
  Au  Au268  1  0.50032545  0.32367039  0.83758075  1
  Au  Au269  1  0.65210574  0.49853347  0.17724691  1
  Au  Au270  1  0.84288330  0.67403506  0.50245523  1
  Au  Au271  1  0.34571952  0.50214789  0.82657384  1
  Au  Au272  1  -0.00204673  0.83015670  0.66317251  1
  Au  Au273  1  0.33529394  0.16556674  0.49991477  1
  Au  Au274  1  0.00276832  0.17302393  0.65695476  1
  Au  Au275  1  0.15663558  0.50549486  0.17414247  1
  Au  Au276  1  0.65982086  0.50102339  0.83110750  1
  Au  Au277  1  0.65557477  -0.00105217  0.82311033  1
  Au  Au278  1  0.66051108  0.83369520  0.00211074  1
  Au  Au279  1  0.66992024  0.50046191  0.66134224  1
  Au  Au280  1  0.83352467  0.82528990  0.00153575  1
  Au  Au281  1  0.32840098  0.49214710  0.34885703  1
  Au  Au282  1  0.49863617  0.17020823  0.17846743  1
  Au  Au283  1  0.82456335  0.15825857  0.49769668  1
  Au  Au284  1  0.16499347  0.16300068  0.00512103  1
  Au  Au285  1  0.00153961  0.33546680  0.33112122  1
  Au  Au286  1  0.66601716  0.83951759  0.49623252  1
  Au  Au287  1  -0.00186406  0.33867001  0.82624691  1
