# generated using pymatgen
data_Ca24Ti8Al207Au49
_symmetry_space_group_name_H-M   'P 1'
_cell_length_a   17.31866401
_cell_length_b   17.32058381
_cell_length_c   17.31794284
_cell_angle_alpha   89.99529408
_cell_angle_beta   90.00694408
_cell_angle_gamma   90.00222968
_symmetry_Int_Tables_number   1
_chemical_formula_structural   Ca24Ti8Al207Au49
_chemical_formula_sum   'Ca24 Ti8 Al207 Au49'
_cell_volume   5194.85236971
_cell_formula_units_Z   1
loop_
 _symmetry_equiv_pos_site_id
 _symmetry_equiv_pos_as_xyz
  1  'x, y, z'
loop_
 _atom_site_type_symbol
 _atom_site_label
 _atom_site_symmetry_multiplicity
 _atom_site_fract_x
 _atom_site_fract_y
 _atom_site_fract_z
 _atom_site_occupancy
  Ca  Ca0  1  0.25392121  0.00433741  0.00234029  1
  Ca  Ca1  1  0.25133427  0.00276554  0.49804828  1
  Ca  Ca2  1  0.25384800  0.49735802  0.00468592  1
  Ca  Ca3  1  0.24674037  0.49896248  0.49635554  1
  Ca  Ca4  1  0.74574003  0.00240348  -0.00042284  1
  Ca  Ca5  1  0.74679068  0.00194848  0.49989971  1
  Ca  Ca6  1  0.74695120  0.50014542  0.00206446  1
  Ca  Ca7  1  0.74385847  0.49961802  0.49888488  1
  Ca  Ca8  1  -0.00334563  0.24972590  0.00917382  1
  Ca  Ca9  1  -0.00339961  0.24364653  0.49441061  1
  Ca  Ca10  1  -0.00189405  0.74742020  0.00584613  1
  Ca  Ca11  1  -0.00007741  0.75674553  0.49747473  1
  Ca  Ca12  1  0.50310682  0.25644948  0.00470945  1
  Ca  Ca13  1  0.50281112  0.24502421  0.49755030  1
  Ca  Ca14  1  0.50328288  0.74268866  0.00004246  1
  Ca  Ca15  1  0.50280765  0.75447901  0.49957219  1
  Ca  Ca16  1  -0.00098956  0.00130925  0.25264566  1
  Ca  Ca17  1  -0.00662235  -0.00397930  0.74669700  1
  Ca  Ca18  1  0.00170133  0.49955503  0.24533398  1
  Ca  Ca19  1  -0.00196930  0.49708442  0.75275065  1
  Ca  Ca20  1  0.50266095  0.00577787  0.25164567  1
  Ca  Ca21  1  0.50588153  -0.00215352  0.74666013  1
  Ca  Ca22  1  0.49885523  0.49946894  0.24243015  1
  Ca  Ca23  1  0.50012667  0.50206483  0.75736122  1
  Ti  Ti24  1  0.25039965  0.24769432  0.24922745  1
  Ti  Ti25  1  0.25203461  0.24951600  0.75067646  1
  Ti  Ti26  1  0.25035580  0.75179693  0.24843624  1
  Ti  Ti27  1  0.25180472  0.75020629  0.75010344  1
  Ti  Ti28  1  0.74926598  0.25028363  0.24967264  1
  Ti  Ti29  1  0.74707464  0.24805701  0.75144978  1
  Ti  Ti30  1  0.74951733  0.74938802  0.24878606  1
  Ti  Ti31  1  0.74804912  0.75035246  0.75163202  1
  Al  Al32  1  0.08082200  0.08584771  0.09979349  1
  Al  Al33  1  0.08932618  0.06981063  0.58729957  1
  Al  Al34  1  0.08139226  0.57804657  0.09203349  1
  Al  Al35  1  0.08600505  0.58288419  0.57274790  1
  Al  Al36  1  0.58086987  0.08984898  0.09198759  1
  Al  Al37  1  0.59018153  0.08369871  0.57717777  1
  Al  Al38  1  0.58901971  0.57914495  0.08256126  1
  Al  Al39  1  0.58742999  0.60223281  0.58564379  1
  Al  Al40  1  0.41482058  0.41507963  0.08996719  1
  Al  Al41  1  0.42526686  0.42080123  0.58302563  1
  Al  Al42  1  0.41799890  0.92378497  0.08901330  1
  Al  Al43  1  0.41741921  0.91746707  0.59335781  1
  Al  Al44  1  0.92532887  0.41379012  0.09071092  1
  Al  Al45  1  0.90992021  0.41868529  0.57064823  1
  Al  Al46  1  0.91354327  0.91994978  0.08971844  1
  Al  Al47  1  0.90459133  0.92098665  0.58446897  1
  Al  Al48  1  0.41903193  0.08691502  0.40226466  1
  Al  Al49  1  0.43187356  0.08653917  0.90942667  1
  Al  Al50  1  0.42032551  0.57306421  0.41152125  1
  Al  Al51  1  0.40830614  0.58465246  0.91789414  1
  Al  Al52  1  0.91564686  0.08808159  0.40979682  1
  Al  Al53  1  0.90329494  0.07749034  0.91351638  1
  Al  Al54  1  0.91872358  0.58618885  0.41266830  1
  Al  Al55  1  0.91629317  0.58375622  0.92335287  1
  Al  Al56  1  0.07832924  0.41597823  0.40952081  1
  Al  Al57  1  0.09491867  0.41176682  0.93120647  1
  Al  Al58  1  0.09528357  0.91765372  0.41806568  1
  Al  Al59  1  0.07335365  0.92628865  0.92130941  1
  Al  Al60  1  0.58309899  0.41202224  0.41265112  1
  Al  Al61  1  0.57753040  0.42012517  0.92193322  1
  Al  Al62  1  0.58878276  0.91717569  0.42272979  1
  Al  Al63  1  0.59109605  0.92073554  0.91191714  1
  Al  Al64  1  0.08038560  0.08050394  0.40487021  1
  Al  Al65  1  0.07788977  0.08238325  0.92168392  1
  Al  Al66  1  0.08171829  0.58858596  0.41197916  1
  Al  Al67  1  0.07622570  0.57455783  0.92281100  1
  Al  Al68  1  0.58218711  0.09005638  0.41285102  1
  Al  Al69  1  0.58911437  0.08323168  0.90213992  1
  Al  Al70  1  0.58931344  0.58958810  0.42362279  1
  Al  Al71  1  0.58366695  0.58881771  0.92277360  1
  Al  Al72  1  0.41938707  0.41768924  0.40347650  1
  Al  Al73  1  0.41204189  0.42155983  0.91689483  1
  Al  Al74  1  0.41385809  0.92723703  0.41364768  1
  Al  Al75  1  0.42720568  0.92057381  0.91784074  1
  Al  Al76  1  0.91688360  0.40824095  0.41464602  1
  Al  Al77  1  0.91819243  0.42370035  0.92804612  1
  Al  Al78  1  0.91318011  0.92231046  0.42191315  1
  Al  Al79  1  0.90776083  0.92284434  0.91363046  1
  Al  Al80  1  0.09045245  0.41051690  0.09209468  1
  Al  Al81  1  0.08199379  0.42833770  0.56981760  1
  Al  Al82  1  0.07702078  0.92561247  0.09863805  1
  Al  Al83  1  0.10240041  0.91219944  0.58044937  1
  Al  Al84  1  0.57893516  0.41700675  0.09299150  1
  Al  Al85  1  0.58228575  0.41609712  0.58085607  1
  Al  Al86  1  0.58085312  0.91929369  0.08191533  1
  Al  Al87  1  0.59050227  0.90960282  0.58476063  1
  Al  Al88  1  0.42126207  0.08690728  0.09983798  1
  Al  Al89  1  0.41508064  0.07495227  0.58725437  1
  Al  Al90  1  0.41297754  0.57759517  0.07936421  1
  Al  Al91  1  0.42870236  0.58894681  0.59127646  1
  Al  Al92  1  0.91731741  0.08343536  0.09520395  1
  Al  Al93  1  0.90474112  0.07779315  0.58764750  1
  Al  Al94  1  0.91774512  0.58660336  0.08824841  1
  Al  Al95  1  0.91612916  0.57947129  0.57652847  1
  Al  Al96  1  0.24684524  0.12784089  0.13844839  1
  Al  Al97  1  0.25054149  0.13142735  0.63587860  1
  Al  Al98  1  0.25594489  0.63428239  0.13225911  1
  Al  Al99  1  0.25144656  0.63725979  0.63734179  1
  Al  Al100  1  0.74940111  0.13699924  0.13157099  1
  Al  Al101  1  0.74864171  0.12844766  0.63529506  1
  Al  Al102  1  0.74792996  0.63099493  0.13102111  1
  Al  Al103  1  0.74553168  0.63559987  0.63539485  1
  Al  Al104  1  0.25093869  0.36269453  0.13566549  1
  Al  Al105  1  0.25405460  0.36529081  0.63719032  1
  Al  Al106  1  0.25037480  0.87329163  0.13784873  1
  Al  Al107  1  0.25045706  0.86904529  0.63607407  1
  Al  Al108  1  0.74788522  0.36704671  0.13291782  1
  Al  Al109  1  0.74632506  0.36443672  0.63563924  1
  Al  Al110  1  0.75016448  0.86637200  0.13601702  1
  Al  Al111  1  0.74782486  0.87064149  0.63748773  1
  Al  Al112  1  0.25309066  0.13237713  0.36338526  1
  Al  Al113  1  0.24969715  0.13479285  0.86703830  1
  Al  Al114  1  0.24951972  0.63682009  0.36076426  1
  Al  Al115  1  0.25977074  0.63352385  0.86800604  1
  Al  Al116  1  0.74984205  0.13703317  0.37043565  1
  Al  Al117  1  0.74698296  0.13313568  0.86959531  1
  Al  Al118  1  0.74497828  0.63294281  0.36369671  1
  Al  Al119  1  0.74601700  0.63291276  0.86701147  1
  Al  Al120  1  0.25196987  0.36064786  0.35845492  1
  Al  Al121  1  0.25151016  0.36408429  0.86661096  1
  Al  Al122  1  0.24897704  0.86624918  0.36597291  1
  Al  Al123  1  0.25198758  0.86456350  0.86539833  1
  Al  Al124  1  0.74567900  0.36502948  0.36237461  1
  Al  Al125  1  0.74839812  0.36475312  0.87247095  1
  Al  Al126  1  0.74964930  0.86530937  0.36489530  1
  Al  Al127  1  0.74876179  0.86910680  0.86494725  1
  Al  Al128  1  0.13345938  0.25377235  0.13718254  1
  Al  Al129  1  0.13812049  0.24786363  0.63570655  1
  Al  Al130  1  0.13607446  0.74640103  0.13582596  1
  Al  Al131  1  0.13567095  0.75487752  0.63299391  1
  Al  Al132  1  0.63354520  0.25006346  0.13396995  1
  Al  Al133  1  0.63809787  0.24518196  0.63090951  1
  Al  Al134  1  0.63732291  0.74853621  0.13107128  1
  Al  Al135  1  0.63809005  0.75212429  0.63202037  1
  Al  Al136  1  0.13506183  0.24571328  0.36190151  1
  Al  Al137  1  0.13704408  0.25106942  0.86636049  1
  Al  Al138  1  0.13608402  0.75346044  0.36299006  1
  Al  Al139  1  0.13826596  0.74864851  0.86531872  1
  Al  Al140  1  0.63386420  0.24817660  0.36744226  1
  Al  Al141  1  0.62989666  0.24716157  0.86757224  1
  Al  Al142  1  0.63467273  0.75010058  0.36663659  1
  Al  Al143  1  0.63248742  0.75187787  0.86755435  1
  Al  Al144  1  0.36775007  0.24576499  0.13890491  1
  Al  Al145  1  0.36465925  0.24907539  0.63747319  1
  Al  Al146  1  0.36328564  0.75109622  0.13609167  1
  Al  Al147  1  0.36637529  0.75011914  0.63359582  1
  Al  Al148  1  0.86294927  0.25055968  0.13335650  1
  Al  Al149  1  0.86242253  0.24332552  0.63675624  1
  Al  Al150  1  0.86317156  0.74575915  0.13346486  1
  Al  Al151  1  0.86374194  0.75370697  0.63748696  1
  Al  Al152  1  0.36966388  0.24378453  0.35900109  1
  Al  Al153  1  0.37227412  0.24872814  0.86275280  1
  Al  Al154  1  0.36786531  0.75576371  0.36068352  1
  Al  Al155  1  0.37253989  0.74884920  0.86437820  1
  Al  Al156  1  0.86567947  0.24497086  0.36175759  1
  Al  Al157  1  0.86095747  0.24743584  0.87043042  1
  Al  Al158  1  0.86279739  0.74872334  0.36239341  1
  Al  Al159  1  0.85957252  0.74747006  0.86473744  1
  Al  Al160  1  0.13324616  0.13424602  0.24909217  1
  Al  Al161  1  0.13415110  0.13681521  0.75004611  1
  Al  Al162  1  0.13620566  0.63529881  0.24752286  1
  Al  Al163  1  0.13946449  0.63675778  0.75301209  1
  Al  Al164  1  0.63343405  0.13814621  0.25055034  1
  Al  Al165  1  0.63649103  0.12732466  0.75197257  1
  Al  Al166  1  0.63624444  0.63016279  0.24683630  1
  Al  Al167  1  0.62609667  0.64041154  0.75046390  1
  Al  Al168  1  0.36559113  0.12826773  0.25053266  1
  Al  Al169  1  0.36724751  0.13497127  0.74895211  1
  Al  Al170  1  0.36608380  0.63434396  0.24789375  1
  Al  Al171  1  0.37061230  0.63714938  0.75148366  1
  Al  Al172  1  0.85892655  0.12902177  0.24946143  1
  Al  Al173  1  0.85879879  0.13012914  0.75309218  1
  Al  Al174  1  0.86255756  0.63179333  0.24626594  1
  Al  Al175  1  0.86065375  0.63087761  0.74873029  1
  Al  Al176  1  0.13251894  0.36581524  0.24807366  1
  Al  Al177  1  0.13647494  0.36417058  0.75217009  1
  Al  Al178  1  0.13364196  0.86626264  0.24750541  1
  Al  Al179  1  0.13382718  0.86597075  0.74403724  1
  Al  Al180  1  0.63380382  0.36756016  0.24629115  1
  Al  Al181  1  0.63595199  0.36519507  0.75667823  1
  Al  Al182  1  0.63600291  0.86442961  0.25168530  1
  Al  Al183  1  0.63805017  0.87099579  0.75032988  1
  Al  Al184  1  0.36907740  0.36478421  0.24227376  1
  Al  Al185  1  0.36565827  0.36667081  0.75764261  1
  Al  Al186  1  0.36255454  0.87439272  0.25114292  1
  Al  Al187  1  0.36678871  0.86396163  0.74851079  1
  Al  Al188  1  0.86506533  0.36640972  0.24631373  1
  Al  Al189  1  0.85992326  0.36656176  0.75454274  1
  Al  Al190  1  0.86255206  0.87024747  0.24971060  1
  Al  Al191  1  0.86245486  0.86800738  0.74954171  1
  Al  Al192  1  0.81162831  0.82737410  0.50092485  1
  Al  Al193  1  0.00241022  0.67251055  0.66991640  1
  Al  Al194  1  -0.00160854  0.16395403  0.67756273  1
  Al  Al195  1  0.33058384  0.66921043  0.49757734  1
  Al  Al196  1  0.50170802  0.31030230  0.30745762  1
  Al  Al197  1  0.17354158  0.32672576  0.49753861  1
  Al  Al198  1  0.18446054  0.50041789  0.83290840  1
  Al  Al199  1  0.67153775  0.50463533  0.67802575  1
  Al  Al200  1  0.31843893  0.83120879  0.50132855  1
  Al  Al201  1  0.31784311  0.49843578  0.30702806  1
  Al  Al202  1  0.33157666  0.81796290  -0.00032938  1
  Al  Al203  1  0.17140309  0.18479688  0.00366273  1
  Al  Al204  1  0.81179982  0.67180487  0.49887841  1
  Al  Al205  1  -0.00375411  0.18890721  0.19483254  1
  Al  Al206  1  0.50282440  0.81497640  0.67725604  1
  Al  Al207  1  0.32962021  0.32235592  0.49770088  1
  Al  Al208  1  0.81947366  0.82549246  0.00236649  1
  Al  Al209  1  -0.00081012  0.31025707  0.30828135  1
  Al  Al210  1  -0.00052910  0.67216387  0.82690908  1
  Al  Al211  1  0.50159725  0.32460754  0.68304443  1
  Al  Al212  1  0.33385176  0.17258891  0.00115703  1
  Al  Al213  1  0.17653633  0.50046174  0.67319582  1
  Al  Al214  1  0.00026546  0.32420812  0.83241622  1
  Al  Al215  1  -0.00238258  0.82863913  0.82386697  1
  Al  Al216  1  -0.00078233  0.67936708  0.30937631  1
  Al  Al217  1  0.17528284  0.68639084  0.49832913  1
  Al  Al218  1  0.81477647  0.31445571  0.49818631  1
  Al  Al219  1  0.17527348  -0.00101865  0.81186942  1
  Al  Al220  1  0.50224805  0.17279149  0.67745709  1
  Al  Al221  1  0.50001473  0.82493880  0.18054249  1
  Al  Al222  1  0.16951006  0.83389382  0.00401502  1
  Al  Al223  1  0.31971529  0.32683861  0.00134295  1
  Al  Al224  1  0.67981553  0.00139142  0.17385434  1
  Al  Al225  1  -0.00087674  0.83125566  0.33106982  1
  Al  Al226  1  0.67997090  0.00294765  0.32682705  1
  Al  Al227  1  0.50125162  0.67932866  0.32683742  1
  Al  Al228  1  0.18297778  0.66740742  -0.00061664  1
  Al  Al229  1  0.50016961  0.67073562  0.16788886  1
  Al  Al230  1  0.17392927  0.17130934  0.49867596  1
  Al  Al231  1  0.00149493  0.33160118  0.66793750  1
  Al  Al232  1  0.32727919  -0.00023387  0.81354049  1
  Al  Al233  1  0.33176960  0.50077551  0.68860405  1
  Al  Al234  1  0.33077241  0.16996789  0.49959345  1
  Al  Al235  1  -0.00267187  0.81413210  0.17864872  1
  Al  Al236  1  0.18834200  -0.00008503  0.30952226  1
  Al  Al237  1  0.19030059  0.49989388  0.18212941  1
  Al  Al238  1  0.82191121  0.49566044  0.32298726  1
  Au  Au239  1  0.66730932  0.50281628  0.83519447  1
  Au  Au240  1  0.00006660  0.84069063  0.65774347  1
  Au  Au241  1  0.00179130  0.33509884  0.65193529  1
  Au  Au242  1  0.00165172  0.32935773  0.84810295  1
  Au  Au243  1  0.00463815  0.65604469  0.67413777  1
  Au  Au244  1  0.66520327  0.50148876  0.32674714  1
  Au  Au245  1  0.66341210  0.82614915  0.00076048  1
  Au  Au246  1  0.82638630  0.16704099  0.50016916  1
  Au  Au247  1  0.32583693  0.65373464  0.49815602  1
  Au  Au248  1  0.83037505  -0.00031616  0.32416761  1
  Au  Au249  1  0.66280682  0.50090618  0.66983834  1
  Au  Au250  1  0.50123762  0.84370558  0.32899340  1
  Au  Au251  1  0.32475406  0.84608126  0.50219404  1
  Au  Au252  1  -0.00853700  0.15788863  0.82978038  1
  Au  Au253  1  0.33702920  0.50188840  0.67242664  1
  Au  Au254  1  0.82435832  0.83579785  -0.00256134  1
  Au  Au255  1  0.50571149  0.83434014  0.82333342  1
  Au  Au256  1  0.16183389  0.00161698  0.82319314  1
  Au  Au257  1  -0.00074540  0.31596058  0.32432965  1
  Au  Au258  1  0.82782532  0.67773845  0.49842989  1
  Au  Au259  1  0.82741350  0.49657769  0.66464114  1
  Au  Au260  1  0.66534299  0.33572535  0.00555536  1
  Au  Au261  1  0.32274201  0.00151988  0.17849527  1
  Au  Au262  1  -0.00344631  0.82389315  0.84026491  1
  Au  Au263  1  0.34932618  0.17427838  -0.00253885  1
  Au  Au264  1  0.16793348  0.85015352  0.00943487  1
  Au  Au265  1  0.16398169  0.16148511  0.49841439  1
  Au  Au266  1  0.00094502  0.16198960  0.66544611  1
  Au  Au267  1  0.83494371  0.50078920  0.83272052  1
  Au  Au268  1  0.34657518  0.82584015  0.00029124  1
  Au  Au269  1  0.16790359  0.49907288  0.82801100  1
  Au  Au270  1  0.83050107  0.49774823  0.33180189  1
  Au  Au271  1  0.83237862  0.16394885  0.00492234  1
  Au  Au272  1  0.49758367  0.66493709  0.83027773  1
  Au  Au273  1  0.49822512  0.32982091  0.83316342  1
  Au  Au274  1  0.83318712  0.33204489  0.00585551  1
  Au  Au275  1  0.33126557  0.33944664  0.49785932  1
  Au  Au276  1  0.33933594  0.00193493  0.82582094  1
  Au  Au277  1  0.66711892  0.32407539  0.50097229  1
  Au  Au278  1  0.82794188  0.49835923  0.16625055  1
  Au  Au279  1  0.50281881  0.66688475  0.32445400  1
  Au  Au280  1  0.82454548  0.66775500  0.00147740  1
  Au  Au281  1  0.66057642  0.16802562  -0.00204330  1
  Au  Au282  1  0.50213779  0.16407107  0.66603084  1
  Au  Au283  1  0.67513491  -0.00057468  0.66976413  1
  Au  Au284  1  0.50082121  0.32279960  0.31914827  1
  Au  Au285  1  0.17220853  0.50068938  0.33125344  1
  Au  Au286  1  0.15946256  0.17280517  0.00544341  1
  Au  Au287  1  0.16677788  0.66321619  0.00200037  1
