# generated using pymatgen
data_Ca24Ti8Al207Au49
_symmetry_space_group_name_H-M   'P 1'
_cell_length_a   17.32076580
_cell_length_b   17.32406561
_cell_length_c   17.32093756
_cell_angle_alpha   90.00113033
_cell_angle_beta   89.99954751
_cell_angle_gamma   90.00510803
_symmetry_Int_Tables_number   1
_chemical_formula_structural   Ca24Ti8Al207Au49
_chemical_formula_sum   'Ca24 Ti8 Al207 Au49'
_cell_volume   5197.42586937
_cell_formula_units_Z   1
loop_
 _symmetry_equiv_pos_site_id
 _symmetry_equiv_pos_as_xyz
  1  'x, y, z'
loop_
 _atom_site_type_symbol
 _atom_site_label
 _atom_site_symmetry_multiplicity
 _atom_site_fract_x
 _atom_site_fract_y
 _atom_site_fract_z
 _atom_site_occupancy
  Ca  Ca0  1  0.25114506  -0.00373971  0.00061183  1
  Ca  Ca1  1  0.24968051  0.00008880  0.50008608  1
  Ca  Ca2  1  0.25009033  0.50537795  0.00531910  1
  Ca  Ca3  1  0.25187626  0.49821449  0.49496344  1
  Ca  Ca4  1  0.75077735  -0.00019617  -0.00514941  1
  Ca  Ca5  1  0.74502830  0.00110026  0.50392049  1
  Ca  Ca6  1  0.75061386  0.50064584  -0.00348003  1
  Ca  Ca7  1  0.74455748  0.50193152  0.50157537  1
  Ca  Ca8  1  -0.00093377  0.24606440  -0.00100658  1
  Ca  Ca9  1  -0.00124334  0.24830003  0.49917232  1
  Ca  Ca10  1  0.00388192  0.74981066  -0.00293620  1
  Ca  Ca11  1  -0.00007518  0.74921590  0.50543170  1
  Ca  Ca12  1  0.50233853  0.24229708  0.00046914  1
  Ca  Ca13  1  0.50142607  0.25374395  0.49486299  1
  Ca  Ca14  1  0.49886714  0.74972946  -0.00588592  1
  Ca  Ca15  1  0.50320662  0.74803791  0.49854021  1
  Ca  Ca16  1  -0.00185752  0.00107629  0.24782889  1
  Ca  Ca17  1  -0.00035885  0.00047873  0.75066378  1
  Ca  Ca18  1  0.00022059  0.50013888  0.25315628  1
  Ca  Ca19  1  -0.00627416  0.49908539  0.74925470  1
  Ca  Ca20  1  0.50318886  0.00326190  0.24955037  1
  Ca  Ca21  1  0.50057510  0.00057099  0.75312719  1
  Ca  Ca22  1  0.50063447  0.49492649  0.25481065  1
  Ca  Ca23  1  0.50376528  0.50171221  0.74566509  1
  Ti  Ti24  1  0.24947935  0.24823778  0.25129600  1
  Ti  Ti25  1  0.25153871  0.24826893  0.74971774  1
  Ti  Ti26  1  0.24905175  0.75081144  0.25022880  1
  Ti  Ti27  1  0.25122222  0.74924644  0.75079179  1
  Ti  Ti28  1  0.75026713  0.25080623  0.24956003  1
  Ti  Ti29  1  0.74886056  0.24990883  0.75208049  1
  Ti  Ti30  1  0.75022554  0.74916335  0.25191975  1
  Ti  Ti31  1  0.74820866  0.74991234  0.74954996  1
  Al  Al32  1  0.07735922  0.08504170  0.09338802  1
  Al  Al33  1  0.07828490  0.08041370  0.57360126  1
  Al  Al34  1  0.09053267  0.58949875  0.08196403  1
  Al  Al35  1  0.07598253  0.58733631  0.58382572  1
  Al  Al36  1  0.58013907  0.08016507  0.08773115  1
  Al  Al37  1  0.59005243  0.07821510  0.57968524  1
  Al  Al38  1  0.58294890  0.58554476  0.10167175  1
  Al  Al39  1  0.58365799  0.57535539  0.58542460  1
  Al  Al40  1  0.42489362  0.42202300  0.08479881  1
  Al  Al41  1  0.42146306  0.41540083  0.56901210  1
  Al  Al42  1  0.41530451  0.92216407  0.07248812  1
  Al  Al43  1  0.42006086  0.91753320  0.58894618  1
  Al  Al44  1  0.91753876  0.41458462  0.08414178  1
  Al  Al45  1  0.90914962  0.42350788  0.59178356  1
  Al  Al46  1  0.92514331  0.92241881  0.07617297  1
  Al  Al47  1  0.91313799  0.91298532  0.59606974  1
  Al  Al48  1  0.42424860  0.09496414  0.40893694  1
  Al  Al49  1  0.40375170  0.08170586  0.91819255  1
  Al  Al50  1  0.40874111  0.57553637  0.41712885  1
  Al  Al51  1  0.42149991  0.58451073  0.92757573  1
  Al  Al52  1  0.92191121  0.08684331  0.40473087  1
  Al  Al53  1  0.91164378  0.07862053  0.90845335  1
  Al  Al54  1  0.91879261  0.57979760  0.41881001  1
  Al  Al55  1  0.91154442  0.57800335  0.91161095  1
  Al  Al56  1  0.08941574  0.42071916  0.40972417  1
  Al  Al57  1  0.06917538  0.42849296  0.91562478  1
  Al  Al58  1  0.07785157  0.92328120  0.41906306  1
  Al  Al59  1  0.09110444  0.91083907  0.91720751  1
  Al  Al60  1  0.58667106  0.40565073  0.41122439  1
  Al  Al61  1  0.59007224  0.42107852  0.91135805  1
  Al  Al62  1  0.58996813  0.93473042  0.42009189  1
  Al  Al63  1  0.59251794  0.92073042  0.90862407  1
  Al  Al64  1  0.08121836  0.09240727  0.41121834  1
  Al  Al65  1  0.07817953  0.07252181  0.91479316  1
  Al  Al66  1  0.08710891  0.57881324  0.41198257  1
  Al  Al67  1  0.08787801  0.58863755  0.92210023  1
  Al  Al68  1  0.58635231  0.09494301  0.40509393  1
  Al  Al69  1  0.58949841  0.07765540  0.91023209  1
  Al  Al70  1  0.58868246  0.56877563  0.40985710  1
  Al  Al71  1  0.58657240  0.57583004  0.91077152  1
  Al  Al72  1  0.41475753  0.40785004  0.40829425  1
  Al  Al73  1  0.42677389  0.41950235  0.92234166  1
  Al  Al74  1  0.41896425  0.92880260  0.42583661  1
  Al  Al75  1  0.40640821  0.91957323  0.91246384  1
  Al  Al76  1  0.91835512  0.41996293  0.41848264  1
  Al  Al77  1  0.90736496  0.42019775  0.90430470  1
  Al  Al78  1  0.91786190  0.92214781  0.41907350  1
  Al  Al79  1  0.91401808  0.92174921  0.91023377  1
  Al  Al80  1  0.07552900  0.42483230  0.09127846  1
  Al  Al81  1  0.07664147  0.42002452  0.58004734  1
  Al  Al82  1  0.09202543  0.91100534  0.07835404  1
  Al  Al83  1  0.07037870  0.91691251  0.59025992  1
  Al  Al84  1  0.58888882  0.42441826  0.09165412  1
  Al  Al85  1  0.59138875  0.41369375  0.57747032  1
  Al  Al86  1  0.58672138  0.92467680  0.08221017  1
  Al  Al87  1  0.58396094  0.92023749  0.59362219  1
  Al  Al88  1  0.41404133  0.08808655  0.07985993  1
  Al  Al89  1  0.41569023  0.07818065  0.57879129  1
  Al  Al90  1  0.42142558  0.59312839  0.09053085  1
  Al  Al91  1  0.41186554  0.59048204  0.57350896  1
  Al  Al92  1  0.92044404  0.08906550  0.09007786  1
  Al  Al93  1  0.91773951  0.07080902  0.58922433  1
  Al  Al94  1  0.92410632  0.57925086  0.07868776  1
  Al  Al95  1  0.91280872  0.58497022  0.59876518  1
  Al  Al96  1  0.25281694  0.13435399  0.13709743  1
  Al  Al97  1  0.25506383  0.13482464  0.63654915  1
  Al  Al98  1  0.24667324  0.63895327  0.12816859  1
  Al  Al99  1  0.25249342  0.63378005  0.63355892  1
  Al  Al100  1  0.75102776  0.13551166  0.13287627  1
  Al  Al101  1  0.74712907  0.13350351  0.63814911  1
  Al  Al102  1  0.74408175  0.63289970  0.13983717  1
  Al  Al103  1  0.75155137  0.63410363  0.63172508  1
  Al  Al104  1  0.24989697  0.36410338  0.13708691  1
  Al  Al105  1  0.24985428  0.36475721  0.63787594  1
  Al  Al106  1  0.24912794  0.86434305  0.13603713  1
  Al  Al107  1  0.25299617  0.86423703  0.63452424  1
  Al  Al108  1  0.74734511  0.36808250  0.13851119  1
  Al  Al109  1  0.75049670  0.36856031  0.63891154  1
  Al  Al110  1  0.75018329  0.86312538  0.13714894  1
  Al  Al111  1  0.74385310  0.86810916  0.63591397  1
  Al  Al112  1  0.25204640  0.13014280  0.36356430  1
  Al  Al113  1  0.25644866  0.13459709  0.86891847  1
  Al  Al114  1  0.25073736  0.63490252  0.36588569  1
  Al  Al115  1  0.24977651  0.63904958  0.87222675  1
  Al  Al116  1  0.74704729  0.13717786  0.36402038  1
  Al  Al117  1  0.74883200  0.13347555  0.86840688  1
  Al  Al118  1  0.74830312  0.62982676  0.36603230  1
  Al  Al119  1  0.74680025  0.63100144  0.86133490  1
  Al  Al120  1  0.25154372  0.36116222  0.36489496  1
  Al  Al121  1  0.25215791  0.36182520  0.86347685  1
  Al  Al122  1  0.25146376  0.87055503  0.36579002  1
  Al  Al123  1  0.24883258  0.86210833  0.86483936  1
  Al  Al124  1  0.74531687  0.36910507  0.36525062  1
  Al  Al125  1  0.74973640  0.37041223  0.86353069  1
  Al  Al126  1  0.74530916  0.86605939  0.36775596  1
  Al  Al127  1  0.75015534  0.86905958  0.86125232  1
  Al  Al128  1  0.13442696  0.24371119  0.13560995  1
  Al  Al129  1  0.13546500  0.25221508  0.63478901  1
  Al  Al130  1  0.13643526  0.75353921  0.13168907  1
  Al  Al131  1  0.13698708  0.75188367  0.63346648  1
  Al  Al132  1  0.63747365  0.25023200  0.13321066  1
  Al  Al133  1  0.63842867  0.25277724  0.63580056  1
  Al  Al134  1  0.63150777  0.74595076  0.14082946  1
  Al  Al135  1  0.63705617  0.74678411  0.63067220  1
  Al  Al136  1  0.13101529  0.25074689  0.36428191  1
  Al  Al137  1  0.13723181  0.24881712  0.86622082  1
  Al  Al138  1  0.13849394  0.75313850  0.36999775  1
  Al  Al139  1  0.13457057  0.74941487  0.86922580  1
  Al  Al140  1  0.63179541  0.25386074  0.36342274  1
  Al  Al141  1  0.63162106  0.24804352  0.86591168  1
  Al  Al142  1  0.63695052  0.74485123  0.37022324  1
  Al  Al143  1  0.63007049  0.75354672  0.85895788  1
  Al  Al144  1  0.36547912  0.24715016  0.13615405  1
  Al  Al145  1  0.36673258  0.24779019  0.62882998  1
  Al  Al146  1  0.36554530  0.74760507  0.13461491  1
  Al  Al147  1  0.36610011  0.74806647  0.63475013  1
  Al  Al148  1  0.86308365  0.24831856  0.13112964  1
  Al  Al149  1  0.86208911  0.25112333  0.63729059  1
  Al  Al150  1  0.86353926  0.75162649  0.13639021  1
  Al  Al151  1  0.86273695  0.75105197  0.63884515  1
  Al  Al152  1  0.36490360  0.25036569  0.37008095  1
  Al  Al153  1  0.37087619  0.24818944  0.86559663  1
  Al  Al154  1  0.36411890  0.74318634  0.36696269  1
  Al  Al155  1  0.37004489  0.74651184  0.86583914  1
  Al  Al156  1  0.86590243  0.24900160  0.36363822  1
  Al  Al157  1  0.86072761  0.25111830  0.86869803  1
  Al  Al158  1  0.86091147  0.75039007  0.36868068  1
  Al  Al159  1  0.86430101  0.74901410  0.86107800  1
  Al  Al160  1  0.13290594  0.13560053  0.25346926  1
  Al  Al161  1  0.13789595  0.13563880  0.75209073  1
  Al  Al162  1  0.13671090  0.63739048  0.25244342  1
  Al  Al163  1  0.13785385  0.63797444  0.75031810  1
  Al  Al164  1  0.63452223  0.13724846  0.25397662  1
  Al  Al165  1  0.63478200  0.13112503  0.75177184  1
  Al  Al166  1  0.63306410  0.63070592  0.25202258  1
  Al  Al167  1  0.63120254  0.63520960  0.74997671  1
  Al  Al168  1  0.36733974  0.13786914  0.25528039  1
  Al  Al169  1  0.36864614  0.13450190  0.75388356  1
  Al  Al170  1  0.36380468  0.63486943  0.24522792  1
  Al  Al171  1  0.37066212  0.63560117  0.74815510  1
  Al  Al172  1  0.86522561  0.13367444  0.24876658  1
  Al  Al173  1  0.86233262  0.13367880  0.75414475  1
  Al  Al174  1  0.86423060  0.63296685  0.25058820  1
  Al  Al175  1  0.86025226  0.62815276  0.75043679  1
  Al  Al176  1  0.13247474  0.36533303  0.25152396  1
  Al  Al177  1  0.12937061  0.36358128  0.74931619  1
  Al  Al178  1  0.12859856  0.86246693  0.25209362  1
  Al  Al179  1  0.13333066  0.86359667  0.74910415  1
  Al  Al180  1  0.63523425  0.36804974  0.25395826  1
  Al  Al181  1  0.63664526  0.36690429  0.75351236  1
  Al  Al182  1  0.63592130  0.86449399  0.25102605  1
  Al  Al183  1  0.63699942  0.87336178  0.75131952  1
  Al  Al184  1  0.36650528  0.36161366  0.25410739  1
  Al  Al185  1  0.36734031  0.36157064  0.74858751  1
  Al  Al186  1  0.36504804  0.86238003  0.25330248  1
  Al  Al187  1  0.36484726  0.86336468  0.75534497  1
  Al  Al188  1  0.86629311  0.36649678  0.25343193  1
  Al  Al189  1  0.86670767  0.36561708  0.75179181  1
  Al  Al190  1  0.87000357  0.86462174  0.25311213  1
  Al  Al191  1  0.86515431  0.86652560  0.75009267  1
  Al  Al192  1  0.18125738  0.33067221  0.50058140  1
  Al  Al193  1  0.67450461  0.32427692  0.00075710  1
  Al  Al194  1  0.50170732  0.32649171  0.19087837  1
  Al  Al195  1  0.31329038  0.82118010  -0.00039286  1
  Al  Al196  1  0.82335817  0.82327231  0.50159387  1
  Al  Al197  1  0.68448557  0.50085932  0.68541255  1
  Al  Al198  1  0.17994518  0.50329138  0.18572465  1
  Al  Al199  1  -0.00020075  0.69213779  0.68525457  1
  Al  Al200  1  0.32903536  -0.00045114  0.17717209  1
  Al  Al201  1  0.18097456  0.16649885  0.00069060  1
  Al  Al202  1  0.83007714  0.17045768  0.50120465  1
  Al  Al203  1  0.82801384  0.67418961  -0.00012316  1
  Al  Al204  1  0.50024397  0.17321214  0.18431033  1
  Al  Al205  1  0.82867453  0.82819141  -0.00207389  1
  Al  Al206  1  0.00000470  0.67765957  0.32769466  1
  Al  Al207  1  0.17405806  -0.00110776  0.17870374  1
  Al  Al208  1  0.32377563  -0.00138219  0.68839081  1
  Al  Al209  1  0.50406544  0.16922246  0.67390581  1
  Al  Al210  1  0.82167950  0.50262929  0.17598486  1
  Al  Al211  1  0.50202605  0.32646256  0.67302201  1
  Al  Al212  1  0.32403974  0.81656277  0.49973925  1
  Al  Al213  1  0.00015080  0.17558001  0.67289234  1
  Al  Al214  1  0.81304434  -0.00044104  0.68969913  1
  Al  Al215  1  0.81295931  0.32963435  0.50058497  1
  Al  Al216  1  0.32959173  0.31329344  0.00045566  1
  Al  Al217  1  -0.00060085  0.30995612  0.18226873  1
  Al  Al218  1  -0.00125989  0.82123799  0.82117167  1
  Al  Al219  1  0.17002981  0.33379055  -0.00111282  1
  Al  Al220  1  0.00015729  0.17731661  0.82609468  1
  Al  Al221  1  0.67543400  0.18558357  0.49917980  1
  Al  Al222  1  0.17734048  0.67483260  0.49935702  1
  Al  Al223  1  0.49819660  0.66960242  0.31905880  1
  Al  Al224  1  0.17059127  0.00157329  0.67110739  1
  Al  Al225  1  0.67525031  0.82771682  -0.00028131  1
  Al  Al226  1  0.68098490  0.00139329  0.18828645  1
  Al  Al227  1  0.80988416  0.00021751  0.32036477  1
  Al  Al228  1  0.32500642  0.49819508  0.66654958  1
  Al  Al229  1  0.32948007  0.50179240  0.82666334  1
  Al  Al230  1  0.31073734  0.49842708  0.31882404  1
  Al  Al231  1  0.18371327  0.17487938  0.49998022  1
  Al  Al232  1  0.50327644  0.83082431  0.33273356  1
  Al  Al233  1  0.17239828  0.50095375  0.82184887  1
  Al  Al234  1  0.67191303  0.67660444  -0.00045951  1
  Al  Al235  1  0.00050838  0.67838326  0.17320923  1
  Al  Al236  1  0.50197133  0.82000078  0.68242001  1
  Al  Al237  1  0.49805970  0.82242421  0.16818464  1
  Al  Al238  1  0.18917598  -0.00054340  0.82299662  1
  Au  Au239  1  0.49885991  0.82659291  0.15192194  1
  Au  Au240  1  0.33874463  0.00290989  0.32583045  1
  Au  Au241  1  0.83194519  0.83219424  0.50347794  1
  Au  Au242  1  -0.00104575  0.82596560  0.33603557  1
  Au  Au243  1  0.82993223  0.33612365  -0.00236056  1
  Au  Au244  1  0.00013448  0.31715196  0.16650695  1
  Au  Au245  1  0.32274030  0.50138854  0.84294908  1
  Au  Au246  1  0.49730492  0.65508804  0.32711536  1
  Au  Au247  1  0.66871299  0.16028366  0.00217106  1
  Au  Au248  1  0.17220513  0.50141052  0.17569636  1
  Au  Au249  1  0.50138146  0.66351355  0.82937148  1
  Au  Au250  1  0.82474772  0.00024615  0.32847767  1
  Au  Au251  1  0.66501023  0.66081353  0.49711232  1
  Au  Au252  1  0.00000538  0.65972225  0.82823426  1
  Au  Au253  1  0.50798898  0.84618708  0.33253816  1
  Au  Au254  1  -0.00100567  0.32356892  0.33910998  1
  Au  Au255  1  0.82921334  0.15515284  0.50517708  1
  Au  Au256  1  0.50456094  0.17201269  0.66134853  1
  Au  Au257  1  0.33318422  0.17140694  0.49812323  1
  Au  Au258  1  0.82580196  -0.00211199  0.15627963  1
  Au  Au259  1  0.50299133  0.34057853  0.82289046  1
  Au  Au260  1  0.16083952  0.83740666  0.50605664  1
  Au  Au261  1  0.00106117  0.82742735  0.16085633  1
  Au  Au262  1  0.32718107  0.67455633  0.00269972  1
  Au  Au263  1  0.50020467  0.67315759  0.65927400  1
  Au  Au264  1  0.66858730  0.33529588  0.00013181  1
  Au  Au265  1  0.83762845  0.16691058  -0.00177156  1
  Au  Au266  1  0.49904786  0.83913306  0.83088631  1
  Au  Au267  1  0.50525560  0.32551215  0.17426637  1
  Au  Au268  1  0.33914031  0.82439320  0.50062930  1
  Au  Au269  1  0.33667147  0.49571976  0.66339870  1
  Au  Au270  1  0.49676482  0.16360078  0.83758156  1
  Au  Au271  1  0.16553732  0.34929186  -0.00228220  1
  Au  Au272  1  -0.00112857  0.32667380  0.83327466  1
  Au  Au273  1  0.16784189  0.15646464  0.00037872  1
  Au  Au274  1  0.15943762  0.50215153  0.67347804  1
  Au  Au275  1  -0.00430054  0.32579262  0.66278904  1
  Au  Au276  1  0.66690218  0.83916706  0.50248303  1
  Au  Au277  1  0.16278572  0.00176157  0.32742764  1
  Au  Au278  1  0.81841329  0.34491211  0.50158020  1
  Au  Au279  1  0.82265513  0.50116485  0.33238432  1
  Au  Au280  1  -0.00035935  0.83384238  0.81816494  1
  Au  Au281  1  0.66990857  0.66093373  0.00381013  1
  Au  Au282  1  0.33607452  0.50167911  0.17323056  1
  Au  Au283  1  0.83010344  0.50047375  0.16682589  1
  Au  Au284  1  0.34231924  0.32472276  0.00257762  1
  Au  Au285  1  0.16882957  0.32764397  0.49880477  1
  Au  Au286  1  0.83479878  0.66611969  0.50243747  1
  Au  Au287  1  0.17702932  0.66222319  0.49709606  1
