# generated using pymatgen
data_Ca24Ti8Al207Au49
_symmetry_space_group_name_H-M   'P 1'
_cell_length_a   17.31972820
_cell_length_b   17.32200194
_cell_length_c   17.31897788
_cell_angle_alpha   90.00028012
_cell_angle_beta   89.99406690
_cell_angle_gamma   89.99590706
_symmetry_Int_Tables_number   1
_chemical_formula_structural   Ca24Ti8Al207Au49
_chemical_formula_sum   'Ca24 Ti8 Al207 Au49'
_cell_volume   5195.90748140
_cell_formula_units_Z   1
loop_
 _symmetry_equiv_pos_site_id
 _symmetry_equiv_pos_as_xyz
  1  'x, y, z'
loop_
 _atom_site_type_symbol
 _atom_site_label
 _atom_site_symmetry_multiplicity
 _atom_site_fract_x
 _atom_site_fract_y
 _atom_site_fract_z
 _atom_site_occupancy
  Ca  Ca0  1  0.24791549  0.00003504  0.00031751  1
  Ca  Ca1  1  0.25090356  0.00005910  0.50115504  1
  Ca  Ca2  1  0.25632742  0.50425047  0.00316082  1
  Ca  Ca3  1  0.25668661  0.50148531  0.49688277  1
  Ca  Ca4  1  0.75378786  -0.00129942  0.00327065  1
  Ca  Ca5  1  0.75121647  -0.00181488  0.49620400  1
  Ca  Ca6  1  0.74927275  0.50192999  -0.00531381  1
  Ca  Ca7  1  0.74846193  0.50259504  0.50676633  1
  Ca  Ca8  1  -0.00333991  0.24399849  0.00244947  1
  Ca  Ca9  1  0.00243284  0.24732200  0.49481912  1
  Ca  Ca10  1  -0.00313493  0.75525624  0.00092446  1
  Ca  Ca11  1  0.00410204  0.75739264  0.49557318  1
  Ca  Ca12  1  0.49879576  0.25433887  -0.00041974  1
  Ca  Ca13  1  0.49741026  0.24982533  0.49181624  1
  Ca  Ca14  1  0.50164046  0.74908131  0.00005371  1
  Ca  Ca15  1  0.49544407  0.75234194  0.50148026  1
  Ca  Ca16  1  0.00019464  0.00141196  0.25185793  1
  Ca  Ca17  1  -0.00290022  -0.00081624  0.75204803  1
  Ca  Ca18  1  0.00194577  0.49708005  0.25003735  1
  Ca  Ca19  1  -0.00297398  0.49858019  0.75149978  1
  Ca  Ca20  1  0.49978706  -0.00323683  0.25143039  1
  Ca  Ca21  1  0.50085111  -0.00102729  0.74868785  1
  Ca  Ca22  1  0.49524503  0.50420748  0.24935074  1
  Ca  Ca23  1  0.50241983  0.50202081  0.74924771  1
  Ti  Ti24  1  0.25022882  0.24789696  0.24956512  1
  Ti  Ti25  1  0.24932223  0.24763313  0.75172095  1
  Ti  Ti26  1  0.25166128  0.75119568  0.24995073  1
  Ti  Ti27  1  0.25109031  0.75170911  0.75021154  1
  Ti  Ti28  1  0.75046918  0.24717452  0.25078652  1
  Ti  Ti29  1  0.75093267  0.24801856  0.75022872  1
  Ti  Ti30  1  0.74951192  0.75224294  0.24745959  1
  Ti  Ti31  1  0.74872344  0.75239713  0.75224132  1
  Al  Al32  1  0.08124243  0.08678613  0.10292450  1
  Al  Al33  1  0.07689758  0.08547789  0.58949430  1
  Al  Al34  1  0.08055471  0.57841447  0.08377974  1
  Al  Al35  1  0.07920745  0.57875238  0.57011050  1
  Al  Al36  1  0.58684500  0.07534058  0.08529751  1
  Al  Al37  1  0.58039241  0.07107587  0.57810968  1
  Al  Al38  1  0.57573941  0.59372458  0.08344661  1
  Al  Al39  1  0.57701893  0.58866873  0.59726416  1
  Al  Al40  1  0.41115328  0.42730476  0.08828059  1
  Al  Al41  1  0.42237190  0.42632510  0.58145654  1
  Al  Al42  1  0.41992077  0.91281609  0.08793724  1
  Al  Al43  1  0.41293758  0.90260925  0.58661702  1
  Al  Al44  1  0.92384947  0.41275483  0.07693032  1
  Al  Al45  1  0.91702206  0.41910436  0.59085350  1
  Al  Al46  1  0.90779101  0.92124106  0.08077320  1
  Al  Al47  1  0.91105494  0.92504098  0.58409817  1
  Al  Al48  1  0.42130533  0.08662757  0.41048518  1
  Al  Al49  1  0.40748334  0.07644519  0.91182225  1
  Al  Al50  1  0.41043013  0.59321752  0.42160573  1
  Al  Al51  1  0.41248287  0.58230571  0.91557953  1
  Al  Al52  1  0.91820550  0.08353915  0.39857207  1
  Al  Al53  1  0.91382188  0.07373615  0.91024643  1
  Al  Al54  1  0.92848093  0.58641725  0.41342293  1
  Al  Al55  1  0.89885840  0.58383354  0.91427195  1
  Al  Al56  1  0.08940527  0.40171511  0.41390045  1
  Al  Al57  1  0.08313129  0.41338844  0.92400609  1
  Al  Al58  1  0.08845396  0.92188457  0.40957683  1
  Al  Al59  1  0.08159855  0.91987569  0.92116472  1
  Al  Al60  1  0.57452395  0.41544445  0.40924832  1
  Al  Al61  1  0.58917514  0.42392707  0.90970397  1
  Al  Al62  1  0.58795032  0.92380596  0.41231090  1
  Al  Al63  1  0.58615723  0.91566031  0.91802934  1
  Al  Al64  1  0.08311480  0.08572010  0.39956526  1
  Al  Al65  1  0.08076145  0.08084635  0.91607699  1
  Al  Al66  1  0.08302900  0.58933794  0.41079758  1
  Al  Al67  1  0.07659808  0.57489106  0.92558778  1
  Al  Al68  1  0.58276029  0.08422943  0.39995807  1
  Al  Al69  1  0.58495019  0.07643935  0.92074483  1
  Al  Al70  1  0.57168908  0.57763156  0.42034484  1
  Al  Al71  1  0.59068245  0.58255591  0.91126329  1
  Al  Al72  1  0.41906353  0.41148276  0.40784013  1
  Al  Al73  1  0.41124356  0.42404392  0.91005581  1
  Al  Al74  1  0.41023646  0.91493245  0.42349939  1
  Al  Al75  1  0.41209062  0.91778757  0.91162467  1
  Al  Al76  1  0.93039479  0.41191510  0.41307883  1
  Al  Al77  1  0.90936118  0.42254151  0.91414892  1
  Al  Al78  1  0.91258606  0.92108826  0.40933202  1
  Al  Al79  1  0.90392354  0.91288449  0.91654586  1
  Al  Al80  1  0.08583243  0.41156488  0.08447772  1
  Al  Al81  1  0.08641252  0.40727381  0.57298656  1
  Al  Al82  1  0.08960945  0.92764644  0.08428905  1
  Al  Al83  1  0.08224369  0.92315575  0.57461181  1
  Al  Al84  1  0.57501079  0.41872075  0.07674059  1
  Al  Al85  1  0.58320801  0.42774314  0.58904797  1
  Al  Al86  1  0.58535042  0.91309044  0.09177187  1
  Al  Al87  1  0.57669703  0.90944323  0.59121715  1
  Al  Al88  1  0.41632068  0.07866794  0.08262230  1
  Al  Al89  1  0.41890918  0.07195562  0.57276999  1
  Al  Al90  1  0.41448682  0.58905468  0.09032210  1
  Al  Al91  1  0.41402769  0.59761558  0.58729048  1
  Al  Al92  1  0.91785902  0.08253683  0.10011709  1
  Al  Al93  1  0.91634392  0.08371737  0.60041892  1
  Al  Al94  1  0.91240905  0.59517305  0.07396023  1
  Al  Al95  1  0.91191089  0.57473770  0.58831841  1
  Al  Al96  1  0.24811750  0.12627737  0.13787832  1
  Al  Al97  1  0.24856730  0.13546969  0.63676136  1
  Al  Al98  1  0.25187135  0.63117692  0.13724552  1
  Al  Al99  1  0.25704854  0.63844306  0.63298171  1
  Al  Al100  1  0.75339281  0.13014574  0.13948722  1
  Al  Al101  1  0.75332232  0.12642714  0.63765566  1
  Al  Al102  1  0.75385741  0.63751784  0.12776425  1
  Al  Al103  1  0.74178625  0.63466366  0.64062706  1
  Al  Al104  1  0.25074804  0.36712607  0.13854469  1
  Al  Al105  1  0.24743568  0.36050499  0.63618542  1
  Al  Al106  1  0.25119561  0.86996445  0.13837859  1
  Al  Al107  1  0.25435682  0.86355313  0.63390242  1
  Al  Al108  1  0.75224278  0.36402236  0.13908197  1
  Al  Al109  1  0.75041192  0.36308607  0.63684578  1
  Al  Al110  1  0.75190130  0.86575792  0.13075316  1
  Al  Al111  1  0.74837188  0.86839896  0.63680208  1
  Al  Al112  1  0.24654779  0.12956126  0.36167082  1
  Al  Al113  1  0.24846508  0.12770360  0.86474847  1
  Al  Al114  1  0.25790541  0.63325713  0.36420243  1
  Al  Al115  1  0.25585222  0.63449907  0.86210495  1
  Al  Al116  1  0.75319022  0.12867262  0.36129873  1
  Al  Al117  1  0.75218802  0.12804047  0.86354541  1
  Al  Al118  1  0.74481641  0.63825784  0.36283802  1
  Al  Al119  1  0.75021971  0.63759236  0.86963928  1
  Al  Al120  1  0.24530625  0.36116783  0.36792430  1
  Al  Al121  1  0.25260310  0.36447397  0.86491621  1
  Al  Al122  1  0.25077087  0.87073236  0.36301359  1
  Al  Al123  1  0.25420358  0.87151073  0.86170338  1
  Al  Al124  1  0.75086081  0.35991051  0.36166312  1
  Al  Al125  1  0.75054643  0.36572049  0.86220405  1
  Al  Al126  1  0.74981556  0.87019016  0.36164936  1
  Al  Al127  1  0.75140823  0.86918928  0.87018282  1
  Al  Al128  1  0.13485719  0.24456540  0.13813171  1
  Al  Al129  1  0.13160965  0.24750896  0.63507541  1
  Al  Al130  1  0.13659229  0.75180188  0.13743337  1
  Al  Al131  1  0.13328408  0.75305525  0.63496439  1
  Al  Al132  1  0.63615740  0.24671250  0.13617433  1
  Al  Al133  1  0.63907453  0.24597411  0.63679516  1
  Al  Al134  1  0.63864011  0.75143958  0.12738205  1
  Al  Al135  1  0.63129321  0.75334247  0.63673815  1
  Al  Al136  1  0.13182787  0.24688512  0.36207285  1
  Al  Al137  1  0.13466530  0.24655069  0.86605901  1
  Al  Al138  1  0.13829330  0.75104396  0.36171923  1
  Al  Al139  1  0.13899605  0.74996562  0.86484031  1
  Al  Al140  1  0.63213043  0.24911526  0.36362529  1
  Al  Al141  1  0.63134923  0.24820506  0.86140539  1
  Al  Al142  1  0.63242552  0.75340193  0.36602156  1
  Al  Al143  1  0.63676764  0.75284152  0.87218334  1
  Al  Al144  1  0.36189365  0.24881863  0.13487835  1
  Al  Al145  1  0.36237778  0.25052355  0.63835826  1
  Al  Al146  1  0.36432585  0.75048838  0.13749759  1
  Al  Al147  1  0.36891603  0.75097142  0.63436292  1
  Al  Al148  1  0.86725596  0.24502152  0.13758395  1
  Al  Al149  1  0.87171840  0.24700924  0.63851867  1
  Al  Al150  1  0.86517910  0.75290755  0.13136518  1
  Al  Al151  1  0.86476036  0.75185233  0.64029234  1
  Al  Al152  1  0.36434793  0.24959861  0.36231593  1
  Al  Al153  1  0.36813176  0.24796650  0.86723699  1
  Al  Al154  1  0.36431204  0.75291428  0.36653136  1
  Al  Al155  1  0.36818683  0.75138780  0.86417920  1
  Al  Al156  1  0.86993393  0.24520269  0.36273847  1
  Al  Al157  1  0.86555503  0.24746504  0.86370824  1
  Al  Al158  1  0.86262027  0.75261510  0.36075187  1
  Al  Al159  1  0.86109495  0.75263710  0.86916323  1
  Al  Al160  1  0.13113334  0.13388209  0.25090308  1
  Al  Al161  1  0.12926872  0.13535782  0.75104896  1
  Al  Al162  1  0.13828083  0.63290979  0.25245697  1
  Al  Al163  1  0.13658721  0.63720195  0.74777361  1
  Al  Al164  1  0.63528005  0.13082746  0.25419635  1
  Al  Al165  1  0.63661647  0.12640178  0.75269130  1
  Al  Al166  1  0.63296405  0.64123897  0.24305843  1
  Al  Al167  1  0.63068768  0.64118906  0.75322742  1
  Al  Al168  1  0.36426629  0.12901241  0.25308487  1
  Al  Al169  1  0.36543040  0.13305884  0.75486788  1
  Al  Al170  1  0.36762168  0.63262804  0.24695196  1
  Al  Al171  1  0.37083233  0.63918030  0.74802078  1
  Al  Al172  1  0.86842288  0.13107831  0.24949450  1
  Al  Al173  1  0.86747677  0.13156391  0.75036394  1
  Al  Al174  1  0.86042528  0.63559009  0.24948083  1
  Al  Al175  1  0.86259466  0.63547512  0.75321179  1
  Al  Al176  1  0.13358460  0.36485478  0.25119317  1
  Al  Al177  1  0.13155826  0.36156542  0.74933206  1
  Al  Al178  1  0.13700825  0.87062051  0.25137105  1
  Al  Al179  1  0.13609450  0.86475482  0.75158344  1
  Al  Al180  1  0.63303317  0.36347793  0.25079750  1
  Al  Al181  1  0.63541790  0.36693604  0.75052976  1
  Al  Al182  1  0.63735652  0.86601713  0.25085707  1
  Al  Al183  1  0.63824890  0.87236359  0.75154545  1
  Al  Al184  1  0.36080250  0.36885000  0.25411081  1
  Al  Al185  1  0.36371368  0.36543673  0.75351871  1
  Al  Al186  1  0.36434956  0.87185162  0.25239349  1
  Al  Al187  1  0.36820270  0.86434901  0.74713045  1
  Al  Al188  1  0.86767468  0.36393443  0.25144512  1
  Al  Al189  1  0.86818412  0.36548470  0.75029192  1
  Al  Al190  1  0.86221364  0.87193751  0.24813154  1
  Al  Al191  1  0.86260092  0.86911224  0.75188935  1
  Al  Al192  1  0.17471343  -0.00015259  0.68013423  1
  Al  Al193  1  0.80950796  0.49963725  0.69096598  1
  Al  Al194  1  0.67446491  0.50049874  0.32711718  1
  Al  Al195  1  0.50159530  0.80862824  0.18393779  1
  Al  Al196  1  0.00022194  0.83123009  0.17058853  1
  Al  Al197  1  0.17703046  0.49546738  0.32467688  1
  Al  Al198  1  0.00035221  0.81947986  0.32704393  1
  Al  Al199  1  0.49615577  0.32559081  0.18876784  1
  Al  Al200  1  0.32872658  0.00015559  0.67823212  1
  Al  Al201  1  0.69157016  0.50420807  0.80662830  1
  Al  Al202  1  0.67337152  0.50206206  0.16928913  1
  Al  Al203  1  0.83049645  0.16688587  0.49816554  1
  Al  Al204  1  0.82993389  0.49993257  0.32148557  1
  Al  Al205  1  -0.00065617  0.67032003  0.19136450  1
  Al  Al206  1  0.17138578  0.49833069  0.67092182  1
  Al  Al207  1  0.66821379  0.67409716  0.50254023  1
  Al  Al208  1  0.50217079  0.68161448  0.31799786  1
  Al  Al209  1  0.17199901  0.67293305  0.00077837  1
  Al  Al210  1  0.67026505  0.33237486  0.49756948  1
  Al  Al211  1  0.32388303  0.17359539  0.49848749  1
  Al  Al212  1  0.18235996  0.31581463  0.00214949  1
  Al  Al213  1  -0.00107472  0.82858103  0.82731322  1
  Al  Al214  1  0.49992147  0.32681235  0.67802166  1
  Al  Al215  1  0.18810809  0.67597191  0.49883603  1
  Al  Al216  1  0.16872046  0.18071828  0.49889386  1
  Al  Al217  1  0.32867228  0.50144494  0.68331836  1
  Al  Al218  1  0.67558554  0.17976444  0.00063644  1
  Al  Al219  1  -0.00087214  0.67308825  0.82680749  1
  Al  Al220  1  0.82764697  0.32534373  0.49742703  1
  Al  Al221  1  0.83198881  0.16695142  0.00139573  1
  Al  Al222  1  0.82002324  0.82928748  0.49949574  1
  Al  Al223  1  0.67131545  0.17110142  0.49448119  1
  Al  Al224  1  -0.00074275  0.82519820  0.67098680  1
  Al  Al225  1  0.50102787  0.17271916  0.18621421  1
  Al  Al226  1  0.68618687  -0.00223341  0.18661022  1
  Al  Al227  1  0.82008875  0.32261919  0.00023075  1
  Al  Al228  1  0.18253431  0.50027122  0.82839467  1
  Al  Al229  1  0.49809178  0.16847016  0.67334076  1
  Al  Al230  1  0.50275487  0.82048683  0.81422784  1
  Al  Al231  1  0.32046775  0.17582654  -0.00272858  1
  Al  Al232  1  0.31860004  0.33067581  0.50068885  1
  Al  Al233  1  0.00092640  0.31136760  0.18569034  1
  Al  Al234  1  0.32548614  0.68096143  0.00072398  1
  Al  Al235  1  -0.00274582  0.32313531  0.82700006  1
  Al  Al236  1  0.18565057  0.83037149  0.49826925  1
  Al  Al237  1  0.18154282  0.82628863  0.00043357  1
  Al  Al238  1  0.82904375  0.67181539  0.49998008  1
  Au  Au239  1  -0.00066766  0.32516883  0.17552997  1
  Au  Au240  1  0.15659284  0.16920948  0.00556011  1
  Au  Au241  1  0.67253619  0.33786911  -0.00245775  1
  Au  Au242  1  0.65736468  0.50380257  0.17471518  1
  Au  Au243  1  0.66453485  0.66260916  0.49883858  1
  Au  Au244  1  -0.00056958  0.33165505  0.83586881  1
  Au  Au245  1  0.16708983  0.50013756  0.33069984  1
  Au  Au246  1  0.83345146  0.50039773  0.33809028  1
  Au  Au247  1  0.67485058  0.66694130  -0.00031793  1
  Au  Au248  1  0.00135058  0.66131181  0.66636004  1
  Au  Au249  1  -0.00059928  0.66676308  0.17478514  1
  Au  Au250  1  0.66788079  0.15960538  0.49865481  1
  Au  Au251  1  0.33121230  0.83117215  0.00041739  1
  Au  Au252  1  -0.00156326  0.83720202  0.66691006  1
  Au  Au253  1  0.32448440  -0.00227598  0.16803978  1
  Au  Au254  1  0.49951060  0.67228791  0.32628714  1
  Au  Au255  1  0.83481332  0.33517583  0.50009844  1
  Au  Au256  1  0.67434012  -0.00252374  0.66691172  1
  Au  Au257  1  0.17914839  0.50012119  0.84502732  1
  Au  Au258  1  0.49329128  0.33813239  0.17752248  1
  Au  Au259  1  0.84101418  0.16172993  0.50223852  1
  Au  Au260  1  0.33460486  0.50148965  0.32700706  1
  Au  Au261  1  0.17945562  0.49880281  0.16134748  1
  Au  Au262  1  0.17874755  0.49666005  0.65507674  1
  Au  Au263  1  0.83338984  0.49990703  0.15280876  1
  Au  Au264  1  0.32747594  0.34323940  0.00108080  1
  Au  Au265  1  0.65933939  0.33574489  0.50250672  1
  Au  Au266  1  0.67726213  0.83480856  0.00245453  1
  Au  Au267  1  0.17150251  0.67834497  0.49586202  1
  Au  Au268  1  0.67872601  0.16736412  0.00170489  1
  Au  Au269  1  0.50221771  0.15818642  0.17747624  1
  Au  Au270  1  0.84447874  0.67911048  0.49812722  1
  Au  Au271  1  0.50039512  0.16268418  0.83707031  1
  Au  Au272  1  0.49556609  0.17441414  0.65773014  1
  Au  Au273  1  0.66878310  0.83818262  0.50075774  1
  Au  Au274  1  0.49865019  0.83796713  0.33037304  1
  Au  Au275  1  0.17356768  -0.00214604  0.83029446  1
  Au  Au276  1  0.49926607  0.34056117  0.82757509  1
  Au  Au277  1  0.33055202  0.17081994  0.00277509  1
  Au  Au278  1  0.00319700  0.32227674  0.66197688  1
  Au  Au279  1  0.67968028  -0.00091425  0.83376248  1
  Au  Au280  1  -0.00357908  0.16215653  0.82382003  1
  Au  Au281  1  0.16460330  0.16478441  0.49849221  1
  Au  Au282  1  -0.00234962  0.66955902  0.84261571  1
  Au  Au283  1  0.33545738  0.32942356  0.50343971  1
  Au  Au284  1  0.50225368  0.83538803  0.82198806  1
  Au  Au285  1  -0.00021611  0.84335696  0.17383658  1
  Au  Au286  1  0.32432837  0.00127879  0.33813618  1
  Au  Au287  1  0.49875709  0.66035505  0.82466831  1
