# generated using pymatgen
data_Ca24Ti8Al207Au49
_symmetry_space_group_name_H-M   'P 1'
_cell_length_a   17.31995632
_cell_length_b   17.32100936
_cell_length_c   17.31776405
_cell_angle_alpha   90.00103744
_cell_angle_beta   89.99177205
_cell_angle_gamma   90.00159735
_symmetry_Int_Tables_number   1
_chemical_formula_structural   Ca24Ti8Al207Au49
_chemical_formula_sum   'Ca24 Ti8 Al207 Au49'
_cell_volume   5195.31401417
_cell_formula_units_Z   1
loop_
 _symmetry_equiv_pos_site_id
 _symmetry_equiv_pos_as_xyz
  1  'x, y, z'
loop_
 _atom_site_type_symbol
 _atom_site_label
 _atom_site_symmetry_multiplicity
 _atom_site_fract_x
 _atom_site_fract_y
 _atom_site_fract_z
 _atom_site_occupancy
  Ca  Ca0  1  0.24853128  -0.00076880  0.00154338  1
  Ca  Ca1  1  0.25334212  0.00148680  0.50301649  1
  Ca  Ca2  1  0.24780821  0.50057353  -0.00124868  1
  Ca  Ca3  1  0.24951194  0.49787832  0.50151451  1
  Ca  Ca4  1  0.75202473  -0.00100541  -0.00190301  1
  Ca  Ca5  1  0.74968561  0.00183270  0.50154074  1
  Ca  Ca6  1  0.75074246  0.50109519  0.00099360  1
  Ca  Ca7  1  0.75367926  0.49839946  0.49791343  1
  Ca  Ca8  1  -0.00284051  0.25467488  0.00250706  1
  Ca  Ca9  1  0.00120302  0.25637155  0.49710473  1
  Ca  Ca10  1  0.00148190  0.74391906  -0.00019340  1
  Ca  Ca11  1  0.00243836  0.74846583  0.50448818  1
  Ca  Ca12  1  0.49999365  0.25602270  0.00235236  1
  Ca  Ca13  1  0.49766150  0.24729139  0.49935489  1
  Ca  Ca14  1  0.49757727  0.74423245  -0.00003826  1
  Ca  Ca15  1  0.49864768  0.74703717  0.50135332  1
  Ca  Ca16  1  0.00187156  0.00139482  0.25074939  1
  Ca  Ca17  1  -0.00421728  0.00193672  0.74454689  1
  Ca  Ca18  1  -0.00098482  0.49946013  0.25050594  1
  Ca  Ca19  1  0.00020662  0.49661577  0.74831538  1
  Ca  Ca20  1  0.49725313  0.00277930  0.25484070  1
  Ca  Ca21  1  0.49983425  -0.00242514  0.74395663  1
  Ca  Ca22  1  0.50065892  0.50192562  0.24999573  1
  Ca  Ca23  1  0.50015583  0.50325290  0.75059893  1
  Ti  Ti24  1  0.24862032  0.24966191  0.25174999  1
  Ti  Ti25  1  0.25046986  0.25101806  0.74741994  1
  Ti  Ti26  1  0.24889029  0.75136707  0.24936453  1
  Ti  Ti27  1  0.25040866  0.74877528  0.75004526  1
  Ti  Ti28  1  0.75247968  0.25157796  0.25200197  1
  Ti  Ti29  1  0.75149304  0.25096388  0.74917186  1
  Ti  Ti30  1  0.75002964  0.74688384  0.24972919  1
  Ti  Ti31  1  0.74937983  0.75050706  0.74950818  1
  Al  Al32  1  0.07738206  0.08710992  0.09590763  1
  Al  Al33  1  0.08808543  0.07607865  0.58604700  1
  Al  Al34  1  0.08104865  0.59328967  0.08670117  1
  Al  Al35  1  0.08815175  0.57871907  0.58889162  1
  Al  Al36  1  0.57710078  0.08443413  0.08398907  1
  Al  Al37  1  0.58070872  0.07815947  0.57698118  1
  Al  Al38  1  0.58745830  0.58870915  0.07844005  1
  Al  Al39  1  0.57995075  0.57916177  0.58309410  1
  Al  Al40  1  0.42184080  0.41420177  0.08905295  1
  Al  Al41  1  0.40487609  0.42598667  0.58649717  1
  Al  Al42  1  0.41591005  0.92406370  0.08761280  1
  Al  Al43  1  0.40682189  0.92123609  0.58467720  1
  Al  Al44  1  0.91778196  0.41164251  0.09168482  1
  Al  Al45  1  0.91031123  0.41413184  0.57582258  1
  Al  Al46  1  0.92450788  0.92677166  0.08037362  1
  Al  Al47  1  0.91540255  0.91259375  0.59240674  1
  Al  Al48  1  0.41183429  0.08559686  0.42422971  1
  Al  Al49  1  0.42004143  0.07680168  0.92157372  1
  Al  Al50  1  0.41698241  0.59245423  0.41900927  1
  Al  Al51  1  0.41615338  0.58035346  0.91450476  1
  Al  Al52  1  0.92394242  0.08645017  0.41564843  1
  Al  Al53  1  0.91513216  0.08177751  0.91558538  1
  Al  Al54  1  0.91889858  0.57820586  0.40320652  1
  Al  Al55  1  0.90705468  0.57666306  0.90979073  1
  Al  Al56  1  0.07743007  0.42015139  0.40607471  1
  Al  Al57  1  0.08240151  0.42369247  0.91844583  1
  Al  Al58  1  0.08674421  0.92620269  0.41139633  1
  Al  Al59  1  0.08321053  0.91529027  0.91847453  1
  Al  Al60  1  0.58628949  0.41859072  0.41375859  1
  Al  Al61  1  0.58683305  0.42718470  0.91291695  1
  Al  Al62  1  0.58759231  0.92005303  0.40870057  1
  Al  Al63  1  0.58939457  0.91875792  0.90731795  1
  Al  Al64  1  0.08694533  0.08452327  0.40895256  1
  Al  Al65  1  0.07392604  0.07702558  0.92155657  1
  Al  Al66  1  0.08252599  0.58235282  0.40509726  1
  Al  Al67  1  0.09297268  0.58263259  0.92451728  1
  Al  Al68  1  0.58786115  0.07884395  0.41529185  1
  Al  Al69  1  0.58956042  0.07297346  0.91253937  1
  Al  Al70  1  0.57901132  0.58177054  0.40621414  1
  Al  Al71  1  0.60148667  0.58618710  0.91562969  1
  Al  Al72  1  0.42197465  0.41667270  0.42182549  1
  Al  Al73  1  0.41848874  0.42220081  0.91881402  1
  Al  Al74  1  0.41670347  0.91729304  0.42013366  1
  Al  Al75  1  0.42330780  0.91830991  0.91898799  1
  Al  Al76  1  0.91256193  0.41345025  0.40817447  1
  Al  Al77  1  0.91094702  0.41985216  0.91419780  1
  Al  Al78  1  0.92191045  0.92078619  0.42693598  1
  Al  Al79  1  0.91755503  0.92310133  0.91338168  1
  Al  Al80  1  0.07624065  0.40938964  0.08878969  1
  Al  Al81  1  0.08572915  0.42158928  0.58484508  1
  Al  Al82  1  0.08702250  0.91798683  0.08386060  1
  Al  Al83  1  0.07796835  0.91669523  0.59414233  1
  Al  Al84  1  0.57972695  0.41678845  0.08655848  1
  Al  Al85  1  0.58982928  0.42095532  0.57960833  1
  Al  Al86  1  0.57667676  0.92248095  0.07677413  1
  Al  Al87  1  0.58247943  0.91831264  0.58225058  1
  Al  Al88  1  0.41707578  0.08257572  0.09460286  1
  Al  Al89  1  0.40363187  0.08380689  0.58494114  1
  Al  Al90  1  0.42397045  0.57891894  0.08047612  1
  Al  Al91  1  0.40109043  0.58723600  0.58194751  1
  Al  Al92  1  0.92093080  0.09026536  0.09052556  1
  Al  Al93  1  0.91145089  0.07458445  0.58495582  1
  Al  Al94  1  0.91889455  0.58612816  0.09356732  1
  Al  Al95  1  0.92190823  0.57398765  0.58427946  1
  Al  Al96  1  0.24824377  0.13645322  0.13729659  1
  Al  Al97  1  0.25279674  0.13104896  0.63151402  1
  Al  Al98  1  0.24598636  0.63595523  0.13639142  1
  Al  Al99  1  0.25226098  0.63350745  0.63412717  1
  Al  Al100  1  0.75081577  0.13830279  0.14063756  1
  Al  Al101  1  0.75450394  0.13208488  0.63394788  1
  Al  Al102  1  0.75020251  0.62882597  0.13333421  1
  Al  Al103  1  0.74472146  0.63672677  0.63367608  1
  Al  Al104  1  0.24846177  0.36286400  0.13747159  1
  Al  Al105  1  0.24935128  0.36655726  0.62861620  1
  Al  Al106  1  0.24527698  0.86382028  0.13003309  1
  Al  Al107  1  0.25149459  0.86597917  0.63797972  1
  Al  Al108  1  0.75413517  0.37122604  0.13853108  1
  Al  Al109  1  0.74969865  0.36611270  0.62778727  1
  Al  Al110  1  0.75067969  0.86269624  0.13602718  1
  Al  Al111  1  0.74886950  0.86615232  0.63588859  1
  Al  Al112  1  0.24917293  0.13203455  0.36489463  1
  Al  Al113  1  0.25473410  0.13440772  0.86511197  1
  Al  Al114  1  0.24609609  0.63327336  0.36065004  1
  Al  Al115  1  0.25102752  0.63471331  0.86445484  1
  Al  Al116  1  0.75179789  0.13556530  0.36388286  1
  Al  Al117  1  0.74924863  0.12929781  0.86254992  1
  Al  Al118  1  0.75243584  0.63157926  0.36547842  1
  Al  Al119  1  0.74968329  0.63442876  0.86686196  1
  Al  Al120  1  0.24473123  0.36510774  0.36721339  1
  Al  Al121  1  0.25375249  0.36689147  0.86440833  1
  Al  Al122  1  0.24874889  0.86705473  0.36446653  1
  Al  Al123  1  0.25115943  0.86333716  0.86823171  1
  Al  Al124  1  0.75826237  0.36513279  0.37002330  1
  Al  Al125  1  0.74980740  0.37201446  0.86415084  1
  Al  Al126  1  0.74770756  0.86216583  0.36476311  1
  Al  Al127  1  0.74946329  0.87063760  0.86268486  1
  Al  Al128  1  0.12992815  0.25094768  0.13914573  1
  Al  Al129  1  0.13789918  0.24976353  0.63058023  1
  Al  Al130  1  0.13400600  0.74820007  0.13212367  1
  Al  Al131  1  0.13184084  0.74992144  0.63619586  1
  Al  Al132  1  0.63702826  0.25544055  0.13474086  1
  Al  Al133  1  0.63678236  0.25304371  0.63800571  1
  Al  Al134  1  0.63707942  0.74567683  0.13566370  1
  Al  Al135  1  0.63098701  0.75092242  0.63390624  1
  Al  Al136  1  0.12778511  0.25039824  0.36415035  1
  Al  Al137  1  0.13780060  0.25105842  0.86053587  1
  Al  Al138  1  0.13306917  0.74402025  0.36364171  1
  Al  Al139  1  0.13611008  0.74946858  0.86803746  1
  Al  Al140  1  0.63867047  0.25662590  0.36555096  1
  Al  Al141  1  0.64000289  0.25577048  0.86408109  1
  Al  Al142  1  0.63701876  0.74422737  0.36935967  1
  Al  Al143  1  0.63379722  0.74600236  0.86357668  1
  Al  Al144  1  0.36275886  0.25151538  0.13190324  1
  Al  Al145  1  0.36051307  0.24847754  0.62783668  1
  Al  Al146  1  0.36353714  0.74952142  0.13494158  1
  Al  Al147  1  0.36669623  0.74606387  0.63534350  1
  Al  Al148  1  0.86909104  0.25308182  0.13941176  1
  Al  Al149  1  0.86356903  0.25361968  0.63396546  1
  Al  Al150  1  0.86596544  0.73857313  0.13642030  1
  Al  Al151  1  0.86931691  0.75143586  0.63907868  1
  Al  Al152  1  0.36128447  0.25235131  0.37076026  1
  Al  Al153  1  0.36230403  0.25208973  0.86804538  1
  Al  Al154  1  0.36298294  0.74616191  0.36550439  1
  Al  Al155  1  0.37044103  0.74883982  0.86341043  1
  Al  Al156  1  0.87305412  0.25136744  0.36626347  1
  Al  Al157  1  0.86062315  0.24995204  0.86324697  1
  Al  Al158  1  0.86566525  0.74553522  0.36131044  1
  Al  Al159  1  0.86340357  0.74896768  0.86378130  1
  Al  Al160  1  0.13179376  0.13447444  0.25064158  1
  Al  Al161  1  0.13796079  0.13590770  0.74476833  1
  Al  Al162  1  0.12977233  0.63606372  0.24778286  1
  Al  Al163  1  0.13437070  0.63415413  0.74570462  1
  Al  Al164  1  0.63590262  0.13686164  0.25261300  1
  Al  Al165  1  0.63716659  0.13571969  0.75119872  1
  Al  Al166  1  0.63540811  0.63431285  0.25088339  1
  Al  Al167  1  0.63320317  0.63136604  0.75104504  1
  Al  Al168  1  0.36421546  0.13788929  0.25356065  1
  Al  Al169  1  0.36371113  0.13572938  0.74536706  1
  Al  Al170  1  0.36491977  0.63641650  0.25316225  1
  Al  Al171  1  0.36653832  0.63069427  0.74943563  1
  Al  Al172  1  0.87372290  0.13807747  0.25189719  1
  Al  Al173  1  0.86309082  0.12984263  0.75015332  1
  Al  Al174  1  0.86337038  0.62740394  0.25160968  1
  Al  Al175  1  0.86362745  0.63382398  0.75127402  1
  Al  Al176  1  0.13124178  0.36535034  0.25224797  1
  Al  Al177  1  0.13805574  0.36699615  0.74511230  1
  Al  Al178  1  0.13497461  0.86896386  0.24937451  1
  Al  Al179  1  0.13625858  0.86505520  0.74773753  1
  Al  Al180  1  0.63734667  0.36668308  0.24700841  1
  Al  Al181  1  0.64014487  0.37439401  0.74894468  1
  Al  Al182  1  0.63674179  0.86225197  0.25343213  1
  Al  Al183  1  0.63052344  0.86416599  0.75082185  1
  Al  Al184  1  0.36177952  0.36367963  0.25055978  1
  Al  Al185  1  0.36041324  0.36942682  0.74492031  1
  Al  Al186  1  0.36279646  0.86509041  0.25391767  1
  Al  Al187  1  0.36887913  0.86183919  0.74700383  1
  Al  Al188  1  0.86814073  0.36852804  0.25390360  1
  Al  Al189  1  0.86280126  0.36680410  0.75188531  1
  Al  Al190  1  0.86436428  0.86313882  0.24966901  1
  Al  Al191  1  0.86232506  0.87215835  0.74752635  1
  Al  Al192  1  0.17277400  0.83253911  0.50338468  1
  Al  Al193  1  -0.00063391  0.32680090  0.67203853  1
  Al  Al194  1  -0.00025519  0.17533993  0.82459091  1
  Al  Al195  1  0.16884544  0.49979186  0.18365067  1
  Al  Al196  1  0.17307475  0.17290956  -0.00106120  1
  Al  Al197  1  0.17686488  0.17537060  0.49890220  1
  Al  Al198  1  0.00077985  0.32792186  0.82743249  1
  Al  Al199  1  0.68282164  0.00054867  0.68612562  1
  Al  Al200  1  0.66647693  0.00033778  0.18722262  1
  Al  Al201  1  0.82857319  0.18279314  0.49935879  1
  Al  Al202  1  0.32538699  0.50115610  0.17541237  1
  Al  Al203  1  0.18282670  0.67201912  0.49893377  1
  Al  Al204  1  0.49943209  0.67351536  0.18202837  1
  Al  Al205  1  0.67356420  0.17781909  -0.00007052  1
  Al  Al206  1  0.82169633  0.32764775  0.00125599  1
  Al  Al207  1  0.17283441  0.00129049  0.81146993  1
  Al  Al208  1  0.82461093  0.00184341  0.17581188  1
  Al  Al209  1  0.32545907  0.81412746  0.50032905  1
  Al  Al210  1  0.50035874  0.81009953  0.32974632  1
  Al  Al211  1  0.68750968  0.49832881  0.31967301  1
  Al  Al212  1  0.00017307  0.81785474  0.32780545  1
  Al  Al213  1  0.18088481  0.50059209  0.81467193  1
  Al  Al214  1  -0.00086758  0.81163022  0.17443223  1
  Al  Al215  1  0.82089920  0.49955306  0.68277244  1
  Al  Al216  1  0.31786807  0.67729701  0.00117947  1
  Al  Al217  1  0.82953981  0.17494973  0.00230004  1
  Al  Al218  1  0.49998146  0.17780831  0.83003879  1
  Al  Al219  1  0.50030109  0.18851515  0.17775686  1
  Al  Al220  1  0.31537697  -0.00034355  0.18700874  1
  Al  Al221  1  0.82623070  0.66876010  0.50077929  1
  Al  Al222  1  0.83138990  0.81968067  0.00209244  1
  Al  Al223  1  0.50028277  0.82630385  0.17268101  1
  Al  Al224  1  0.32520331  -0.00180334  0.80942058  1
  Al  Al225  1  0.49957424  0.17193530  0.66942510  1
  Al  Al226  1  0.31683279  0.49923011  0.33293802  1
  Al  Al227  1  0.67166874  0.81668692  -0.00009892  1
  Al  Al228  1  0.50102003  0.32939786  0.82696062  1
  Al  Al229  1  0.81725267  -0.00261011  0.33424694  1
  Al  Al230  1  0.00307651  0.66673541  0.82376616  1
  Al  Al231  1  0.49813923  0.32512701  0.67211836  1
  Al  Al232  1  0.49994322  0.17178347  0.33139581  1
  Al  Al233  1  -0.00077953  0.17197812  0.67034484  1
  Al  Al234  1  0.17742594  0.32856114  -0.00016583  1
  Al  Al235  1  -0.00143206  0.82608053  0.80933342  1
  Al  Al236  1  0.67256061  0.18159068  0.50075678  1
  Al  Al237  1  0.82273919  0.82442470  0.50119558  1
  Al  Al238  1  0.49952756  0.32549426  0.30742329  1
  Au  Au239  1  -0.00169351  0.83475591  0.82420580  1
  Au  Au240  1  0.16541775  0.49979031  0.16751650  1
  Au  Au241  1  0.83603405  0.49808811  0.17924618  1
  Au  Au242  1  -0.00026041  0.67072377  0.66501638  1
  Au  Au243  1  0.49508748  0.66391683  0.66661252  1
  Au  Au244  1  0.67050872  0.00350319  0.67448169  1
  Au  Au245  1  0.33651752  0.16514435  0.00341443  1
  Au  Au246  1  0.32889366  0.33988441  0.00216846  1
  Au  Au247  1  0.67629366  0.16130911  -0.00229498  1
  Au  Au248  1  0.32407359  0.66174401  0.00275905  1
  Au  Au249  1  0.00556987  0.66451797  0.83578234  1
  Au  Au250  1  0.49894139  0.34118224  0.66874274  1
  Au  Au251  1  0.33171911  0.83864392  0.00241169  1
  Au  Au252  1  0.15697129  0.17459898  0.00240677  1
  Au  Au253  1  0.16780044  0.00172870  0.17707424  1
  Au  Au254  1  0.66320096  0.50252990  0.17295498  1
  Au  Au255  1  0.83366739  -0.00325430  0.32872650  1
  Au  Au256  1  0.16468984  0.82291173  -0.00080585  1
  Au  Au257  1  0.17805914  0.16294407  0.50051789  1
  Au  Au258  1  0.65951583  0.66637058  0.49663758  1
  Au  Au259  1  0.00136282  0.82158848  0.34478075  1
  Au  Au260  1  0.50374561  0.16161509  0.82580926  1
  Au  Au261  1  0.83236016  0.83696198  0.00140069  1
  Au  Au262  1  0.83241238  0.17058327  0.50014053  1
  Au  Au263  1  -0.00199093  0.82711268  0.16704659  1
  Au  Au264  1  0.67157709  0.34268598  -0.00094867  1
  Au  Au265  1  0.66855406  -0.00305762  0.17028940  1
  Au  Au266  1  0.67356700  0.83891519  0.49817947  1
  Au  Au267  1  0.17553997  0.65751119  0.49742965  1
  Au  Au268  1  0.50078647  0.83121336  0.82917111  1
  Au  Au269  1  0.00298308  0.17410563  0.32309380  1
  Au  Au270  1  0.50108637  0.32564987  0.32428666  1
  Au  Au271  1  0.82733268  0.65880723  0.00088031  1
  Au  Au272  1  0.49988883  0.82630394  0.32477869  1
  Au  Au273  1  0.67571394  0.33176042  0.49744322  1
  Au  Au274  1  0.49550306  0.83267007  0.66288090  1
  Au  Au275  1  0.65585955  0.82252839  -0.00019344  1
  Au  Au276  1  0.17445270  0.84519572  0.50410472  1
  Au  Au277  1  0.32551929  0.00212741  0.33609272  1
  Au  Au278  1  0.33337181  0.32642717  0.50083529  1
  Au  Au279  1  0.82430569  0.00195791  0.82662962  1
  Au  Au280  1  0.16177129  0.00350699  0.82433844  1
  Au  Au281  1  0.33354912  0.50303143  0.33176001  1
  Au  Au282  1  0.33535838  -0.00280222  0.82355558  1
  Au  Au283  1  0.32943667  0.49857905  0.82008033  1
  Au  Au284  1  0.84192385  0.66904002  0.49656027  1
  Au  Au285  1  0.50566259  0.66412700  0.83502798  1
  Au  Au286  1  0.67451217  0.50317235  0.67498077  1
  Au  Au287  1  0.16512002  0.33946382  0.49414859  1
