# generated using pymatgen
data_Ca24Ti8Al207Au49
_symmetry_space_group_name_H-M   'P 1'
_cell_length_a   17.31676197
_cell_length_b   17.31616224
_cell_length_c   17.31389261
_cell_angle_alpha   89.99796085
_cell_angle_beta   90.00157582
_cell_angle_gamma   90.00311112
_symmetry_Int_Tables_number   1
_chemical_formula_structural   Ca24Ti8Al207Au49
_chemical_formula_sum   'Ca24 Ti8 Al207 Au49'
_cell_volume   5191.74139601
_cell_formula_units_Z   1
loop_
 _symmetry_equiv_pos_site_id
 _symmetry_equiv_pos_as_xyz
  1  'x, y, z'
loop_
 _atom_site_type_symbol
 _atom_site_label
 _atom_site_symmetry_multiplicity
 _atom_site_fract_x
 _atom_site_fract_y
 _atom_site_fract_z
 _atom_site_occupancy
  Ca  Ca0  1  0.25399416  0.00333553  -0.00258638  1
  Ca  Ca1  1  0.25292621  -0.00557705  0.50152262  1
  Ca  Ca2  1  0.24429741  0.49800325  -0.00098444  1
  Ca  Ca3  1  0.24688185  0.50194082  0.50274419  1
  Ca  Ca4  1  0.74644007  -0.00056440  -0.00261403  1
  Ca  Ca5  1  0.75293326  -0.00162537  0.50026657  1
  Ca  Ca6  1  0.75424735  0.50076090  -0.00254811  1
  Ca  Ca7  1  0.75848951  0.50426144  0.50354403  1
  Ca  Ca8  1  -0.00110665  0.25257534  -0.00386528  1
  Ca  Ca9  1  0.00467777  0.25353690  0.50205644  1
  Ca  Ca10  1  0.00157084  0.74752537  -0.00566703  1
  Ca  Ca11  1  0.00135084  0.75189477  0.50353497  1
  Ca  Ca12  1  0.50108856  0.23992498  -0.00282952  1
  Ca  Ca13  1  0.49813695  0.24530501  0.49786361  1
  Ca  Ca14  1  0.50219148  0.75893544  -0.00097975  1
  Ca  Ca15  1  0.49699574  0.75657347  0.49972869  1
  Ca  Ca16  1  0.00189392  -0.00012181  0.24917409  1
  Ca  Ca17  1  0.00109731  -0.00104859  0.75737654  1
  Ca  Ca18  1  0.00244353  0.49746037  0.24694730  1
  Ca  Ca19  1  -0.00223617  0.49731351  0.75018108  1
  Ca  Ca20  1  0.49788923  -0.00220835  0.24730575  1
  Ca  Ca21  1  0.49940879  -0.00321428  0.75976253  1
  Ca  Ca22  1  0.49907384  0.50228393  0.24650667  1
  Ca  Ca23  1  0.50291658  0.50429243  0.75240365  1
  Ti  Ti24  1  0.25015561  0.24898438  0.24885848  1
  Ti  Ti25  1  0.24956495  0.24983708  0.75182729  1
  Ti  Ti26  1  0.25046127  0.75071006  0.25032114  1
  Ti  Ti27  1  0.24954429  0.74953566  0.75158100  1
  Ti  Ti28  1  0.74978612  0.24831612  0.24711586  1
  Ti  Ti29  1  0.75143883  0.24896242  0.75272675  1
  Ti  Ti30  1  0.75008278  0.75067598  0.24762467  1
  Ti  Ti31  1  0.75031182  0.74962175  0.75217264  1
  Al  Al32  1  0.08576412  0.09730166  0.07292105  1
  Al  Al33  1  0.08035590  0.09454904  0.58557702  1
  Al  Al34  1  0.08325581  0.56845296  0.08201332  1
  Al  Al35  1  0.08102355  0.58395463  0.58687272  1
  Al  Al36  1  0.59624253  0.08445328  0.07957457  1
  Al  Al37  1  0.57620499  0.07278646  0.58182608  1
  Al  Al38  1  0.58517318  0.57931208  0.09113620  1
  Al  Al39  1  0.58934044  0.58469072  0.59192410  1
  Al  Al40  1  0.41977936  0.41668966  0.08142162  1
  Al  Al41  1  0.41294278  0.42552140  0.57252094  1
  Al  Al42  1  0.41437894  0.91229374  0.07379525  1
  Al  Al43  1  0.41282268  0.90832201  0.57773187  1
  Al  Al44  1  0.92229472  0.41692316  0.09337982  1
  Al  Al45  1  0.91515280  0.41211280  0.59903918  1
  Al  Al46  1  0.90456283  0.92092852  0.08128178  1
  Al  Al47  1  0.92252114  0.91011632  0.58669988  1
  Al  Al48  1  0.40101042  0.07495045  0.41252470  1
  Al  Al49  1  0.41174702  0.08326661  0.91024995  1
  Al  Al50  1  0.40900263  0.58158127  0.41227698  1
  Al  Al51  1  0.41612316  0.58291394  0.91419865  1
  Al  Al52  1  0.92054444  0.07921008  0.42120741  1
  Al  Al53  1  0.92075996  0.08113529  0.91178524  1
  Al  Al54  1  0.92106309  0.57893006  0.42069115  1
  Al  Al55  1  0.91594866  0.58375831  0.90439378  1
  Al  Al56  1  0.08112737  0.41841062  0.41398208  1
  Al  Al57  1  0.08328540  0.41489988  0.90493582  1
  Al  Al58  1  0.09470570  0.90985577  0.42753011  1
  Al  Al59  1  0.07873059  0.91269348  0.90705812  1
  Al  Al60  1  0.57884539  0.42748649  0.41874297  1
  Al  Al61  1  0.59175791  0.42417263  0.91281074  1
  Al  Al62  1  0.57170434  0.90893033  0.40666960  1
  Al  Al63  1  0.57800543  0.92278537  0.91347383  1
  Al  Al64  1  0.08364718  0.08090279  0.42505468  1
  Al  Al65  1  0.09056888  0.09404219  0.91363126  1
  Al  Al66  1  0.08564644  0.58173682  0.41770490  1
  Al  Al67  1  0.07847890  0.57809996  0.90273422  1
  Al  Al68  1  0.57470000  0.07005223  0.41685529  1
  Al  Al69  1  0.58454210  0.08550324  0.91441482  1
  Al  Al70  1  0.57833595  0.58284144  0.41799498  1
  Al  Al71  1  0.58976863  0.58103801  0.91054852  1
  Al  Al72  1  0.40430350  0.42312495  0.41153195  1
  Al  Al73  1  0.41031104  0.41949225  0.91845057  1
  Al  Al74  1  0.40816871  0.91124192  0.40918752  1
  Al  Al75  1  0.41312798  0.91774347  0.91181330  1
  Al  Al76  1  0.92228095  0.41435959  0.42028753  1
  Al  Al77  1  0.92010724  0.42060737  0.90073962  1
  Al  Al78  1  0.91788627  0.91995188  0.42249149  1
  Al  Al79  1  0.91496598  0.91016184  0.90952667  1
  Al  Al80  1  0.08364719  0.40983492  0.09408272  1
  Al  Al81  1  0.07736843  0.40791267  0.59876349  1
  Al  Al82  1  0.07517390  0.92362674  0.07109520  1
  Al  Al83  1  0.08275347  0.90172619  0.58725478  1
  Al  Al84  1  0.58471455  0.42105783  0.08899388  1
  Al  Al85  1  0.59284916  0.43291158  0.58850831  1
  Al  Al86  1  0.58919016  0.92293604  0.08822531  1
  Al  Al87  1  0.57455407  0.91435771  0.58872291  1
  Al  Al88  1  0.41500615  0.08532793  0.07252274  1
  Al  Al89  1  0.40932242  0.08459292  0.57362406  1
  Al  Al90  1  0.42226872  0.58067011  0.08232838  1
  Al  Al91  1  0.41523310  0.58236714  0.58024535  1
  Al  Al92  1  0.91285438  0.07906670  0.08997126  1
  Al  Al93  1  0.92437792  0.08944483  0.59412605  1
  Al  Al94  1  0.91601173  0.57618502  0.07867466  1
  Al  Al95  1  0.91505584  0.57768678  0.59521262  1
  Al  Al96  1  0.25046154  0.13453062  0.13111856  1
  Al  Al97  1  0.25154036  0.13337530  0.63690812  1
  Al  Al98  1  0.24800175  0.63358590  0.13403399  1
  Al  Al99  1  0.24538942  0.63545206  0.63653331  1
  Al  Al100  1  0.74744342  0.13043917  0.13216107  1
  Al  Al101  1  0.75340793  0.13139223  0.63776500  1
  Al  Al102  1  0.74760442  0.63561910  0.13060650  1
  Al  Al103  1  0.75300630  0.63552377  0.63812766  1
  Al  Al104  1  0.24665536  0.36867713  0.13223828  1
  Al  Al105  1  0.24828021  0.36429848  0.63971431  1
  Al  Al106  1  0.25144104  0.86600761  0.13487125  1
  Al  Al107  1  0.25143652  0.86326002  0.63382986  1
  Al  Al108  1  0.74745200  0.36648596  0.13309779  1
  Al  Al109  1  0.75109859  0.36264652  0.64025356  1
  Al  Al110  1  0.74802769  0.86945834  0.13490127  1
  Al  Al111  1  0.75180047  0.86525503  0.63804444  1
  Al  Al112  1  0.25400546  0.13067496  0.36574642  1
  Al  Al113  1  0.24951002  0.13683777  0.87054684  1
  Al  Al114  1  0.25199264  0.63488151  0.36727927  1
  Al  Al115  1  0.24991703  0.63256748  0.86789952  1
  Al  Al116  1  0.74907682  0.13146769  0.36133538  1
  Al  Al117  1  0.74748218  0.13352500  0.86624137  1
  Al  Al118  1  0.75243158  0.63508505  0.36182371  1
  Al  Al119  1  0.75152669  0.63655552  0.87058589  1
  Al  Al120  1  0.25323364  0.36595062  0.36270027  1
  Al  Al121  1  0.24611693  0.37080426  0.86645667  1
  Al  Al122  1  0.25304620  0.86619876  0.36622952  1
  Al  Al123  1  0.25372957  0.86660871  0.86605879  1
  Al  Al124  1  0.74932432  0.36449268  0.36161485  1
  Al  Al125  1  0.75351094  0.36482680  0.86774568  1
  Al  Al126  1  0.74784160  0.86704313  0.36253571  1
  Al  Al127  1  0.74891445  0.86577628  0.86326966  1
  Al  Al128  1  0.13754222  0.25094463  0.12945987  1
  Al  Al129  1  0.13080401  0.25123023  0.63852634  1
  Al  Al130  1  0.13381170  0.74774111  0.13164653  1
  Al  Al131  1  0.13125497  0.75425721  0.63730916  1
  Al  Al132  1  0.63592336  0.24189934  0.13266758  1
  Al  Al133  1  0.63608955  0.24034728  0.63920015  1
  Al  Al134  1  0.63699904  0.75404857  0.12784996  1
  Al  Al135  1  0.63613193  0.75090746  0.63940317  1
  Al  Al136  1  0.13929043  0.25009421  0.36244048  1
  Al  Al137  1  0.13653389  0.25048237  0.87020879  1
  Al  Al138  1  0.13488438  0.75274750  0.36355238  1
  Al  Al139  1  0.13473819  0.74976113  0.86636282  1
  Al  Al140  1  0.63157265  0.24150387  0.35819074  1
  Al  Al141  1  0.63620631  0.24519584  0.86859189  1
  Al  Al142  1  0.63368566  0.75302094  0.36030078  1
  Al  Al143  1  0.63798354  0.75098235  0.87216743  1
  Al  Al144  1  0.36425450  0.24497755  0.13551964  1
  Al  Al145  1  0.36323286  0.24348498  0.63799016  1
  Al  Al146  1  0.36423965  0.75591722  0.13665908  1
  Al  Al147  1  0.36096746  0.74960635  0.63342792  1
  Al  Al148  1  0.86187626  0.25473447  0.12885346  1
  Al  Al149  1  0.87094194  0.25068717  0.64075856  1
  Al  Al150  1  0.86533972  0.74635313  0.13230971  1
  Al  Al151  1  0.86730191  0.75016061  0.63897950  1
  Al  Al152  1  0.36503241  0.24190267  0.36600273  1
  Al  Al153  1  0.36446766  0.24485167  0.86935832  1
  Al  Al154  1  0.36313018  0.75530009  0.37077469  1
  Al  Al155  1  0.36518396  0.75511241  0.87054380  1
  Al  Al156  1  0.86385459  0.24690596  0.36221439  1
  Al  Al157  1  0.86630517  0.25143317  0.86795828  1
  Al  Al158  1  0.86951204  0.75153213  0.36101309  1
  Al  Al159  1  0.86877445  0.75006664  0.86362077  1
  Al  Al160  1  0.13957743  0.13367602  0.24755215  1
  Al  Al161  1  0.13549979  0.13770100  0.75026713  1
  Al  Al162  1  0.13353045  0.63528419  0.25133610  1
  Al  Al163  1  0.13195555  0.63452728  0.75664636  1
  Al  Al164  1  0.63213196  0.12664781  0.24507082  1
  Al  Al165  1  0.63172855  0.13064620  0.75840764  1
  Al  Al166  1  0.63477673  0.63637499  0.24621662  1
  Al  Al167  1  0.63536234  0.63509048  0.75110538  1
  Al  Al168  1  0.36784040  0.13271672  0.24988185  1
  Al  Al169  1  0.36431165  0.12850060  0.76025840  1
  Al  Al170  1  0.36201834  0.63643545  0.25083833  1
  Al  Al171  1  0.36529182  0.63742774  0.75519037  1
  Al  Al172  1  0.86331480  0.13406557  0.24140331  1
  Al  Al173  1  0.86680713  0.13629831  0.75136028  1
  Al  Al174  1  0.86983067  0.63697550  0.24901432  1
  Al  Al175  1  0.86775261  0.63234512  0.75687393  1
  Al  Al176  1  0.13507406  0.36622513  0.24508271  1
  Al  Al177  1  0.12722725  0.36092518  0.75456114  1
  Al  Al178  1  0.13552185  0.86660792  0.24831862  1
  Al  Al179  1  0.13448079  0.86304097  0.75294045  1
  Al  Al180  1  0.63536663  0.36433278  0.24647433  1
  Al  Al181  1  0.63623912  0.36277516  0.75280122  1
  Al  Al182  1  0.63063467  0.86528201  0.24544425  1
  Al  Al183  1  0.63243034  0.86487835  0.75574350  1
  Al  Al184  1  0.36269111  0.36395958  0.24829696  1
  Al  Al185  1  0.36442233  0.36278440  0.75671918  1
  Al  Al186  1  0.36941514  0.86651963  0.25440830  1
  Al  Al187  1  0.36525872  0.86529560  0.75487090  1
  Al  Al188  1  0.86524115  0.36258690  0.24756956  1
  Al  Al189  1  0.87011605  0.36368521  0.75401851  1
  Al  Al190  1  0.86400226  0.86673714  0.24540651  1
  Al  Al191  1  0.86984628  0.86251010  0.75182743  1
  Al  Al192  1  0.17863218  0.68886812  0.50096647  1
  Al  Al193  1  0.82487718  0.82097713  0.49966733  1
  Al  Al194  1  -0.00109522  0.82336896  0.17388143  1
  Al  Al195  1  0.50031136  0.31865929  0.17246310  1
  Al  Al196  1  0.18313565  -0.00102938  0.32385503  1
  Al  Al197  1  0.81391759  0.50115592  0.18011629  1
  Al  Al198  1  0.32333015  0.68350380  0.00391035  1
  Al  Al199  1  0.68338251  0.67632148  0.49907227  1
  Al  Al200  1  0.00015536  0.68645462  0.68890237  1
  Al  Al201  1  0.67851150  -0.00161700  0.68941111  1
  Al  Al202  1  0.82912285  0.32150306  0.50190064  1
  Al  Al203  1  0.32468284  -0.00031012  0.17971037  1
  Al  Al204  1  0.00123497  0.32347282  0.31613143  1
  Al  Al205  1  0.17138161  0.49878503  0.68578989  1
  Al  Al206  1  0.17022498  -0.00213568  0.67052649  1
  Al  Al207  1  0.00241890  0.17149377  0.32716012  1
  Al  Al208  1  0.68097795  0.50034560  0.30902162  1
  Al  Al209  1  0.18376758  0.00117682  0.82706646  1
  Al  Al210  1  0.49714932  0.16718650  0.68533822  1
  Al  Al211  1  0.81575652  -0.00009294  0.82106081  1
  Al  Al212  1  0.49752714  0.81893439  0.68758617  1
  Al  Al213  1  0.66986272  0.83122831  0.49992757  1
  Al  Al214  1  0.00092143  0.18528824  0.81679465  1
  Al  Al215  1  0.50102563  0.31582465  0.83085391  1
  Al  Al216  1  0.50034665  0.33109878  0.66726519  1
  Al  Al217  1  0.81099078  0.49864621  0.69343547  1
  Al  Al218  1  0.31759877  0.50053920  0.18208293  1
  Al  Al219  1  0.32524767  0.50034297  0.68045903  1
  Al  Al220  1  0.31813426  0.31340194  0.00234615  1
  Al  Al221  1  0.67987231  0.16771308  0.49883918  1
  Al  Al222  1  0.49633342  0.68603904  0.32973345  1
  Al  Al223  1  0.17004709  0.32882158  0.50129557  1
  Al  Al224  1  0.18610092  0.17596529  0.50049991  1
  Al  Al225  1  0.18295639  0.82376464  -0.00087526  1
  Al  Al226  1  0.81905113  0.82056877  -0.00116609  1
  Al  Al227  1  0.50138934  0.69107979  0.82268207  1
  Al  Al228  1  0.69352318  0.50044413  0.80999231  1
  Al  Al229  1  0.81751896  0.17306895  -0.00065098  1
  Al  Al230  1  0.82131878  0.00073552  0.31419908  1
  Al  Al231  1  0.67097554  0.33062435  0.50101398  1
  Al  Al232  1  0.49798211  0.32466047  0.33046769  1
  Al  Al233  1  0.49995049  0.68343607  0.17261903  1
  Al  Al234  1  0.18564246  0.49995607  0.31408907  1
  Al  Al235  1  0.32907456  -0.00215219  0.68169225  1
  Al  Al236  1  -0.00041696  0.19047766  0.16960108  1
  Al  Al237  1  0.67547927  0.31771097  0.00194897  1
  Al  Al238  1  0.32737665  0.31073660  0.50053362  1
  Au  Au239  1  0.66657061  0.67416468  0.49995716  1
  Au  Au240  1  -0.00296164  0.83814039  0.16548320  1
  Au  Au241  1  0.66035933  -0.00614352  0.32006885  1
  Au  Au242  1  0.66960927  0.84039373  -0.00473122  1
  Au  Au243  1  0.50265274  0.16875137  0.15715985  1
  Au  Au244  1  0.66412589  0.16124538  0.49712014  1
  Au  Au245  1  0.82657125  0.15917758  -0.00105719  1
  Au  Au246  1  0.15801176  0.32739140  -0.00188229  1
  Au  Au247  1  0.49685137  0.67320039  0.66155981  1
  Au  Au248  1  0.49978009  0.34828222  0.66507648  1
  Au  Au249  1  0.32260945  0.50117081  0.82829719  1
  Au  Au250  1  0.33311445  0.50033865  0.17433826  1
  Au  Au251  1  0.66710769  -0.00409016  0.67719107  1
  Au  Au252  1  0.15811160  -0.00233006  0.67385096  1
  Au  Au253  1  0.83994185  0.67138488  -0.00415364  1
  Au  Au254  1  0.16507261  0.67836596  0.50193739  1
  Au  Au255  1  0.32153021  0.32706208  0.50024544  1
  Au  Au256  1  0.33490190  -0.00236239  0.66920287  1
  Au  Au257  1  0.17309325  0.83722773  -0.00299679  1
  Au  Au258  1  0.33348186  0.32064171  0.00320640  1
  Au  Au259  1  0.50299550  0.67769434  0.83271760  1
  Au  Au260  1  0.84124716  0.49616862  0.32681584  1
  Au  Au261  1  0.33410713  -0.00052953  0.16586767  1
  Au  Au262  1  0.67800332  0.34603772  0.50158606  1
  Au  Au263  1  0.66842820  0.66199660  0.00405510  1
  Au  Au264  1  0.66656609  0.33187677  0.00239482  1
  Au  Au265  1  0.16221318  0.00529550  0.15910373  1
  Au  Au266  1  0.50102620  0.33056131  0.83920160  1
  Au  Au267  1  0.17356545  -0.00086562  0.33764135  1
  Au  Au268  1  0.33810711  0.67519017  0.00410330  1
  Au  Au269  1  0.83682871  0.00120507  0.32148533  1
  Au  Au270  1  0.84613029  0.17421855  0.50459051  1
  Au  Au271  1  0.84522032  -0.00277489  0.67514573  1
  Au  Au272  1  0.66908384  0.50313658  0.32101897  1
  Au  Au273  1  0.49374630  0.15940954  0.33338902  1
  Au  Au274  1  0.49561560  0.66989710  0.32356317  1
  Au  Au275  1  0.49692712  0.34051056  0.32380079  1
  Au  Au276  1  0.00025096  0.66573712  0.33178013  1
  Au  Au277  1  0.00338602  0.83118238  0.34232501  1
  Au  Au278  1  0.49970515  0.83309063  0.16643791  1
  Au  Au279  1  0.00030509  0.67047569  0.68280899  1
  Au  Au280  1  0.17637044  0.49809994  0.32849103  1
  Au  Au281  1  0.00321459  0.65820752  0.16661284  1
  Au  Au282  1  0.84329704  0.67259654  0.50305030  1
  Au  Au283  1  0.33442066  0.67695338  0.50027571  1
  Au  Au284  1  0.16132739  0.65712487  -0.00420696  1
  Au  Au285  1  0.84421109  0.34041684  -0.00271679  1
  Au  Au286  1  0.00017983  0.17392421  0.17434590  1
  Au  Au287  1  0.49526531  0.16513750  0.66830276  1
