# generated using pymatgen
data_Ca24Ti8Al207Au49
_symmetry_space_group_name_H-M   'P 1'
_cell_length_a   17.32197714
_cell_length_b   17.32320555
_cell_length_c   17.32329144
_cell_angle_alpha   89.99686413
_cell_angle_beta   90.00347861
_cell_angle_gamma   89.99688107
_symmetry_Int_Tables_number   1
_chemical_formula_structural   Ca24Ti8Al207Au49
_chemical_formula_sum   'Ca24 Ti8 Al207 Au49'
_cell_volume   5198.23763762
_cell_formula_units_Z   1
loop_
 _symmetry_equiv_pos_site_id
 _symmetry_equiv_pos_as_xyz
  1  'x, y, z'
loop_
 _atom_site_type_symbol
 _atom_site_label
 _atom_site_symmetry_multiplicity
 _atom_site_fract_x
 _atom_site_fract_y
 _atom_site_fract_z
 _atom_site_occupancy
  Ca  Ca0  1  0.24499373  0.00474733  -0.00112504  1
  Ca  Ca1  1  0.24937006  0.00243324  0.50200918  1
  Ca  Ca2  1  0.24481439  0.49619180  -0.00015082  1
  Ca  Ca3  1  0.24367394  0.49591866  0.49958514  1
  Ca  Ca4  1  0.75469995  0.00496717  0.00046796  1
  Ca  Ca5  1  0.75134922  0.00398277  0.49933914  1
  Ca  Ca6  1  0.75603775  0.49581536  0.00172322  1
  Ca  Ca7  1  0.74840854  0.49563687  0.50049248  1
  Ca  Ca8  1  -0.00422298  0.25038906  -0.00099886  1
  Ca  Ca9  1  0.00133991  0.25092530  0.50009874  1
  Ca  Ca10  1  -0.00460470  0.74822180  0.00238248  1
  Ca  Ca11  1  0.00212232  0.74740408  0.49806285  1
  Ca  Ca12  1  0.50114935  0.25150489  0.00101204  1
  Ca  Ca13  1  0.50055052  0.25048153  0.49987737  1
  Ca  Ca14  1  0.50545059  0.75122596  -0.00176975  1
  Ca  Ca15  1  0.49562558  0.75289806  0.50023493  1
  Ca  Ca16  1  -0.00086321  0.00539764  0.24528982  1
  Ca  Ca17  1  -0.00022604  0.00518949  0.76013586  1
  Ca  Ca18  1  -0.00180037  0.49949823  0.24467216  1
  Ca  Ca19  1  -0.00229200  0.49438684  0.75368847  1
  Ca  Ca20  1  0.50274801  0.00396106  0.24605951  1
  Ca  Ca21  1  0.50126211  0.00697819  0.75132882  1
  Ca  Ca22  1  0.50310927  0.49359657  0.24491506  1
  Ca  Ca23  1  0.50400080  0.49565697  0.75053069  1
  Ti  Ti24  1  0.25022160  0.25023588  0.24725634  1
  Ti  Ti25  1  0.24906897  0.25096492  0.75101276  1
  Ti  Ti26  1  0.24698317  0.74956866  0.24827143  1
  Ti  Ti27  1  0.24672908  0.74989907  0.75348049  1
  Ti  Ti28  1  0.74915942  0.24985031  0.24792037  1
  Ti  Ti29  1  0.74914486  0.24999526  0.75176932  1
  Ti  Ti30  1  0.75126610  0.74903430  0.24766354  1
  Ti  Ti31  1  0.75185425  0.74911791  0.75210462  1
  Al  Al32  1  0.07874774  0.09926241  0.07851409  1
  Al  Al33  1  0.08496485  0.08575009  0.58452934  1
  Al  Al34  1  0.07801179  0.60211526  0.08701510  1
  Al  Al35  1  0.07579167  0.57519630  0.57692819  1
  Al  Al36  1  0.59874824  0.08449845  0.08392071  1
  Al  Al37  1  0.58262421  0.08565817  0.58352408  1
  Al  Al38  1  0.60343191  0.58052264  0.08498404  1
  Al  Al39  1  0.59312423  0.56773523  0.58873813  1
  Al  Al40  1  0.40819575  0.41145877  0.07803873  1
  Al  Al41  1  0.42656684  0.40797174  0.58639754  1
  Al  Al42  1  0.41609509  0.92572376  0.07446379  1
  Al  Al43  1  0.41854273  0.91905664  0.57803655  1
  Al  Al44  1  0.90617353  0.40934317  0.08545262  1
  Al  Al45  1  0.91759703  0.41270876  0.60395076  1
  Al  Al46  1  0.91993196  0.91143278  0.08502297  1
  Al  Al47  1  0.92421848  0.92684728  0.58758590  1
  Al  Al48  1  0.40932982  0.08260517  0.41523204  1
  Al  Al49  1  0.40288088  0.08817221  0.91572909  1
  Al  Al50  1  0.41482787  0.57649568  0.41807660  1
  Al  Al51  1  0.41557284  0.57610522  0.92629034  1
  Al  Al52  1  0.92115204  0.09164897  0.41163919  1
  Al  Al53  1  0.90740438  0.09258586  0.91796269  1
  Al  Al54  1  0.92143743  0.58485990  0.40371476  1
  Al  Al55  1  0.91822850  0.57499173  0.92478318  1
  Al  Al56  1  0.08649465  0.41068249  0.42249263  1
  Al  Al57  1  0.07623655  0.40483430  0.91357790  1
  Al  Al58  1  0.08220842  0.91561386  0.41488768  1
  Al  Al59  1  0.09294659  0.92059213  0.91920408  1
  Al  Al60  1  0.58727601  0.41740592  0.42149945  1
  Al  Al61  1  0.58805754  0.41401844  0.91904431  1
  Al  Al62  1  0.58416246  0.92922287  0.41857861  1
  Al  Al63  1  0.59703898  0.91556685  0.92451410  1
  Al  Al64  1  0.07989316  0.09326815  0.40850419  1
  Al  Al65  1  0.08851870  0.08771469  0.91629439  1
  Al  Al66  1  0.07771142  0.58400602  0.40547018  1
  Al  Al67  1  0.08399312  0.58793444  0.92636901  1
  Al  Al68  1  0.58537194  0.08451337  0.41385006  1
  Al  Al69  1  0.59079923  0.08887327  0.92318926  1
  Al  Al70  1  0.58395094  0.57427103  0.41804388  1
  Al  Al71  1  0.59899881  0.58009225  0.92652818  1
  Al  Al72  1  0.41809723  0.41669550  0.41873077  1
  Al  Al73  1  0.41319890  0.40753541  0.91918739  1
  Al  Al74  1  0.40248963  0.92862927  0.41739585  1
  Al  Al75  1  0.40700909  0.92848947  0.91618950  1
  Al  Al76  1  0.92307155  0.42451237  0.41484715  1
  Al  Al77  1  0.91259714  0.40221678  0.91442933  1
  Al  Al78  1  0.92663433  0.92435303  0.41189825  1
  Al  Al79  1  0.91014810  0.92755291  0.91909313  1
  Al  Al80  1  0.07542497  0.41197269  0.07693086  1
  Al  Al81  1  0.07979022  0.40369118  0.58597287  1
  Al  Al82  1  0.08119086  0.89767756  0.08048434  1
  Al  Al83  1  0.08296282  0.92159543  0.58535815  1
  Al  Al84  1  0.59629237  0.41733532  0.08295865  1
  Al  Al85  1  0.58934518  0.40839992  0.59566652  1
  Al  Al86  1  0.60425038  0.92327160  0.08392051  1
  Al  Al87  1  0.57791548  0.92280322  0.58141162  1
  Al  Al88  1  0.41036881  0.09098156  0.07696529  1
  Al  Al89  1  0.41840951  0.08464689  0.57884736  1
  Al  Al90  1  0.41360846  0.57451407  0.07991271  1
  Al  Al91  1  0.42074094  0.57236695  0.57581506  1
  Al  Al92  1  0.91433850  0.09621951  0.08237348  1
  Al  Al93  1  0.91856823  0.08680097  0.58244950  1
  Al  Al94  1  0.91213737  0.58609634  0.09315313  1
  Al  Al95  1  0.91286026  0.57092785  0.59143498  1
  Al  Al96  1  0.25353921  0.13829103  0.13014131  1
  Al  Al97  1  0.24384315  0.13680683  0.63658974  1
  Al  Al98  1  0.24216726  0.63886006  0.12889518  1
  Al  Al99  1  0.24832453  0.63221771  0.63521784  1
  Al  Al100  1  0.74781334  0.13662494  0.12946521  1
  Al  Al101  1  0.74880147  0.13252504  0.63840104  1
  Al  Al102  1  0.75182013  0.62917522  0.13447084  1
  Al  Al103  1  0.75334185  0.63003799  0.63454944  1
  Al  Al104  1  0.25062591  0.35895410  0.12501802  1
  Al  Al105  1  0.24863203  0.36485973  0.63665315  1
  Al  Al106  1  0.24338175  0.86350843  0.12872669  1
  Al  Al107  1  0.24589334  0.86708539  0.63724493  1
  Al  Al108  1  0.75193839  0.36609158  0.13341115  1
  Al  Al109  1  0.74966349  0.36968109  0.63986610  1
  Al  Al110  1  0.74875762  0.86587030  0.13171360  1
  Al  Al111  1  0.75062192  0.87249337  0.63753326  1
  Al  Al112  1  0.25056737  0.13731930  0.36097186  1
  Al  Al113  1  0.24731066  0.13903702  0.87074855  1
  Al  Al114  1  0.24539458  0.63456202  0.36216365  1
  Al  Al115  1  0.24493436  0.63304307  0.87252614  1
  Al  Al116  1  0.74774806  0.13742585  0.35956834  1
  Al  Al117  1  0.75402278  0.13575101  0.86986483  1
  Al  Al118  1  0.75396001  0.63288360  0.36484065  1
  Al  Al119  1  0.74847444  0.62628164  0.86598852  1
  Al  Al120  1  0.25273446  0.36118558  0.36456882  1
  Al  Al121  1  0.24913346  0.36247408  0.87063582  1
  Al  Al122  1  0.24523032  0.86482639  0.36267391  1
  Al  Al123  1  0.24383532  0.86585363  0.87155765  1
  Al  Al124  1  0.75164048  0.36230185  0.36145905  1
  Al  Al125  1  0.75137380  0.37145168  0.86472050  1
  Al  Al126  1  0.75274849  0.86437397  0.36162989  1
  Al  Al127  1  0.74894808  0.87013937  0.86651623  1
  Al  Al128  1  0.13587592  0.24519796  0.12561615  1
  Al  Al129  1  0.13234662  0.25389567  0.63236225  1
  Al  Al130  1  0.12808383  0.75112566  0.13445043  1
  Al  Al131  1  0.13573513  0.74905209  0.63309400  1
  Al  Al132  1  0.63273744  0.24846004  0.13021417  1
  Al  Al133  1  0.63183517  0.25084432  0.64097003  1
  Al  Al134  1  0.64001720  0.74690379  0.12668915  1
  Al  Al135  1  0.64243863  0.75001509  0.63839599  1
  Al  Al136  1  0.13627037  0.25024027  0.36916102  1
  Al  Al137  1  0.13591113  0.25012892  0.87331425  1
  Al  Al138  1  0.13265187  0.74854019  0.36698587  1
  Al  Al139  1  0.13339370  0.75080137  0.87289982  1
  Al  Al140  1  0.63025030  0.24924603  0.35978572  1
  Al  Al141  1  0.63611211  0.24746771  0.86532077  1
  Al  Al142  1  0.63950255  0.75002222  0.36415010  1
  Al  Al143  1  0.64045480  0.74848519  0.86750802  1
  Al  Al144  1  0.36946117  0.25007458  0.13263416  1
  Al  Al145  1  0.36970974  0.25311179  0.63628520  1
  Al  Al146  1  0.36541320  0.75053743  0.13523769  1
  Al  Al147  1  0.36134136  0.74989271  0.63860893  1
  Al  Al148  1  0.85935903  0.24957827  0.12576892  1
  Al  Al149  1  0.86293778  0.25349246  0.64059579  1
  Al  Al150  1  0.86538598  0.74870835  0.13306195  1
  Al  Al151  1  0.86187987  0.74842615  0.63808265  1
  Al  Al152  1  0.37097278  0.25148375  0.36568177  1
  Al  Al153  1  0.36367311  0.24835338  0.87099332  1
  Al  Al154  1  0.36141990  0.74675050  0.36383415  1
  Al  Al155  1  0.36163407  0.74582010  0.86783309  1
  Al  Al156  1  0.86928341  0.24467132  0.35994576  1
  Al  Al157  1  0.86082275  0.25272116  0.86959332  1
  Al  Al158  1  0.86847803  0.74269049  0.36115068  1
  Al  Al159  1  0.86056149  0.74974888  0.86406621  1
  Al  Al160  1  0.13130039  0.13918828  0.24797690  1
  Al  Al161  1  0.13329162  0.13675999  0.75616543  1
  Al  Al162  1  0.12706025  0.63794445  0.24681154  1
  Al  Al163  1  0.13533917  0.63480129  0.75320108  1
  Al  Al164  1  0.63145726  0.13545238  0.24326229  1
  Al  Al165  1  0.63753526  0.12832291  0.75385081  1
  Al  Al166  1  0.63836432  0.63378677  0.24401637  1
  Al  Al167  1  0.63877502  0.62854237  0.75015738  1
  Al  Al168  1  0.36923529  0.13698251  0.24963509  1
  Al  Al169  1  0.36408108  0.13753331  0.74993273  1
  Al  Al170  1  0.36227390  0.63505936  0.24903306  1
  Al  Al171  1  0.35999966  0.63242870  0.75264278  1
  Al  Al172  1  0.86931720  0.13940523  0.24246096  1
  Al  Al173  1  0.86476224  0.13222187  0.75297069  1
  Al  Al174  1  0.86795570  0.63439214  0.24344935  1
  Al  Al175  1  0.86171229  0.62731777  0.75164310  1
  Al  Al176  1  0.13701081  0.36034936  0.24521955  1
  Al  Al177  1  0.13149644  0.36328680  0.75242495  1
  Al  Al178  1  0.13068834  0.86507608  0.24701785  1
  Al  Al179  1  0.13589183  0.86531541  0.75690173  1
  Al  Al180  1  0.63282557  0.36291758  0.24256811  1
  Al  Al181  1  0.63458021  0.36749795  0.75149215  1
  Al  Al182  1  0.63748694  0.86411362  0.24375569  1
  Al  Al183  1  0.63904557  0.86998198  0.75407256  1
  Al  Al184  1  0.36987991  0.36043764  0.24815821  1
  Al  Al185  1  0.36842628  0.36156598  0.75401514  1
  Al  Al186  1  0.35957593  0.86673168  0.25124649  1
  Al  Al187  1  0.36030110  0.86424765  0.75325600  1
  Al  Al188  1  0.86680423  0.36372284  0.24548401  1
  Al  Al189  1  0.86550782  0.36672802  0.75332522  1
  Al  Al190  1  0.86816052  0.86323482  0.24342695  1
  Al  Al191  1  0.86244666  0.87296289  0.75376304  1
  Al  Al192  1  0.16917671  0.50044797  0.17199001  1
  Al  Al193  1  -0.00060734  0.82389161  0.67455321  1
  Al  Al194  1  0.50477012  0.83021230  0.16582745  1
  Al  Al195  1  0.50026738  0.83314236  0.83219098  1
  Al  Al196  1  0.66672425  0.82113354  0.50058050  1
  Al  Al197  1  0.17836543  0.49641301  0.32638684  1
  Al  Al198  1  0.31482687  0.17202292  0.50054175  1
  Al  Al199  1  0.82489212  0.66621373  0.50025856  1
  Al  Al200  1  0.31789046  0.82738288  0.50033882  1
  Al  Al201  1  0.50008774  0.82558804  0.67503540  1
  Al  Al202  1  0.50197707  0.17743672  0.82645520  1
  Al  Al203  1  0.81533743  0.00180993  0.17127160  1
  Al  Al204  1  0.17186412  0.49453541  0.67769484  1
  Al  Al205  1  -0.00151731  0.67032977  0.67465266  1
  Al  Al206  1  0.83253013  0.32633188  0.49936994  1
  Al  Al207  1  0.50393400  0.66859139  0.83242444  1
  Al  Al208  1  0.82835248  0.82850427  0.49976630  1
  Al  Al209  1  0.32340424  0.82101446  -0.00101001  1
  Al  Al210  1  0.67597915  0.31648514  0.50165073  1
  Al  Al211  1  0.81753374  0.67237306  -0.00095846  1
  Al  Al212  1  0.49594785  0.83392283  0.32726617  1
  Al  Al213  1  0.50076043  0.67043696  0.67120076  1
  Al  Al214  1  0.82702149  0.49958442  0.31187623  1
  Al  Al215  1  -0.00161342  0.18773793  0.83009672  1
  Al  Al216  1  -0.00049709  0.18526791  0.67634940  1
  Al  Al217  1  0.67585861  0.49681759  0.31535511  1
  Al  Al218  1  0.32298527  0.49652704  0.17994456  1
  Al  Al219  1  -0.00093694  0.31001485  0.17181545  1
  Al  Al220  1  0.32582302  0.00266218  0.18293813  1
  Al  Al221  1  0.81769172  0.82583553  -0.00107766  1
  Al  Al222  1  0.82050078  0.17525172  0.49958424  1
  Al  Al223  1  0.18183344  0.00212752  0.32477831  1
  Al  Al224  1  0.50050869  0.67302429  0.32494707  1
  Al  Al225  1  0.68903202  0.31434164  -0.00156688  1
  Al  Al226  1  0.50441865  0.66891507  0.16794924  1
  Al  Al227  1  0.00267112  0.31708201  0.32399298  1
  Al  Al228  1  -0.00255364  0.67135923  0.82893821  1
  Al  Al229  1  0.30321003  0.00271342  0.81651986  1
  Al  Al230  1  0.16985568  0.00293375  0.16707964  1
  Al  Al231  1  -0.00213974  0.82722370  0.82924010  1
  Al  Al232  1  0.31840711  0.67067497  0.50106381  1
  Al  Al233  1  0.67664486  0.00055435  0.31158122  1
  Al  Al234  1  -0.00078012  0.81145105  0.31362326  1
  Al  Al235  1  0.31689264  0.32524817  0.50214498  1
  Al  Al236  1  0.82831312  0.00256350  0.32586780  1
  Al  Al237  1  0.32140665  0.49965852  0.82490887  1
  Al  Al238  1  0.17819653  -0.00158588  0.68760112  1
  Au  Au239  1  0.83956929  0.84213243  0.50045136  1
  Au  Au240  1  0.50087338  0.84921059  0.82713339  1
  Au  Au241  1  0.00198365  0.32947026  0.32713811  1
  Au  Au242  1  0.66937267  0.65811074  0.50113388  1
  Au  Au243  1  0.50098390  0.33637678  0.16235714  1
  Au  Au244  1  0.67172091  0.16782905  0.49926958  1
  Au  Au245  1  0.50668689  0.67086682  0.65573152  1
  Au  Au246  1  0.16328133  0.49675223  0.66888935  1
  Au  Au247  1  0.00162604  0.17241916  0.67660618  1
  Au  Au248  1  0.50364837  0.16758934  0.15924174  1
  Au  Au249  1  0.16903220  0.83549766  0.50246223  1
  Au  Au250  1  0.83642640  0.66149764  0.50031901  1
  Au  Au251  1  0.17009935  0.00238666  0.32945355  1
  Au  Au252  1  0.50201943  0.33200911  0.82905010  1
  Au  Au253  1  0.50482044  0.33319903  0.33304422  1
  Au  Au254  1  0.49859424  0.17924712  0.66245425  1
  Au  Au255  1  0.17078013  0.32400158  -0.00072335  1
  Au  Au256  1  -0.00179549  0.83731415  0.83899639  1
  Au  Au257  1  0.33904528  0.49453384  0.67036085  1
  Au  Au258  1  0.33074246  0.00240345  0.17129778  1
  Au  Au259  1  0.50460051  0.66301954  0.84757725  1
  Au  Au260  1  0.16872511  0.00146063  0.67949766  1
  Au  Au261  1  0.66635071  -0.00074582  0.67145331  1
  Au  Au262  1  -0.00098376  0.82782341  0.31932604  1
  Au  Au263  1  0.16199049  0.66457895  0.49613336  1
  Au  Au264  1  0.50657978  0.83529116  0.15084451  1
  Au  Au265  1  0.33016355  0.49754321  0.83375772  1
  Au  Au266  1  0.32950136  0.32781421  0.50247103  1
  Au  Au267  1  0.67022892  0.49798256  0.82548624  1
  Au  Au268  1  0.83112857  0.34149577  0.50526218  1
  Au  Au269  1  0.15909957  0.50145566  0.16219792  1
  Au  Au270  1  0.15467819  0.00053943  0.15792895  1
  Au  Au271  1  0.49630609  0.16467999  0.33098011  1
  Au  Au272  1  0.66893421  0.83335644  0.49909103  1
  Au  Au273  1  0.49221700  0.83899873  0.34318797  1
  Au  Au274  1  0.50009472  0.65793475  0.16350606  1
  Au  Au275  1  0.83161377  0.00249434  0.17026167  1
  Au  Au276  1  0.50371314  0.66445312  0.33362377  1
  Au  Au277  1  0.32243198  0.83355284  -0.00357667  1
  Au  Au278  1  0.83675926  0.00327576  0.67745804  1
  Au  Au279  1  0.34143250  -0.00006369  0.67378001  1
  Au  Au280  1  0.15726829  0.49931849  0.83431052  1
  Au  Au281  1  0.16535523  0.17507405  0.49854000  1
  Au  Au282  1  0.68088597  0.00458355  0.84121991  1
  Au  Au283  1  0.33055147  0.67425552  0.50280395  1
  Au  Au284  1  0.49711087  0.17266258  0.83682202  1
  Au  Au285  1  0.83744610  0.49748367  0.82759731  1
  Au  Au286  1  0.31968663  0.66639476  0.00336981  1
  Au  Au287  1  0.32933228  0.49692653  0.32802108  1
