# generated using pymatgen
data_Ca24Ti8Al207Au49
_symmetry_space_group_name_H-M   'P 1'
_cell_length_a   17.32244468
_cell_length_b   17.32074207
_cell_length_c   17.32197136
_cell_angle_alpha   89.99899732
_cell_angle_beta   89.99882102
_cell_angle_gamma   90.00100981
_symmetry_Int_Tables_number   1
_chemical_formula_structural   Ca24Ti8Al207Au49
_chemical_formula_sum   'Ca24 Ti8 Al207 Au49'
_cell_volume   5197.24264663
_cell_formula_units_Z   1
loop_
 _symmetry_equiv_pos_site_id
 _symmetry_equiv_pos_as_xyz
  1  'x, y, z'
loop_
 _atom_site_type_symbol
 _atom_site_label
 _atom_site_symmetry_multiplicity
 _atom_site_fract_x
 _atom_site_fract_y
 _atom_site_fract_z
 _atom_site_occupancy
  Ca  Ca0  1  0.25253332  -0.00014688  -0.00423768  1
  Ca  Ca1  1  0.25666696  0.00182019  0.50527226  1
  Ca  Ca2  1  0.25563770  0.49676494  0.00050495  1
  Ca  Ca3  1  0.25623590  0.49756153  0.50124732  1
  Ca  Ca4  1  0.74476992  0.00086712  0.00172884  1
  Ca  Ca5  1  0.74018684  -0.00118711  0.49912524  1
  Ca  Ca6  1  0.74288947  0.50185671  -0.00196265  1
  Ca  Ca7  1  0.74146923  0.50053276  0.50204175  1
  Ca  Ca8  1  -0.00034524  0.25136882  -0.00152577  1
  Ca  Ca9  1  0.00267387  0.25007873  0.49814127  1
  Ca  Ca10  1  0.00076213  0.75044411  -0.00038891  1
  Ca  Ca11  1  0.00028872  0.75133852  0.49918434  1
  Ca  Ca12  1  0.50251933  0.25128137  0.00063819  1
  Ca  Ca13  1  0.49569667  0.24807981  0.50148728  1
  Ca  Ca14  1  0.50448872  0.74687378  0.00345188  1
  Ca  Ca15  1  0.50252095  0.75005692  0.49846149  1
  Ca  Ca16  1  -0.00220687  -0.00313143  0.24904733  1
  Ca  Ca17  1  0.00059846  0.00334540  0.75291431  1
  Ca  Ca18  1  0.00070205  0.50063195  0.24709325  1
  Ca  Ca19  1  0.00007050  0.49801621  0.75381958  1
  Ca  Ca20  1  0.49806387  0.00326220  0.24679004  1
  Ca  Ca21  1  0.49835889  0.00064291  0.74770459  1
  Ca  Ca22  1  0.50010189  0.50154410  0.24602357  1
  Ca  Ca23  1  0.50104115  0.50110274  0.74559348  1
  Ti  Ti24  1  0.24956041  0.25254832  0.24914344  1
  Ti  Ti25  1  0.25185943  0.25265907  0.75028934  1
  Ti  Ti26  1  0.24934325  0.74798623  0.24900379  1
  Ti  Ti27  1  0.25085558  0.74793321  0.75124510  1
  Ti  Ti28  1  0.75068381  0.25169137  0.24841528  1
  Ti  Ti29  1  0.74783112  0.25044416  0.75085876  1
  Ti  Ti30  1  0.75003200  0.74942592  0.25022255  1
  Ti  Ti31  1  0.74825854  0.74987812  0.74944348  1
  Al  Al32  1  0.07019770  0.08587794  0.08183641  1
  Al  Al33  1  0.08695608  0.08484996  0.59116033  1
  Al  Al34  1  0.07651546  0.58076086  0.08297183  1
  Al  Al35  1  0.08485910  0.57697297  0.58400056  1
  Al  Al36  1  0.58725044  0.07964423  0.08787065  1
  Al  Al37  1  0.58059987  0.08049823  0.59623527  1
  Al  Al38  1  0.59037762  0.58575702  0.09336002  1
  Al  Al39  1  0.58417517  0.58204133  0.58354306  1
  Al  Al40  1  0.42107156  0.40618987  0.08557114  1
  Al  Al41  1  0.41178802  0.41827177  0.58527524  1
  Al  Al42  1  0.42421099  0.91387059  0.08562085  1
  Al  Al43  1  0.42707567  0.91848455  0.58761311  1
  Al  Al44  1  0.91626679  0.41167552  0.07856676  1
  Al  Al45  1  0.91084689  0.42300336  0.58522908  1
  Al  Al46  1  0.92037477  0.90953144  0.09029367  1
  Al  Al47  1  0.91662056  0.91002460  0.57557067  1
  Al  Al48  1  0.41176653  0.08691457  0.42266541  1
  Al  Al49  1  0.41230580  0.08215489  0.91347523  1
  Al  Al50  1  0.42441526  0.59097833  0.40992631  1
  Al  Al51  1  0.42014568  0.57620568  0.92155347  1
  Al  Al52  1  0.92506823  0.08136161  0.42080103  1
  Al  Al53  1  0.91982958  0.09863532  0.91901213  1
  Al  Al54  1  0.92157326  0.58599939  0.41872709  1
  Al  Al55  1  0.90769660  0.58489783  0.92152579  1
  Al  Al56  1  0.08178921  0.41955525  0.42048712  1
  Al  Al57  1  0.08946583  0.41209216  0.91147425  1
  Al  Al58  1  0.07270374  0.90987795  0.41045950  1
  Al  Al59  1  0.08983868  0.92617135  0.91047285  1
  Al  Al60  1  0.58007228  0.41664536  0.41675325  1
  Al  Al61  1  0.58158050  0.42603670  0.92002219  1
  Al  Al62  1  0.57925040  0.90766166  0.41324595  1
  Al  Al63  1  0.58341264  0.91709207  0.91700204  1
  Al  Al64  1  0.08153428  0.08519306  0.42105300  1
  Al  Al65  1  0.08234432  0.08734654  0.90353283  1
  Al  Al66  1  0.07953954  0.58304391  0.41391948  1
  Al  Al67  1  0.08877169  0.57098333  0.91120613  1
  Al  Al68  1  0.57316583  0.07760607  0.42543035  1
  Al  Al69  1  0.58224393  0.08055581  0.91779882  1
  Al  Al70  1  0.58037172  0.59489788  0.40894547  1
  Al  Al71  1  0.59008309  0.58636188  0.92310016  1
  Al  Al72  1  0.41893477  0.41500612  0.41892490  1
  Al  Al73  1  0.40918163  0.41170216  0.92345454  1
  Al  Al74  1  0.42496238  0.92069851  0.41026230  1
  Al  Al75  1  0.41531915  0.92021416  0.91021255  1
  Al  Al76  1  0.92377646  0.41897148  0.42422535  1
  Al  Al77  1  0.91708611  0.41379208  0.91653247  1
  Al  Al78  1  0.91485651  0.89479290  0.41752086  1
  Al  Al79  1  0.92576724  0.92210876  0.92756873  1
  Al  Al80  1  0.08214157  0.41355472  0.07629594  1
  Al  Al81  1  0.08656024  0.42096200  0.58305688  1
  Al  Al82  1  0.07586368  0.91039266  0.08568619  1
  Al  Al83  1  0.07892857  0.92776869  0.58920578  1
  Al  Al84  1  0.58368042  0.41888191  0.09240809  1
  Al  Al85  1  0.58586478  0.42054916  0.58524863  1
  Al  Al86  1  0.58974478  0.91590364  0.09208748  1
  Al  Al87  1  0.58733160  0.91604430  0.59563826  1
  Al  Al88  1  0.42151693  0.08568660  0.07656025  1
  Al  Al89  1  0.41786136  0.09159685  0.58543076  1
  Al  Al90  1  0.42785521  0.58665404  0.08609829  1
  Al  Al91  1  0.41846591  0.57839861  0.58514364  1
  Al  Al92  1  0.91125105  0.10026221  0.08119708  1
  Al  Al93  1  0.92530331  0.08069027  0.58389420  1
  Al  Al94  1  0.91463991  0.59294315  0.07867857  1
  Al  Al95  1  0.90998828  0.57813922  0.58362797  1
  Al  Al96  1  0.24986453  0.13523145  0.13697845  1
  Al  Al97  1  0.25706696  0.13621643  0.63600315  1
  Al  Al98  1  0.25049165  0.62874855  0.13990940  1
  Al  Al99  1  0.25053656  0.62827486  0.63769808  1
  Al  Al100  1  0.75044199  0.13817052  0.13511960  1
  Al  Al101  1  0.74159404  0.13063962  0.63577019  1
  Al  Al102  1  0.74412744  0.63375376  0.13850439  1
  Al  Al103  1  0.74707767  0.63677860  0.63413634  1
  Al  Al104  1  0.25237692  0.37042113  0.13833658  1
  Al  Al105  1  0.25140673  0.36973630  0.63645562  1
  Al  Al106  1  0.25202631  0.86265235  0.13185730  1
  Al  Al107  1  0.24892846  0.86469931  0.63544225  1
  Al  Al108  1  0.74931308  0.36672248  0.13760480  1
  Al  Al109  1  0.74548681  0.36316893  0.63498212  1
  Al  Al110  1  0.74668226  0.86496243  0.13792639  1
  Al  Al111  1  0.74535964  0.86465416  0.63070020  1
  Al  Al112  1  0.25267336  0.13847423  0.36396517  1
  Al  Al113  1  0.25065374  0.13530293  0.86356377  1
  Al  Al114  1  0.25042934  0.63148862  0.35915996  1
  Al  Al115  1  0.25150405  0.62858823  0.86317627  1
  Al  Al116  1  0.74917266  0.13529764  0.36125001  1
  Al  Al117  1  0.74859130  0.13779433  0.86495317  1
  Al  Al118  1  0.74757792  0.63672812  0.36154130  1
  Al  Al119  1  0.74928409  0.63548057  0.86355680  1
  Al  Al120  1  0.25194256  0.36982481  0.36146241  1
  Al  Al121  1  0.25207126  0.37190274  0.86301189  1
  Al  Al122  1  0.24875105  0.85836793  0.36417532  1
  Al  Al123  1  0.24840060  0.86249873  0.86887055  1
  Al  Al124  1  0.74639804  0.36451527  0.36115540  1
  Al  Al125  1  0.75214561  0.36428340  0.86675718  1
  Al  Al126  1  0.74972639  0.85848487  0.37230598  1
  Al  Al127  1  0.74747494  0.86315138  0.86437794  1
  Al  Al128  1  0.13190766  0.25358850  0.13535734  1
  Al  Al129  1  0.13976708  0.25008228  0.64097478  1
  Al  Al130  1  0.13095879  0.75125889  0.13538910  1
  Al  Al131  1  0.13859411  0.74885113  0.63908538  1
  Al  Al132  1  0.63431581  0.25543953  0.13573912  1
  Al  Al133  1  0.62737311  0.24769338  0.63730257  1
  Al  Al134  1  0.63170174  0.74285978  0.13185455  1
  Al  Al135  1  0.63197000  0.75469327  0.63431284  1
  Al  Al136  1  0.12968225  0.24757670  0.36163591  1
  Al  Al137  1  0.13808032  0.25248128  0.86225018  1
  Al  Al138  1  0.13006936  0.75178281  0.36285335  1
  Al  Al139  1  0.13069667  0.74836312  0.86243669  1
  Al  Al140  1  0.63418938  0.25054963  0.36147414  1
  Al  Al141  1  0.63551044  0.24972987  0.86428883  1
  Al  Al142  1  0.62885733  0.75049310  0.36133209  1
  Al  Al143  1  0.63446362  0.74801539  0.86725031  1
  Al  Al144  1  0.36620547  0.25853744  0.13405389  1
  Al  Al145  1  0.36966604  0.25281543  0.63853099  1
  Al  Al146  1  0.36817514  0.74701359  0.13831296  1
  Al  Al147  1  0.36243072  0.74987140  0.63614760  1
  Al  Al148  1  0.86609200  0.25122746  0.12796012  1
  Al  Al149  1  0.85991768  0.24697456  0.63820717  1
  Al  Al150  1  0.86596636  0.75021509  0.13683664  1
  Al  Al151  1  0.86271713  0.75408608  0.63429900  1
  Al  Al152  1  0.36470020  0.25314742  0.36367901  1
  Al  Al153  1  0.36236059  0.25445605  0.86260620  1
  Al  Al154  1  0.36915754  0.74737472  0.36086153  1
  Al  Al155  1  0.36408964  0.75224916  0.86361025  1
  Al  Al156  1  0.87148993  0.24712762  0.36100167  1
  Al  Al157  1  0.86418475  0.24679898  0.87064644  1
  Al  Al158  1  0.86963897  0.75067854  0.36327569  1
  Al  Al159  1  0.86947773  0.75000398  0.86343692  1
  Al  Al160  1  0.12975476  0.13752406  0.24527125  1
  Al  Al161  1  0.13705411  0.13498677  0.75429160  1
  Al  Al162  1  0.12956971  0.63319085  0.24916606  1
  Al  Al163  1  0.13690900  0.62653107  0.75234274  1
  Al  Al164  1  0.63547895  0.13578838  0.24434517  1
  Al  Al165  1  0.63253546  0.13381863  0.74769615  1
  Al  Al166  1  0.63112858  0.63410257  0.25019082  1
  Al  Al167  1  0.63401107  0.63522442  0.74672886  1
  Al  Al168  1  0.36462478  0.13950180  0.24666567  1
  Al  Al169  1  0.36765900  0.13629769  0.74661404  1
  Al  Al170  1  0.36932682  0.63158936  0.25013050  1
  Al  Al171  1  0.36493573  0.62715042  0.75033631  1
  Al  Al172  1  0.87099738  0.13788757  0.24296809  1
  Al  Al173  1  0.86415732  0.13506119  0.75283291  1
  Al  Al174  1  0.87134027  0.63667413  0.25084386  1
  Al  Al175  1  0.86358786  0.63582895  0.75054071  1
  Al  Al176  1  0.13161055  0.36835893  0.24956230  1
  Al  Al177  1  0.13976874  0.37493130  0.75313061  1
  Al  Al178  1  0.13237287  0.86475361  0.24614528  1
  Al  Al179  1  0.13683506  0.86630597  0.75518450  1
  Al  Al180  1  0.63040892  0.36914313  0.24890122  1
  Al  Al181  1  0.63159544  0.36645747  0.74669571  1
  Al  Al182  1  0.63649943  0.86368025  0.25096413  1
  Al  Al183  1  0.63046736  0.86449720  0.74691756  1
  Al  Al184  1  0.37125378  0.36984316  0.25006540  1
  Al  Al185  1  0.36593256  0.37492671  0.74817713  1
  Al  Al186  1  0.36572876  0.86370254  0.25033055  1
  Al  Al187  1  0.36851689  0.86361561  0.74752650  1
  Al  Al188  1  0.87314193  0.36164779  0.24759974  1
  Al  Al189  1  0.86177408  0.36377748  0.75335083  1
  Al  Al190  1  0.86630120  0.86479882  0.24974570  1
  Al  Al191  1  0.86338118  0.86568139  0.74931195  1
  Al  Al192  1  0.32878449  0.83136535  0.49734872  1
  Al  Al193  1  0.82024402  0.50210695  0.17070737  1
  Al  Al194  1  0.67667205  0.32903011  0.00115438  1
  Al  Al195  1  0.80420284  0.68259487  0.00100845  1
  Al  Al196  1  0.82309535  0.17291056  0.49981296  1
  Al  Al197  1  0.32826648  0.00121437  0.31980769  1
  Al  Al198  1  0.68122598  0.50024115  0.81371552  1
  Al  Al199  1  0.50181188  0.81153250  0.19012170  1
  Al  Al200  1  0.82376551  0.32959599  0.49857381  1
  Al  Al201  1  0.32779195  0.18830840  -0.00048663  1
  Al  Al202  1  0.19056172  0.32682491  -0.00036634  1
  Al  Al203  1  0.82699328  -0.00541754  0.33071526  1
  Al  Al204  1  0.80772058  0.49966073  0.68133544  1
  Al  Al205  1  0.18838005  0.17283684  0.50190092  1
  Al  Al206  1  0.18376357  0.00087705  0.69011417  1
  Al  Al207  1  0.50038724  0.18363724  0.17114771  1
  Al  Al208  1  0.32978091  0.67214712  0.49982975  1
  Al  Al209  1  0.67943228  0.17406953  0.00102000  1
  Al  Al210  1  0.81924192  0.49792081  0.33056898  1
  Al  Al211  1  0.67129494  0.32032277  0.49973921  1
  Al  Al212  1  0.17423609  0.17566018  0.00019906  1
  Al  Al213  1  0.49873992  0.17786416  0.32554200  1
  Al  Al214  1  0.68075337  0.81886664  -0.00168203  1
  Al  Al215  1  0.49957016  0.67890875  0.82933741  1
  Al  Al216  1  0.00095272  0.67090474  0.67970749  1
  Al  Al217  1  0.32551991  0.31568063  0.50107492  1
  Al  Al218  1  0.17255375  0.67781107  0.49903801  1
  Al  Al219  1  0.00099697  0.17414681  0.68865078  1
  Al  Al220  1  0.17530051  0.32861033  0.49897733  1
  Al  Al221  1  0.82927999  0.68664065  0.49901782  1
  Al  Al222  1  0.00045249  0.31227650  0.82612125  1
  Al  Al223  1  0.67420443  -0.00054406  0.81466735  1
  Al  Al224  1  0.82936277  0.00241228  0.83311945  1
  Al  Al225  1  0.67186609  0.68229986  0.49862087  1
  Al  Al226  1  0.00072306  0.82697128  0.67874074  1
  Al  Al227  1  0.81959464  0.00271135  0.17044846  1
  Al  Al228  1  0.49821565  0.68268196  0.67177669  1
  Al  Al229  1  0.66899436  0.00134113  0.31698840  1
  Al  Al230  1  0.17321373  -0.00123767  0.32802908  1
  Al  Al231  1  0.31001379  -0.00103649  0.81616954  1
  Al  Al232  1  0.33063055  0.67808996  0.00165754  1
  Al  Al233  1  0.17517754  0.67466209  -0.00007462  1
  Al  Al234  1  0.17511179  0.00074744  0.16738831  1
  Al  Al235  1  0.81818934  -0.00279121  0.66941427  1
  Al  Al236  1  0.00062016  0.33073726  0.67665103  1
  Al  Al237  1  0.49957455  0.17225951  0.81904330  1
  Al  Al238  1  0.50038323  0.32891114  0.82372034  1
  Au  Au239  1  0.67181903  0.82753860  0.00131741  1
  Au  Au240  1  0.83619812  0.49682409  0.33328098  1
  Au  Au241  1  -0.00412817  0.32232873  0.66266881  1
  Au  Au242  1  0.32831697  0.50012732  0.83272737  1
  Au  Au243  1  0.82601962  0.32253887  -0.00218154  1
  Au  Au244  1  0.82462227  -0.00399441  0.65452974  1
  Au  Au245  1  0.50026481  0.32713398  0.32602035  1
  Au  Au246  1  0.16381759  0.16584764  -0.00061581  1
  Au  Au247  1  0.82495923  0.50232225  0.15485523  1
  Au  Au248  1  0.17688855  0.65840419  -0.00278213  1
  Au  Au249  1  0.17608085  0.49870760  0.67417921  1
  Au  Au250  1  -0.00104236  0.67977777  0.16456186  1
  Au  Au251  1  0.17211068  0.17793227  0.50362321  1
  Au  Au252  1  0.83922873  0.17899139  0.50035538  1
  Au  Au253  1  0.17790954  0.66161794  0.49861026  1
  Au  Au254  1  0.33911835  0.00362212  0.16815071  1
  Au  Au255  1  0.16278475  0.00124290  0.17003185  1
  Au  Au256  1  0.65525059  0.17102291  0.50426381  1
  Au  Au257  1  0.16490523  0.49728872  0.16620936  1
  Au  Au258  1  0.00090548  0.84205190  0.82720990  1
  Au  Au259  1  0.34082322  0.82810281  -0.00104851  1
  Au  Au260  1  0.83797879  0.82437673  0.00071186  1
  Au  Au261  1  0.00069456  0.32339236  0.16281181  1
  Au  Au262  1  0.50096617  0.66676933  0.82643848  1
  Au  Au263  1  0.65306724  0.00196154  0.32265338  1
  Au  Au264  1  0.83299974  -0.00795322  0.34688803  1
  Au  Au265  1  0.33535454  0.50228089  0.33456062  1
  Au  Au266  1  0.00027566  0.16133381  0.31933744  1
  Au  Au267  1  0.17775335  -0.00500849  0.34491527  1
  Au  Au268  1  0.00066198  0.67846407  0.33055918  1
  Au  Au269  1  0.82746000  0.00312956  0.15601213  1
  Au  Au270  1  0.49960277  0.32879321  0.66305705  1
  Au  Au271  1  0.82490523  0.00572403  0.84774107  1
  Au  Au272  1  0.65930039  0.50233670  0.32620721  1
  Au  Au273  1  0.34451578  0.82739833  0.49603256  1
  Au  Au274  1  0.50145409  0.32586865  0.83618393  1
  Au  Au275  1  0.00083268  0.66541295  0.84095163  1
  Au  Au276  1  0.16784372  0.49831985  0.33154135  1
  Au  Au277  1  0.15761893  0.83737494  0.50566071  1
  Au  Au278  1  0.00159544  0.32897441  0.33487659  1
  Au  Au279  1  0.50403635  0.82590308  0.18089761  1
  Au  Au280  1  0.66688447  0.83271422  0.50143519  1
  Au  Au281  1  0.83068190  0.49946529  0.82737597  1
  Au  Au282  1  0.33732157  0.49980484  0.16198428  1
  Au  Au283  1  -0.00306129  0.67209875  0.66318520  1
  Au  Au284  1  0.50021557  0.83713870  0.82112736  1
  Au  Au285  1  0.33294860  0.00136729  0.66915923  1
  Au  Au286  1  0.82312649  0.67053821  0.49941655  1
  Au  Au287  1  0.16777272  0.83776554  -0.00140407  1
