# generated using pymatgen
data_Ca24Ti8Al207Au49
_symmetry_space_group_name_H-M   'P 1'
_cell_length_a   17.32304152
_cell_length_b   17.32326106
_cell_length_c   17.32423332
_cell_angle_alpha   89.99427154
_cell_angle_beta   89.99939545
_cell_angle_gamma   90.00092523
_symmetry_Int_Tables_number   1
_chemical_formula_structural   Ca24Ti8Al207Au49
_chemical_formula_sum   'Ca24 Ti8 Al207 Au49'
_cell_volume   5198.85635947
_cell_formula_units_Z   1
loop_
 _symmetry_equiv_pos_site_id
 _symmetry_equiv_pos_as_xyz
  1  'x, y, z'
loop_
 _atom_site_type_symbol
 _atom_site_label
 _atom_site_symmetry_multiplicity
 _atom_site_fract_x
 _atom_site_fract_y
 _atom_site_fract_z
 _atom_site_occupancy
  Ca  Ca0  1  0.24935151  -0.00315664  0.00055231  1
  Ca  Ca1  1  0.24850281  -0.00588059  0.50257975  1
  Ca  Ca2  1  0.25287932  0.50299618  0.00094557  1
  Ca  Ca3  1  0.25184661  0.50482454  0.49832677  1
  Ca  Ca4  1  0.74718507  -0.00068677  -0.00134070  1
  Ca  Ca5  1  0.74623565  -0.00433104  0.50053909  1
  Ca  Ca6  1  0.74724721  0.50070661  0.00359183  1
  Ca  Ca7  1  0.74936607  0.50391839  0.49855996  1
  Ca  Ca8  1  0.00011708  0.24699413  0.00031743  1
  Ca  Ca9  1  0.00298631  0.24300467  0.49914310  1
  Ca  Ca10  1  0.00404416  0.74810729  -0.00117902  1
  Ca  Ca11  1  0.00064491  0.74986647  0.50125434  1
  Ca  Ca12  1  0.49916353  0.24902863  0.00066567  1
  Ca  Ca13  1  0.49642073  0.24911888  0.49679160  1
  Ca  Ca14  1  0.49488790  0.75168489  -0.00157794  1
  Ca  Ca15  1  0.49981796  0.74952060  0.49907038  1
  Ca  Ca16  1  0.00244451  -0.00114363  0.25211329  1
  Ca  Ca17  1  -0.00061641  -0.00180136  0.75014864  1
  Ca  Ca18  1  0.00125426  0.50294512  0.25016690  1
  Ca  Ca19  1  0.00294213  0.50156480  0.75158962  1
  Ca  Ca20  1  0.49994496  0.00067351  0.24957200  1
  Ca  Ca21  1  0.49985981  -0.00309499  0.75055928  1
  Ca  Ca22  1  0.50124927  0.50299081  0.25100086  1
  Ca  Ca23  1  0.49558337  0.50245861  0.75123611  1
  Ti  Ti24  1  0.24992360  0.24929960  0.24917140  1
  Ti  Ti25  1  0.25075945  0.25102160  0.74988931  1
  Ti  Ti26  1  0.24989336  0.75014167  0.24809852  1
  Ti  Ti27  1  0.24893683  0.74962114  0.75179252  1
  Ti  Ti28  1  0.74919354  0.24924442  0.24825646  1
  Ti  Ti29  1  0.75035447  0.24927961  0.75154208  1
  Ti  Ti30  1  0.74978636  0.74901988  0.25068116  1
  Ti  Ti31  1  0.75141390  0.75088916  0.74965234  1
  Al  Al32  1  0.08407370  0.08158270  0.08374374  1
  Al  Al33  1  0.08695326  0.07333866  0.58553928  1
  Al  Al34  1  0.08610886  0.58646980  0.08266812  1
  Al  Al35  1  0.08285269  0.59104476  0.58764258  1
  Al  Al36  1  0.58587188  0.08731378  0.08012619  1
  Al  Al37  1  0.57849395  0.08025123  0.57751976  1
  Al  Al38  1  0.58399770  0.58174637  0.09504993  1
  Al  Al39  1  0.57693704  0.58712866  0.57494769  1
  Al  Al40  1  0.42143320  0.42429143  0.08303889  1
  Al  Al41  1  0.41076778  0.42423325  0.58808788  1
  Al  Al42  1  0.41882559  0.90650288  0.08475236  1
  Al  Al43  1  0.40991609  0.90916593  0.58243369  1
  Al  Al44  1  0.91469075  0.42185713  0.08007869  1
  Al  Al45  1  0.92378203  0.42554074  0.58310178  1
  Al  Al46  1  0.92700560  0.91872737  0.07920783  1
  Al  Al47  1  0.91107827  0.91486867  0.58496762  1
  Al  Al48  1  0.42072004  0.08762709  0.41433912  1
  Al  Al49  1  0.41482006  0.07486235  0.92228068  1
  Al  Al50  1  0.41221993  0.57994313  0.41683804  1
  Al  Al51  1  0.40806453  0.59121162  0.91214735  1
  Al  Al52  1  0.92740172  0.08658963  0.41023754  1
  Al  Al53  1  0.91772724  0.08854397  0.90993824  1
  Al  Al54  1  0.92515558  0.58773403  0.41074401  1
  Al  Al55  1  0.91424708  0.57857628  0.90910052  1
  Al  Al56  1  0.08566910  0.42492787  0.41539957  1
  Al  Al57  1  0.08607771  0.42060807  0.91921487  1
  Al  Al58  1  0.09318767  0.91568577  0.41855861  1
  Al  Al59  1  0.08692493  0.91256887  0.92283705  1
  Al  Al60  1  0.58572225  0.42214565  0.40701263  1
  Al  Al61  1  0.58007117  0.41924574  0.92486813  1
  Al  Al62  1  0.58517087  0.91369870  0.41926558  1
  Al  Al63  1  0.57867523  0.91477367  0.91378409  1
  Al  Al64  1  0.08684363  0.07837681  0.40698524  1
  Al  Al65  1  0.07855818  0.08797503  0.91307570  1
  Al  Al66  1  0.08643378  0.58847743  0.41125861  1
  Al  Al67  1  0.08727010  0.58559822  0.91631033  1
  Al  Al68  1  0.57959012  0.08636784  0.41189007  1
  Al  Al69  1  0.59021379  0.08094476  0.92354353  1
  Al  Al70  1  0.58997166  0.58177599  0.41360117  1
  Al  Al71  1  0.57201317  0.58622875  0.91708378  1
  Al  Al72  1  0.41527428  0.42221913  0.41242457  1
  Al  Al73  1  0.40890297  0.42838427  0.91092570  1
  Al  Al74  1  0.41239843  0.91024034  0.42199594  1
  Al  Al75  1  0.41756910  0.91065330  0.91307585  1
  Al  Al76  1  0.92181705  0.42407527  0.41724227  1
  Al  Al77  1  0.90967186  0.42158299  0.91371574  1
  Al  Al78  1  0.91925513  0.91679741  0.42453838  1
  Al  Al79  1  0.92067987  0.92203870  0.91746288  1
  Al  Al80  1  0.08590038  0.41953483  0.07870261  1
  Al  Al81  1  0.08081065  0.42158894  0.58063199  1
  Al  Al82  1  0.08808976  0.90986647  0.08148689  1
  Al  Al83  1  0.09344192  0.91087981  0.58310661  1
  Al  Al84  1  0.58863012  0.41985957  0.08969090  1
  Al  Al85  1  0.57425241  0.41920192  0.57580372  1
  Al  Al86  1  0.57707622  0.91379960  0.08346744  1
  Al  Al87  1  0.58504967  0.90987469  0.57944806  1
  Al  Al88  1  0.41964321  0.08366925  0.08036041  1
  Al  Al89  1  0.41690349  0.08048062  0.58052526  1
  Al  Al90  1  0.41286881  0.59045956  0.07919485  1
  Al  Al91  1  0.40910957  0.58231547  0.58628482  1
  Al  Al92  1  0.92039854  0.08408968  0.07884505  1
  Al  Al93  1  0.91584602  0.07188097  0.58777873  1
  Al  Al94  1  0.91994943  0.57992273  0.08508325  1
  Al  Al95  1  0.92381950  0.58940418  0.58922933  1
  Al  Al96  1  0.24777832  0.12761208  0.14015616  1
  Al  Al97  1  0.24849094  0.12837604  0.63647778  1
  Al  Al98  1  0.25048842  0.63215885  0.13018253  1
  Al  Al99  1  0.25242115  0.63404470  0.63625584  1
  Al  Al100  1  0.75146528  0.13673948  0.13252836  1
  Al  Al101  1  0.75245605  0.13419091  0.63622187  1
  Al  Al102  1  0.74316620  0.63394325  0.13659907  1
  Al  Al103  1  0.75342940  0.63438848  0.63681667  1
  Al  Al104  1  0.25087605  0.36994793  0.13701753  1
  Al  Al105  1  0.25387376  0.37028809  0.63698909  1
  Al  Al106  1  0.24814263  0.86683904  0.13013248  1
  Al  Al107  1  0.25058920  0.86769156  0.63658636  1
  Al  Al108  1  0.74606998  0.36442681  0.13596574  1
  Al  Al109  1  0.75167152  0.36697135  0.63930011  1
  Al  Al110  1  0.74924223  0.86065705  0.13497316  1
  Al  Al111  1  0.74979930  0.86463935  0.63720651  1
  Al  Al112  1  0.24484159  0.13209392  0.36243552  1
  Al  Al113  1  0.24969380  0.13468215  0.86430336  1
  Al  Al114  1  0.25219124  0.63610444  0.36373432  1
  Al  Al115  1  0.24986994  0.63369951  0.86912768  1
  Al  Al116  1  0.75072838  0.13780769  0.36202612  1
  Al  Al117  1  0.75115930  0.13547687  0.86941989  1
  Al  Al118  1  0.74545184  0.63531435  0.36321693  1
  Al  Al119  1  0.75427150  0.63620956  0.86181257  1
  Al  Al120  1  0.24948782  0.36335405  0.36317046  1
  Al  Al121  1  0.25155900  0.36928049  0.86325255  1
  Al  Al122  1  0.24929005  0.86588074  0.36587197  1
  Al  Al123  1  0.24883522  0.86214152  0.87206915  1
  Al  Al124  1  0.74414411  0.36434637  0.36263244  1
  Al  Al125  1  0.75128844  0.36522837  0.86320764  1
  Al  Al126  1  0.74994462  0.86344136  0.36377667  1
  Al  Al127  1  0.75343799  0.86251854  0.86398729  1
  Al  Al128  1  0.13058421  0.24593292  0.13884819  1
  Al  Al129  1  0.13876196  0.24919930  0.63401615  1
  Al  Al130  1  0.13916470  0.74805547  0.12854652  1
  Al  Al131  1  0.13589440  0.75224426  0.63453202  1
  Al  Al132  1  0.63503970  0.24662725  0.13058590  1
  Al  Al133  1  0.63693995  0.25407676  0.63544761  1
  Al  Al134  1  0.63247379  0.75016966  0.13667389  1
  Al  Al135  1  0.63670836  0.75229876  0.63462566  1
  Al  Al136  1  0.13317607  0.24322798  0.36449644  1
  Al  Al137  1  0.13515030  0.24739364  0.86268702  1
  Al  Al138  1  0.13783245  0.75110788  0.36491992  1
  Al  Al139  1  0.13381431  0.74833742  0.86892485  1
  Al  Al140  1  0.62900818  0.25045833  0.36053272  1
  Al  Al141  1  0.63622427  0.24913921  0.87089731  1
  Al  Al142  1  0.63431494  0.75292417  0.36411634  1
  Al  Al143  1  0.63596481  0.74916811  0.86511774  1
  Al  Al144  1  0.36335038  0.24857276  0.13751139  1
  Al  Al145  1  0.36230990  0.25109152  0.63640804  1
  Al  Al146  1  0.35940209  0.75062313  0.12770297  1
  Al  Al147  1  0.36164873  0.75267592  0.63416766  1
  Al  Al148  1  0.86855239  0.24869610  0.13434770  1
  Al  Al149  1  0.86448795  0.24865758  0.63892738  1
  Al  Al150  1  0.86438591  0.74560695  0.13735523  1
  Al  Al151  1  0.86844172  0.74740837  0.63712408  1
  Al  Al152  1  0.36613388  0.24987887  0.36145911  1
  Al  Al153  1  0.36540987  0.25280809  0.86352270  1
  Al  Al154  1  0.36195086  0.75501347  0.36397606  1
  Al  Al155  1  0.36123833  0.74921996  0.87084298  1
  Al  Al156  1  0.86500916  0.24969667  0.36492613  1
  Al  Al157  1  0.86619840  0.24526877  0.86605393  1
  Al  Al158  1  0.86769610  0.74884637  0.36528877  1
  Al  Al159  1  0.87309022  0.74974472  0.85902974  1
  Al  Al160  1  0.13145368  0.12948003  0.24945627  1
  Al  Al161  1  0.13578863  0.13524681  0.74906914  1
  Al  Al162  1  0.13146238  0.63875371  0.24835158  1
  Al  Al163  1  0.13162159  0.63747870  0.75091037  1
  Al  Al164  1  0.63130465  0.13659305  0.24949041  1
  Al  Al165  1  0.63820997  0.13634597  0.74958222  1
  Al  Al166  1  0.63331395  0.63262107  0.25057550  1
  Al  Al167  1  0.63405809  0.63575559  0.74985278  1
  Al  Al168  1  0.36889459  0.13371874  0.25169994  1
  Al  Al169  1  0.36350841  0.13461889  0.74736525  1
  Al  Al170  1  0.36158507  0.63304256  0.24724180  1
  Al  Al171  1  0.36170221  0.63396232  0.75259902  1
  Al  Al172  1  0.86981698  0.13590537  0.25028654  1
  Al  Al173  1  0.86310423  0.12963728  0.75294826  1
  Al  Al174  1  0.87032454  0.63634648  0.25152695  1
  Al  Al175  1  0.86921163  0.63333537  0.74933874  1
  Al  Al176  1  0.13457541  0.36469732  0.24889760  1
  Al  Al177  1  0.13678839  0.36805770  0.75125136  1
  Al  Al178  1  0.13764268  0.86955478  0.25175015  1
  Al  Al179  1  0.13696575  0.86385193  0.74828473  1
  Al  Al180  1  0.63348390  0.36736168  0.24869674  1
  Al  Al181  1  0.62804453  0.36185182  0.75399518  1
  Al  Al182  1  0.63365132  0.86513471  0.24811498  1
  Al  Al183  1  0.63221180  0.86537215  0.75319361  1
  Al  Al184  1  0.36508789  0.37258433  0.25020960  1
  Al  Al185  1  0.36767566  0.36777606  0.75052535  1
  Al  Al186  1  0.36556352  0.86509206  0.24359462  1
  Al  Al187  1  0.36560678  0.86113975  0.75246357  1
  Al  Al188  1  0.86593890  0.36440506  0.24876153  1
  Al  Al189  1  0.86469482  0.36883671  0.75335258  1
  Al  Al190  1  0.86626576  0.86400701  0.25245457  1
  Al  Al191  1  0.86674369  0.87163918  0.74648224  1
  Al  Al192  1  0.17386798  0.68381632  0.50044417  1
  Al  Al193  1  0.00092811  0.31660653  0.32133953  1
  Al  Al194  1  0.31745945  0.17608028  0.00108242  1
  Al  Al195  1  0.50038261  0.17461946  0.82971957  1
  Al  Al196  1  0.82854810  0.82683280  -0.00022664  1
  Al  Al197  1  0.68057101  0.00014721  0.67114053  1
  Al  Al198  1  -0.00176351  0.82373616  0.67735982  1
  Al  Al199  1  0.49560263  0.68742860  0.17494051  1
  Al  Al200  1  0.81251512  0.50069670  0.32731431  1
  Al  Al201  1  0.32103328  0.17470520  0.49917436  1
  Al  Al202  1  0.32595073  0.68310565  0.49891520  1
  Al  Al203  1  0.68244646  -0.00056836  0.82712265  1
  Al  Al204  1  0.81155581  0.82149085  0.50113970  1
  Al  Al205  1  0.83001528  0.67047967  0.49905972  1
  Al  Al206  1  0.50069865  0.17954251  0.67336910  1
  Al  Al207  1  0.16915278  -0.00016389  0.81481175  1
  Al  Al208  1  0.00218714  0.81939770  0.32930635  1
  Al  Al209  1  0.67214447  0.17936071  0.49861060  1
  Al  Al210  1  0.49977479  0.82095850  0.68358242  1
  Al  Al211  1  0.67204199  0.82295307  -0.00058755  1
  Al  Al212  1  0.31905184  -0.00085679  0.32460098  1
  Al  Al213  1  -0.00208795  0.16609109  0.68666704  1
  Al  Al214  1  0.00106898  0.32331735  0.67459754  1
  Al  Al215  1  0.50166374  0.32185111  0.17874302  1
  Al  Al216  1  0.18560693  0.50196499  0.31900628  1
  Al  Al217  1  0.32801844  0.32903194  0.49856869  1
  Al  Al218  1  0.00234819  0.81658550  0.17335969  1
  Al  Al219  1  0.17764839  0.31887189  0.00034147  1
  Al  Al220  1  0.81450669  0.50053019  0.17334569  1
  Al  Al221  1  0.82042821  0.32166463  0.00003175  1
  Al  Al222  1  0.82779484  0.16872426  0.49897197  1
  Al  Al223  1  0.67753363  0.68756641  0.49954262  1
  Al  Al224  1  0.32970298  0.33068748  0.00053793  1
  Al  Al225  1  0.32509718  -0.00266044  0.81727010  1
  Al  Al226  1  0.49744950  0.67022174  0.32710527  1
  Al  Al227  1  0.67638342  0.49971656  0.67198407  1
  Al  Al228  1  0.17243684  0.32144596  0.49959435  1
  Al  Al229  1  0.82759931  -0.00119621  0.17838861  1
  Al  Al230  1  0.81997458  0.67146603  0.00048624  1
  Al  Al231  1  0.49744156  0.69040789  0.81940083  1
  Al  Al232  1  0.67815105  0.00085166  0.32673379  1
  Al  Al233  1  0.67123704  0.00003113  0.17180898  1
  Al  Al234  1  -0.00035052  0.31814065  0.83326536  1
  Al  Al235  1  0.17809835  0.50005434  0.67854445  1
  Al  Al236  1  0.49846976  0.82581768  0.31539723  1
  Al  Al237  1  0.82055732  0.33220587  0.50024204  1
  Al  Al238  1  0.68251119  0.50034836  0.82864464  1
  Au  Au239  1  0.83655650  0.67203093  -0.00300009  1
  Au  Au240  1  0.33538033  0.50382193  0.17421792  1
  Au  Au241  1  0.83294371  -0.00066720  0.82612211  1
  Au  Au242  1  0.82695560  -0.00551896  0.16265331  1
  Au  Au243  1  0.49845357  0.83054967  0.32738742  1
  Au  Au244  1  0.32747887  -0.00088949  0.66595557  1
  Au  Au245  1  0.82529373  0.16541133  -0.00118517  1
  Au  Au246  1  0.66429485  0.32324364  0.00186755  1
  Au  Au247  1  0.16947243  0.50243062  0.66971212  1
  Au  Au248  1  -0.00058629  0.33304774  0.16102391  1
  Au  Au249  1  0.83690876  0.33280487  0.50567300  1
  Au  Au250  1  0.00126098  0.16649956  0.66983152  1
  Au  Au251  1  0.32523545  0.00069411  0.34005125  1
  Au  Au252  1  0.16793499  0.49958822  0.17316514  1
  Au  Au253  1  0.00094655  0.83148077  0.66799644  1
  Au  Au254  1  0.00201218  0.83161299  0.33293921  1
  Au  Au255  1  0.00210580  0.32658844  0.33530710  1
  Au  Au256  1  0.00046687  0.66099958  0.82243470  1
  Au  Au257  1  0.17118979  -0.00142010  0.83169391  1
  Au  Au258  1  0.00237655  0.82779132  0.83475190  1
  Au  Au259  1  0.82791399  0.00043833  0.34118741  1
  Au  Au260  1  0.18183035  0.50114511  0.83484519  1
  Au  Au261  1  0.65863663  0.32857592  0.49457065  1
  Au  Au262  1  0.66837594  0.00011662  0.66735106  1
  Au  Au263  1  0.49525225  0.32893476  0.66300260  1
  Au  Au264  1  0.82919358  0.50324735  0.32456723  1
  Au  Au265  1  0.49654115  0.33194070  0.17417710  1
  Au  Au266  1  0.00042976  0.66750827  0.17495663  1
  Au  Au267  1  0.67405966  0.50419332  0.84298247  1
  Au  Au268  1  0.17554829  0.33388312  0.50100051  1
  Au  Au269  1  -0.00032241  0.33443859  0.82796556  1
  Au  Au270  1  0.16406555  -0.00410819  0.17331086  1
  Au  Au271  1  0.17339469  0.67457466  -0.00087982  1
  Au  Au272  1  0.65463742  0.67380488  0.00355329  1
  Au  Au273  1  0.49683363  0.32852316  0.33345732  1
  Au  Au274  1  0.49592162  0.66522909  0.67327956  1
  Au  Au275  1  0.00025300  0.16441111  0.17609641  1
  Au  Au276  1  0.49654894  0.34145871  0.83164134  1
  Au  Au277  1  0.82654772  0.33270127  -0.00018304  1
  Au  Au278  1  0.84344340  0.50210269  0.67912624  1
  Au  Au279  1  0.50156341  0.15836515  0.83119157  1
  Au  Au280  1  0.16812025  0.17124545  -0.00044723  1
  Au  Au281  1  0.17256239  0.15676636  0.49820459  1
  Au  Au282  1  0.50091211  0.16524673  0.17413799  1
  Au  Au283  1  0.83084497  0.15745966  0.50363199  1
  Au  Au284  1  0.49972546  0.82607236  0.67188669  1
  Au  Au285  1  0.66935596  0.50174624  0.65739985  1
  Au  Au286  1  0.32859453  0.82745020  -0.00155938  1
  Au  Au287  1  0.33284874  -0.00191452  0.16217587  1
