# generated using pymatgen
data_Ca24Ti8Al207Au49
_symmetry_space_group_name_H-M   'P 1'
_cell_length_a   17.32037884
_cell_length_b   17.31973589
_cell_length_c   17.32045660
_cell_angle_alpha   90.00347970
_cell_angle_beta   89.99923944
_cell_angle_gamma   90.00484101
_symmetry_Int_Tables_number   1
_chemical_formula_structural   Ca24Ti8Al207Au49
_chemical_formula_sum   'Ca24 Ti8 Al207 Au49'
_cell_volume   5195.86652725
_cell_formula_units_Z   1
loop_
 _symmetry_equiv_pos_site_id
 _symmetry_equiv_pos_as_xyz
  1  'x, y, z'
loop_
 _atom_site_type_symbol
 _atom_site_label
 _atom_site_symmetry_multiplicity
 _atom_site_fract_x
 _atom_site_fract_y
 _atom_site_fract_z
 _atom_site_occupancy
  Ca  Ca0  1  0.25013091  -0.00344680  0.00118490  1
  Ca  Ca1  1  0.25288120  -0.00353238  0.49875645  1
  Ca  Ca2  1  0.24938073  0.50339831  0.00092552  1
  Ca  Ca3  1  0.25164262  0.50119544  0.50455355  1
  Ca  Ca4  1  0.75478757  0.00184726  0.00032386  1
  Ca  Ca5  1  0.74897927  0.00129678  0.49911364  1
  Ca  Ca6  1  0.75582610  0.49819999  0.00081642  1
  Ca  Ca7  1  0.74821756  0.49645251  0.49791995  1
  Ca  Ca8  1  0.00195921  0.24902133  0.00309940  1
  Ca  Ca9  1  -0.00496536  0.25157724  0.49609406  1
  Ca  Ca10  1  0.00077177  0.75157361  -0.00506691  1
  Ca  Ca11  1  0.00083656  0.74722254  0.50303836  1
  Ca  Ca12  1  0.49805446  0.25372298  0.00009425  1
  Ca  Ca13  1  0.50217577  0.25041831  0.49868001  1
  Ca  Ca14  1  0.49777197  0.75280511  0.00542770  1
  Ca  Ca15  1  0.49877027  0.75325369  0.49575161  1
  Ca  Ca16  1  -0.00060302  0.00425692  0.24803347  1
  Ca  Ca17  1  -0.00214490  0.00235804  0.74754357  1
  Ca  Ca18  1  -0.00042385  0.49608751  0.24906710  1
  Ca  Ca19  1  0.00010057  0.50023622  0.74248883  1
  Ca  Ca20  1  0.50212854  -0.00252759  0.25769473  1
  Ca  Ca21  1  0.49728670  0.00238514  0.74821424  1
  Ca  Ca22  1  0.49643567  0.50302711  0.25788052  1
  Ca  Ca23  1  0.49852728  0.49556244  0.74614679  1
  Ti  Ti24  1  0.24923379  0.24904716  0.24989598  1
  Ti  Ti25  1  0.25095982  0.25120587  0.74989392  1
  Ti  Ti26  1  0.24945429  0.75181360  0.25196436  1
  Ti  Ti27  1  0.24870235  0.74966832  0.74821262  1
  Ti  Ti28  1  0.74967149  0.25087619  0.25183948  1
  Ti  Ti29  1  0.74912695  0.25008366  0.74736063  1
  Ti  Ti30  1  0.74889776  0.74956607  0.25368438  1
  Ti  Ti31  1  0.75138074  0.75116514  0.74729503  1
  Al  Al32  1  0.09256454  0.08788884  0.08662447  1
  Al  Al33  1  0.07027239  0.08761356  0.58840759  1
  Al  Al34  1  0.08115515  0.58311650  0.07757943  1
  Al  Al35  1  0.09205275  0.59020622  0.59121925  1
  Al  Al36  1  0.58082563  0.07671001  0.08669986  1
  Al  Al37  1  0.58566827  0.08846345  0.57827054  1
  Al  Al38  1  0.58029621  0.58018991  0.09494306  1
  Al  Al39  1  0.58406530  0.58085496  0.57177239  1
  Al  Al40  1  0.41484065  0.42893780  0.08047808  1
  Al  Al41  1  0.41667197  0.41781537  0.59049057  1
  Al  Al42  1  0.40742931  0.91073335  0.08091377  1
  Al  Al43  1  0.41168946  0.91389345  0.57432504  1
  Al  Al44  1  0.92007549  0.41264259  0.09422245  1
  Al  Al45  1  0.91506186  0.40878734  0.57446766  1
  Al  Al46  1  0.90757154  0.91551489  0.07823066  1
  Al  Al47  1  0.91587025  0.90001365  0.58467777  1
  Al  Al48  1  0.42781948  0.08306100  0.41458121  1
  Al  Al49  1  0.41985328  0.08402635  0.91197958  1
  Al  Al50  1  0.40608498  0.58591281  0.41708618  1
  Al  Al51  1  0.41263055  0.58075169  0.92771874  1
  Al  Al52  1  0.90821823  0.08852132  0.42286887  1
  Al  Al53  1  0.92865848  0.08676602  0.90624017  1
  Al  Al54  1  0.90734120  0.58454868  0.42890437  1
  Al  Al55  1  0.91980879  0.59005995  0.91871163  1
  Al  Al56  1  0.07588366  0.41971711  0.41689407  1
  Al  Al57  1  0.07978461  0.41781607  0.91498401  1
  Al  Al58  1  0.08985879  0.91575334  0.42569717  1
  Al  Al59  1  0.08176705  0.91114300  0.92473482  1
  Al  Al60  1  0.58750785  0.40891318  0.42040750  1
  Al  Al61  1  0.58034827  0.41194615  0.91439887  1
  Al  Al62  1  0.58697184  0.91591048  0.40790671  1
  Al  Al63  1  0.57498704  0.92173200  0.91824822  1
  Al  Al64  1  0.07596926  0.07500796  0.42041075  1
  Al  Al65  1  0.08594524  0.09444254  0.92327148  1
  Al  Al66  1  0.09248131  0.58300354  0.43046044  1
  Al  Al67  1  0.08204696  0.58921552  0.91749421  1
  Al  Al68  1  0.59045630  0.08831784  0.40750963  1
  Al  Al69  1  0.57224725  0.08656458  0.90566897  1
  Al  Al70  1  0.58627621  0.58677083  0.41588935  1
  Al  Al71  1  0.57780439  0.57182504  0.92542464  1
  Al  Al72  1  0.41998404  0.42207858  0.41452477  1
  Al  Al73  1  0.42110019  0.41382459  0.91601578  1
  Al  Al74  1  0.42278976  0.90942462  0.41521467  1
  Al  Al75  1  0.41194180  0.91057811  0.92076957  1
  Al  Al76  1  0.91184986  0.40512743  0.41657460  1
  Al  Al77  1  0.92122098  0.41803532  0.91702536  1
  Al  Al78  1  0.90489120  0.91469812  0.42556505  1
  Al  Al79  1  0.91741258  0.91021092  0.91880712  1
  Al  Al80  1  0.07913999  0.41197104  0.08945608  1
  Al  Al81  1  0.08823378  0.42649049  0.58911082  1
  Al  Al82  1  0.09673542  0.92323572  0.08453123  1
  Al  Al83  1  0.07794814  0.90150056  0.58665949  1
  Al  Al84  1  0.58917084  0.42672245  0.08882616  1
  Al  Al85  1  0.57951139  0.40648748  0.58226637  1
  Al  Al86  1  0.58495368  0.92000189  0.08327539  1
  Al  Al87  1  0.58236248  0.91767172  0.57458996  1
  Al  Al88  1  0.41810933  0.07630449  0.08417782  1
  Al  Al89  1  0.42451570  0.07921056  0.57883172  1
  Al  Al90  1  0.41186386  0.58745886  0.08857665  1
  Al  Al91  1  0.40222350  0.58042795  0.58137818  1
  Al  Al92  1  0.92889695  0.07373775  0.08902977  1
  Al  Al93  1  0.91130765  0.10137687  0.58390303  1
  Al  Al94  1  0.91686317  0.58182702  0.07915217  1
  Al  Al95  1  0.92091995  0.60064984  0.58851776  1
  Al  Al96  1  0.24613105  0.12811895  0.13364669  1
  Al  Al97  1  0.25113220  0.13834487  0.64146351  1
  Al  Al98  1  0.24884217  0.63751737  0.13462681  1
  Al  Al99  1  0.24678571  0.63275639  0.63257538  1
  Al  Al100  1  0.74912621  0.13474123  0.13605058  1
  Al  Al101  1  0.75171907  0.13580743  0.62831520  1
  Al  Al102  1  0.74958618  0.62905483  0.14120601  1
  Al  Al103  1  0.75652430  0.63829330  0.62867081  1
  Al  Al104  1  0.24998737  0.36416921  0.13615493  1
  Al  Al105  1  0.25265590  0.36797330  0.63762732  1
  Al  Al106  1  0.25061977  0.86724935  0.13453165  1
  Al  Al107  1  0.24860018  0.86143503  0.62599384  1
  Al  Al108  1  0.74976543  0.37029363  0.13546621  1
  Al  Al109  1  0.75029014  0.36042654  0.62867388  1
  Al  Al110  1  0.74823983  0.86574555  0.13624220  1
  Al  Al111  1  0.75378130  0.86576525  0.62658401  1
  Al  Al112  1  0.24857224  0.13338782  0.36210029  1
  Al  Al113  1  0.24676067  0.13922347  0.86395394  1
  Al  Al114  1  0.25088657  0.63344472  0.36662881  1
  Al  Al115  1  0.24870257  0.63477278  0.86436461  1
  Al  Al116  1  0.75131528  0.13387728  0.37150505  1
  Al  Al117  1  0.75188865  0.13139283  0.86008627  1
  Al  Al118  1  0.75171397  0.62903270  0.36512983  1
  Al  Al119  1  0.75149340  0.63373451  0.86175357  1
  Al  Al120  1  0.25272366  0.36621591  0.36460000  1
  Al  Al121  1  0.25089632  0.36333741  0.86185578  1
  Al  Al122  1  0.25127875  0.86380703  0.37399673  1
  Al  Al123  1  0.24683400  0.86311103  0.86678479  1
  Al  Al124  1  0.74842692  0.36735626  0.36896322  1
  Al  Al125  1  0.74893996  0.36405303  0.86474670  1
  Al  Al126  1  0.74666786  0.86754535  0.36883068  1
  Al  Al127  1  0.75757544  0.87016000  0.86096228  1
  Al  Al128  1  0.13786204  0.24585319  0.13398676  1
  Al  Al129  1  0.13215864  0.25010514  0.63723608  1
  Al  Al130  1  0.13886553  0.75546691  0.12786541  1
  Al  Al131  1  0.13611144  0.74561472  0.62585880  1
  Al  Al132  1  0.63896030  0.25087888  0.13696170  1
  Al  Al133  1  0.63550058  0.24834733  0.62643643  1
  Al  Al134  1  0.63670101  0.74946944  0.14263957  1
  Al  Al135  1  0.63442341  0.75275902  0.63150167  1
  Al  Al136  1  0.13520106  0.25181722  0.36132900  1
  Al  Al137  1  0.13262554  0.24862739  0.86456673  1
  Al  Al138  1  0.13562908  0.75162559  0.37032294  1
  Al  Al139  1  0.13592109  0.74933907  0.86707037  1
  Al  Al140  1  0.63967390  0.24877571  0.36932874  1
  Al  Al141  1  0.63081608  0.25131082  0.86218578  1
  Al  Al142  1  0.62894206  0.75219953  0.36236115  1
  Al  Al143  1  0.63833694  0.75458346  0.86145105  1
  Al  Al144  1  0.36192431  0.24475528  0.13622084  1
  Al  Al145  1  0.36770469  0.25442749  0.63456867  1
  Al  Al146  1  0.36394967  0.75428112  0.13646646  1
  Al  Al147  1  0.36500409  0.75290028  0.63162090  1
  Al  Al148  1  0.86308594  0.25568949  0.13713210  1
  Al  Al149  1  0.86870624  0.24999467  0.63635695  1
  Al  Al150  1  0.86199387  0.75320033  0.13912108  1
  Al  Al151  1  0.86945776  0.75146411  0.63405914  1
  Al  Al152  1  0.36507403  0.24863225  0.36372642  1
  Al  Al153  1  0.37058012  0.25001579  0.86264327  1
  Al  Al154  1  0.36836031  0.74998805  0.36600789  1
  Al  Al155  1  0.36239590  0.75155412  0.86448875  1
  Al  Al156  1  0.86088952  0.25304278  0.36873729  1
  Al  Al157  1  0.86399275  0.24626425  0.86448149  1
  Al  Al158  1  0.86289976  0.74852217  0.37261092  1
  Al  Al159  1  0.86519062  0.75195022  0.86109677  1
  Al  Al160  1  0.13483965  0.12977639  0.24794460  1
  Al  Al161  1  0.12882108  0.13652398  0.75069456  1
  Al  Al162  1  0.13787604  0.63711193  0.25068047  1
  Al  Al163  1  0.13359985  0.63666045  0.74317044  1
  Al  Al164  1  0.63677398  0.13102942  0.25661608  1
  Al  Al165  1  0.63566196  0.13546077  0.74647111  1
  Al  Al166  1  0.63560341  0.62925859  0.25566167  1
  Al  Al167  1  0.63849315  0.63280649  0.74309161  1
  Al  Al168  1  0.36355574  0.13192824  0.24932493  1
  Al  Al169  1  0.36732953  0.13649826  0.75218700  1
  Al  Al170  1  0.36351704  0.63638015  0.25515665  1
  Al  Al171  1  0.36077669  0.63298157  0.74039217  1
  Al  Al172  1  0.86222557  0.13743707  0.25400417  1
  Al  Al173  1  0.86520917  0.13330685  0.74492513  1
  Al  Al174  1  0.86281194  0.63132872  0.25117014  1
  Al  Al175  1  0.86655167  0.63441290  0.74514495  1
  Al  Al176  1  0.13441926  0.36586543  0.24580757  1
  Al  Al177  1  0.13283266  0.36548383  0.74538786  1
  Al  Al178  1  0.13748366  0.86968822  0.24906638  1
  Al  Al179  1  0.13475958  0.85981622  0.74100104  1
  Al  Al180  1  0.63744912  0.36851427  0.25256988  1
  Al  Al181  1  0.62796752  0.35928318  0.74537409  1
  Al  Al182  1  0.63349014  0.87076772  0.25264153  1
  Al  Al183  1  0.63874352  0.86584791  0.74391978  1
  Al  Al184  1  0.36444100  0.36529237  0.25347935  1
  Al  Al185  1  0.37196429  0.36379192  0.74796042  1
  Al  Al186  1  0.36497152  0.86554850  0.25434639  1
  Al  Al187  1  0.36019628  0.86290699  0.74775279  1
  Al  Al188  1  0.86001542  0.37188563  0.25138764  1
  Al  Al189  1  0.86334761  0.36837233  0.74930875  1
  Al  Al190  1  0.86202752  0.86393766  0.25877196  1
  Al  Al191  1  0.86659579  0.86923494  0.74326343  1
  Al  Al192  1  0.50002238  0.18591431  0.68321548  1
  Al  Al193  1  -0.00342223  0.82951995  0.33064731  1
  Al  Al194  1  0.66847815  0.17699268  -0.00376654  1
  Al  Al195  1  0.17407509  0.32985021  0.50101550  1
  Al  Al196  1  0.50213452  0.31429030  0.32730470  1
  Al  Al197  1  0.17564868  0.16975275  0.50116052  1
  Al  Al198  1  0.32556509  0.00076139  0.67114428  1
  Al  Al199  1  0.32595180  -0.00473352  0.32772330  1
  Al  Al200  1  0.32957311  0.33003873  0.49948483  1
  Al  Al201  1  0.31655902  0.50126687  0.19021862  1
  Al  Al202  1  0.16861358  0.00093293  0.82915138  1
  Al  Al203  1  0.49963628  0.67036221  0.83046232  1
  Al  Al204  1  0.30745667  0.69006400  0.49989654  1
  Al  Al205  1  0.68690540  0.68219952  0.49681359  1
  Al  Al206  1  -0.00091165  0.31385292  0.81477459  1
  Al  Al207  1  0.17264641  0.50067751  0.81122379  1
  Al  Al208  1  -0.00042469  0.67416142  0.17447367  1
  Al  Al209  1  0.31810070  0.68665206  0.00118375  1
  Al  Al210  1  0.67248467  0.67044633  0.00499808  1
  Al  Al211  1  0.18000914  0.49966194  0.32444158  1
  Al  Al212  1  0.50036832  0.83153681  0.18102119  1
  Al  Al213  1  0.83019480  0.50011900  0.67164775  1
  Al  Al214  1  0.68846909  0.82868139  -0.00408965  1
  Al  Al215  1  0.00055057  0.67588888  0.81389241  1
  Al  Al216  1  0.32868442  0.17382101  0.49992028  1
  Al  Al217  1  0.83271443  0.17191863  0.00336646  1
  Al  Al218  1  0.49781470  0.32964011  0.17036759  1
  Al  Al219  1  -0.00021670  0.18673837  0.17709697  1
  Al  Al220  1  0.67301736  0.49660870  0.67440122  1
  Al  Al221  1  0.16799420  0.31623366  -0.00038631  1
  Al  Al222  1  0.67292706  0.00273531  0.82000941  1
  Al  Al223  1  0.32911456  0.49942177  0.81288490  1
  Al  Al224  1  0.32675987  -0.00102719  0.82586688  1
  Al  Al225  1  0.49970168  0.67620684  0.18579249  1
  Al  Al226  1  0.31903597  0.16719332  -0.00165919  1
  Al  Al227  1  0.00032593  0.66972473  0.33042144  1
  Al  Al228  1  0.49930600  0.67501256  0.66810469  1
  Al  Al229  1  -0.00175500  0.17257014  0.32905066  1
  Al  Al230  1  0.00148756  0.82745011  0.81622618  1
  Al  Al231  1  0.32600627  0.32651119  0.00042900  1
  Al  Al232  1  -0.00179372  0.32338509  0.31204686  1
  Al  Al233  1  0.82136710  -0.00006795  0.18505805  1
  Al  Al234  1  0.49941946  0.82778771  0.81806432  1
  Al  Al235  1  0.50233266  0.17488986  0.18778306  1
  Al  Al236  1  0.82676213  0.68871837  0.00085302  1
  Al  Al237  1  0.00208868  0.83160362  0.16996738  1
  Al  Al238  1  0.16750405  -0.00102963  0.67526314  1
  Au  Au239  1  0.66432764  0.00081042  0.82880692  1
  Au  Au240  1  0.32090388  -0.00305759  0.16634954  1
  Au  Au241  1  0.67048368  0.34028751  0.00366895  1
  Au  Au242  1  0.65323581  0.16995588  -0.00325492  1
  Au  Au243  1  0.67725826  0.65439323  0.00751194  1
  Au  Au244  1  0.67399114  0.00061631  0.17635644  1
  Au  Au245  1  0.00148895  0.32375742  0.65756084  1
  Au  Au246  1  0.49879391  0.66370013  0.66015176  1
  Au  Au247  1  0.49751141  0.34586246  0.17610292  1
  Au  Au248  1  0.49835092  0.17324182  0.67196322  1
  Au  Au249  1  0.16995368  0.50274947  0.16464483  1
  Au  Au250  1  0.83378375  0.50418965  0.83614677  1
  Au  Au251  1  0.83554910  0.33524269  0.00203710  1
  Au  Au252  1  -0.00002438  0.65419134  0.33442537  1
  Au  Au253  1  0.33380033  0.49870898  0.82949853  1
  Au  Au254  1  0.67374542  0.82890204  0.49558727  1
  Au  Au255  1  0.84595574  0.16242816  0.00395278  1
  Au  Au256  1  0.82873440  0.49816983  0.33861781  1
  Au  Au257  1  0.18320172  0.49914263  0.33700179  1
  Au  Au258  1  0.66181804  0.49669420  0.32721353  1
  Au  Au259  1  0.17799331  0.81714210  0.50012505  1
  Au  Au260  1  0.66504451  0.49510411  0.66496140  1
  Au  Au261  1  0.17298039  0.33276616  -0.00022811  1
  Au  Au262  1  0.49972856  0.32226658  0.82677992  1
  Au  Au263  1  0.33168691  0.00246774  0.33150933  1
  Au  Au264  1  0.83381362  0.49782053  0.65985513  1
  Au  Au265  1  0.00274383  0.82907153  0.15746578  1
  Au  Au266  1  0.17163900  0.00119554  0.84155266  1
  Au  Au267  1  0.66919430  -0.00015945  0.66381107  1
  Au  Au268  1  0.15855212  0.50404761  0.82067119  1
  Au  Au269  1  0.16076955  0.17698383  0.50025101  1
  Au  Au270  1  0.17020236  -0.00157357  0.66280049  1
  Au  Au271  1  0.49925745  0.67762659  0.84577869  1
  Au  Au272  1  0.17039570  0.67914712  -0.00036407  1
  Au  Au273  1  0.67462427  0.17507588  0.49698457  1
  Au  Au274  1  0.83714749  -0.00063107  0.83282899  1
  Au  Au275  1  0.50273144  0.82619919  0.16954198  1
  Au  Au276  1  0.67561927  0.83963125  -0.00594402  1
  Au  Au277  1  0.82470915  0.00180149  0.33540376  1
  Au  Au278  1  0.16440039  0.00011419  0.32451656  1
  Au  Au279  1  0.49682196  0.84087194  0.66896260  1
  Au  Au280  1  0.49978679  0.15841496  0.18354875  1
  Au  Au281  1  0.66423506  0.49796343  0.82965155  1
  Au  Au282  1  0.83869361  0.00024238  0.65915483  1
  Au  Au283  1  0.82766170  0.50184945  0.16639835  1
  Au  Au284  1  -0.00238269  0.31886022  0.83141030  1
  Au  Au285  1  0.33544688  0.17235869  -0.00243607  1
  Au  Au286  1  0.49700203  0.67228614  0.33567151  1
  Au  Au287  1  0.00128358  0.84040883  0.33498651  1
