# generated using pymatgen
data_Ca24Ti8Al207Au49
_symmetry_space_group_name_H-M   'P 1'
_cell_length_a   17.32042530
_cell_length_b   17.32034174
_cell_length_c   17.32067751
_cell_angle_alpha   89.99758987
_cell_angle_beta   89.99952377
_cell_angle_gamma   90.00185389
_symmetry_Int_Tables_number   1
_chemical_formula_structural   Ca24Ti8Al207Au49
_chemical_formula_sum   'Ca24 Ti8 Al207 Au49'
_cell_volume   5196.12851072
_cell_formula_units_Z   1
loop_
 _symmetry_equiv_pos_site_id
 _symmetry_equiv_pos_as_xyz
  1  'x, y, z'
loop_
 _atom_site_type_symbol
 _atom_site_label
 _atom_site_symmetry_multiplicity
 _atom_site_fract_x
 _atom_site_fract_y
 _atom_site_fract_z
 _atom_site_occupancy
  Ca  Ca0  1  0.24671832  -0.00136050  0.00115066  1
  Ca  Ca1  1  0.24935433  -0.00117942  0.49970427  1
  Ca  Ca2  1  0.25317312  0.50183433  -0.00931358  1
  Ca  Ca3  1  0.25315389  0.50173058  0.50468907  1
  Ca  Ca4  1  0.74895467  -0.00217662  -0.00531649  1
  Ca  Ca5  1  0.75023824  0.00037061  0.50466883  1
  Ca  Ca6  1  0.74774971  0.50174991  -0.00206621  1
  Ca  Ca7  1  0.74819047  0.50011298  0.50100587  1
  Ca  Ca8  1  0.00045490  0.24937627  -0.00014613  1
  Ca  Ca9  1  -0.00040856  0.25122602  0.50140047  1
  Ca  Ca10  1  -0.00153608  0.75355328  -0.00891628  1
  Ca  Ca11  1  -0.00145020  0.74800884  0.50664130  1
  Ca  Ca12  1  0.49910002  0.25268148  0.00013606  1
  Ca  Ca13  1  0.50334332  0.25108552  0.50099265  1
  Ca  Ca14  1  0.50197993  0.74832484  0.00039894  1
  Ca  Ca15  1  0.50161899  0.74773429  0.50066426  1
  Ca  Ca16  1  -0.00035665  0.00497551  0.25703865  1
  Ca  Ca17  1  -0.00655931  -0.00546970  0.74976581  1
  Ca  Ca18  1  -0.00785014  0.49914282  0.25031120  1
  Ca  Ca19  1  -0.00048319  0.50395380  0.74607051  1
  Ca  Ca20  1  0.49658031  -0.00259023  0.25311779  1
  Ca  Ca21  1  0.50387221  0.00142340  0.75146363  1
  Ca  Ca22  1  0.50680873  0.50180985  0.25363259  1
  Ca  Ca23  1  0.50035859  0.50148899  0.74631158  1
  Ti  Ti24  1  0.24874638  0.24912067  0.25093860  1
  Ti  Ti25  1  0.25049576  0.25206980  0.74906754  1
  Ti  Ti26  1  0.25079398  0.75134939  0.25354141  1
  Ti  Ti27  1  0.24929346  0.74835447  0.74745625  1
  Ti  Ti28  1  0.75001315  0.25137399  0.25169280  1
  Ti  Ti29  1  0.75011398  0.25032594  0.74810897  1
  Ti  Ti30  1  0.74905795  0.74791512  0.24966611  1
  Ti  Ti31  1  0.75006537  0.75001142  0.74964999  1
  Al  Al32  1  0.08228429  0.08399511  0.08101848  1
  Al  Al33  1  0.08259544  0.09049331  0.57493626  1
  Al  Al34  1  0.07289275  0.57731712  0.06643677  1
  Al  Al35  1  0.08204976  0.58691382  0.59603125  1
  Al  Al36  1  0.58035384  0.07431581  0.07160914  1
  Al  Al37  1  0.58946750  0.08636170  0.59840628  1
  Al  Al38  1  0.58328500  0.57887625  0.07892357  1
  Al  Al39  1  0.58278615  0.58283377  0.59107313  1
  Al  Al40  1  0.42131481  0.41884890  0.07695352  1
  Al  Al41  1  0.41783252  0.42489909  0.58092496  1
  Al  Al42  1  0.42438905  0.91908511  0.08816255  1
  Al  Al43  1  0.42471169  0.91233702  0.57070182  1
  Al  Al44  1  0.90938937  0.42051427  0.08884752  1
  Al  Al45  1  0.91411852  0.41960256  0.58113098  1
  Al  Al46  1  0.91997076  0.91585225  0.07431059  1
  Al  Al47  1  0.91294540  0.90926553  0.59145054  1
  Al  Al48  1  0.41166900  0.07399102  0.41402395  1
  Al  Al49  1  0.42615022  0.09278574  0.91289806  1
  Al  Al50  1  0.41948379  0.59288739  0.42697895  1
  Al  Al51  1  0.41744844  0.58358854  0.90488000  1
  Al  Al52  1  0.92473056  0.09490940  0.42260178  1
  Al  Al53  1  0.91401862  0.06776505  0.91289630  1
  Al  Al54  1  0.90138409  0.58560241  0.41994221  1
  Al  Al55  1  0.92106189  0.58836500  0.90983166  1
  Al  Al56  1  0.07235696  0.41341948  0.42895546  1
  Al  Al57  1  0.08492143  0.42182945  0.90920479  1
  Al  Al58  1  0.08229617  0.92202556  0.42070981  1
  Al  Al59  1  0.08039595  0.91217011  0.90337946  1
  Al  Al60  1  0.58996875  0.40546236  0.41803216  1
  Al  Al61  1  0.59050650  0.41888096  0.91735972  1
  Al  Al62  1  0.57332670  0.90741581  0.41756893  1
  Al  Al63  1  0.59530198  0.91817315  0.91612695  1
  Al  Al64  1  0.08644404  0.09618188  0.41509985  1
  Al  Al65  1  0.08811256  0.07160781  0.91408304  1
  Al  Al66  1  0.07498220  0.58213233  0.43463014  1
  Al  Al67  1  0.08272466  0.58540560  0.90263290  1
  Al  Al68  1  0.57832440  0.08101539  0.43000995  1
  Al  Al69  1  0.58693523  0.08566155  0.90413544  1
  Al  Al70  1  0.58332373  0.58182614  0.41856206  1
  Al  Al71  1  0.58210856  0.58442686  0.90756214  1
  Al  Al72  1  0.42908023  0.40798277  0.42014121  1
  Al  Al73  1  0.41303098  0.42450578  0.91280838  1
  Al  Al74  1  0.41093027  0.91051396  0.40888497  1
  Al  Al75  1  0.42611705  0.92148016  0.92070965  1
  Al  Al76  1  0.90817202  0.42117613  0.40976054  1
  Al  Al77  1  0.91977136  0.41983422  0.91836238  1
  Al  Al78  1  0.91645644  0.91388936  0.42778482  1
  Al  Al79  1  0.91632244  0.90947079  0.90265122  1
  Al  Al80  1  0.07634948  0.41601685  0.07391874  1
  Al  Al81  1  0.09123859  0.42326646  0.59056625  1
  Al  Al82  1  0.07757384  0.92089867  0.07878260  1
  Al  Al83  1  0.07457451  0.90850427  0.58560661  1
  Al  Al84  1  0.59191072  0.41237144  0.07883795  1
  Al  Al85  1  0.59185920  0.41935829  0.58151755  1
  Al  Al86  1  0.58607152  0.90765276  0.07908659  1
  Al  Al87  1  0.58681543  0.92242470  0.59073179  1
  Al  Al88  1  0.41368854  0.07568485  0.07566021  1
  Al  Al89  1  0.43038269  0.09398112  0.58467662  1
  Al  Al90  1  0.42264342  0.57751932  0.07597675  1
  Al  Al91  1  0.41711880  0.59153984  0.59003239  1
  Al  Al92  1  0.92288089  0.07998458  0.08032938  1
  Al  Al93  1  0.91525758  0.08147924  0.58419452  1
  Al  Al94  1  0.90705447  0.57756208  0.08557675  1
  Al  Al95  1  0.91678882  0.59133181  0.58346326  1
  Al  Al96  1  0.24828954  0.13620349  0.13815386  1
  Al  Al97  1  0.24414366  0.13422973  0.63511632  1
  Al  Al98  1  0.25022597  0.63886333  0.13667769  1
  Al  Al99  1  0.25100497  0.62942237  0.63436417  1
  Al  Al100  1  0.75119777  0.13820371  0.13441225  1
  Al  Al101  1  0.74756314  0.12588478  0.63760156  1
  Al  Al102  1  0.75298057  0.63373349  0.12999001  1
  Al  Al103  1  0.74940031  0.63252865  0.63109513  1
  Al  Al104  1  0.24709325  0.36255039  0.13701696  1
  Al  Al105  1  0.25073366  0.37195728  0.63735234  1
  Al  Al106  1  0.25134520  0.86336406  0.14161296  1
  Al  Al107  1  0.24723768  0.86391413  0.63682785  1
  Al  Al108  1  0.75204842  0.36707666  0.13855272  1
  Al  Al109  1  0.74850462  0.36875367  0.63014084  1
  Al  Al110  1  0.74901231  0.86234612  0.12848539  1
  Al  Al111  1  0.75030602  0.86951936  0.63807798  1
  Al  Al112  1  0.24681740  0.13475971  0.36502218  1
  Al  Al113  1  0.24575156  0.13580346  0.86266020  1
  Al  Al114  1  0.25342512  0.63844388  0.37663450  1
  Al  Al115  1  0.25078313  0.63540805  0.86052509  1
  Al  Al116  1  0.75010055  0.13621601  0.36661071  1
  Al  Al117  1  0.75069152  0.13439015  0.86454784  1
  Al  Al118  1  0.74907037  0.63153147  0.37073994  1
  Al  Al119  1  0.75117062  0.63686844  0.86761227  1
  Al  Al120  1  0.24517202  0.36262998  0.36610409  1
  Al  Al121  1  0.25113733  0.36719708  0.86142716  1
  Al  Al122  1  0.25052790  0.87198424  0.36580577  1
  Al  Al123  1  0.24491818  0.86841636  0.85873200  1
  Al  Al124  1  0.74953033  0.36716940  0.36782670  1
  Al  Al125  1  0.74630096  0.36479278  0.86495496  1
  Al  Al126  1  0.75069913  0.86676123  0.36682708  1
  Al  Al127  1  0.75173120  0.86518480  0.86762321  1
  Al  Al128  1  0.13188819  0.24747178  0.13087414  1
  Al  Al129  1  0.13784943  0.25337241  0.63032699  1
  Al  Al130  1  0.13612336  0.74999415  0.13586773  1
  Al  Al131  1  0.13484157  0.74628492  0.63081335  1
  Al  Al132  1  0.63614779  0.25747939  0.13231579  1
  Al  Al133  1  0.63967921  0.24781896  0.63044560  1
  Al  Al134  1  0.63739599  0.74930878  0.12900687  1
  Al  Al135  1  0.63505267  0.74583553  0.62993037  1
  Al  Al136  1  0.13076296  0.24728919  0.37252193  1
  Al  Al137  1  0.13750319  0.25538645  0.86820615  1
  Al  Al138  1  0.13533584  0.75176940  0.37564363  1
  Al  Al139  1  0.13434983  0.74989822  0.86061744  1
  Al  Al140  1  0.63699790  0.25330133  0.37240239  1
  Al  Al141  1  0.63399111  0.24772404  0.86216389  1
  Al  Al142  1  0.63986515  0.74989862  0.37354718  1
  Al  Al143  1  0.63838590  0.75053451  0.86754323  1
  Al  Al144  1  0.36544968  0.25156377  0.13620495  1
  Al  Al145  1  0.36357262  0.24772731  0.63691032  1
  Al  Al146  1  0.36666602  0.75151277  0.14000410  1
  Al  Al147  1  0.36943873  0.74134873  0.63425399  1
  Al  Al148  1  0.86926977  0.24989508  0.13616051  1
  Al  Al149  1  0.86228882  0.25474333  0.63754716  1
  Al  Al150  1  0.86200726  0.74996227  0.12954655  1
  Al  Al151  1  0.86393275  0.74651966  0.63905142  1
  Al  Al152  1  0.36446156  0.25267008  0.36601251  1
  Al  Al153  1  0.36562929  0.24835544  0.86167378  1
  Al  Al154  1  0.36677270  0.75158748  0.36676934  1
  Al  Al155  1  0.36334377  0.75082191  0.86174643  1
  Al  Al156  1  0.86492078  0.25101301  0.36771079  1
  Al  Al157  1  0.86080640  0.25236176  0.86400749  1
  Al  Al158  1  0.86168388  0.74710937  0.36773382  1
  Al  Al159  1  0.86456217  0.75226424  0.86673702  1
  Al  Al160  1  0.12819660  0.13713245  0.25308313  1
  Al  Al161  1  0.13569217  0.13724976  0.75188849  1
  Al  Al162  1  0.13857401  0.64039517  0.26008426  1
  Al  Al163  1  0.13252313  0.63430823  0.74422970  1
  Al  Al164  1  0.63599829  0.14015432  0.25061954  1
  Al  Al165  1  0.63336913  0.13572420  0.74819508  1
  Al  Al166  1  0.63982953  0.63384470  0.25019258  1
  Al  Al167  1  0.63684716  0.63536276  0.74612107  1
  Al  Al168  1  0.36505745  0.13500653  0.25546766  1
  Al  Al169  1  0.36645771  0.13458811  0.74941925  1
  Al  Al170  1  0.36339810  0.63682675  0.25383068  1
  Al  Al171  1  0.36332168  0.62762989  0.74798895  1
  Al  Al172  1  0.86918761  0.13765471  0.25334646  1
  Al  Al173  1  0.86179316  0.12913547  0.74758853  1
  Al  Al174  1  0.86187209  0.63205653  0.25363585  1
  Al  Al175  1  0.86220962  0.62948478  0.74687261  1
  Al  Al176  1  0.13268178  0.35939544  0.25166177  1
  Al  Al177  1  0.13453158  0.36509276  0.74543477  1
  Al  Al178  1  0.13370024  0.86423523  0.25577457  1
  Al  Al179  1  0.13107562  0.86623692  0.75263092  1
  Al  Al180  1  0.63017908  0.36470188  0.25469696  1
  Al  Al181  1  0.63464696  0.36674442  0.74528998  1
  Al  Al182  1  0.63825630  0.85941646  0.25156888  1
  Al  Al183  1  0.63507470  0.86439984  0.74793193  1
  Al  Al184  1  0.36892024  0.36234209  0.25083609  1
  Al  Al185  1  0.36597395  0.37321899  0.74979192  1
  Al  Al186  1  0.36776643  0.86565367  0.25745703  1
  Al  Al187  1  0.36711453  0.86225325  0.74656725  1
  Al  Al188  1  0.86406918  0.36690756  0.25346458  1
  Al  Al189  1  0.85944972  0.37291726  0.74730737  1
  Al  Al190  1  0.86118477  0.86265013  0.25210847  1
  Al  Al191  1  0.86273525  0.86945203  0.75178251  1
  Al  Al192  1  0.81876166  0.81200033  0.50386089  1
  Al  Al193  1  0.16976036  0.50016468  0.33155429  1
  Al  Al194  1  0.32740056  0.67108881  -0.00111534  1
  Al  Al195  1  0.68852485  -0.00013908  0.81024957  1
  Al  Al196  1  -0.00232941  0.69010875  0.80663014  1
  Al  Al197  1  -0.00222606  0.32620393  0.81834396  1
  Al  Al198  1  0.17248732  0.67277892  -0.00318132  1
  Al  Al199  1  0.32117654  0.82869396  -0.00121711  1
  Al  Al200  1  0.32720673  0.49971992  0.17425188  1
  Al  Al201  1  -0.00131903  0.80822875  0.69063800  1
  Al  Al202  1  0.33142550  -0.00041423  0.66764817  1
  Al  Al203  1  0.50145090  0.18588041  0.32939897  1
  Al  Al204  1  -0.00324059  0.67614593  0.33215026  1
  Al  Al205  1  0.50311435  0.68756833  0.32531871  1
  Al  Al206  1  0.50074643  0.17751240  0.16847633  1
  Al  Al207  1  0.50133105  0.81967943  0.67925272  1
  Al  Al208  1  -0.00192318  0.32212251  0.32122871  1
  Al  Al209  1  0.31939396  0.81345218  0.50107404  1
  Al  Al210  1  0.67889461  0.50002270  0.17972271  1
  Al  Al211  1  0.31461603  0.16730247  0.50005344  1
  Al  Al212  1  -0.00077079  0.18309734  0.67207585  1
  Al  Al213  1  0.33427319  0.49989543  0.33162705  1
  Al  Al214  1  0.67134615  0.00073100  0.32838726  1
  Al  Al215  1  0.67221044  -0.00069722  0.17175314  1
  Al  Al216  1  -0.00130467  0.82695358  0.17888999  1
  Al  Al217  1  -0.00028615  0.66913376  0.17303380  1
  Al  Al218  1  0.32139780  0.32835986  -0.00116533  1
  Al  Al219  1  0.67511695  0.18000924  -0.00058182  1
  Al  Al220  1  0.16970820  0.82693320  -0.00172721  1
  Al  Al221  1  0.50096237  0.67010559  0.17345339  1
  Al  Al222  1  0.50011380  0.68281466  0.80702407  1
  Al  Al223  1  0.68097738  0.50127238  0.81364136  1
  Al  Al224  1  0.32774117  -0.00016404  0.18448712  1
  Al  Al225  1  0.32275517  0.17488291  -0.00042525  1
  Al  Al226  1  0.31824115  0.00252963  0.82884077  1
  Al  Al227  1  -0.00120832  0.17357647  0.83210708  1
  Al  Al228  1  0.32117974  0.32558138  0.50170761  1
  Al  Al229  1  0.81527969  0.32160485  0.00056893  1
  Al  Al230  1  0.82863721  -0.00067612  0.17977577  1
  Al  Al231  1  0.16702836  0.00086793  0.67984376  1
  Al  Al232  1  0.81859797  0.18389236  0.50390584  1
  Al  Al233  1  0.18644540  0.50087613  0.80833697  1
  Al  Al234  1  0.50140558  0.31218908  0.66836236  1
  Al  Al235  1  0.16868799  0.50333990  0.16918849  1
  Al  Al236  1  0.17188986  -0.00147158  0.18235398  1
  Al  Al237  1  0.50040646  0.32568851  0.82579417  1
  Al  Al238  1  0.50263862  0.82268061  0.18810682  1
  Au  Au239  1  0.68173543  0.50149237  0.16738359  1
  Au  Au240  1  0.82431376  0.50451027  0.66292577  1
  Au  Au241  1  0.32831319  0.00430531  0.84229782  1
  Au  Au242  1  0.49849252  0.16106649  0.16512180  1
  Au  Au243  1  0.17478231  0.00504273  0.33729726  1
  Au  Au244  1  0.17547414  -0.00228484  0.17012018  1
  Au  Au245  1  0.17417404  0.16234537  -0.00341271  1
  Au  Au246  1  0.15436116  0.49877919  0.33678063  1
  Au  Au247  1  0.82527766  -0.00069609  0.67556987  1
  Au  Au248  1  0.82455794  0.33314728  0.49873538  1
  Au  Au249  1  -0.00046484  0.32239262  0.33387734  1
  Au  Au250  1  0.34673674  -0.00099220  0.66269485  1
  Au  Au251  1  0.82784423  0.83396415  -0.00456677  1
  Au  Au252  1  0.50017025  0.81851182  0.66661525  1
  Au  Au253  1  0.17178292  0.33168621  0.50374510  1
  Au  Au254  1  0.83720978  0.00689855  0.34580759  1
  Au  Au255  1  0.00092279  0.66496339  0.33627839  1
  Au  Au256  1  0.50047188  0.32356882  0.83839700  1
  Au  Au257  1  0.82887124  0.50049843  0.83071959  1
  Au  Au258  1  0.82688797  -0.00463892  0.16332983  1
  Au  Au259  1  0.67316241  0.66438959  0.50347486  1
  Au  Au260  1  0.15190915  0.00254878  0.67285096  1
  Au  Au261  1  0.82398505  0.33610823  0.00025445  1
  Au  Au262  1  0.17568444  0.50377896  0.15342385  1
  Au  Au263  1  0.66093993  0.67434646  -0.00227988  1
  Au  Au264  1  0.17178433  0.33428493  -0.00490570  1
  Au  Au265  1  0.82922608  0.66524616  -0.00278944  1
  Au  Au266  1  0.66318448  0.17289876  -0.00100724  1
  Au  Au267  1  0.00037457  0.33543483  0.66880303  1
  Au  Au268  1  -0.00058987  0.16554158  0.17544938  1
  Au  Au269  1  -0.00308767  0.84005955  0.32890007  1
  Au  Au270  1  0.49942309  0.17280651  0.33995272  1
  Au  Au271  1  0.67286787  0.83743654  0.50322045  1
  Au  Au272  1  0.32511414  0.50113281  0.67315955  1
  Au  Au273  1  0.33577019  0.82566929  0.00680430  1
  Au  Au274  1  0.35025954  0.49764579  0.33153904  1
  Au  Au275  1  0.17248895  0.83260801  0.50173537  1
  Au  Au276  1  -0.00134708  0.33388642  0.16891393  1
  Au  Au277  1  0.65529503  -0.00422581  0.32663536  1
  Au  Au278  1  0.33114819  0.17200604  0.50082521  1
  Au  Au279  1  -0.00097634  0.67559339  0.15670324  1
  Au  Au280  1  0.67538794  0.49686300  0.33526978  1
  Au  Au281  1  0.50127493  0.32723280  0.66162787  1
  Au  Au282  1  0.50645130  0.82725885  0.83890418  1
  Au  Au283  1  0.17731818  0.66317537  0.50717599  1
  Au  Au284  1  0.83329519  0.16038129  -0.00412043  1
  Au  Au285  1  0.50096025  0.34171348  0.17296255  1
  Au  Au286  1  -0.00124664  0.15864600  0.82405183  1
  Au  Au287  1  0.67074719  0.16998141  0.50444321  1
