# generated using pymatgen
data_Ca24Ti8Al207Au49
_symmetry_space_group_name_H-M   'P 1'
_cell_length_a   17.31908497
_cell_length_b   17.31819284
_cell_length_c   17.31927763
_cell_angle_alpha   89.99800509
_cell_angle_beta   89.99224335
_cell_angle_gamma   90.00305179
_symmetry_Int_Tables_number   1
_chemical_formula_structural   Ca24Ti8Al207Au49
_chemical_formula_sum   'Ca24 Ti8 Al207 Au49'
_cell_volume   5194.66186499
_cell_formula_units_Z   1
loop_
 _symmetry_equiv_pos_site_id
 _symmetry_equiv_pos_as_xyz
  1  'x, y, z'
loop_
 _atom_site_type_symbol
 _atom_site_label
 _atom_site_symmetry_multiplicity
 _atom_site_fract_x
 _atom_site_fract_y
 _atom_site_fract_z
 _atom_site_occupancy
  Ca  Ca0  1  0.25073567  0.00304151  -0.00333468  1
  Ca  Ca1  1  0.24851802  -0.00418768  0.49985854  1
  Ca  Ca2  1  0.25475594  0.49599451  -0.00153895  1
  Ca  Ca3  1  0.25241657  0.50086174  0.50354712  1
  Ca  Ca4  1  0.75390880  -0.00044735  -0.00932936  1
  Ca  Ca5  1  0.74914143  0.00142100  0.50534939  1
  Ca  Ca6  1  0.75158001  0.49851043  0.00341600  1
  Ca  Ca7  1  0.74695338  0.49884015  0.49731849  1
  Ca  Ca8  1  0.00652505  0.24606874  0.00044460  1
  Ca  Ca9  1  0.00317012  0.24922373  0.49964792  1
  Ca  Ca10  1  -0.00013538  0.75688723  -0.00150510  1
  Ca  Ca11  1  0.00551233  0.75524647  0.50412604  1
  Ca  Ca12  1  0.49010862  0.24843804  -0.00396906  1
  Ca  Ca13  1  0.49886214  0.25123530  0.50318757  1
  Ca  Ca14  1  0.49824901  0.75342502  -0.00089639  1
  Ca  Ca15  1  0.49697911  0.75007631  0.50673907  1
  Ca  Ca16  1  0.00429190  0.00693008  0.25266800  1
  Ca  Ca17  1  -0.00337730  0.00048017  0.74864460  1
  Ca  Ca18  1  -0.00125958  0.49818277  0.25155755  1
  Ca  Ca19  1  0.00178604  0.50070474  0.74533471  1
  Ca  Ca20  1  0.49546221  0.00193917  0.24887111  1
  Ca  Ca21  1  0.50196448  0.00252688  0.74922889  1
  Ca  Ca22  1  0.50348466  0.49858370  0.24935503  1
  Ca  Ca23  1  0.49788608  0.50090271  0.74352832  1
  Ti  Ti24  1  0.25099688  0.25011106  0.24827541  1
  Ti  Ti25  1  0.25050313  0.24791515  0.75007585  1
  Ti  Ti26  1  0.24888882  0.75089805  0.25021318  1
  Ti  Ti27  1  0.24966022  0.75175485  0.74934159  1
  Ti  Ti28  1  0.75221831  0.25121489  0.25368771  1
  Ti  Ti29  1  0.74908898  0.24829996  0.74637719  1
  Ti  Ti30  1  0.75045519  0.74933837  0.24852926  1
  Ti  Ti31  1  0.74950528  0.75206347  0.75118913  1
  Al  Al32  1  0.08550935  0.09039084  0.08709608  1
  Al  Al33  1  0.08877324  0.08780438  0.57465296  1
  Al  Al34  1  0.08114358  0.57530628  0.07812304  1
  Al  Al35  1  0.09385301  0.58707106  0.58433129  1
  Al  Al36  1  0.57180592  0.07704324  0.07021090  1
  Al  Al37  1  0.59569553  0.08008820  0.59208093  1
  Al  Al38  1  0.58314776  0.57360766  0.08219047  1
  Al  Al39  1  0.57480037  0.58869117  0.58346058  1
  Al  Al40  1  0.40844477  0.40608608  0.09063614  1
  Al  Al41  1  0.41259127  0.42169072  0.58761462  1
  Al  Al42  1  0.40714172  0.92513494  0.08311051  1
  Al  Al43  1  0.41480798  0.90716453  0.58704018  1
  Al  Al44  1  0.91992381  0.41936237  0.09531742  1
  Al  Al45  1  0.92362133  0.41457177  0.57996182  1
  Al  Al46  1  0.92225973  0.92204934  0.07687551  1
  Al  Al47  1  0.91383975  0.92453611  0.58941705  1
  Al  Al48  1  0.41252853  0.07499152  0.42221146  1
  Al  Al49  1  0.41615435  0.09349205  0.91467369  1
  Al  Al50  1  0.42132904  0.58326495  0.42615077  1
  Al  Al51  1  0.41980665  0.57665598  0.91737844  1
  Al  Al52  1  0.92234810  0.09557499  0.41995459  1
  Al  Al53  1  0.91547170  0.07487021  0.91372313  1
  Al  Al54  1  0.91821927  0.57610145  0.41678958  1
  Al  Al55  1  0.92048999  0.58258224  0.91896138  1
  Al  Al56  1  0.08676363  0.40495833  0.42439661  1
  Al  Al57  1  0.09195935  0.41481474  0.92061521  1
  Al  Al58  1  0.09015315  0.90393004  0.41693546  1
  Al  Al59  1  0.08110438  0.91765531  0.90383251  1
  Al  Al60  1  0.59301599  0.42016444  0.41111163  1
  Al  Al61  1  0.57102733  0.42327480  0.92087681  1
  Al  Al62  1  0.57115066  0.91926785  0.43115876  1
  Al  Al63  1  0.58716133  0.92392733  0.90706706  1
  Al  Al64  1  0.08517407  0.09631474  0.41362801  1
  Al  Al65  1  0.09184997  0.07730510  0.91513548  1
  Al  Al66  1  0.08671410  0.59114571  0.42974761  1
  Al  Al67  1  0.08313447  0.57998779  0.91545957  1
  Al  Al68  1  0.58607206  0.08941519  0.43514210  1
  Al  Al69  1  0.58135413  0.08639062  0.90304436  1
  Al  Al70  1  0.58595797  0.58016386  0.41437889  1
  Al  Al71  1  0.57800116  0.58544739  0.91784667  1
  Al  Al72  1  0.42240915  0.41729562  0.42222775  1
  Al  Al73  1  0.40692560  0.41068662  0.92609619  1
  Al  Al74  1  0.40367909  0.91229565  0.42369857  1
  Al  Al75  1  0.41877776  0.92123430  0.91811580  1
  Al  Al76  1  0.91425072  0.41364668  0.41453522  1
  Al  Al77  1  0.92762031  0.42341051  0.92140522  1
  Al  Al78  1  0.93037900  0.91245240  0.41415887  1
  Al  Al79  1  0.91776459  0.91498548  0.90209850  1
  Al  Al80  1  0.08458438  0.40837976  0.08096666  1
  Al  Al81  1  0.08935687  0.40837436  0.58470576  1
  Al  Al82  1  0.08469173  0.92307007  0.08140101  1
  Al  Al83  1  0.08926413  0.91000565  0.57898498  1
  Al  Al84  1  0.57144894  0.41241151  0.09699425  1
  Al  Al85  1  0.57560440  0.41901227  0.57632760  1
  Al  Al86  1  0.57601898  0.91910185  0.07458892  1
  Al  Al87  1  0.57937310  0.91678438  0.59787454  1
  Al  Al88  1  0.40134815  0.08663217  0.07860975  1
  Al  Al89  1  0.41885209  0.07830137  0.58059116  1
  Al  Al90  1  0.41137241  0.56707695  0.08728567  1
  Al  Al91  1  0.41234591  0.58794856  0.59322230  1
  Al  Al92  1  0.92576932  0.09165927  0.08659375  1
  Al  Al93  1  0.90164886  0.08504247  0.58253900  1
  Al  Al94  1  0.90773446  0.57506742  0.08761353  1
  Al  Al95  1  0.92459728  0.57801667  0.57736568  1
  Al  Al96  1  0.25440132  0.13812812  0.12666594  1
  Al  Al97  1  0.24651369  0.13391532  0.63367267  1
  Al  Al98  1  0.24830324  0.62839364  0.13678704  1
  Al  Al99  1  0.24851243  0.63256211  0.63565641  1
  Al  Al100  1  0.75120591  0.13691007  0.13751484  1
  Al  Al101  1  0.74586454  0.13123067  0.63447530  1
  Al  Al102  1  0.75053982  0.63300130  0.13160219  1
  Al  Al103  1  0.74780082  0.63815997  0.63707395  1
  Al  Al104  1  0.25464346  0.36923068  0.13515792  1
  Al  Al105  1  0.24772711  0.36801686  0.63627723  1
  Al  Al106  1  0.25072547  0.86794704  0.13801771  1
  Al  Al107  1  0.24981014  0.86472443  0.63242108  1
  Al  Al108  1  0.75637635  0.36631709  0.13964799  1
  Al  Al109  1  0.74958652  0.36133989  0.62652466  1
  Al  Al110  1  0.74905771  0.86722585  0.13162862  1
  Al  Al111  1  0.74531352  0.86708385  0.63479043  1
  Al  Al112  1  0.24879789  0.13623225  0.36368368  1
  Al  Al113  1  0.25257474  0.13250809  0.86731065  1
  Al  Al114  1  0.24480331  0.63739273  0.36939710  1
  Al  Al115  1  0.25052843  0.63692116  0.86099573  1
  Al  Al116  1  0.75336465  0.13471234  0.36946381  1
  Al  Al117  1  0.75086933  0.13528854  0.86097912  1
  Al  Al118  1  0.74952063  0.63041317  0.36273999  1
  Al  Al119  1  0.74924521  0.63942785  0.86956360  1
  Al  Al120  1  0.24497029  0.36379511  0.36401376  1
  Al  Al121  1  0.25325293  0.36410605  0.86377685  1
  Al  Al122  1  0.24882769  0.86421586  0.36764752  1
  Al  Al123  1  0.24846842  0.87434883  0.85764491  1
  Al  Al124  1  0.75127667  0.36916085  0.36919328  1
  Al  Al125  1  0.74637539  0.36095471  0.86141681  1
  Al  Al126  1  0.75142903  0.86685838  0.36124775  1
  Al  Al127  1  0.75251828  0.86549187  0.86641543  1
  Al  Al128  1  0.13904958  0.24704452  0.13294489  1
  Al  Al129  1  0.13759490  0.24853036  0.63132266  1
  Al  Al130  1  0.13713754  0.75464974  0.13110320  1
  Al  Al131  1  0.13608675  0.75094509  0.63241620  1
  Al  Al132  1  0.63388156  0.25420393  0.14083537  1
  Al  Al133  1  0.63610394  0.24514104  0.62665631  1
  Al  Al134  1  0.63777812  0.74875210  0.12930584  1
  Al  Al135  1  0.62963433  0.75297169  0.63723591  1
  Al  Al136  1  0.13568303  0.24586129  0.36690662  1
  Al  Al137  1  0.13417100  0.24641173  0.86593661  1
  Al  Al138  1  0.13568010  0.75383687  0.36869783  1
  Al  Al139  1  0.13126717  0.75482184  0.86450866  1
  Al  Al140  1  0.63756610  0.25210449  0.37147316  1
  Al  Al141  1  0.63193246  0.24472428  0.86186299  1
  Al  Al142  1  0.63518848  0.75435257  0.36347634  1
  Al  Al143  1  0.63441667  0.75279055  0.86827184  1
  Al  Al144  1  0.36443679  0.25424093  0.13026414  1
  Al  Al145  1  0.36311271  0.24528816  0.63616591  1
  Al  Al146  1  0.36309233  0.75334852  0.13560411  1
  Al  Al147  1  0.36442968  0.75454775  0.63212292  1
  Al  Al148  1  0.86596466  0.24775198  0.13978870  1
  Al  Al149  1  0.86120750  0.24372558  0.62763519  1
  Al  Al150  1  0.86292419  0.75175932  0.12877266  1
  Al  Al151  1  0.86367028  0.75590428  0.63703911  1
  Al  Al152  1  0.36489554  0.25437757  0.36194368  1
  Al  Al153  1  0.36215702  0.24828462  0.86881703  1
  Al  Al154  1  0.36282567  0.75311599  0.36764177  1
  Al  Al155  1  0.36352604  0.75170498  0.86311063  1
  Al  Al156  1  0.86243863  0.25002405  0.37220265  1
  Al  Al157  1  0.86666883  0.24977854  0.86115344  1
  Al  Al158  1  0.86338944  0.75088784  0.36211187  1
  Al  Al159  1  0.86929436  0.75191955  0.86743565  1
  Al  Al160  1  0.13464443  0.13824894  0.24856264  1
  Al  Al161  1  0.13561097  0.13203210  0.75214426  1
  Al  Al162  1  0.13453932  0.63583041  0.24724822  1
  Al  Al163  1  0.13312593  0.63698656  0.74837906  1
  Al  Al164  1  0.63715912  0.13797061  0.25155165  1
  Al  Al165  1  0.62891579  0.13599143  0.74670875  1
  Al  Al166  1  0.63558687  0.63350779  0.25107161  1
  Al  Al167  1  0.62934428  0.63994775  0.74528129  1
  Al  Al168  1  0.36472618  0.13609026  0.24434055  1
  Al  Al169  1  0.37206885  0.13653594  0.75537957  1
  Al  Al170  1  0.36028433  0.63662606  0.25047445  1
  Al  Al171  1  0.36818594  0.63709975  0.74153993  1
  Al  Al172  1  0.86891693  0.13702471  0.25402765  1
  Al  Al173  1  0.86614658  0.13377315  0.74775409  1
  Al  Al174  1  0.86284310  0.62791329  0.24771043  1
  Al  Al175  1  0.86636822  0.63740974  0.75153923  1
  Al  Al176  1  0.13753215  0.36396742  0.24450708  1
  Al  Al177  1  0.13643350  0.36144789  0.74847020  1
  Al  Al178  1  0.12933526  0.86355703  0.25285816  1
  Al  Al179  1  0.13054570  0.86592480  0.74805971  1
  Al  Al180  1  0.63508062  0.36460819  0.25450101  1
  Al  Al181  1  0.63382846  0.35927837  0.74551116  1
  Al  Al182  1  0.62811386  0.86230121  0.24269874  1
  Al  Al183  1  0.62994477  0.86569479  0.74813786  1
  Al  Al184  1  0.36973544  0.36602371  0.24671869  1
  Al  Al185  1  0.36316067  0.36379155  0.74689249  1
  Al  Al186  1  0.36673719  0.86432679  0.25129196  1
  Al  Al187  1  0.36977392  0.86415359  0.74863731  1
  Al  Al188  1  0.86562671  0.36962544  0.25590901  1
  Al  Al189  1  0.86206693  0.36192723  0.74612593  1
  Al  Al190  1  0.86839765  0.86575880  0.24717720  1
  Al  Al191  1  0.86807885  0.86650822  0.75391756  1
  Al  Al192  1  0.66608201  0.32802588  0.00225451  1
  Al  Al193  1  0.67026551  0.50004244  0.82019913  1
  Al  Al194  1  0.82691317  0.49971163  0.66909794  1
  Al  Al195  1  0.32355073  0.00046290  0.31576398  1
  Al  Al196  1  0.49934639  0.31730195  0.67265141  1
  Al  Al197  1  0.16756392  0.50036932  0.32591019  1
  Al  Al198  1  0.49802520  0.67544543  0.16997984  1
  Al  Al199  1  0.17284277  -0.00054476  0.67880137  1
  Al  Al200  1  0.31494507  0.17269362  0.49953635  1
  Al  Al201  1  0.31406973  0.68494154  0.50099681  1
  Al  Al202  1  0.00178353  0.31277142  0.17392101  1
  Al  Al203  1  0.68954459  0.00115978  0.80636888  1
  Al  Al204  1  0.67274550  0.17095781  -0.00123122  1
  Al  Al205  1  0.32850972  0.50051857  0.81866390  1
  Al  Al206  1  0.49668078  0.68153342  0.82181007  1
  Al  Al207  1  -0.00192598  0.67962329  0.16953328  1
  Al  Al208  1  0.68498100  0.49797813  0.18745058  1
  Al  Al209  1  0.31155284  0.32957461  0.50084991  1
  Al  Al210  1  0.80883713  -0.00072868  0.69118528  1
  Al  Al211  1  0.00308256  0.68044931  0.67383657  1
  Al  Al212  1  0.00157421  0.68392829  0.33112716  1
  Al  Al213  1  0.49935221  0.67832473  0.32737538  1
  Al  Al214  1  0.67862663  0.00198058  0.16807033  1
  Al  Al215  1  0.82943349  0.33141413  0.00155303  1
  Al  Al216  1  0.31860030  0.82648193  -0.00198392  1
  Al  Al217  1  0.17635324  0.49978321  0.81692323  1
  Al  Al218  1  0.32871991  0.00010815  0.68300925  1
  Al  Al219  1  0.49629525  0.31569020  0.82935325  1
  Al  Al220  1  0.82724149  0.17323953  -0.00123488  1
  Al  Al221  1  0.49822038  0.17963145  0.16880065  1
  Al  Al222  1  0.19138269  0.31703527  -0.00009903  1
  Al  Al223  1  0.00302999  0.17279511  0.82376256  1
  Al  Al224  1  0.49981255  0.17619760  0.33211253  1
  Al  Al225  1  0.19157851  0.00396115  0.17655473  1
  Al  Al226  1  0.17066102  0.00022152  0.33116683  1
  Al  Al227  1  0.82595435  0.82695320  0.50024050  1
  Al  Al228  1  0.00064621  0.30745258  0.32663270  1
  Al  Al229  1  0.33125458  0.67044485  0.00174493  1
  Al  Al230  1  0.66499325  0.00012890  0.32658242  1
  Al  Al231  1  0.82841886  0.49915372  0.82454522  1
  Al  Al232  1  0.67202249  0.67857299  0.49913147  1
  Al  Al233  1  0.67164897  0.49942677  0.66917441  1
  Al  Al234  1  0.82601633  0.67092323  0.50037556  1
  Al  Al235  1  0.83787680  0.00227442  0.32630625  1
  Al  Al236  1  0.32794970  0.50016624  0.31909809  1
  Al  Al237  1  -0.00069929  0.31667445  0.67860550  1
  Al  Al238  1  0.17540972  0.67805795  -0.00034994  1
  Au  Au239  1  0.32531427  0.67223560  0.50319134  1
  Au  Au240  1  0.49366262  0.84159676  0.16891060  1
  Au  Au241  1  0.17706320  0.17004036  -0.00252144  1
  Au  Au242  1  -0.00248748  0.66246954  0.16808287  1
  Au  Au243  1  0.83606773  0.83493715  -0.00433510  1
  Au  Au244  1  0.00058449  0.67647194  0.83784124  1
  Au  Au245  1  0.17376361  0.49535230  0.16194503  1
  Au  Au246  1  0.16900358  0.50290557  0.34343502  1
  Au  Au247  1  0.00062597  0.16407937  0.83246455  1
  Au  Au248  1  0.32945007  0.00396680  0.83353557  1
  Au  Au249  1  0.00056493  0.67176710  0.66534574  1
  Au  Au250  1  0.34412974  0.50225602  0.32430264  1
  Au  Au251  1  0.83341167  0.32371983  0.50217599  1
  Au  Au252  1  0.00090813  0.67963002  0.34725687  1
  Au  Au253  1  0.49984398  0.83560682  0.82230595  1
  Au  Au254  1  0.67544151  0.49550611  0.17323330  1
  Au  Au255  1  0.82562370  0.50113316  0.32780534  1
  Au  Au256  1  0.83713301  0.83062092  0.49578084  1
  Au  Au257  1  0.66693873  0.00262898  0.16343155  1
  Au  Au258  1  0.00290181  0.33956120  0.82576726  1
  Au  Au259  1  0.50003617  0.16644283  0.66532919  1
  Au  Au260  1  0.66430243  0.00059987  0.34410076  1
  Au  Au261  1  0.00032227  0.84083721  0.17505043  1
  Au  Au262  1  0.49499092  0.66892874  0.82063639  1
  Au  Au263  1  0.49849169  0.17181210  0.34778418  1
  Au  Au264  1  0.66197460  0.82889519  0.50850006  1
  Au  Au265  1  -0.00086183  0.83658675  0.67478841  1
  Au  Au266  1  0.82876440  0.66225453  -0.00018690  1
  Au  Au267  1  0.84569858  0.32699814  0.00335984  1
  Au  Au268  1  0.67700793  0.49929151  0.83596708  1
  Au  Au269  1  0.83782280  0.00404356  0.33873235  1
  Au  Au270  1  0.17814169  0.66546177  -0.00008723  1
  Au  Au271  1  0.49360532  0.65931172  0.17325266  1
  Au  Au272  1  0.66481677  0.32583914  0.50046884  1
  Au  Au273  1  0.49540894  0.82711839  0.34323362  1
  Au  Au274  1  0.65035545  0.32143776  0.00438771  1
  Au  Au275  1  0.00340536  0.32409083  0.32570504  1
  Au  Au276  1  0.50368818  0.33949975  0.32473732  1
  Au  Au277  1  0.49354632  0.33204467  0.82572158  1
  Au  Au278  1  0.17508474  0.00393529  0.17609276  1
  Au  Au279  1  0.17082275  0.84168637  -0.00824075  1
  Au  Au280  1  0.66350052  0.66899472  0.00140975  1
  Au  Au281  1  0.32805037  0.32500831  0.50166786  1
  Au  Au282  1  0.83472741  0.00468097  0.16210337  1
  Au  Au283  1  -0.00168086  0.16992314  0.65720974  1
  Au  Au284  1  0.66672576  0.83523556  -0.00396643  1
  Au  Au285  1  0.16962114  0.00060105  0.66652304  1
  Au  Au286  1  0.49593533  0.17461201  0.15330907  1
  Au  Au287  1  0.17683188  0.49824939  0.66696313  1
