# generated using pymatgen
data_Ca24Ti8Al207Au49
_symmetry_space_group_name_H-M   'P 1'
_cell_length_a   17.32151010
_cell_length_b   17.32048858
_cell_length_c   17.32340806
_cell_angle_alpha   89.99653896
_cell_angle_beta   90.00133785
_cell_angle_gamma   89.99997313
_symmetry_Int_Tables_number   1
_chemical_formula_structural   Ca24Ti8Al207Au49
_chemical_formula_sum   'Ca24 Ti8 Al207 Au49'
_cell_volume   5197.31721421
_cell_formula_units_Z   1
loop_
 _symmetry_equiv_pos_site_id
 _symmetry_equiv_pos_as_xyz
  1  'x, y, z'
loop_
 _atom_site_type_symbol
 _atom_site_label
 _atom_site_symmetry_multiplicity
 _atom_site_fract_x
 _atom_site_fract_y
 _atom_site_fract_z
 _atom_site_occupancy
  Ca  Ca0  1  0.24092812  -0.00033388  -0.00152100  1
  Ca  Ca1  1  0.25034422  0.00659781  0.50133407  1
  Ca  Ca2  1  0.24640602  0.49891669  0.00158491  1
  Ca  Ca3  1  0.25361369  0.49784563  0.50052315  1
  Ca  Ca4  1  0.75494344  -0.00061732  0.00198674  1
  Ca  Ca5  1  0.74555855  0.00013826  0.49917075  1
  Ca  Ca6  1  0.74650454  0.49895972  0.00003262  1
  Ca  Ca7  1  0.74358467  0.50350056  0.50092526  1
  Ca  Ca8  1  0.00469778  0.24301442  -0.00153119  1
  Ca  Ca9  1  0.00271103  0.24682972  0.49856684  1
  Ca  Ca10  1  0.00334599  0.75585224  0.00039713  1
  Ca  Ca11  1  -0.00149105  0.75233231  0.49960733  1
  Ca  Ca12  1  0.50104955  0.24837672  0.00288784  1
  Ca  Ca13  1  0.49707050  0.24771108  0.49949241  1
  Ca  Ca14  1  0.49882585  0.74996476  0.00369540  1
  Ca  Ca15  1  0.50204893  0.75318680  0.49411479  1
  Ca  Ca16  1  0.00132166  -0.00388607  0.24225889  1
  Ca  Ca17  1  0.00202958  -0.00174968  0.75547412  1
  Ca  Ca18  1  0.00050034  0.49895091  0.24668971  1
  Ca  Ca19  1  -0.00184820  0.50018005  0.75273940  1
  Ca  Ca20  1  0.50119605  0.00024272  0.25305725  1
  Ca  Ca21  1  0.49558968  0.00814117  0.74811240  1
  Ca  Ca22  1  0.50033297  0.49873196  0.24809539  1
  Ca  Ca23  1  0.50092113  0.49755497  0.74816055  1
  Ti  Ti24  1  0.25210653  0.24886205  0.25056189  1
  Ti  Ti25  1  0.24912736  0.24926401  0.74806923  1
  Ti  Ti26  1  0.25184575  0.75239692  0.24833830  1
  Ti  Ti27  1  0.24762606  0.75155377  0.75161564  1
  Ti  Ti28  1  0.74686746  0.24746982  0.24932038  1
  Ti  Ti29  1  0.74992232  0.24983575  0.74883529  1
  Ti  Ti30  1  0.74826127  0.75335294  0.24842184  1
  Ti  Ti31  1  0.75256080  0.75056935  0.75094416  1
  Al  Al32  1  0.08965048  0.07821721  0.08183391  1
  Al  Al33  1  0.08999505  0.09650592  0.58574296  1
  Al  Al34  1  0.08742326  0.59933556  0.07755782  1
  Al  Al35  1  0.07671127  0.58233265  0.58528828  1
  Al  Al36  1  0.58413665  0.08009186  0.08779901  1
  Al  Al37  1  0.57164033  0.08897116  0.58651377  1
  Al  Al38  1  0.58681929  0.58010594  0.09015910  1
  Al  Al39  1  0.58863890  0.58464636  0.57176829  1
  Al  Al40  1  0.41213512  0.40934026  0.08111598  1
  Al  Al41  1  0.42115668  0.40692312  0.57792647  1
  Al  Al42  1  0.41746184  0.91162612  0.08335986  1
  Al  Al43  1  0.41782826  0.92257155  0.57745126  1
  Al  Al44  1  0.92207481  0.42136833  0.07824478  1
  Al  Al45  1  0.92221790  0.41895298  0.58271407  1
  Al  Al46  1  0.91527500  0.90823696  0.08540094  1
  Al  Al47  1  0.92577213  0.91229073  0.58595276  1
  Al  Al48  1  0.41867681  0.09261349  0.42170964  1
  Al  Al49  1  0.42144530  0.09612055  0.91513438  1
  Al  Al50  1  0.42836431  0.59289218  0.40728458  1
  Al  Al51  1  0.41599572  0.58671190  0.92768660  1
  Al  Al52  1  0.91944463  0.07593002  0.41710683  1
  Al  Al53  1  0.92853975  0.07856299  0.92123570  1
  Al  Al54  1  0.91147621  0.58366006  0.42305609  1
  Al  Al55  1  0.92475758  0.58359821  0.91828430  1
  Al  Al56  1  0.09020600  0.40465300  0.42752751  1
  Al  Al57  1  0.09339513  0.41183547  0.91803805  1
  Al  Al58  1  0.08137712  0.92347513  0.41593194  1
  Al  Al59  1  0.08315215  0.90701167  0.91680314  1
  Al  Al60  1  0.58479846  0.40846251  0.42201030  1
  Al  Al61  1  0.57526588  0.41878046  0.92164474  1
  Al  Al62  1  0.58653626  0.91579115  0.40552590  1
  Al  Al63  1  0.58093664  0.92425126  0.91961063  1
  Al  Al64  1  0.09552800  0.08810594  0.42384174  1
  Al  Al65  1  0.08718002  0.08930964  0.91956852  1
  Al  Al66  1  0.07474058  0.57574155  0.42310024  1
  Al  Al67  1  0.09230021  0.59342815  0.91894131  1
  Al  Al68  1  0.58055455  0.08045662  0.40778289  1
  Al  Al69  1  0.58166781  0.08782413  0.90895907  1
  Al  Al70  1  0.58709578  0.60014511  0.41318009  1
  Al  Al71  1  0.57960937  0.57683373  0.92577385  1
  Al  Al72  1  0.41729125  0.41095282  0.41883156  1
  Al  Al73  1  0.41157027  0.40351922  0.92542566  1
  Al  Al74  1  0.42505877  0.91096635  0.41652083  1
  Al  Al75  1  0.41651733  0.91512806  0.92278936  1
  Al  Al76  1  0.92005160  0.42549138  0.42295173  1
  Al  Al77  1  0.92161594  0.42063837  0.91993425  1
  Al  Al78  1  0.91795888  0.91824214  0.41387680  1
  Al  Al79  1  0.91990630  0.90797752  0.92103488  1
  Al  Al80  1  0.09491587  0.40631525  0.07376474  1
  Al  Al81  1  0.09100434  0.40530238  0.58249660  1
  Al  Al82  1  0.08436807  0.91012387  0.08590926  1
  Al  Al83  1  0.08122163  0.91510917  0.59211762  1
  Al  Al84  1  0.58583530  0.42205520  0.08747051  1
  Al  Al85  1  0.58487414  0.40755269  0.58165941  1
  Al  Al86  1  0.58289776  0.91847596  0.09003226  1
  Al  Al87  1  0.57887000  0.91949640  0.57545376  1
  Al  Al88  1  0.41626353  0.08665357  0.07974101  1
  Al  Al89  1  0.40972970  0.09447553  0.58484195  1
  Al  Al90  1  0.41657892  0.58810392  0.08419107  1
  Al  Al91  1  0.42491600  0.57692053  0.56968971  1
  Al  Al92  1  0.91804207  0.06996748  0.08487348  1
  Al  Al93  1  0.93130160  0.08422251  0.58960192  1
  Al  Al94  1  0.92508375  0.58462266  0.08382783  1
  Al  Al95  1  0.91411166  0.58688849  0.58202321  1
  Al  Al96  1  0.24783719  0.13661787  0.13245276  1
  Al  Al97  1  0.24881203  0.13676339  0.63096627  1
  Al  Al98  1  0.24963704  0.63637774  0.13670862  1
  Al  Al99  1  0.24590714  0.63515578  0.63735337  1
  Al  Al100  1  0.74889452  0.12914949  0.13898192  1
  Al  Al101  1  0.74559055  0.13373173  0.63259511  1
  Al  Al102  1  0.74636965  0.63725891  0.13664485  1
  Al  Al103  1  0.75059828  0.63681177  0.63820321  1
  Al  Al104  1  0.25294726  0.36353953  0.13344707  1
  Al  Al105  1  0.24713635  0.36039482  0.62584076  1
  Al  Al106  1  0.24702563  0.86342958  0.12801127  1
  Al  Al107  1  0.24398774  0.86359565  0.63735524  1
  Al  Al108  1  0.74438977  0.36443832  0.13845947  1
  Al  Al109  1  0.74769466  0.36254015  0.63263346  1
  Al  Al110  1  0.75113223  0.87221116  0.13709584  1
  Al  Al111  1  0.74820439  0.86497966  0.63545752  1
  Al  Al112  1  0.25176293  0.13661137  0.36864342  1
  Al  Al113  1  0.24502883  0.13697264  0.86689867  1
  Al  Al114  1  0.25355560  0.63608527  0.36360209  1
  Al  Al115  1  0.24315531  0.64032438  0.86662401  1
  Al  Al116  1  0.74426597  0.13183111  0.36448282  1
  Al  Al117  1  0.75020419  0.13503285  0.86123919  1
  Al  Al118  1  0.74476508  0.63886186  0.36252967  1
  Al  Al119  1  0.75453062  0.64020976  0.86416724  1
  Al  Al120  1  0.25073830  0.35926676  0.37108866  1
  Al  Al121  1  0.24986278  0.36182887  0.86727790  1
  Al  Al122  1  0.24819308  0.86760369  0.36008384  1
  Al  Al123  1  0.24570091  0.86200829  0.87297610  1
  Al  Al124  1  0.74288693  0.36135721  0.36415313  1
  Al  Al125  1  0.74923309  0.36198821  0.86334489  1
  Al  Al126  1  0.74508855  0.86733667  0.36159824  1
  Al  Al127  1  0.75516838  0.86290876  0.86531020  1
  Al  Al128  1  0.13778253  0.24791177  0.13151475  1
  Al  Al129  1  0.13436865  0.24713519  0.62956838  1
  Al  Al130  1  0.13587776  0.75423651  0.13115167  1
  Al  Al131  1  0.12668417  0.75224027  0.63511044  1
  Al  Al132  1  0.62921640  0.24554466  0.13903362  1
  Al  Al133  1  0.63428450  0.25004433  0.63188278  1
  Al  Al134  1  0.62904608  0.75483708  0.13763795  1
  Al  Al135  1  0.63743905  0.74827919  0.63278298  1
  Al  Al136  1  0.13446143  0.24767100  0.36551314  1
  Al  Al137  1  0.13663419  0.25095660  0.86710971  1
  Al  Al138  1  0.13483040  0.75507812  0.36492394  1
  Al  Al139  1  0.12876054  0.75372893  0.86608311  1
  Al  Al140  1  0.62853948  0.24776439  0.36141696  1
  Al  Al141  1  0.63411261  0.24490857  0.86414567  1
  Al  Al142  1  0.63031934  0.75159990  0.36207739  1
  Al  Al143  1  0.63137922  0.75225059  0.86412486  1
  Al  Al144  1  0.36991715  0.25046297  0.13615104  1
  Al  Al145  1  0.36202503  0.24574474  0.62575446  1
  Al  Al146  1  0.37138695  0.75375843  0.13642889  1
  Al  Al147  1  0.36184694  0.74857123  0.63463982  1
  Al  Al148  1  0.86397220  0.24905773  0.13786813  1
  Al  Al149  1  0.86369939  0.24572033  0.63069361  1
  Al  Al150  1  0.86342499  0.75881250  0.13199423  1
  Al  Al151  1  0.86829044  0.75143323  0.63612953  1
  Al  Al152  1  0.36748364  0.24996766  0.36969933  1
  Al  Al153  1  0.36331649  0.24875372  0.86475671  1
  Al  Al154  1  0.36792677  0.75009651  0.36177484  1
  Al  Al155  1  0.36895904  0.75187394  0.86601671  1
  Al  Al156  1  0.86275151  0.24549521  0.36680480  1
  Al  Al157  1  0.86535467  0.24960992  0.86380211  1
  Al  Al158  1  0.86310347  0.75416656  0.36219549  1
  Al  Al159  1  0.87431797  0.75474116  0.86648627  1
  Al  Al160  1  0.13866487  0.13173029  0.24948717  1
  Al  Al161  1  0.13517718  0.13690754  0.74646753  1
  Al  Al162  1  0.13612487  0.63908686  0.24710736  1
  Al  Al163  1  0.12790074  0.63937007  0.74978783  1
  Al  Al164  1  0.63157869  0.12920104  0.25033772  1
  Al  Al165  1  0.63075927  0.13774412  0.74711418  1
  Al  Al166  1  0.62969328  0.63717370  0.24943296  1
  Al  Al167  1  0.63557597  0.63622713  0.75404901  1
  Al  Al168  1  0.37126585  0.13755186  0.25365201  1
  Al  Al169  1  0.36444678  0.13844116  0.74752225  1
  Al  Al170  1  0.36944349  0.63467036  0.24854372  1
  Al  Al171  1  0.36354434  0.63657729  0.75398475  1
  Al  Al172  1  0.86555631  0.13290858  0.24924929  1
  Al  Al173  1  0.86642531  0.13560792  0.74717336  1
  Al  Al174  1  0.86046450  0.63876319  0.24557941  1
  Al  Al175  1  0.87230273  0.63883575  0.75158305  1
  Al  Al176  1  0.13635680  0.36090752  0.24716152  1
  Al  Al177  1  0.13630446  0.36195929  0.74821830  1
  Al  Al178  1  0.13288529  0.86745557  0.24482916  1
  Al  Al179  1  0.12999068  0.86378016  0.75170420  1
  Al  Al180  1  0.62735358  0.36341147  0.24896968  1
  Al  Al181  1  0.63470595  0.36285040  0.74829071  1
  Al  Al182  1  0.63223046  0.87030834  0.24929877  1
  Al  Al183  1  0.63630099  0.86391183  0.75056004  1
  Al  Al184  1  0.36695155  0.36554149  0.25343547  1
  Al  Al185  1  0.36131797  0.35971591  0.74327808  1
  Al  Al186  1  0.37089730  0.86636191  0.25259564  1
  Al  Al187  1  0.36102772  0.86451996  0.75320085  1
  Al  Al188  1  0.86187941  0.36274181  0.25177303  1
  Al  Al189  1  0.86595336  0.36290018  0.74705573  1
  Al  Al190  1  0.87005073  0.86714707  0.24735913  1
  Al  Al191  1  0.87169088  0.86283724  0.75063565  1
  Al  Al192  1  0.17766333  0.67996992  0.49976171  1
  Al  Al193  1  0.00105571  0.17813382  0.81465701  1
  Al  Al194  1  0.67147126  0.49996284  0.67200408  1
  Al  Al195  1  0.50146739  0.66832655  0.67540397  1
  Al  Al196  1  0.67467204  0.17193027  0.00139381  1
  Al  Al197  1  0.82289801  0.50079056  0.32609152  1
  Al  Al198  1  0.83023186  0.68633263  0.00061323  1
  Al  Al199  1  -0.00050563  0.68995088  0.17274881  1
  Al  Al200  1  0.49728806  0.82757063  0.67707458  1
  Al  Al201  1  0.49813818  0.31034735  0.67347830  1
  Al  Al202  1  0.32567692  0.00392196  0.82720250  1
  Al  Al203  1  0.82529406  0.49987303  0.67418578  1
  Al  Al204  1  -0.00303997  0.67626714  0.32815663  1
  Al  Al205  1  0.67159270  0.32619082  0.00056986  1
  Al  Al206  1  0.67373645  0.67452330  0.00110073  1
  Al  Al207  1  0.82679527  0.50081679  0.82746143  1
  Al  Al208  1  0.32025440  0.82341834  0.49900602  1
  Al  Al209  1  0.17300239  0.50131076  0.82072027  1
  Al  Al210  1  0.17019144  -0.00116173  0.82390278  1
  Al  Al211  1  0.82523899  0.32504800  0.00122313  1
  Al  Al212  1  0.67619892  0.00039322  0.82081530  1
  Al  Al213  1  0.66777784  0.49973357  0.31755486  1
  Al  Al214  1  0.82858793  0.16967118  0.00121625  1
  Al  Al215  1  0.82445748  -0.00116239  0.67431540  1
  Al  Al216  1  -0.00283039  0.32295029  0.32448161  1
  Al  Al217  1  0.81543630  -0.00073512  0.31256376  1
  Al  Al218  1  0.67356889  0.49933254  0.82770342  1
  Al  Al219  1  0.68544451  0.83053886  -0.00003429  1
  Al  Al220  1  0.17448890  0.50117033  0.16850491  1
  Al  Al221  1  0.32151588  0.49894728  0.66796370  1
  Al  Al222  1  0.00081946  0.17178579  0.17447719  1
  Al  Al223  1  0.81673577  0.49929629  0.16725716  1
  Al  Al224  1  0.67451633  0.81604595  0.49717381  1
  Al  Al225  1  0.81072005  0.67698513  0.49954187  1
  Al  Al226  1  0.32603777  0.00216057  0.33082982  1
  Al  Al227  1  0.31141870  0.18646876  0.00108712  1
  Al  Al228  1  0.32920451  0.49846945  0.83175047  1
  Al  Al229  1  0.49982795  0.31103170  0.82825980  1
  Al  Al230  1  0.31250741  0.68144390  0.00158958  1
  Al  Al231  1  0.18084127  0.49690419  0.32810948  1
  Al  Al232  1  0.67340265  0.18037529  0.49647543  1
  Al  Al233  1  0.31888777  -0.00006043  0.67117940  1
  Al  Al234  1  0.81758789  0.32608421  0.49797964  1
  Al  Al235  1  0.83075474  -0.00105799  0.83201034  1
  Al  Al236  1  0.31080014  -0.00004498  0.17103958  1
  Al  Al237  1  0.82988977  0.82792739  0.50020080  1
  Al  Al238  1  -0.00062567  0.31045042  0.67862183  1
  Au  Au239  1  0.16509420  0.00333175  0.67238028  1
  Au  Au240  1  0.00230707  0.32632272  0.15528582  1
  Au  Au241  1  0.50169220  0.66596968  0.17589640  1
  Au  Au242  1  0.32853429  0.18411857  -0.00122895  1
  Au  Au243  1  0.34365821  0.50218898  0.33071028  1
  Au  Au244  1  0.82202447  -0.00112060  0.32844235  1
  Au  Au245  1  -0.00045333  0.31830807  0.66386461  1
  Au  Au246  1  -0.00562544  0.66038211  0.32226260  1
  Au  Au247  1  0.15841363  0.49834830  0.67290172  1
  Au  Au248  1  0.00258465  0.16300753  0.16575087  1
  Au  Au249  1  0.33543293  0.00227202  0.33492841  1
  Au  Au250  1  0.67607027  0.00071143  0.17581592  1
  Au  Au251  1  0.66855227  0.83173723  -0.00027341  1
  Au  Au252  1  0.34184081  0.67566442  0.49421874  1
  Au  Au253  1  0.65925679  0.17137807  0.49676207  1
  Au  Au254  1  0.00310258  0.67679095  0.83402307  1
  Au  Au255  1  -0.00182294  0.33734478  0.33329153  1
  Au  Au256  1  0.49967596  0.32043564  0.33661327  1
  Au  Au257  1  0.66988388  0.82806674  0.49745179  1
  Au  Au258  1  0.00455948  0.16050842  0.33191856  1
  Au  Au259  1  0.83300945  0.49915789  0.17328770  1
  Au  Au260  1  0.17200320  0.84373935  0.50076024  1
  Au  Au261  1  -0.00347233  0.67858806  0.66622819  1
  Au  Au262  1  0.50034216  0.16304847  0.17728441  1
  Au  Au263  1  0.50166956  0.66923625  0.84121104  1
  Au  Au264  1  0.65390293  0.00166738  0.67358309  1
  Au  Au265  1  0.17234182  0.49545355  0.34259173  1
  Au  Au266  1  0.50137632  0.84086563  0.82574498  1
  Au  Au267  1  0.32418128  -0.00047664  0.16102077  1
  Au  Au268  1  0.32409125  0.49872416  0.84793864  1
  Au  Au269  1  0.82053113  0.34328614  0.49786184  1
  Au  Au270  1  0.16725205  0.66658890  0.49997461  1
  Au  Au271  1  0.84185562  0.16650006  0.50284826  1
  Au  Au272  1  0.32870884  0.49864991  0.16125475  1
  Au  Au273  1  0.83144857  0.66955521  0.00055024  1
  Au  Au274  1  0.16253561  0.50334440  0.16580904  1
  Au  Au275  1  0.33621405  0.00415991  0.83645724  1
  Au  Au276  1  0.50034072  0.33157528  0.16763461  1
  Au  Au277  1  0.16672177  0.00214040  0.32378157  1
  Au  Au278  1  0.66646227  0.50023941  0.33435794  1
  Au  Au279  1  0.32326995  0.82615282  0.00028407  1
  Au  Au280  1  0.33743118  0.49812387  0.66199664  1
  Au  Au281  1  0.50365768  0.67438859  0.65968317  1
  Au  Au282  1  0.84069320  -0.00266819  0.67395053  1
  Au  Au283  1  0.49823641  0.32764467  0.82501709  1
  Au  Au284  1  0.00168063  0.32543632  0.84251377  1
  Au  Au285  1  0.00176436  0.83610420  0.32268669  1
  Au  Au286  1  0.32375225  0.32219600  0.49907284  1
  Au  Au287  1  0.50004262  0.83389454  0.18100309  1
