# generated using pymatgen
data_Ca24Ti8Al207Au49
_symmetry_space_group_name_H-M   'P 1'
_cell_length_a   17.31927704
_cell_length_b   17.31783514
_cell_length_c   17.31949793
_cell_angle_alpha   90.00417043
_cell_angle_beta   89.99391245
_cell_angle_gamma   89.99988620
_symmetry_Int_Tables_number   1
_chemical_formula_structural   Ca24Ti8Al207Au49
_chemical_formula_sum   'Ca24 Ti8 Al207 Au49'
_cell_volume   5194.67827058
_cell_formula_units_Z   1
loop_
 _symmetry_equiv_pos_site_id
 _symmetry_equiv_pos_as_xyz
  1  'x, y, z'
loop_
 _atom_site_type_symbol
 _atom_site_label
 _atom_site_symmetry_multiplicity
 _atom_site_fract_x
 _atom_site_fract_y
 _atom_site_fract_z
 _atom_site_occupancy
  Ca  Ca0  1  0.24773317  -0.00282704  0.00201600  1
  Ca  Ca1  1  0.25163361  -0.00472602  0.49736260  1
  Ca  Ca2  1  0.25090574  0.50225713  0.00316716  1
  Ca  Ca3  1  0.25842021  0.50554960  0.49696891  1
  Ca  Ca4  1  0.74637312  -0.00358006  0.00318458  1
  Ca  Ca5  1  0.75504134  -0.00394451  0.49554477  1
  Ca  Ca6  1  0.75429727  0.50437596  -0.00699793  1
  Ca  Ca7  1  0.74911950  0.50432227  0.50428312  1
  Ca  Ca8  1  0.00350330  0.24976600  0.00095714  1
  Ca  Ca9  1  0.00060269  0.24592332  0.49901487  1
  Ca  Ca10  1  0.00330051  0.74442485  0.00870174  1
  Ca  Ca11  1  0.00234561  0.74618018  0.49462950  1
  Ca  Ca12  1  0.49728996  0.25023234  0.00448840  1
  Ca  Ca13  1  0.49797199  0.25454191  0.49952667  1
  Ca  Ca14  1  0.49552840  0.74585229  0.00371989  1
  Ca  Ca15  1  0.49355764  0.74493336  0.49929854  1
  Ca  Ca16  1  0.00129100  -0.00483512  0.24795192  1
  Ca  Ca17  1  0.00412888  -0.00130211  0.75213026  1
  Ca  Ca18  1  0.00509802  0.50249909  0.24777383  1
  Ca  Ca19  1  -0.00211808  0.50229335  0.75175517  1
  Ca  Ca20  1  0.49896327  -0.00350094  0.24848081  1
  Ca  Ca21  1  0.49800840  -0.00402390  0.74376769  1
  Ca  Ca22  1  0.49477735  0.50144763  0.24762019  1
  Ca  Ca23  1  0.50247094  0.50395550  0.74649544  1
  Ti  Ti24  1  0.24926902  0.25009702  0.24798655  1
  Ti  Ti25  1  0.25191947  0.25228804  0.75341856  1
  Ti  Ti26  1  0.24937558  0.74875931  0.25021471  1
  Ti  Ti27  1  0.25114430  0.74831004  0.74972228  1
  Ti  Ti28  1  0.74961462  0.24747035  0.24985417  1
  Ti  Ti29  1  0.74971945  0.25131487  0.75088141  1
  Ti  Ti30  1  0.75132323  0.74871980  0.25013617  1
  Ti  Ti31  1  0.75026587  0.74791395  0.74979736  1
  Al  Al32  1  0.08773662  0.08629088  0.08214256  1
  Al  Al33  1  0.07592290  0.08014297  0.58316043  1
  Al  Al34  1  0.09062295  0.59003705  0.09288272  1
  Al  Al35  1  0.08164286  0.58739084  0.58204565  1
  Al  Al36  1  0.58039425  0.08051621  0.09956339  1
  Al  Al37  1  0.58611045  0.08749729  0.57227611  1
  Al  Al38  1  0.56960814  0.58924905  0.08058855  1
  Al  Al39  1  0.58598556  0.58484924  0.59234911  1
  Al  Al40  1  0.40597755  0.42320565  0.09196914  1
  Al  Al41  1  0.41927781  0.42843809  0.58358851  1
  Al  Al42  1  0.41409054  0.90917090  0.08231903  1
  Al  Al43  1  0.40144591  0.91062331  0.58423383  1
  Al  Al44  1  0.92826886  0.43092928  0.07515189  1
  Al  Al45  1  0.91402048  0.43013729  0.58439564  1
  Al  Al46  1  0.92468398  0.90566651  0.09169584  1
  Al  Al47  1  0.91984221  0.91911669  0.57053629  1
  Al  Al48  1  0.42097119  0.07486823  0.42138689  1
  Al  Al49  1  0.41211145  0.08580304  0.92724061  1
  Al  Al50  1  0.40588555  0.58866943  0.41416104  1
  Al  Al51  1  0.42236059  0.58982137  0.91584822  1
  Al  Al52  1  0.92506187  0.09041294  0.41393659  1
  Al  Al53  1  0.92884490  0.09215260  0.90718587  1
  Al  Al54  1  0.91392026  0.59568679  0.42087139  1
  Al  Al55  1  0.91570231  0.58599230  0.90526149  1
  Al  Al56  1  0.08313073  0.42264871  0.40579824  1
  Al  Al57  1  0.07631302  0.41470004  0.92374237  1
  Al  Al58  1  0.08951930  0.91319130  0.39976828  1
  Al  Al59  1  0.08798183  0.90320620  0.93439857  1
  Al  Al60  1  0.56995635  0.41650477  0.42952526  1
  Al  Al61  1  0.58969295  0.42872994  0.90531205  1
  Al  Al62  1  0.58059486  0.92016430  0.41973743  1
  Al  Al63  1  0.56962159  0.91504384  0.92873997  1
  Al  Al64  1  0.08409506  0.07647781  0.39811942  1
  Al  Al65  1  0.08705207  0.10456772  0.92052285  1
  Al  Al66  1  0.08654465  0.58547551  0.41069596  1
  Al  Al67  1  0.07816984  0.59323062  0.92044157  1
  Al  Al68  1  0.59213992  0.08990769  0.41834224  1
  Al  Al69  1  0.57285237  0.07851432  0.92991293  1
  Al  Al70  1  0.57615845  0.58832839  0.42408155  1
  Al  Al71  1  0.58502784  0.58759307  0.90071227  1
  Al  Al72  1  0.41253309  0.42619264  0.40986676  1
  Al  Al73  1  0.41963387  0.42284441  0.92197446  1
  Al  Al74  1  0.40886989  0.90840433  0.42366829  1
  Al  Al75  1  0.40866166  0.90300745  0.92420829  1
  Al  Al76  1  0.92315897  0.41815511  0.41601043  1
  Al  Al77  1  0.91659038  0.42499161  0.90464292  1
  Al  Al78  1  0.92796215  0.90472001  0.41110595  1
  Al  Al79  1  0.92597873  0.91978571  0.93044321  1
  Al  Al80  1  0.09275931  0.42614353  0.08751879  1
  Al  Al81  1  0.07832441  0.42857130  0.58078492  1
  Al  Al82  1  0.08638610  0.89915327  0.09302836  1
  Al  Al83  1  0.08415510  0.91730477  0.56893099  1
  Al  Al84  1  0.56837779  0.42341528  0.07514979  1
  Al  Al85  1  0.58951228  0.42192247  0.59008875  1
  Al  Al86  1  0.58423733  0.91780345  0.09146857  1
  Al  Al87  1  0.57353641  0.91861797  0.57570127  1
  Al  Al88  1  0.41970288  0.09272406  0.08687479  1
  Al  Al89  1  0.41137667  0.07101572  0.58322962  1
  Al  Al90  1  0.40796303  0.58768695  0.09375893  1
  Al  Al91  1  0.41159292  0.59040288  0.58936260  1
  Al  Al92  1  0.92451247  0.07903703  0.08235709  1
  Al  Al93  1  0.91961611  0.08932348  0.58088874  1
  Al  Al94  1  0.92626761  0.58938883  0.08830231  1
  Al  Al95  1  0.90649213  0.59100623  0.58559969  1
  Al  Al96  1  0.24658654  0.13139271  0.13473174  1
  Al  Al97  1  0.25384687  0.13362705  0.63790458  1
  Al  Al98  1  0.24863716  0.63096738  0.13616229  1
  Al  Al99  1  0.25506367  0.63061980  0.63189797  1
  Al  Al100  1  0.74778587  0.13313237  0.13346844  1
  Al  Al101  1  0.74692707  0.13461222  0.63096532  1
  Al  Al102  1  0.75515931  0.63974485  0.12808954  1
  Al  Al103  1  0.74718078  0.63306085  0.63249506  1
  Al  Al104  1  0.24897442  0.36559406  0.13034208  1
  Al  Al105  1  0.25084984  0.37326411  0.63824211  1
  Al  Al106  1  0.24809955  0.86279745  0.13094855  1
  Al  Al107  1  0.25255077  0.86249161  0.62760763  1
  Al  Al108  1  0.75102456  0.36159656  0.13574645  1
  Al  Al109  1  0.74649050  0.36859112  0.63713328  1
  Al  Al110  1  0.74975246  0.86084574  0.13606834  1
  Al  Al111  1  0.75067762  0.86401169  0.63369808  1
  Al  Al112  1  0.25157383  0.12801480  0.35928650  1
  Al  Al113  1  0.24921439  0.13398888  0.86838592  1
  Al  Al114  1  0.24886550  0.62980959  0.36196203  1
  Al  Al115  1  0.25470704  0.63244066  0.86756302  1
  Al  Al116  1  0.74619963  0.13396952  0.36804597  1
  Al  Al117  1  0.75104874  0.13803138  0.87207728  1
  Al  Al118  1  0.75457106  0.63585793  0.36890872  1
  Al  Al119  1  0.74938886  0.63087379  0.86797603  1
  Al  Al120  1  0.25053326  0.37421308  0.35997302  1
  Al  Al121  1  0.25139435  0.36650464  0.87359926  1
  Al  Al122  1  0.24932690  0.86593844  0.36346899  1
  Al  Al123  1  0.25242999  0.86409460  0.86804060  1
  Al  Al124  1  0.75044175  0.36238275  0.36267568  1
  Al  Al125  1  0.74978777  0.37019040  0.86488430  1
  Al  Al126  1  0.75201137  0.86460031  0.36136536  1
  Al  Al127  1  0.75214750  0.86022026  0.86613068  1
  Al  Al128  1  0.13794604  0.24811349  0.13217864  1
  Al  Al129  1  0.14172614  0.24775774  0.63758466  1
  Al  Al130  1  0.13253782  0.74948467  0.13928986  1
  Al  Al131  1  0.13964827  0.74874195  0.63191763  1
  Al  Al132  1  0.62818984  0.24776450  0.13615148  1
  Al  Al133  1  0.63542785  0.25110617  0.63770725  1
  Al  Al134  1  0.63396802  0.74539871  0.13420308  1
  Al  Al135  1  0.63454043  0.74571128  0.63613527  1
  Al  Al136  1  0.13866361  0.24742436  0.36018564  1
  Al  Al137  1  0.13883638  0.25050994  0.87141491  1
  Al  Al138  1  0.12914809  0.75062641  0.36105930  1
  Al  Al139  1  0.13788596  0.74855362  0.86596425  1
  Al  Al140  1  0.63420327  0.24604085  0.36260650  1
  Al  Al141  1  0.63020238  0.25120264  0.86232692  1
  Al  Al142  1  0.63488337  0.74435176  0.36446674  1
  Al  Al143  1  0.63356838  0.74261948  0.86289465  1
  Al  Al144  1  0.36872439  0.25299539  0.13781348  1
  Al  Al145  1  0.36059138  0.25513703  0.63728602  1
  Al  Al146  1  0.35926934  0.74768536  0.13073314  1
  Al  Al147  1  0.36329852  0.74693311  0.63136093  1
  Al  Al148  1  0.86307744  0.24395923  0.13315170  1
  Al  Al149  1  0.86061327  0.24540768  0.63519165  1
  Al  Al150  1  0.87209573  0.74869778  0.13876951  1
  Al  Al151  1  0.86315161  0.74398173  0.63460391  1
  Al  Al152  1  0.35989237  0.25080032  0.36189901  1
  Al  Al153  1  0.37003868  0.25307793  0.86353772  1
  Al  Al154  1  0.36041234  0.74644300  0.36757955  1
  Al  Al155  1  0.36321882  0.74763473  0.86790423  1
  Al  Al156  1  0.86626689  0.24250900  0.36578704  1
  Al  Al157  1  0.86310673  0.25222314  0.86704345  1
  Al  Al158  1  0.87316775  0.75043737  0.36083626  1
  Al  Al159  1  0.86728138  0.74253110  0.86572701  1
  Al  Al160  1  0.13541432  0.12739406  0.25062325  1
  Al  Al161  1  0.13738178  0.13430927  0.75459599  1
  Al  Al162  1  0.13144452  0.63262653  0.24844551  1
  Al  Al163  1  0.13798983  0.63531871  0.75055666  1
  Al  Al164  1  0.63386729  0.12944613  0.24499738  1
  Al  Al165  1  0.63542254  0.13419980  0.75160607  1
  Al  Al166  1  0.63517146  0.63509547  0.24751478  1
  Al  Al167  1  0.64033360  0.62650679  0.75051862  1
  Al  Al168  1  0.36531150  0.13328943  0.24543548  1
  Al  Al169  1  0.36474058  0.13519672  0.75217807  1
  Al  Al170  1  0.36355289  0.63328567  0.24583166  1
  Al  Al171  1  0.36414118  0.63323496  0.74984924  1
  Al  Al172  1  0.86316039  0.12871594  0.25377105  1
  Al  Al173  1  0.86013201  0.13265133  0.75183436  1
  Al  Al174  1  0.87288602  0.63698913  0.25178700  1
  Al  Al175  1  0.86269395  0.63171824  0.75397169  1
  Al  Al176  1  0.13815713  0.37087458  0.24737088  1
  Al  Al177  1  0.13794697  0.36594450  0.75258250  1
  Al  Al178  1  0.13554746  0.86671943  0.24984743  1
  Al  Al179  1  0.14263563  0.86446769  0.75092078  1
  Al  Al180  1  0.63282809  0.36310406  0.24844955  1
  Al  Al181  1  0.63654397  0.37016593  0.75131244  1
  Al  Al182  1  0.63551675  0.86517219  0.24604308  1
  Al  Al183  1  0.63250428  0.86167549  0.74862943  1
  Al  Al184  1  0.36184590  0.36989274  0.24668678  1
  Al  Al185  1  0.36274381  0.37286945  0.75258699  1
  Al  Al186  1  0.36202457  0.86331378  0.24976853  1
  Al  Al187  1  0.36374599  0.86256826  0.74454007  1
  Al  Al188  1  0.86501905  0.36266946  0.25338598  1
  Al  Al189  1  0.86262141  0.36652975  0.75115359  1
  Al  Al190  1  0.87097043  0.86375315  0.24882332  1
  Al  Al191  1  0.86248772  0.86455753  0.74971787  1
  Al  Al192  1  0.32642699  0.17385624  0.49982025  1
  Al  Al193  1  0.67060882  0.50212255  0.16860821  1
  Al  Al194  1  0.49679718  0.32606926  0.32036963  1
  Al  Al195  1  0.83372288  -0.00278901  0.82734187  1
  Al  Al196  1  0.82768300  0.81869017  0.00218753  1
  Al  Al197  1  0.00154150  0.31297098  0.32422840  1
  Al  Al198  1  0.16815909  -0.00097990  0.83553979  1
  Al  Al199  1  0.00051419  0.17386582  0.68935449  1
  Al  Al200  1  0.00075594  0.17392135  0.19099558  1
  Al  Al201  1  0.67866466  -0.00125125  0.66649377  1
  Al  Al202  1  0.81688201  -0.00311686  0.17527638  1
  Al  Al203  1  0.82762433  0.32349284  0.50080803  1
  Al  Al204  1  0.49738790  0.81355931  0.82269715  1
  Al  Al205  1  0.66973804  0.32158067  -0.00121059  1
  Al  Al206  1  0.67779935  -0.00431662  0.32034214  1
  Al  Al207  1  0.49845769  0.32900736  0.67717736  1
  Al  Al208  1  0.83279235  0.32845854  -0.00001184  1
  Al  Al209  1  0.32995241  0.33036489  0.49970184  1
  Al  Al210  1  0.81299956  0.50158227  0.68660055  1
  Al  Al211  1  0.17483161  0.50066853  0.82689367  1
  Al  Al212  1  0.32298936  0.00097532  0.17422413  1
  Al  Al213  1  -0.00020922  0.67251682  0.68498997  1
  Al  Al214  1  -0.00050772  0.32128207  0.66636836  1
  Al  Al215  1  0.67268303  0.82254804  0.00016264  1
  Al  Al216  1  0.67321949  0.81927688  0.49834962  1
  Al  Al217  1  0.00054920  0.82798729  0.67153978  1
  Al  Al218  1  0.67023036  0.31770461  0.50020928  1
  Al  Al219  1  0.00119254  0.31277996  0.82449157  1
  Al  Al220  1  0.17130188  0.16817512  0.49606129  1
  Al  Al221  1  0.49836123  0.16784619  0.31793916  1
  Al  Al222  1  0.18689159  -0.00169784  0.67054000  1
  Al  Al223  1  0.67197760  -0.00302174  0.82895643  1
  Al  Al224  1  0.82794237  0.50085620  0.17856826  1
  Al  Al225  1  0.82731434  0.81453738  0.49677033  1
  Al  Al226  1  0.18045505  0.68005444  0.49779860  1
  Al  Al227  1  0.33010016  -0.00236782  0.81933014  1
  Al  Al228  1  0.31328116  0.18361538  0.00283772  1
  Al  Al229  1  0.49600846  0.67639994  0.31463176  1
  Al  Al230  1  0.49717619  0.17176399  0.67506466  1
  Al  Al231  1  0.49781212  0.81180634  0.17491035  1
  Al  Al232  1  0.00054105  0.33203018  0.17233891  1
  Al  Al233  1  0.50072339  0.67905896  0.68964179  1
  Al  Al234  1  0.67401813  0.49762823  0.33154265  1
  Al  Al235  1  0.17225441  0.33155988  0.49917868  1
  Al  Al236  1  0.49878715  0.82832312  0.32806003  1
  Al  Al237  1  0.00140082  0.81578899  0.82966900  1
  Al  Al238  1  0.18119228  0.68570266  0.00219459  1
  Au  Au239  1  0.67457953  0.50551350  0.15256361  1
  Au  Au240  1  0.49580860  0.66619350  0.32422863  1
  Au  Au241  1  0.83649390  -0.00512792  0.83934109  1
  Au  Au242  1  0.66874639  -0.00182720  0.32912999  1
  Au  Au243  1  0.66622923  0.15863797  0.00910004  1
  Au  Au244  1  0.00112648  0.81786878  0.84637649  1
  Au  Au245  1  0.49923954  0.17282751  0.84237154  1
  Au  Au246  1  0.18074527  0.66760681  0.49985972  1
  Au  Au247  1  0.83821670  0.16486012  -0.00229837  1
  Au  Au248  1  0.50021125  0.34244608  0.82580377  1
  Au  Au249  1  0.82747488  -0.00382007  0.16228516  1
  Au  Au250  1  0.66509134  0.49367630  0.34483194  1
  Au  Au251  1  0.17645347  0.50423111  0.66381964  1
  Au  Au252  1  0.33143056  -0.00146946  0.16544903  1
  Au  Au253  1  0.65516128  -0.00435999  0.83436430  1
  Au  Au254  1  0.17154546  0.15295609  0.49089314  1
  Au  Au255  1  0.34069313  0.50449107  0.82509808  1
  Au  Au256  1  0.82127534  0.33923708  0.50039914  1
  Au  Au257  1  0.32984352  0.67369760  0.00026714  1
  Au  Au258  1  0.17709031  0.34702986  0.49888271  1
  Au  Au259  1  0.17079478  -0.00240415  0.66505396  1
  Au  Au260  1  0.50077066  0.81377161  0.83925223  1
  Au  Au261  1  0.16202727  0.50115965  0.83713498  1
  Au  Au262  1  0.00194190  0.17855496  0.17462172  1
  Au  Au263  1  0.17480575  0.50217666  0.31799595  1
  Au  Au264  1  0.49812965  0.17373702  0.33397438  1
  Au  Au265  1  0.49717426  0.33344869  0.17090854  1
  Au  Au266  1  0.34375466  -0.00274815  0.82927605  1
  Au  Au267  1  0.83928406  0.66883884  0.00027632  1
  Au  Au268  1  0.33275608  0.32988997  0.00115353  1
  Au  Au269  1  0.66744009  -0.00146484  0.66081808  1
  Au  Au270  1  0.16418177  0.32414833  0.00354846  1
  Au  Au271  1  0.84410783  0.50466352  0.32756562  1
  Au  Au272  1  -0.00034611  0.82051175  0.65594379  1
  Au  Au273  1  0.32497588  -0.00361133  0.33827236  1
  Au  Au274  1  -0.00146320  0.33598072  0.67535610  1
  Au  Au275  1  0.84228202  -0.00064827  0.66696244  1
  Au  Au276  1  0.17790806  0.83251338  0.49199353  1
  Au  Au277  1  0.49605731  0.16959540  0.65871942  1
  Au  Au278  1  0.15662573  -0.00072740  0.84602607  1
  Au  Au279  1  0.16560628  -0.00403072  0.17143532  1
  Au  Au280  1  0.84003134  0.33859925  0.00025732  1
  Au  Au281  1  0.65853604  0.67305250  -0.00336906  1
  Au  Au282  1  0.66426210  0.33655686  -0.00295952  1
  Au  Au283  1  0.84189279  -0.00312492  0.33613766  1
  Au  Au284  1  0.67347210  0.67090309  0.50324619  1
  Au  Au285  1  0.82258475  0.16191409  0.49741088  1
  Au  Au286  1  0.49605274  0.82527347  0.65871094  1
  Au  Au287  1  0.00101022  0.67571125  0.32634901  1
