# generated using pymatgen
data_Ca24Ti8Al207Au49
_symmetry_space_group_name_H-M   'P 1'
_cell_length_a   17.32311953
_cell_length_b   17.32481951
_cell_length_c   17.32374880
_cell_angle_alpha   89.99808903
_cell_angle_beta   89.99868784
_cell_angle_gamma   89.99836406
_symmetry_Int_Tables_number   1
_chemical_formula_structural   Ca24Ti8Al207Au49
_chemical_formula_sum   'Ca24 Ti8 Al207 Au49'
_cell_volume   5199.20208376
_cell_formula_units_Z   1
loop_
 _symmetry_equiv_pos_site_id
 _symmetry_equiv_pos_as_xyz
  1  'x, y, z'
loop_
 _atom_site_type_symbol
 _atom_site_label
 _atom_site_symmetry_multiplicity
 _atom_site_fract_x
 _atom_site_fract_y
 _atom_site_fract_z
 _atom_site_occupancy
  Ca  Ca0  1  0.24703409  -0.00016658  0.00652840  1
  Ca  Ca1  1  0.24869221  0.00288681  0.49241910  1
  Ca  Ca2  1  0.25243550  0.50054576  -0.00245574  1
  Ca  Ca3  1  0.25032373  0.49955632  0.49948001  1
  Ca  Ca4  1  0.74441209  0.00278521  0.00267910  1
  Ca  Ca5  1  0.74885838  0.00285255  0.49687002  1
  Ca  Ca6  1  0.74322885  0.50087690  0.00706619  1
  Ca  Ca7  1  0.74907683  0.49753792  0.49230576  1
  Ca  Ca8  1  0.00176778  0.24783590  0.00463225  1
  Ca  Ca9  1  -0.00096609  0.25153925  0.49260159  1
  Ca  Ca10  1  0.00417868  0.74735559  0.00692320  1
  Ca  Ca11  1  -0.00151284  0.74611058  0.49284882  1
  Ca  Ca12  1  0.49978913  0.24901854  0.00110426  1
  Ca  Ca13  1  0.50301821  0.25229272  0.49460595  1
  Ca  Ca14  1  0.49875221  0.74690762  -0.00110846  1
  Ca  Ca15  1  0.50006914  0.74497416  0.50049450  1
  Ca  Ca16  1  -0.00121092  0.00359918  0.24931172  1
  Ca  Ca17  1  -0.00297552  0.00249626  0.75098917  1
  Ca  Ca18  1  0.00129057  0.49703086  0.25416010  1
  Ca  Ca19  1  0.00385362  0.49989637  0.74910012  1
  Ca  Ca20  1  0.50109547  -0.00054636  0.24906379  1
  Ca  Ca21  1  0.50303898  0.00066127  0.74911640  1
  Ca  Ca22  1  0.50313408  0.50153865  0.24996403  1
  Ca  Ca23  1  0.49764053  0.50443066  0.75019124  1
  Ti  Ti24  1  0.25023076  0.25174191  0.24941316  1
  Ti  Ti25  1  0.25129916  0.25250320  0.75130558  1
  Ti  Ti26  1  0.25052750  0.74971919  0.24958749  1
  Ti  Ti27  1  0.25250197  0.74767060  0.75034460  1
  Ti  Ti28  1  0.74954252  0.24904773  0.25078584  1
  Ti  Ti29  1  0.74823594  0.24908842  0.74877970  1
  Ti  Ti30  1  0.74917276  0.75002128  0.25050257  1
  Ti  Ti31  1  0.74782724  0.75025726  0.74739622  1
  Al  Al32  1  0.08628115  0.08465723  0.09121179  1
  Al  Al33  1  0.08102060  0.07743075  0.57260569  1
  Al  Al34  1  0.09069312  0.57923450  0.08527267  1
  Al  Al35  1  0.08717467  0.57859673  0.57807765  1
  Al  Al36  1  0.58856919  0.08958555  0.08120771  1
  Al  Al37  1  0.58311035  0.08698185  0.58512910  1
  Al  Al38  1  0.58871309  0.58367970  0.08096745  1
  Al  Al39  1  0.57567171  0.58692542  0.58723860  1
  Al  Al40  1  0.42347450  0.41888382  0.08300082  1
  Al  Al41  1  0.41614382  0.42283467  0.58573576  1
  Al  Al42  1  0.41683642  0.91274083  0.09057344  1
  Al  Al43  1  0.42371581  0.91230729  0.57712713  1
  Al  Al44  1  0.91807666  0.41848991  0.09286516  1
  Al  Al45  1  0.92104079  0.41752502  0.57163207  1
  Al  Al46  1  0.91050122  0.92421475  0.09097876  1
  Al  Al47  1  0.91324893  0.92160309  0.57583290  1
  Al  Al48  1  0.42417601  0.09074454  0.41106066  1
  Al  Al49  1  0.42536009  0.08781983  0.91753992  1
  Al  Al50  1  0.41182755  0.58152973  0.42563951  1
  Al  Al51  1  0.41019742  0.58995331  0.90860213  1
  Al  Al52  1  0.91216744  0.09450946  0.40823715  1
  Al  Al53  1  0.91781156  0.08146390  0.92235146  1
  Al  Al54  1  0.91244419  0.57347331  0.41000393  1
  Al  Al55  1  0.91999134  0.58082873  0.92260143  1
  Al  Al56  1  0.08287048  0.41235148  0.40960494  1
  Al  Al57  1  0.09435489  0.42428207  0.91429421  1
  Al  Al58  1  0.08064838  0.92334971  0.41426171  1
  Al  Al59  1  0.08203166  0.92173943  0.92875241  1
  Al  Al60  1  0.58896337  0.41285604  0.40297577  1
  Al  Al61  1  0.57661213  0.42223538  0.92177713  1
  Al  Al62  1  0.58979022  0.91012410  0.41874121  1
  Al  Al63  1  0.58104263  0.91717684  0.91832865  1
  Al  Al64  1  0.07611191  0.08723059  0.40397211  1
  Al  Al65  1  0.08144468  0.08304640  0.92716247  1
  Al  Al66  1  0.08696898  0.57618180  0.41357674  1
  Al  Al67  1  0.09479162  0.58096190  0.91353135  1
  Al  Al68  1  0.58295350  0.08953233  0.41265950  1
  Al  Al69  1  0.58515077  0.09022275  0.91668998  1
  Al  Al70  1  0.59167183  0.57550674  0.41267746  1
  Al  Al71  1  0.58009148  0.59282730  0.91545701  1
  Al  Al72  1  0.42421121  0.41395740  0.40935748  1
  Al  Al73  1  0.41054335  0.42768401  0.90992763  1
  Al  Al74  1  0.42023245  0.91462193  0.41868494  1
  Al  Al75  1  0.41959177  0.91161050  0.92346248  1
  Al  Al76  1  0.91427105  0.41080373  0.40567208  1
  Al  Al77  1  0.91893416  0.42349979  0.92235195  1
  Al  Al78  1  0.91463558  0.92221879  0.41275244  1
  Al  Al79  1  0.91692040  0.92414204  0.92468143  1
  Al  Al80  1  0.08485418  0.41885415  0.09050401  1
  Al  Al81  1  0.08514429  0.41845219  0.57604884  1
  Al  Al82  1  0.08884999  0.92245556  0.08855938  1
  Al  Al83  1  0.08117076  0.92092946  0.57812044  1
  Al  Al84  1  0.58766901  0.42032841  0.09171302  1
  Al  Al85  1  0.57937160  0.42081679  0.57611308  1
  Al  Al86  1  0.57930922  0.91263817  0.09024522  1
  Al  Al87  1  0.58812317  0.91082537  0.57882024  1
  Al  Al88  1  0.41855072  0.07773363  0.08557598  1
  Al  Al89  1  0.42648064  0.09082359  0.58245527  1
  Al  Al90  1  0.41704490  0.58775587  0.07296297  1
  Al  Al91  1  0.41242645  0.59018306  0.59084191  1
  Al  Al92  1  0.91403397  0.08299505  0.09288585  1
  Al  Al93  1  0.90877283  0.08754734  0.57033440  1
  Al  Al94  1  0.91623606  0.57930720  0.08895496  1
  Al  Al95  1  0.91721661  0.57911000  0.57562048  1
  Al  Al96  1  0.24941415  0.13624152  0.13826884  1
  Al  Al97  1  0.24880885  0.13935080  0.63252221  1
  Al  Al98  1  0.25339210  0.63613147  0.13541488  1
  Al  Al99  1  0.25421857  0.63240389  0.63466450  1
  Al  Al100  1  0.75046276  0.13067109  0.13795288  1
  Al  Al101  1  0.74995306  0.13658807  0.62726800  1
  Al  Al102  1  0.74571992  0.63221207  0.13542608  1
  Al  Al103  1  0.74709979  0.63586464  0.62863543  1
  Al  Al104  1  0.25270200  0.36420597  0.13199776  1
  Al  Al105  1  0.25172257  0.36552615  0.63508210  1
  Al  Al106  1  0.25230138  0.86352550  0.13530089  1
  Al  Al107  1  0.25487687  0.86055566  0.63144397  1
  Al  Al108  1  0.74515934  0.36823077  0.14161609  1
  Al  Al109  1  0.75048099  0.36208898  0.63318972  1
  Al  Al110  1  0.74837099  0.87103824  0.13802887  1
  Al  Al111  1  0.74866676  0.86335344  0.62737415  1
  Al  Al112  1  0.24769383  0.13859335  0.36519060  1
  Al  Al113  1  0.25251822  0.13751196  0.86559285  1
  Al  Al114  1  0.24869387  0.63184506  0.36303192  1
  Al  Al115  1  0.25517318  0.62849882  0.86344166  1
  Al  Al116  1  0.74984871  0.13927617  0.37219969  1
  Al  Al117  1  0.74569982  0.13573046  0.86995389  1
  Al  Al118  1  0.74780829  0.63296629  0.36751729  1
  Al  Al119  1  0.74427611  0.64153766  0.86779521  1
  Al  Al120  1  0.24628052  0.36715388  0.36095831  1
  Al  Al121  1  0.25112294  0.36878273  0.86980595  1
  Al  Al122  1  0.25099251  0.86424604  0.36315466  1
  Al  Al123  1  0.25667643  0.86177877  0.86611395  1
  Al  Al124  1  0.75017614  0.36673181  0.36146864  1
  Al  Al125  1  0.74933292  0.36089944  0.86847559  1
  Al  Al126  1  0.74768549  0.86499955  0.36691590  1
  Al  Al127  1  0.74781072  0.86171747  0.86750530  1
  Al  Al128  1  0.13420842  0.25475519  0.13663741  1
  Al  Al129  1  0.13669928  0.25186416  0.63621041  1
  Al  Al130  1  0.13204925  0.74771310  0.13617085  1
  Al  Al131  1  0.14067461  0.74607372  0.63536682  1
  Al  Al132  1  0.63634129  0.24723081  0.13527452  1
  Al  Al133  1  0.63089563  0.24375418  0.63413456  1
  Al  Al134  1  0.63543774  0.75183734  0.13299102  1
  Al  Al135  1  0.63378886  0.74766011  0.62852480  1
  Al  Al136  1  0.12870992  0.24984598  0.36150223  1
  Al  Al137  1  0.13849952  0.25392729  0.86551723  1
  Al  Al138  1  0.13480602  0.74953148  0.36257684  1
  Al  Al139  1  0.14024393  0.74624212  0.86358620  1
  Al  Al140  1  0.63188566  0.24878856  0.36249043  1
  Al  Al141  1  0.63456506  0.24780453  0.86843681  1
  Al  Al142  1  0.63675440  0.74895266  0.36947498  1
  Al  Al143  1  0.62929687  0.75045957  0.86590739  1
  Al  Al144  1  0.36844067  0.24976380  0.13094271  1
  Al  Al145  1  0.36887925  0.24917739  0.63676381  1
  Al  Al146  1  0.36821510  0.74904293  0.13118845  1
  Al  Al147  1  0.36977881  0.74293963  0.63139283  1
  Al  Al148  1  0.86376061  0.25328229  0.13812344  1
  Al  Al149  1  0.86359204  0.24662038  0.63354419  1
  Al  Al150  1  0.86874626  0.74650679  0.13996227  1
  Al  Al151  1  0.85986524  0.75200256  0.62506714  1
  Al  Al152  1  0.36771696  0.25275526  0.36366800  1
  Al  Al153  1  0.36328789  0.25307303  0.87135636  1
  Al  Al154  1  0.36412203  0.74850558  0.36847861  1
  Al  Al155  1  0.36794764  0.74415040  0.87189394  1
  Al  Al156  1  0.86786953  0.24854391  0.36233369  1
  Al  Al157  1  0.86139824  0.24477159  0.86778286  1
  Al  Al158  1  0.86144304  0.75065802  0.36781274  1
  Al  Al159  1  0.86366748  0.74841975  0.86272158  1
  Al  Al160  1  0.13355043  0.13663057  0.24884870  1
  Al  Al161  1  0.13781411  0.13789244  0.75107124  1
  Al  Al162  1  0.13643647  0.63336829  0.24996530  1
  Al  Al163  1  0.14079979  0.62620534  0.75097536  1
  Al  Al164  1  0.63488568  0.12955198  0.25263850  1
  Al  Al165  1  0.63639137  0.13393790  0.74843411  1
  Al  Al166  1  0.63374926  0.63439332  0.25055558  1
  Al  Al167  1  0.62990962  0.63710746  0.74995903  1
  Al  Al168  1  0.36605897  0.13775848  0.25280120  1
  Al  Al169  1  0.36511494  0.13616451  0.75027729  1
  Al  Al170  1  0.36743040  0.63431478  0.25255888  1
  Al  Al171  1  0.36998982  0.63573616  0.75226434  1
  Al  Al172  1  0.86463188  0.13608924  0.25150755  1
  Al  Al173  1  0.85644680  0.12982680  0.75140062  1
  Al  Al174  1  0.86193315  0.63093721  0.25366307  1
  Al  Al175  1  0.86060669  0.63370144  0.74560656  1
  Al  Al176  1  0.12827834  0.36402213  0.25384573  1
  Al  Al177  1  0.14127830  0.37139243  0.75224765  1
  Al  Al178  1  0.13529368  0.86552164  0.24484353  1
  Al  Al179  1  0.13787288  0.86224903  0.75008729  1
  Al  Al180  1  0.63106891  0.36382109  0.25355289  1
  Al  Al181  1  0.63494607  0.36473519  0.74906718  1
  Al  Al182  1  0.63481229  0.86825136  0.24848392  1
  Al  Al183  1  0.63582131  0.86316189  0.74855420  1
  Al  Al184  1  0.37034298  0.36463064  0.25067572  1
  Al  Al185  1  0.36497873  0.36739410  0.75507469  1
  Al  Al186  1  0.36855720  0.86165795  0.24636328  1
  Al  Al187  1  0.36894579  0.85457713  0.75228808  1
  Al  Al188  1  0.87023957  0.36872263  0.25447374  1
  Al  Al189  1  0.86154156  0.36603225  0.74939994  1
  Al  Al190  1  0.86230735  0.86585212  0.24819129  1
  Al  Al191  1  0.86374876  0.86765005  0.74928867  1
  Al  Al192  1  -0.00279102  0.82578749  0.66912486  1
  Al  Al193  1  0.50263194  0.67591037  0.17515800  1
  Al  Al194  1  0.67427246  0.50227260  0.82581794  1
  Al  Al195  1  0.49994737  0.82023037  0.31892556  1
  Al  Al196  1  0.00044426  0.17291139  0.82814789  1
  Al  Al197  1  0.32761507  0.18166149  0.49665928  1
  Al  Al198  1  0.81206460  0.49992981  0.18491374  1
  Al  Al199  1  0.81655243  0.82811093  0.00382787  1
  Al  Al200  1  0.32963482  0.00083931  0.32894860  1
  Al  Al201  1  -0.00141743  0.32485859  0.82899438  1
  Al  Al202  1  0.00072061  0.83077802  0.82974006  1
  Al  Al203  1  0.50073724  0.18332446  0.81037434  1
  Al  Al204  1  0.00039399  0.32723046  0.67094624  1
  Al  Al205  1  0.18470686  0.49768667  0.19171892  1
  Al  Al206  1  0.82766450  0.31683349  0.49678430  1
  Al  Al207  1  0.00214849  0.67156116  0.82847288  1
  Al  Al208  1  0.18116479  0.82486927  0.00112909  1
  Al  Al209  1  0.67689011  -0.00125703  0.67233438  1
  Al  Al210  1  -0.00161346  0.82621932  0.32116898  1
  Al  Al211  1  0.18618560  0.67181807  -0.00036560  1
  Al  Al212  1  0.49811744  0.17858388  0.18098793  1
  Al  Al213  1  -0.00114192  0.67051722  0.32242974  1
  Al  Al214  1  0.81762026  0.67177650  0.00257436  1
  Al  Al215  1  0.18050207  0.18068771  0.00214556  1
  Al  Al216  1  0.18097047  0.82645286  0.49760813  1
  Al  Al217  1  0.50121235  0.32472234  0.67913720  1
  Al  Al218  1  0.81970547  0.50479322  0.82333824  1
  Al  Al219  1  0.67730365  0.32459564  0.00206885  1
  Al  Al220  1  0.00114649  0.67227012  0.67135589  1
  Al  Al221  1  0.17659910  0.00059660  0.31022396  1
  Al  Al222  1  0.18480231  0.67046174  0.49803779  1
  Al  Al223  1  0.32034294  0.50071456  0.68774887  1
  Al  Al224  1  0.67643228  0.50029232  0.66878891  1
  Al  Al225  1  -0.00275530  0.16786387  0.67616755  1
  Al  Al226  1  -0.00092878  0.18031131  0.18575429  1
  Al  Al227  1  0.17088172  -0.00003767  0.82874068  1
  Al  Al228  1  0.67487790  0.32184703  0.49794327  1
  Al  Al229  1  0.32670184  -0.00164026  0.83012108  1
  Al  Al230  1  0.67811215  -0.00041530  0.82747272  1
  Al  Al231  1  0.33129634  0.00016818  0.66968660  1
  Al  Al232  1  0.82326906  0.17926643  0.00438902  1
  Al  Al233  1  0.17377320  0.00010810  0.67485053  1
  Al  Al234  1  0.81948863  0.00192935  0.31490403  1
  Al  Al235  1  0.31376081  -0.00016910  0.17856959  1
  Al  Al236  1  0.32453664  0.49927342  0.31840255  1
  Al  Al237  1  0.50271900  0.81930789  0.67976801  1
  Al  Al238  1  0.17994535  0.31960798  0.49779821  1
  Au  Au239  1  0.16893396  0.82963435  0.49663101  1
  Au  Au240  1  0.33790826  0.17661143  0.50167228  1
  Au  Au241  1  0.33414979  0.81990013  0.49878728  1
  Au  Au242  1  0.82703602  0.49415946  0.65717230  1
  Au  Au243  1  0.82031146  0.16684243  0.00303573  1
  Au  Au244  1  0.83499779  0.33370857  0.00379370  1
  Au  Au245  1  0.82848014  0.83128381  0.00223806  1
  Au  Au246  1  0.16273846  0.17053833  0.49323726  1
  Au  Au247  1  0.32840666  0.50281385  0.15866899  1
  Au  Au248  1  0.66486044  0.32193887  0.00036049  1
  Au  Au249  1  0.33511153  0.33610096  -0.00137285  1
  Au  Au250  1  0.33077052  0.82295108  0.00372377  1
  Au  Au251  1  0.82825312  0.00071634  0.83270179  1
  Au  Au252  1  0.32478186  0.00194427  0.65415034  1
  Au  Au253  1  0.82470382  0.00275710  0.66099238  1
  Au  Au254  1  0.66034619  0.82461577  0.00202408  1
  Au  Au255  1  0.66388802  0.50259245  0.83400344  1
  Au  Au256  1  0.50279966  0.67929520  0.16256531  1
  Au  Au257  1  0.00418538  0.66323371  0.17305312  1
  Au  Au258  1  0.16599537  0.33070344  0.00236422  1
  Au  Au259  1  0.00151700  0.83700500  0.66592971  1
  Au  Au260  1  0.50233493  0.82940468  0.32750998  1
  Au  Au261  1  0.82472212  0.49982355  0.18212400  1
  Au  Au262  1  0.67024577  0.17220678  0.49984754  1
  Au  Au263  1  -0.00000345  0.84052743  0.17239464  1
  Au  Au264  1  0.82307052  0.83653646  0.49504201  1
  Au  Au265  1  0.49658359  0.32934180  0.83482844  1
  Au  Au266  1  0.33043431  0.33769390  0.49824472  1
  Au  Au267  1  0.50346087  0.82209192  0.66742860  1
  Au  Au268  1  0.50271853  0.32126395  0.66709151  1
  Au  Au269  1  0.32858330  0.16315805  0.00311716  1
  Au  Au270  1  0.17271881  0.49685215  0.67253592  1
  Au  Au271  1  0.33002106  0.00357664  0.84115032  1
  Au  Au272  1  0.66222943  0.67046953  0.50047428  1
  Au  Au273  1  0.50082007  0.16920563  0.17301932  1
  Au  Au274  1  0.49889569  0.66461040  0.33803373  1
  Au  Au275  1  0.00169419  0.16996976  0.66049807  1
  Au  Au276  1  0.83154824  0.66607158  0.49326689  1
  Au  Au277  1  0.49989841  0.82251094  0.83206559  1
  Au  Au278  1  0.50196169  0.33494757  0.18097944  1
  Au  Au279  1  0.00128197  0.65952755  0.67338736  1
  Au  Au280  1  0.67267717  0.00035515  0.33461857  1
  Au  Au281  1  0.82837503  0.50291145  0.83192551  1
  Au  Au282  1  0.00055569  0.32759331  0.17818258  1
  Au  Au283  1  0.00434545  0.34053579  0.82597989  1
  Au  Au284  1  0.32078671  0.50050200  0.33051650  1
  Au  Au285  1  0.00152201  0.82557378  0.84151185  1
  Au  Au286  1  0.67399093  0.00055753  0.16368110  1
  Au  Au287  1  0.82974351  0.66853408  0.00349009  1
