# generated using pymatgen
data_Ca24Ti8Al207Au49
_symmetry_space_group_name_H-M   'P 1'
_cell_length_a   17.32818536
_cell_length_b   17.32872274
_cell_length_c   17.32793726
_cell_angle_alpha   89.99926036
_cell_angle_beta   90.00273170
_cell_angle_gamma   89.99842835
_symmetry_Int_Tables_number   1
_chemical_formula_structural   Ca24Ti8Al207Au49
_chemical_formula_sum   'Ca24 Ti8 Al207 Au49'
_cell_volume   5203.15188987
_cell_formula_units_Z   1
loop_
 _symmetry_equiv_pos_site_id
 _symmetry_equiv_pos_as_xyz
  1  'x, y, z'
loop_
 _atom_site_type_symbol
 _atom_site_label
 _atom_site_symmetry_multiplicity
 _atom_site_fract_x
 _atom_site_fract_y
 _atom_site_fract_z
 _atom_site_occupancy
  Ca  Ca0  1  0.25141412  -0.00018571  -0.00021349  1
  Ca  Ca1  1  0.24934371  0.00175492  0.50019926  1
  Ca  Ca2  1  0.25024220  0.50101848  -0.00299686  1
  Ca  Ca3  1  0.24901441  0.49858211  0.50240289  1
  Ca  Ca4  1  0.74987357  -0.00064245  0.00296080  1
  Ca  Ca5  1  0.74928528  -0.00170859  0.49550384  1
  Ca  Ca6  1  0.74713786  0.50243961  -0.00193557  1
  Ca  Ca7  1  0.74753114  0.50039038  0.50088065  1
  Ca  Ca8  1  0.00161399  0.25124490  -0.00016561  1
  Ca  Ca9  1  0.00463953  0.25053595  0.49686217  1
  Ca  Ca10  1  0.00193603  0.75053701  0.00235553  1
  Ca  Ca11  1  0.00302459  0.75377243  0.49748718  1
  Ca  Ca12  1  0.49799336  0.24895141  -0.00027310  1
  Ca  Ca13  1  0.49773151  0.25010758  0.50189774  1
  Ca  Ca14  1  0.49678854  0.74733287  0.00046298  1
  Ca  Ca15  1  0.49823399  0.74818783  0.49792471  1
  Ca  Ca16  1  0.00248387  -0.00117501  0.25095657  1
  Ca  Ca17  1  0.00583051  -0.00048670  0.75054394  1
  Ca  Ca18  1  0.00381787  0.50049734  0.25141472  1
  Ca  Ca19  1  0.00248348  0.50061707  0.75272312  1
  Ca  Ca20  1  0.49748759  -0.00013855  0.25001239  1
  Ca  Ca21  1  0.49662274  0.00407347  0.75113361  1
  Ca  Ca22  1  0.49950170  0.50298387  0.25001520  1
  Ca  Ca23  1  0.50177656  0.49796634  0.75025601  1
  Ti  Ti24  1  0.25034492  0.24960360  0.25055307  1
  Ti  Ti25  1  0.25107842  0.25005417  0.74950585  1
  Ti  Ti26  1  0.25051884  0.75023339  0.25141320  1
  Ti  Ti27  1  0.25048379  0.74987036  0.74869926  1
  Ti  Ti28  1  0.75002082  0.24926813  0.25116464  1
  Ti  Ti29  1  0.74812363  0.25159972  0.74869595  1
  Ti  Ti30  1  0.75054687  0.75123883  0.25032623  1
  Ti  Ti31  1  0.74970322  0.74903964  0.74970949  1
  Al  Al32  1  0.08848174  0.07620843  0.08818599  1
  Al  Al33  1  0.09108114  0.08631968  0.57864088  1
  Al  Al34  1  0.08975174  0.58010787  0.08560235  1
  Al  Al35  1  0.08627611  0.57934119  0.58164735  1
  Al  Al36  1  0.58372468  0.07877183  0.08441397  1
  Al  Al37  1  0.58300784  0.08165031  0.58195208  1
  Al  Al38  1  0.58122876  0.58260041  0.08295322  1
  Al  Al39  1  0.58793281  0.57897369  0.58864110  1
  Al  Al40  1  0.41522291  0.41849320  0.07854618  1
  Al  Al41  1  0.41268164  0.41591716  0.58214179  1
  Al  Al42  1  0.41108774  0.91890549  0.08769677  1
  Al  Al43  1  0.41405891  0.91992520  0.58244070  1
  Al  Al44  1  0.92229307  0.41694709  0.08521510  1
  Al  Al45  1  0.91582629  0.41725062  0.58313308  1
  Al  Al46  1  0.92184792  0.91282772  0.09098819  1
  Al  Al47  1  0.91879793  0.92145563  0.58039319  1
  Al  Al48  1  0.40857197  0.08824176  0.41682141  1
  Al  Al49  1  0.41118586  0.07797522  0.91380552  1
  Al  Al50  1  0.41640571  0.57938429  0.41691404  1
  Al  Al51  1  0.40557825  0.58269057  0.91602194  1
  Al  Al52  1  0.91563302  0.07724708  0.41244950  1
  Al  Al53  1  0.91719964  0.08283833  0.92003895  1
  Al  Al54  1  0.91801889  0.58324135  0.41631695  1
  Al  Al55  1  0.91404524  0.58109036  0.91893204  1
  Al  Al56  1  0.09055110  0.41194742  0.42020126  1
  Al  Al57  1  0.08807370  0.42160745  0.91246674  1
  Al  Al58  1  0.09147551  0.91716842  0.41377385  1
  Al  Al59  1  0.08879662  0.92320766  0.91520541  1
  Al  Al60  1  0.58731853  0.41180194  0.42319303  1
  Al  Al61  1  0.58705790  0.42178891  0.91099970  1
  Al  Al62  1  0.58063093  0.91652829  0.41445398  1
  Al  Al63  1  0.57994125  0.91669319  0.92001046  1
  Al  Al64  1  0.09269937  0.08211415  0.41511539  1
  Al  Al65  1  0.08657266  0.07816959  0.91296252  1
  Al  Al66  1  0.08176934  0.58417693  0.41551337  1
  Al  Al67  1  0.09467105  0.57917248  0.91626168  1
  Al  Al68  1  0.58185992  0.08377301  0.41508251  1
  Al  Al69  1  0.57938759  0.08209859  0.92038999  1
  Al  Al70  1  0.58223263  0.58146680  0.42070524  1
  Al  Al71  1  0.58754885  0.57973384  0.91442062  1
  Al  Al72  1  0.41288398  0.41659413  0.42041555  1
  Al  Al73  1  0.40953314  0.42132972  0.91365259  1
  Al  Al74  1  0.41430040  0.91786389  0.41372811  1
  Al  Al75  1  0.41130438  0.91951502  0.91367322  1
  Al  Al76  1  0.91585560  0.41953059  0.41801329  1
  Al  Al77  1  0.91847875  0.41965684  0.91711119  1
  Al  Al78  1  0.91447669  0.91889551  0.40998270  1
  Al  Al79  1  0.91719137  0.91962188  0.92172919  1
  Al  Al80  1  0.08475566  0.41993842  0.08962189  1
  Al  Al81  1  0.08996061  0.41362436  0.58123753  1
  Al  Al82  1  0.08480416  0.91521916  0.09364786  1
  Al  Al83  1  0.09017488  0.91589070  0.57758597  1
  Al  Al84  1  0.58275894  0.42149697  0.08180255  1
  Al  Al85  1  0.59275746  0.41756209  0.58515354  1
  Al  Al86  1  0.58348646  0.91904882  0.08553768  1
  Al  Al87  1  0.58281709  0.91914547  0.58227223  1
  Al  Al88  1  0.41139615  0.07806821  0.08674113  1
  Al  Al89  1  0.40747644  0.08587666  0.57958044  1
  Al  Al90  1  0.41381971  0.58977346  0.07729779  1
  Al  Al91  1  0.41756540  0.57992885  0.58482345  1
  Al  Al92  1  0.91538317  0.08066143  0.08207118  1
  Al  Al93  1  0.92046315  0.08162717  0.57960760  1
  Al  Al94  1  0.91903774  0.58285328  0.07741384  1
  Al  Al95  1  0.91486753  0.58060708  0.58039348  1
  Al  Al96  1  0.24909562  0.13127568  0.13688549  1
  Al  Al97  1  0.25175696  0.13601401  0.63180344  1
  Al  Al98  1  0.25004791  0.63535939  0.13529592  1
  Al  Al99  1  0.25063416  0.63498115  0.63079152  1
  Al  Al100  1  0.75243982  0.13490627  0.13642418  1
  Al  Al101  1  0.74753948  0.13629596  0.63444908  1
  Al  Al102  1  0.75015169  0.63743986  0.13551852  1
  Al  Al103  1  0.74742223  0.63030305  0.63615798  1
  Al  Al104  1  0.24592047  0.36548516  0.13598948  1
  Al  Al105  1  0.25023604  0.36471603  0.63498899  1
  Al  Al106  1  0.24896795  0.87146545  0.13794420  1
  Al  Al107  1  0.24938790  0.86508173  0.62835001  1
  Al  Al108  1  0.74872253  0.36278711  0.13485659  1
  Al  Al109  1  0.74616506  0.36887796  0.63185724  1
  Al  Al110  1  0.75363787  0.86581015  0.13264008  1
  Al  Al111  1  0.74960748  0.86376914  0.62953894  1
  Al  Al112  1  0.25043616  0.13000921  0.36484716  1
  Al  Al113  1  0.25124327  0.13122086  0.86285414  1
  Al  Al114  1  0.24663249  0.63744805  0.37048247  1
  Al  Al115  1  0.25194050  0.63019594  0.86414944  1
  Al  Al116  1  0.74898667  0.12974998  0.36477732  1
  Al  Al117  1  0.74780272  0.13678978  0.86344174  1
  Al  Al118  1  0.74883035  0.63710381  0.36522126  1
  Al  Al119  1  0.74674652  0.63179347  0.86480498  1
  Al  Al120  1  0.24595279  0.36319417  0.36816693  1
  Al  Al121  1  0.25069214  0.36931581  0.86212054  1
  Al  Al122  1  0.24988534  0.87122748  0.36662475  1
  Al  Al123  1  0.25010794  0.86715166  0.86717725  1
  Al  Al124  1  0.74881936  0.36339361  0.37022276  1
  Al  Al125  1  0.74354078  0.36878997  0.86305370  1
  Al  Al126  1  0.75134304  0.87000293  0.36528913  1
  Al  Al127  1  0.74999489  0.86468385  0.87014237  1
  Al  Al128  1  0.13666461  0.24843387  0.13696085  1
  Al  Al129  1  0.14110747  0.24983323  0.62843309  1
  Al  Al130  1  0.13695132  0.75534373  0.13840271  1
  Al  Al131  1  0.13780949  0.74914649  0.63040542  1
  Al  Al132  1  0.63078080  0.24999512  0.13774235  1
  Al  Al133  1  0.63097859  0.25459926  0.63256143  1
  Al  Al134  1  0.63577081  0.75438985  0.13589633  1
  Al  Al135  1  0.63523716  0.74973714  0.63748127  1
  Al  Al136  1  0.13721966  0.24715811  0.36780295  1
  Al  Al137  1  0.13881740  0.25066919  0.86525793  1
  Al  Al138  1  0.13777501  0.75520466  0.36949592  1
  Al  Al139  1  0.13765394  0.74826414  0.86396170  1
  Al  Al140  1  0.63638229  0.25175904  0.36776455  1
  Al  Al141  1  0.62824709  0.25331120  0.86172133  1
  Al  Al142  1  0.63627052  0.75366142  0.36468096  1
  Al  Al143  1  0.63366625  0.74836496  0.86310986  1
  Al  Al144  1  0.36607454  0.24809117  0.13786502  1
  Al  Al145  1  0.36811558  0.24849943  0.63510629  1
  Al  Al146  1  0.36074979  0.75295733  0.13219678  1
  Al  Al147  1  0.36336140  0.75061459  0.63123573  1
  Al  Al148  1  0.86500365  0.24901711  0.13809060  1
  Al  Al149  1  0.85940088  0.25381292  0.62678961  1
  Al  Al150  1  0.86845076  0.75385900  0.13815107  1
  Al  Al151  1  0.86286698  0.74964283  0.63446996  1
  Al  Al152  1  0.36099241  0.24640356  0.36741888  1
  Al  Al153  1  0.36749932  0.25110932  0.86344566  1
  Al  Al154  1  0.36069640  0.75265347  0.36969701  1
  Al  Al155  1  0.36264697  0.74811148  0.87010634  1
  Al  Al156  1  0.86456878  0.24877077  0.36877559  1
  Al  Al157  1  0.86287685  0.25286416  0.86298198  1
  Al  Al158  1  0.86535508  0.75688249  0.36405652  1
  Al  Al159  1  0.86478334  0.75020634  0.86490478  1
  Al  Al160  1  0.13708817  0.12989477  0.25211822  1
  Al  Al161  1  0.13935217  0.13557690  0.74986018  1
  Al  Al162  1  0.13722292  0.63172523  0.24900738  1
  Al  Al163  1  0.13759379  0.63403771  0.75267419  1
  Al  Al164  1  0.63564219  0.13496801  0.25048283  1
  Al  Al165  1  0.62998154  0.13932956  0.74977686  1
  Al  Al166  1  0.63585981  0.63729328  0.25086180  1
  Al  Al167  1  0.63641282  0.63059731  0.75101024  1
  Al  Al168  1  0.36158839  0.12840824  0.24932430  1
  Al  Al169  1  0.36799486  0.13627533  0.75122646  1
  Al  Al170  1  0.36214971  0.63641628  0.24892945  1
  Al  Al171  1  0.36345510  0.63447239  0.75473186  1
  Al  Al172  1  0.86497760  0.12919682  0.25203043  1
  Al  Al173  1  0.86346626  0.14113729  0.74860482  1
  Al  Al174  1  0.86556831  0.63778962  0.25023561  1
  Al  Al175  1  0.86516624  0.63472084  0.74899007  1
  Al  Al176  1  0.13740421  0.36947480  0.25321503  1
  Al  Al177  1  0.13816701  0.36509496  0.75082163  1
  Al  Al178  1  0.13426227  0.86673951  0.25376921  1
  Al  Al179  1  0.13903311  0.86421706  0.75122521  1
  Al  Al180  1  0.63316263  0.36389416  0.25405379  1
  Al  Al181  1  0.63182981  0.36770372  0.74633678  1
  Al  Al182  1  0.63684292  0.86653363  0.25099020  1
  Al  Al183  1  0.64023493  0.86556133  0.75225558  1
  Al  Al184  1  0.36446813  0.36458251  0.25110956  1
  Al  Al185  1  0.36875125  0.36442335  0.75102323  1
  Al  Al186  1  0.36022417  0.87125954  0.24978896  1
  Al  Al187  1  0.35724054  0.86607512  0.75198797  1
  Al  Al188  1  0.86350656  0.36335559  0.25248765  1
  Al  Al189  1  0.86179125  0.36661422  0.74749790  1
  Al  Al190  1  0.86764768  0.86951103  0.25067934  1
  Al  Al191  1  0.86395315  0.85975085  0.75129597  1
  Al  Al192  1  0.00198904  0.32315202  0.67704495  1
  Al  Al193  1  0.67283324  0.00123912  0.67981937  1
  Al  Al194  1  0.00070369  0.17322448  0.82955450  1
  Al  Al195  1  0.17404385  -0.00057189  0.68088281  1
  Al  Al196  1  0.18022901  0.82910166  0.00157355  1
  Al  Al197  1  0.00291030  0.82711653  0.67194795  1
  Al  Al198  1  0.67257439  0.67884776  0.50162315  1
  Al  Al199  1  0.49867023  0.82563632  0.67689515  1
  Al  Al200  1  0.31988050  0.49920492  0.17172040  1
  Al  Al201  1  0.32466353  0.00141138  0.68290628  1
  Al  Al202  1  0.82237259  0.49974479  0.81878261  1
  Al  Al203  1  0.67894758  0.17806935  0.50050369  1
  Al  Al204  1  0.18554342  0.67297175  0.00064385  1
  Al  Al205  1  0.68384165  0.00007442  0.18235185  1
  Al  Al206  1  0.82413984  0.68019020  0.00013020  1
  Al  Al207  1  0.49804329  0.17728817  0.31981575  1
  Al  Al208  1  0.31931596  0.32530958  -0.00083719  1
  Al  Al209  1  0.82564817  0.67910436  0.49887234  1
  Al  Al210  1  0.31496042  0.31623439  0.50099447  1
  Al  Al211  1  0.17561441  0.49977942  0.68298496  1
  Al  Al212  1  0.67993420  0.32657647  -0.00061829  1
  Al  Al213  1  0.82400378  0.00076791  0.82287162  1
  Al  Al214  1  0.82448657  -0.00040492  0.67669538  1
  Al  Al215  1  0.17302466  0.17661194  -0.00091175  1
  Al  Al216  1  0.49865754  0.68266975  0.17447309  1
  Al  Al217  1  0.00104837  0.68475073  0.32482836  1
  Al  Al218  1  0.49797553  0.32446881  0.32167297  1
  Al  Al219  1  0.49857283  0.67260254  0.32758852  1
  Al  Al220  1  0.82513314  0.17951630  -0.00052499  1
  Al  Al221  1  0.67284349  0.50043174  0.18270051  1
  Al  Al222  1  0.00267014  0.82329231  0.82850029  1
  Al  Al223  1  0.00014177  0.67123629  0.67709495  1
  Al  Al224  1  0.82534925  0.50052185  0.17419061  1
  Al  Al225  1  0.00187587  0.31857682  0.18285453  1
  Al  Al226  1  0.81829215  0.50077183  0.32713383  1
  Al  Al227  1  0.00257996  0.68038763  0.16986102  1
  Al  Al228  1  0.49756831  0.82386524  0.31847738  1
  Al  Al229  1  0.00073329  0.32750234  0.82595716  1
  Al  Al230  1  0.31643276  0.49998895  0.32755342  1
  Al  Al231  1  0.00184847  0.17745945  0.32488018  1
  Al  Al232  1  0.67193380  0.67910903  0.00045540  1
  Al  Al233  1  0.49733406  0.82378912  0.82222970  1
  Al  Al234  1  0.32848786  0.17314364  0.00036280  1
  Al  Al235  1  0.00306022  0.17661017  0.67595798  1
  Al  Al236  1  0.32679931  0.49977023  0.68454244  1
  Al  Al237  1  0.67329919  0.17203343  0.00092646  1
  Al  Al238  1  0.49983346  0.66892193  0.68016739  1
  Au  Au239  1  0.83313144  -0.00139114  0.17445869  1
  Au  Au240  1  0.67110877  0.00006650  0.33016741  1
  Au  Au241  1  0.83291302  0.00118201  0.83113918  1
  Au  Au242  1  0.00088283  0.16690858  0.32709670  1
  Au  Au243  1  0.32673205  0.00152325  0.32732588  1
  Au  Au244  1  0.49788697  0.83302657  0.17123267  1
  Au  Au245  1  0.49724567  0.83280177  0.83048960  1
  Au  Au246  1  0.17584970  0.16403788  -0.00134010  1
  Au  Au247  1  0.00343592  0.83505877  0.32726845  1
  Au  Au248  1  0.16541029  0.67424711  0.49867285  1
  Au  Au249  1  0.49717085  0.16789824  0.83418629  1
  Au  Au250  1  0.66140944  0.00185636  0.82997313  1
  Au  Au251  1  0.00278930  0.66338772  0.83886258  1
  Au  Au252  1  0.17072294  0.34091354  0.00090317  1
  Au  Au253  1  0.49808171  0.33674545  0.83216539  1
  Au  Au254  1  0.16800573  0.50049337  0.32973848  1
  Au  Au255  1  0.83702041  0.82746424  0.00351196  1
  Au  Au256  1  0.00076948  0.66794148  0.17299325  1
  Au  Au257  1  0.49841709  0.16107477  0.17045851  1
  Au  Au258  1  0.82143261  0.49757065  0.83117329  1
  Au  Au259  1  0.66544294  0.82846759  0.49870207  1
  Au  Au260  1  0.49717279  0.16582584  0.66581903  1
  Au  Au261  1  0.33321194  0.82832559  0.00107014  1
  Au  Au262  1  0.83257232  0.16697175  0.49660943  1
  Au  Au263  1  0.32409322  0.83607126  0.49874493  1
  Au  Au264  1  0.83424179  0.49670241  0.16543936  1
  Au  Au265  1  0.83597777  0.82862408  0.49854356  1
  Au  Au266  1  0.33321431  0.66726757  0.50074354  1
  Au  Au267  1  0.84038435  0.32647677  -0.00004408  1
  Au  Au268  1  0.66846032  0.49956989  0.33455116  1
  Au  Au269  1  0.66640754  0.17697018  0.50078074  1
  Au  Au270  1  0.00142205  0.83583402  0.82565145  1
  Au  Au271  1  0.49845970  0.65834405  0.83101688  1
  Au  Au272  1  0.00284991  0.16640260  0.66711299  1
  Au  Au273  1  0.49937151  0.33305809  0.16498629  1
  Au  Au274  1  0.00079435  0.33678817  0.33043725  1
  Au  Au275  1  0.66771432  0.32974622  -0.00006312  1
  Au  Au276  1  0.00107262  0.17020448  0.16141786  1
  Au  Au277  1  0.83253281  -0.00401126  0.66718395  1
  Au  Au278  1  0.16821614  0.82597429  -0.00034329  1
  Au  Au279  1  0.50181836  0.33424781  0.66467145  1
  Au  Au280  1  0.66691889  0.82859610  0.00147990  1
  Au  Au281  1  0.49867192  0.83390642  0.66660687  1
  Au  Au282  1  0.00011640  0.67382687  0.66439553  1
  Au  Au283  1  0.33099198  0.50461700  0.16813476  1
  Au  Au284  1  0.49788527  0.32856772  0.33365447  1
  Au  Au285  1  0.00211598  0.33319394  0.66828558  1
  Au  Au286  1  0.82373368  0.33561423  0.49897564  1
  Au  Au287  1  0.82094655  0.50073972  0.66591248  1
