# generated using pymatgen
data_Ca24Ti8Al207Au49
_symmetry_space_group_name_H-M   'P 1'
_cell_length_a   17.32441950
_cell_length_b   17.32258242
_cell_length_c   17.32334613
_cell_angle_alpha   89.99640720
_cell_angle_beta   90.00110375
_cell_angle_gamma   89.99783612
_symmetry_Int_Tables_number   1
_chemical_formula_structural   Ca24Ti8Al207Au49
_chemical_formula_sum   'Ca24 Ti8 Al207 Au49'
_cell_volume   5198.79998890
_cell_formula_units_Z   1
loop_
 _symmetry_equiv_pos_site_id
 _symmetry_equiv_pos_as_xyz
  1  'x, y, z'
loop_
 _atom_site_type_symbol
 _atom_site_label
 _atom_site_symmetry_multiplicity
 _atom_site_fract_x
 _atom_site_fract_y
 _atom_site_fract_z
 _atom_site_occupancy
  Ca  Ca0  1  0.24986693  -0.00065489  0.00213764  1
  Ca  Ca1  1  0.24736903  -0.00141234  0.49659143  1
  Ca  Ca2  1  0.25190129  0.49975503  0.00387495  1
  Ca  Ca3  1  0.24849754  0.50116060  0.49972068  1
  Ca  Ca4  1  0.75184914  -0.00002879  -0.00198341  1
  Ca  Ca5  1  0.75364344  -0.00135277  0.49819207  1
  Ca  Ca6  1  0.74533917  0.50284061  0.00154685  1
  Ca  Ca7  1  0.74845008  0.50051683  0.49920782  1
  Ca  Ca8  1  -0.00006828  0.24584695  0.00188791  1
  Ca  Ca9  1  0.00422367  0.24284085  0.50059186  1
  Ca  Ca10  1  0.00109685  0.75298470  0.00324926  1
  Ca  Ca11  1  0.00120013  0.75313642  0.49879695  1
  Ca  Ca12  1  0.49979042  0.24561033  -0.00048245  1
  Ca  Ca13  1  0.49699405  0.24743789  0.49808414  1
  Ca  Ca14  1  0.50101259  0.74926420  0.00420843  1
  Ca  Ca15  1  0.49832401  0.75118875  0.49489668  1
  Ca  Ca16  1  0.00314298  -0.00340439  0.24516434  1
  Ca  Ca17  1  0.00029557  0.00123975  0.75311731  1
  Ca  Ca18  1  -0.00137184  0.50280351  0.24711219  1
  Ca  Ca19  1  -0.00154719  0.49934646  0.74920532  1
  Ca  Ca20  1  0.49693467  0.00009136  0.24662473  1
  Ca  Ca21  1  0.49911977  0.00123990  0.75659455  1
  Ca  Ca22  1  0.50085979  0.50146436  0.24635147  1
  Ca  Ca23  1  0.50145075  0.50314618  0.75685474  1
  Ti  Ti24  1  0.24878500  0.24947361  0.24962124  1
  Ti  Ti25  1  0.25101724  0.24941060  0.74964956  1
  Ti  Ti26  1  0.24910894  0.75110014  0.24797343  1
  Ti  Ti27  1  0.24891610  0.75138732  0.75266226  1
  Ti  Ti28  1  0.75101083  0.25059021  0.24743229  1
  Ti  Ti29  1  0.75014931  0.24890599  0.75202408  1
  Ti  Ti30  1  0.75075436  0.75021872  0.24964726  1
  Ti  Ti31  1  0.75032873  0.75065239  0.75144317  1
  Al  Al32  1  0.09299957  0.08050334  0.08281818  1
  Al  Al33  1  0.07665814  0.08415383  0.59187342  1
  Al  Al34  1  0.08576728  0.58152107  0.09036200  1
  Al  Al35  1  0.07490902  0.58069463  0.57394863  1
  Al  Al36  1  0.58360874  0.08695420  0.07664487  1
  Al  Al37  1  0.57909158  0.08032391  0.58058798  1
  Al  Al38  1  0.58638377  0.59607923  0.08269034  1
  Al  Al39  1  0.58003928  0.58342323  0.58281569  1
  Al  Al40  1  0.41744534  0.41774099  0.08319961  1
  Al  Al41  1  0.42327000  0.40987462  0.58719725  1
  Al  Al42  1  0.41405762  0.91693158  0.09552422  1
  Al  Al43  1  0.41910430  0.91962556  0.57348760  1
  Al  Al44  1  0.91667060  0.41580575  0.08143714  1
  Al  Al45  1  0.92410173  0.41400428  0.58895121  1
  Al  Al46  1  0.92269501  0.90844872  0.07998478  1
  Al  Al47  1  0.90906858  0.92323582  0.59034566  1
  Al  Al48  1  0.41319346  0.07772519  0.40588101  1
  Al  Al49  1  0.41269778  0.08931577  0.91845344  1
  Al  Al50  1  0.41828867  0.58525974  0.41590744  1
  Al  Al51  1  0.42408028  0.59228889  0.91691130  1
  Al  Al52  1  0.92464960  0.07972458  0.42154933  1
  Al  Al53  1  0.91351341  0.08915228  0.91823286  1
  Al  Al54  1  0.91811486  0.58757349  0.41466948  1
  Al  Al55  1  0.91201918  0.59237978  0.92503108  1
  Al  Al56  1  0.08165262  0.41933567  0.41447605  1
  Al  Al57  1  0.07785154  0.41737978  0.92456103  1
  Al  Al58  1  0.08578840  0.91683009  0.41346762  1
  Al  Al59  1  0.08219448  0.91968575  0.91067933  1
  Al  Al60  1  0.58506475  0.42626964  0.41063999  1
  Al  Al61  1  0.58524467  0.41472196  0.92038455  1
  Al  Al62  1  0.58018046  0.90916267  0.41644829  1
  Al  Al63  1  0.57979021  0.91252084  0.92484132  1
  Al  Al64  1  0.08408822  0.07926001  0.41323348  1
  Al  Al65  1  0.09071214  0.08262137  0.91584543  1
  Al  Al66  1  0.07865336  0.58361661  0.41169832  1
  Al  Al67  1  0.07749792  0.58242796  0.92563065  1
  Al  Al68  1  0.57470921  0.08102078  0.41869883  1
  Al  Al69  1  0.57755737  0.09620784  0.91670890  1
  Al  Al70  1  0.58662659  0.58256906  0.40756327  1
  Al  Al71  1  0.58627121  0.59592147  0.91708956  1
  Al  Al72  1  0.42097699  0.42270581  0.42225372  1
  Al  Al73  1  0.42143038  0.41723221  0.92070366  1
  Al  Al74  1  0.41350559  0.91905300  0.40611589  1
  Al  Al75  1  0.41933479  0.91979888  0.91807980  1
  Al  Al76  1  0.92175270  0.42200789  0.41409372  1
  Al  Al77  1  0.91628101  0.41368262  0.92274078  1
  Al  Al78  1  0.91881535  0.91433477  0.41757969  1
  Al  Al79  1  0.91998744  0.90721459  0.91667237  1
  Al  Al80  1  0.08864829  0.42120209  0.08951837  1
  Al  Al81  1  0.07835017  0.40817628  0.58546639  1
  Al  Al82  1  0.08427522  0.91862525  0.09048908  1
  Al  Al83  1  0.08338372  0.92128629  0.58009070  1
  Al  Al84  1  0.58265864  0.41432588  0.07995454  1
  Al  Al85  1  0.57643739  0.41441453  0.59117097  1
  Al  Al86  1  0.57766612  0.90813038  0.08754893  1
  Al  Al87  1  0.59016839  0.91090663  0.57295967  1
  Al  Al88  1  0.40521013  0.08077841  0.08293693  1
  Al  Al89  1  0.42021149  0.08394057  0.58100684  1
  Al  Al90  1  0.42228455  0.59034169  0.08509872  1
  Al  Al91  1  0.42186841  0.58739433  0.57845240  1
  Al  Al92  1  0.91520311  0.08734292  0.07789360  1
  Al  Al93  1  0.91585051  0.08477746  0.59494971  1
  Al  Al94  1  0.91259148  0.59239888  0.08218436  1
  Al  Al95  1  0.91839624  0.58340531  0.57463549  1
  Al  Al96  1  0.25019051  0.12797699  0.13600715  1
  Al  Al97  1  0.25066294  0.13753334  0.63478735  1
  Al  Al98  1  0.24887513  0.63422221  0.13596703  1
  Al  Al99  1  0.24939447  0.63494602  0.63686482  1
  Al  Al100  1  0.75117105  0.13504823  0.12822711  1
  Al  Al101  1  0.75128851  0.13511854  0.63852001  1
  Al  Al102  1  0.74948535  0.63739245  0.12911756  1
  Al  Al103  1  0.74678228  0.63003748  0.63609508  1
  Al  Al104  1  0.24876776  0.36898490  0.13554123  1
  Al  Al105  1  0.24714588  0.36295125  0.62994145  1
  Al  Al106  1  0.24803041  0.86709669  0.13100752  1
  Al  Al107  1  0.24960662  0.86345653  0.63766995  1
  Al  Al108  1  0.75232070  0.36560303  0.13225403  1
  Al  Al109  1  0.75038789  0.37041955  0.63954084  1
  Al  Al110  1  0.75028923  0.86244783  0.13395106  1
  Al  Al111  1  0.75216147  0.86431426  0.63245229  1
  Al  Al112  1  0.25059563  0.12745685  0.36256138  1
  Al  Al113  1  0.25006091  0.13576865  0.86482823  1
  Al  Al114  1  0.24903417  0.63643100  0.36134606  1
  Al  Al115  1  0.24752396  0.63820841  0.86692574  1
  Al  Al116  1  0.75050123  0.13514032  0.36264569  1
  Al  Al117  1  0.75189714  0.13385247  0.86759013  1
  Al  Al118  1  0.74785092  0.63082986  0.36226816  1
  Al  Al119  1  0.74992513  0.63793029  0.87090641  1
  Al  Al120  1  0.24831055  0.36690939  0.36794646  1
  Al  Al121  1  0.25494634  0.36191571  0.86417598  1
  Al  Al122  1  0.25248175  0.87424330  0.35676267  1
  Al  Al123  1  0.24692310  0.86487158  0.87326676  1
  Al  Al124  1  0.74983642  0.37290172  0.36089773  1
  Al  Al125  1  0.74866882  0.36240370  0.86534236  1
  Al  Al126  1  0.74921555  0.86513934  0.36773843  1
  Al  Al127  1  0.75187766  0.86570976  0.86810437  1
  Al  Al128  1  0.13157465  0.24741177  0.13893854  1
  Al  Al129  1  0.13557793  0.24648586  0.63128419  1
  Al  Al130  1  0.13208551  0.75325636  0.13322129  1
  Al  Al131  1  0.13480820  0.75418174  0.63711974  1
  Al  Al132  1  0.63591116  0.24580235  0.13386925  1
  Al  Al133  1  0.63619978  0.25048437  0.63743311  1
  Al  Al134  1  0.63496278  0.74828916  0.13149116  1
  Al  Al135  1  0.63937321  0.75197226  0.63481715  1
  Al  Al136  1  0.13774953  0.24843534  0.36641497  1
  Al  Al137  1  0.13567542  0.25108219  0.86631070  1
  Al  Al138  1  0.13598399  0.75531810  0.35973035  1
  Al  Al139  1  0.13424819  0.75400857  0.87261713  1
  Al  Al140  1  0.63732816  0.25025153  0.36040688  1
  Al  Al141  1  0.63241564  0.24563483  0.86681523  1
  Al  Al142  1  0.63461574  0.75270291  0.36375360  1
  Al  Al143  1  0.63697788  0.74699876  0.87381928  1
  Al  Al144  1  0.36077946  0.24267427  0.13142601  1
  Al  Al145  1  0.36654544  0.25074722  0.63309278  1
  Al  Al146  1  0.36799276  0.75456053  0.13640760  1
  Al  Al147  1  0.36315975  0.75078626  0.63656320  1
  Al  Al148  1  0.86930100  0.24942261  0.13167750  1
  Al  Al149  1  0.86447045  0.24533847  0.63835710  1
  Al  Al150  1  0.86989576  0.74752736  0.13698975  1
  Al  Al151  1  0.86446805  0.75553559  0.63646342  1
  Al  Al152  1  0.36171479  0.24856720  0.36182085  1
  Al  Al153  1  0.36980693  0.24335223  0.86948938  1
  Al  Al154  1  0.36323524  0.75305611  0.35896087  1
  Al  Al155  1  0.36512998  0.75049798  0.86850534  1
  Al  Al156  1  0.86345134  0.25090529  0.35999618  1
  Al  Al157  1  0.86310821  0.24806625  0.87152879  1
  Al  Al158  1  0.86397562  0.75458707  0.36331945  1
  Al  Al159  1  0.86477550  0.75105813  0.86485897  1
  Al  Al160  1  0.13890617  0.12582939  0.24694389  1
  Al  Al161  1  0.13418948  0.13704978  0.75137261  1
  Al  Al162  1  0.13471965  0.63302508  0.24599449  1
  Al  Al163  1  0.13580123  0.63709260  0.75081347  1
  Al  Al164  1  0.63698963  0.13255726  0.24744927  1
  Al  Al165  1  0.63228329  0.13554365  0.75423629  1
  Al  Al166  1  0.63533485  0.63741270  0.24704968  1
  Al  Al167  1  0.63640031  0.63866084  0.75416941  1
  Al  Al168  1  0.36191248  0.12907761  0.24580181  1
  Al  Al169  1  0.36955358  0.13779356  0.75532346  1
  Al  Al170  1  0.36627714  0.63428035  0.24305838  1
  Al  Al171  1  0.36428776  0.63843698  0.75403509  1
  Al  Al172  1  0.86400295  0.13208217  0.24370467  1
  Al  Al173  1  0.86568297  0.12986024  0.75238249  1
  Al  Al174  1  0.86204101  0.63039244  0.24797549  1
  Al  Al175  1  0.86256056  0.63661189  0.74891509  1
  Al  Al176  1  0.13675211  0.36934768  0.24813187  1
  Al  Al177  1  0.13764126  0.36424763  0.74739026  1
  Al  Al178  1  0.13473880  0.87093528  0.24647405  1
  Al  Al179  1  0.13270507  0.86578214  0.75747028  1
  Al  Al180  1  0.63603865  0.36676981  0.24846750  1
  Al  Al181  1  0.63342354  0.36351308  0.74898849  1
  Al  Al182  1  0.63487247  0.86387232  0.24581784  1
  Al  Al183  1  0.63950486  0.86428882  0.75489261  1
  Al  Al184  1  0.36313481  0.36615086  0.24759162  1
  Al  Al185  1  0.36700279  0.36205702  0.74840561  1
  Al  Al186  1  0.36337940  0.87035875  0.24384671  1
  Al  Al187  1  0.36124931  0.86351164  0.75856655  1
  Al  Al188  1  0.86423995  0.36994737  0.24755625  1
  Al  Al189  1  0.86457642  0.36355695  0.74993334  1
  Al  Al190  1  0.86945692  0.86526477  0.24823823  1
  Al  Al191  1  0.86461349  0.86886781  0.75156542  1
  Al  Al192  1  0.32045200  0.49737122  0.32081116  1
  Al  Al193  1  0.67559198  0.00126108  0.17250642  1
  Al  Al194  1  -0.00099406  0.67499289  0.67277111  1
  Al  Al195  1  0.32274520  0.68051637  0.00193556  1
  Al  Al196  1  0.49975542  0.67496117  0.31458914  1
  Al  Al197  1  0.32739322  0.50035401  0.67029368  1
  Al  Al198  1  0.68296592  -0.00151335  0.67113830  1
  Al  Al199  1  0.50028140  0.67566261  0.68759945  1
  Al  Al200  1  0.49942507  0.31730191  0.17448891  1
  Al  Al201  1  0.67124721  0.50093319  0.82438002  1
  Al  Al202  1  0.31466517  0.00031937  0.83097421  1
  Al  Al203  1  0.32042245  0.32054459  -0.00039579  1
  Al  Al204  1  0.17270900  0.00039708  0.68710817  1
  Al  Al205  1  0.32921823  0.50166341  0.82964257  1
  Al  Al206  1  0.49949801  0.32915135  0.32675500  1
  Al  Al207  1  0.82729659  0.16959924  0.50061861  1
  Al  Al208  1  0.67558986  0.00282734  0.83270930  1
  Al  Al209  1  -0.00190283  0.17837022  0.81934836  1
  Al  Al210  1  0.83097551  0.32557403  0.49944509  1
  Al  Al211  1  0.19023676  0.17940530  0.00139017  1
  Al  Al212  1  0.00126095  0.17256602  0.31914182  1
  Al  Al213  1  0.50172415  0.81281629  0.82820285  1
  Al  Al214  1  0.50034522  0.18548425  0.68317258  1
  Al  Al215  1  0.82898796  0.50186306  0.82534853  1
  Al  Al216  1  0.49977321  0.83391003  0.67873186  1
  Al  Al217  1  0.32353073  0.68175639  0.49870549  1
  Al  Al218  1  0.17024025  0.67328802  0.49845898  1
  Al  Al219  1  0.50068382  0.31615412  0.81779280  1
  Al  Al220  1  0.17034851  0.49916443  0.82516002  1
  Al  Al221  1  0.67393536  0.17238663  0.49951307  1
  Al  Al222  1  -0.00103770  0.68322507  0.31580047  1
  Al  Al223  1  0.82039466  0.81231527  0.00151949  1
  Al  Al224  1  0.67339025  0.50032059  0.17702311  1
  Al  Al225  1  0.82385355  0.00319871  0.32234039  1
  Al  Al226  1  0.00065998  0.68858364  0.82904650  1
  Al  Al227  1  0.00097564  0.32465106  0.32143673  1
  Al  Al228  1  0.33033685  0.00017453  0.68161098  1
  Al  Al229  1  0.32225978  0.17400426  0.49330527  1
  Al  Al230  1  0.18196750  0.82540474  0.49816040  1
  Al  Al231  1  0.82654170  0.68468100  0.49940628  1
  Al  Al232  1  0.67991028  0.31350379  -0.00011449  1
  Al  Al233  1  0.66883963  0.32881180  0.49905243  1
  Al  Al234  1  0.67384125  0.68075533  0.49825877  1
  Al  Al235  1  0.49888449  0.17545588  0.31521097  1
  Al  Al236  1  -0.00020441  0.83071247  0.68372178  1
  Al  Al237  1  0.00079350  0.30575013  0.68338910  1
  Al  Al238  1  0.49842984  0.82650600  0.31165416  1
  Au  Au239  1  0.00347335  0.16807079  0.82402406  1
  Au  Au240  1  0.32249084  -0.00121554  0.66642931  1
  Au  Au241  1  0.16545099  0.16253707  0.50283183  1
  Au  Au242  1  0.65883436  0.49972482  0.67543609  1
  Au  Au243  1  0.66725129  -0.00195186  0.33845356  1
  Au  Au244  1  0.00091685  0.67471159  0.16772587  1
  Au  Au245  1  0.67097536  0.82165008  0.00234625  1
  Au  Au246  1  0.82690343  0.83381965  0.50205575  1
  Au  Au247  1  0.83224433  -0.00448064  0.15764884  1
  Au  Au248  1  0.82521443  0.50264717  0.33737553  1
  Au  Au249  1  0.33876228  0.83043314  0.00325003  1
  Au  Au250  1  0.00301205  0.16120983  0.16994081  1
  Au  Au251  1  0.65227285  0.32533292  0.49798528  1
  Au  Au252  1  0.84714194  0.32121841  0.49893509  1
  Au  Au253  1  0.16346720  0.83633025  0.00054371  1
  Au  Au254  1  0.17623210  0.49873685  0.84124729  1
  Au  Au255  1  0.66680225  -0.00074918  0.16387212  1
  Au  Au256  1  0.32923808  0.50000621  0.32925418  1
  Au  Au257  1  0.00034098  0.83544683  0.67173223  1
  Au  Au258  1  0.17477405  -0.00056876  0.32486410  1
  Au  Au259  1  0.67936843  -0.00118385  0.65458611  1
  Au  Au260  1  0.66497689  0.66943174  0.49793325  1
  Au  Au261  1  0.16661157  0.33336550  0.49712885  1
  Au  Au262  1  0.16370777  0.50214678  0.32112205  1
  Au  Au263  1  0.82289936  0.50253448  0.84124530  1
  Au  Au264  1  0.32987394  0.83081008  0.49270341  1
  Au  Au265  1  0.83259133  0.50251235  0.66091460  1
  Au  Au266  1  0.49533302  0.16812358  0.16452068  1
  Au  Au267  1  0.50501965  0.82457546  0.66535156  1
  Au  Au268  1  0.32823951  0.50360319  0.16384970  1
  Au  Au269  1  0.66464716  0.50258909  0.16826617  1
  Au  Au270  1  0.50307755  0.17258885  0.67180908  1
  Au  Au271  1  0.82866588  0.50240847  0.16397690  1
  Au  Au272  1  0.17424020  0.66388196  0.00476183  1
  Au  Au273  1  0.34357745  0.50115863  0.67528464  1
  Au  Au274  1  0.33133178  0.16570038  0.49575876  1
  Au  Au275  1  0.82788419  0.32051045  0.00141144  1
  Au  Au276  1  0.83976611  -0.00325979  0.83022956  1
  Au  Au277  1  0.50095196  0.33144854  0.82559069  1
  Au  Au278  1  0.33757007  0.32881178  0.49969224  1
  Au  Au279  1  0.16156680  0.32428687  0.00459775  1
  Au  Au280  1  0.00078257  0.33737726  0.17431802  1
  Au  Au281  1  0.33318410  0.31974267  -0.00195868  1
  Au  Au282  1  -0.00080117  0.67154463  0.83077460  1
  Au  Au283  1  0.15866478  0.50237178  0.66340140  1
  Au  Au284  1  0.00268642  0.83042825  0.32582220  1
  Au  Au285  1  -0.00106373  0.33423104  0.82714309  1
  Au  Au286  1  0.83280489  0.00102896  0.33089732  1
  Au  Au287  1  0.65882381  0.00288677  0.83579158  1
