# generated using pymatgen
data_Ca24Ti8Al207Au49
_symmetry_space_group_name_H-M   'P 1'
_cell_length_a   17.32151052
_cell_length_b   17.32166843
_cell_length_c   17.32293985
_cell_angle_alpha   89.99950752
_cell_angle_beta   89.99922151
_cell_angle_gamma   90.00606113
_symmetry_Int_Tables_number   1
_chemical_formula_structural   Ca24Ti8Al207Au49
_chemical_formula_sum   'Ca24 Ti8 Al207 Au49'
_cell_volume   5197.53087889
_cell_formula_units_Z   1
loop_
 _symmetry_equiv_pos_site_id
 _symmetry_equiv_pos_as_xyz
  1  'x, y, z'
loop_
 _atom_site_type_symbol
 _atom_site_label
 _atom_site_symmetry_multiplicity
 _atom_site_fract_x
 _atom_site_fract_y
 _atom_site_fract_z
 _atom_site_occupancy
  Ca  Ca0  1  0.25273962  0.00180743  -0.00192964  1
  Ca  Ca1  1  0.24602218  0.00607199  0.50148570  1
  Ca  Ca2  1  0.25209362  0.49817937  -0.00199411  1
  Ca  Ca3  1  0.25282639  0.49715155  0.50378768  1
  Ca  Ca4  1  0.74960326  -0.00262521  0.00297840  1
  Ca  Ca5  1  0.75204211  0.00071409  0.49791171  1
  Ca  Ca6  1  0.74881699  0.50094522  -0.00469091  1
  Ca  Ca7  1  0.74900717  0.50018903  0.50517430  1
  Ca  Ca8  1  0.00244809  0.25188471  -0.00193907  1
  Ca  Ca9  1  0.00126997  0.25128928  0.50294012  1
  Ca  Ca10  1  -0.00136565  0.74943590  -0.00309927  1
  Ca  Ca11  1  0.00348507  0.75143053  0.50238246  1
  Ca  Ca12  1  0.49869003  0.25078438  -0.00272791  1
  Ca  Ca13  1  0.49955718  0.25436635  0.50246859  1
  Ca  Ca14  1  0.49933873  0.74669350  0.00132471  1
  Ca  Ca15  1  0.49439712  0.74301753  0.49967120  1
  Ca  Ca16  1  -0.00195505  0.00453737  0.24118939  1
  Ca  Ca17  1  -0.00041505  -0.00099288  0.74309147  1
  Ca  Ca18  1  -0.00205767  0.49379563  0.24749606  1
  Ca  Ca19  1  0.00055059  0.50388319  0.74688090  1
  Ca  Ca20  1  0.50148154  0.00006391  0.24591084  1
  Ca  Ca21  1  0.50216573  0.00582301  0.74988074  1
  Ca  Ca22  1  0.49941939  0.49866014  0.24884720  1
  Ca  Ca23  1  0.49830025  0.49640401  0.74912765  1
  Ti  Ti24  1  0.25179396  0.25222115  0.24721553  1
  Ti  Ti25  1  0.25138125  0.25265372  0.75171599  1
  Ti  Ti26  1  0.25256879  0.74716396  0.24885660  1
  Ti  Ti27  1  0.25084312  0.74700536  0.75004934  1
  Ti  Ti28  1  0.74931585  0.25031784  0.24950638  1
  Ti  Ti29  1  0.74782375  0.25056864  0.75039962  1
  Ti  Ti30  1  0.74849573  0.74929206  0.24950160  1
  Ti  Ti31  1  0.74977091  0.74946961  0.75026884  1
  Al  Al32  1  0.08455925  0.09459795  0.07796592  1
  Al  Al33  1  0.08577279  0.10092370  0.58447195  1
  Al  Al34  1  0.08247433  0.58279944  0.07278215  1
  Al  Al35  1  0.08669145  0.58663926  0.58707958  1
  Al  Al36  1  0.58598842  0.07871703  0.08658983  1
  Al  Al37  1  0.57616686  0.08186772  0.58945792  1
  Al  Al38  1  0.58176428  0.58694279  0.09299279  1
  Al  Al39  1  0.59137365  0.57206622  0.58324229  1
  Al  Al40  1  0.41510872  0.41346731  0.07570291  1
  Al  Al41  1  0.41645336  0.41253989  0.59117511  1
  Al  Al42  1  0.41731643  0.91955681  0.07826839  1
  Al  Al43  1  0.41056004  0.91251593  0.57891248  1
  Al  Al44  1  0.92326484  0.41155717  0.08815087  1
  Al  Al45  1  0.91271676  0.40769996  0.58721440  1
  Al  Al46  1  0.89978932  0.91390057  0.08529412  1
  Al  Al47  1  0.92128332  0.90952743  0.58545588  1
  Al  Al48  1  0.41312813  0.09467566  0.42452568  1
  Al  Al49  1  0.42208863  0.09853250  0.91501981  1
  Al  Al50  1  0.40362025  0.58450735  0.41534165  1
  Al  Al51  1  0.40706437  0.58294002  0.92361175  1
  Al  Al52  1  0.91797277  0.08032083  0.42014873  1
  Al  Al53  1  0.92203949  0.08171441  0.92012240  1
  Al  Al54  1  0.92504030  0.57208456  0.42874966  1
  Al  Al55  1  0.91029613  0.58140570  0.91548761  1
  Al  Al56  1  0.08124336  0.41610292  0.41839233  1
  Al  Al57  1  0.09428403  0.42003253  0.91389279  1
  Al  Al58  1  0.08281138  0.92459299  0.42826603  1
  Al  Al59  1  0.07111080  0.91218689  0.91736924  1
  Al  Al60  1  0.57994426  0.41976444  0.42106802  1
  Al  Al61  1  0.58303711  0.41846619  0.90370558  1
  Al  Al62  1  0.58520987  0.91909323  0.41981306  1
  Al  Al63  1  0.59008364  0.91714018  0.92868380  1
  Al  Al64  1  0.08727662  0.08964821  0.42543180  1
  Al  Al65  1  0.08440700  0.09630670  0.92161064  1
  Al  Al66  1  0.09015282  0.58004286  0.42417076  1
  Al  Al67  1  0.09445836  0.57989958  0.91302269  1
  Al  Al68  1  0.57752352  0.07960848  0.41459693  1
  Al  Al69  1  0.57850748  0.08600428  0.91911293  1
  Al  Al70  1  0.58057893  0.58209656  0.42096582  1
  Al  Al71  1  0.58836638  0.57452351  0.91858498  1
  Al  Al72  1  0.41059423  0.42320199  0.42062284  1
  Al  Al73  1  0.41055508  0.40966129  0.91441409  1
  Al  Al74  1  0.40914205  0.91070382  0.42683422  1
  Al  Al75  1  0.42126324  0.91618695  0.92313091  1
  Al  Al76  1  0.91817224  0.40522942  0.42672948  1
  Al  Al77  1  0.91675046  0.42381831  0.91437215  1
  Al  Al78  1  0.91303828  0.92353040  0.42319874  1
  Al  Al79  1  0.91130640  0.90588486  0.92271825  1
  Al  Al80  1  0.08150720  0.40657202  0.08274751  1
  Al  Al81  1  0.08192798  0.41422922  0.58808156  1
  Al  Al82  1  0.07420923  0.92032769  0.07425379  1
  Al  Al83  1  0.08087161  0.90872621  0.58686645  1
  Al  Al84  1  0.58548490  0.42566429  0.08956450  1
  Al  Al85  1  0.58125739  0.41153875  0.59779758  1
  Al  Al86  1  0.60196285  0.91678436  0.08613106  1
  Al  Al87  1  0.58472956  0.92222584  0.58081537  1
  Al  Al88  1  0.42097589  0.08534941  0.07824698  1
  Al  Al89  1  0.41182866  0.09782578  0.58220034  1
  Al  Al90  1  0.41892439  0.59450829  0.08540095  1
  Al  Al91  1  0.40539607  0.57391157  0.57749957  1
  Al  Al92  1  0.91145800  0.07785849  0.09156306  1
  Al  Al93  1  0.92366141  0.09194188  0.58800649  1
  Al  Al94  1  0.92115284  0.58232328  0.07383783  1
  Al  Al95  1  0.92056397  0.58037717  0.59011084  1
  Al  Al96  1  0.24964963  0.14020193  0.12566113  1
  Al  Al97  1  0.25358659  0.13728304  0.63482917  1
  Al  Al98  1  0.25549972  0.63237605  0.13247229  1
  Al  Al99  1  0.25185824  0.62639374  0.63738475  1
  Al  Al100  1  0.75149221  0.13214639  0.13660052  1
  Al  Al101  1  0.74734268  0.14117353  0.63374917  1
  Al  Al102  1  0.74326296  0.63298497  0.13675678  1
  Al  Al103  1  0.74836431  0.62840657  0.63838692  1
  Al  Al104  1  0.25153696  0.36618469  0.12638848  1
  Al  Al105  1  0.25177037  0.37050650  0.63783247  1
  Al  Al106  1  0.25277793  0.86046202  0.12693797  1
  Al  Al107  1  0.25333380  0.87001648  0.63677530  1
  Al  Al108  1  0.74820441  0.36648084  0.13564551  1
  Al  Al109  1  0.74754680  0.36973072  0.63982393  1
  Al  Al110  1  0.75013656  0.86339731  0.12890068  1
  Al  Al111  1  0.75025910  0.86473175  0.63656797  1
  Al  Al112  1  0.25267980  0.13967658  0.36796550  1
  Al  Al113  1  0.25171053  0.13787547  0.86926633  1
  Al  Al114  1  0.25518057  0.62735255  0.36472847  1
  Al  Al115  1  0.25018100  0.62703370  0.86255401  1
  Al  Al116  1  0.74803710  0.13791211  0.36620982  1
  Al  Al117  1  0.75204974  0.13739396  0.86344435  1
  Al  Al118  1  0.74611346  0.63143439  0.36245104  1
  Al  Al119  1  0.74732959  0.63472595  0.86358064  1
  Al  Al120  1  0.25138749  0.36779942  0.36418850  1
  Al  Al121  1  0.25201215  0.36754974  0.86785326  1
  Al  Al122  1  0.25529619  0.86250620  0.36577654  1
  Al  Al123  1  0.24952378  0.86365887  0.87015190  1
  Al  Al124  1  0.74696578  0.36321527  0.36500104  1
  Al  Al125  1  0.74561905  0.36532294  0.86157686  1
  Al  Al126  1  0.74630773  0.86421312  0.36296462  1
  Al  Al127  1  0.75174294  0.86379808  0.87065912  1
  Al  Al128  1  0.13443928  0.25268205  0.12906519  1
  Al  Al129  1  0.13820495  0.24797729  0.63690299  1
  Al  Al130  1  0.13622164  0.74952238  0.13510748  1
  Al  Al131  1  0.14170555  0.74922343  0.63607491  1
  Al  Al132  1  0.63526993  0.25193123  0.13657927  1
  Al  Al133  1  0.62681568  0.25329262  0.63696323  1
  Al  Al134  1  0.63531962  0.74925760  0.13659871  1
  Al  Al135  1  0.63531869  0.74887706  0.63792673  1
  Al  Al136  1  0.13787241  0.24800604  0.36462050  1
  Al  Al137  1  0.13586157  0.25246785  0.86871877  1
  Al  Al138  1  0.14138881  0.74758813  0.36790106  1
  Al  Al139  1  0.13699128  0.74880013  0.86157476  1
  Al  Al140  1  0.62850732  0.25198949  0.36429913  1
  Al  Al141  1  0.62572704  0.25150258  0.86221459  1
  Al  Al142  1  0.63202239  0.74927120  0.36129989  1
  Al  Al143  1  0.63447780  0.75352205  0.86397490  1
  Al  Al144  1  0.36478855  0.25303728  0.12754342  1
  Al  Al145  1  0.37004074  0.25341784  0.63949333  1
  Al  Al146  1  0.36720333  0.74508257  0.12870448  1
  Al  Al147  1  0.36093168  0.74708003  0.63101227  1
  Al  Al148  1  0.86472648  0.24985158  0.12981925  1
  Al  Al149  1  0.86187216  0.25437554  0.63321553  1
  Al  Al150  1  0.86224069  0.75280294  0.13350676  1
  Al  Al151  1  0.86365916  0.74962607  0.63555521  1
  Al  Al152  1  0.36855489  0.25100679  0.36474338  1
  Al  Al153  1  0.36697274  0.25277632  0.86749725  1
  Al  Al154  1  0.36357559  0.74464243  0.36937585  1
  Al  Al155  1  0.36227589  0.74531860  0.86989146  1
  Al  Al156  1  0.86417122  0.25329807  0.36589981  1
  Al  Al157  1  0.86476229  0.25074008  0.86778533  1
  Al  Al158  1  0.86242501  0.74995526  0.36303669  1
  Al  Al159  1  0.86367722  0.75139267  0.86334214  1
  Al  Al160  1  0.13816581  0.13963471  0.24536367  1
  Al  Al161  1  0.13770559  0.13494527  0.74738799  1
  Al  Al162  1  0.14037724  0.63468526  0.25233948  1
  Al  Al163  1  0.13805550  0.62717019  0.74973627  1
  Al  Al164  1  0.63510677  0.13545168  0.24714589  1
  Al  Al165  1  0.62845439  0.13868311  0.75031462  1
  Al  Al166  1  0.62989966  0.63365429  0.24990562  1
  Al  Al167  1  0.63272396  0.63096200  0.75249481  1
  Al  Al168  1  0.36174962  0.13951088  0.24789747  1
  Al  Al169  1  0.36932150  0.13940934  0.74983091  1
  Al  Al170  1  0.36921627  0.63493091  0.24951722  1
  Al  Al171  1  0.36381035  0.62644889  0.75121415  1
  Al  Al172  1  0.86700977  0.13919023  0.24749466  1
  Al  Al173  1  0.86513549  0.13442618  0.74575813  1
  Al  Al174  1  0.86223906  0.63671459  0.24575132  1
  Al  Al175  1  0.86508002  0.63450875  0.74814991  1
  Al  Al176  1  0.13700246  0.36348126  0.24726312  1
  Al  Al177  1  0.13916872  0.36943874  0.75126769  1
  Al  Al178  1  0.14130760  0.86086846  0.25114741  1
  Al  Al179  1  0.13760801  0.86604056  0.74605553  1
  Al  Al180  1  0.63216090  0.36806851  0.25060948  1
  Al  Al181  1  0.62901530  0.36617491  0.74914258  1
  Al  Al182  1  0.63786424  0.86854144  0.24165949  1
  Al  Al183  1  0.63377148  0.86598679  0.74988420  1
  Al  Al184  1  0.36810456  0.36547142  0.25060173  1
  Al  Al185  1  0.36781129  0.36906221  0.75274027  1
  Al  Al186  1  0.36390140  0.85901293  0.24541699  1
  Al  Al187  1  0.36549849  0.86063689  0.75312498  1
  Al  Al188  1  0.86515292  0.36502039  0.24524443  1
  Al  Al189  1  0.86535627  0.36492786  0.74964122  1
  Al  Al190  1  0.85961799  0.86634281  0.24547305  1
  Al  Al191  1  0.86435177  0.86765307  0.74713884  1
  Al  Al192  1  0.49860045  0.67234059  0.83187787  1
  Al  Al193  1  0.67645437  0.00095717  0.31444372  1
  Al  Al194  1  0.67696850  0.17464719  0.00001226  1
  Al  Al195  1  0.17304149  -0.00188699  0.17496827  1
  Al  Al196  1  0.82505899  0.18219622  0.50041254  1
  Al  Al197  1  0.18486786  0.82743574  0.50090451  1
  Al  Al198  1  0.82043436  0.50210992  0.17157361  1
  Al  Al199  1  0.68302097  0.32332685  0.50344498  1
  Al  Al200  1  0.32940583  0.50246403  0.17736731  1
  Al  Al201  1  0.00113711  0.66901779  0.82888539  1
  Al  Al202  1  0.32737821  0.31612096  0.50252836  1
  Al  Al203  1  0.82580046  0.68544848  -0.00059004  1
  Al  Al204  1  0.00116162  0.31040628  0.68112704  1
  Al  Al205  1  -0.00121252  0.82776511  0.17221242  1
  Al  Al206  1  0.00259275  0.69007822  0.67717919  1
  Al  Al207  1  0.49716558  0.67035364  0.66802001  1
  Al  Al208  1  0.82759555  0.00248138  0.31467551  1
  Al  Al209  1  0.81273682  0.50018648  0.81731688  1
  Al  Al210  1  0.32930501  -0.00054949  0.32526784  1
  Al  Al211  1  -0.00003822  0.66869007  0.32921098  1
  Al  Al212  1  0.33194029  0.00207007  0.82133996  1
  Al  Al213  1  0.18840746  0.67811632  -0.00189000  1
  Al  Al214  1  0.00199036  0.17170762  0.31916047  1
  Al  Al215  1  0.16902953  0.50000303  0.17877972  1
  Al  Al216  1  0.17360573  0.31644616  0.50086249  1
  Al  Al217  1  0.00025967  0.83444709  0.32906420  1
  Al  Al218  1  0.49943956  0.17874742  0.17795236  1
  Al  Al219  1  0.66980128  0.00232247  0.82899362  1
  Al  Al220  1  0.67071815  0.68581243  -0.00058421  1
  Al  Al221  1  0.82009252  0.82293674  0.49877153  1
  Al  Al222  1  0.68235083  0.00299523  0.67672870  1
  Al  Al223  1  0.67567021  0.67891739  0.50049468  1
  Al  Al224  1  0.49668726  0.82218751  0.32595588  1
  Al  Al225  1  0.17168207  0.00241431  0.32781611  1
  Al  Al226  1  0.00030580  0.32713405  0.31783378  1
  Al  Al227  1  0.49895712  0.82936116  0.67840843  1
  Al  Al228  1  0.82576732  -0.00177012  0.82394027  1
  Al  Al229  1  0.67938821  0.33046882  -0.00123018  1
  Al  Al230  1  0.16891191  -0.00021104  0.82643722  1
  Al  Al231  1  0.00008294  0.67402441  0.17139051  1
  Al  Al232  1  0.50032702  0.81811905  0.16996843  1
  Al  Al233  1  -0.00045159  0.82082102  0.81002530  1
  Al  Al234  1  0.18940170  0.67430041  0.50170464  1
  Al  Al235  1  0.00088615  0.18241713  0.81031722  1
  Al  Al236  1  0.32752758  0.00154608  0.17234745  1
  Al  Al237  1  0.82925213  0.66969700  0.50048375  1
  Al  Al238  1  0.82583296  0.49680344  0.33125379  1
  Au  Au239  1  0.17661134  0.32912993  0.50131125  1
  Au  Au240  1  0.34549329  0.00352374  0.83024703  1
  Au  Au241  1  0.83720430  0.17582592  0.50045443  1
  Au  Au242  1  0.49723729  0.32726700  0.82565125  1
  Au  Au243  1  0.49886383  0.17579497  0.67409636  1
  Au  Au244  1  0.49633727  0.65580448  0.65770744  1
  Au  Au245  1  0.17310406  0.32691136  -0.00241700  1
  Au  Au246  1  0.17875329  0.49732494  0.33899086  1
  Au  Au247  1  0.32912138  0.17531596  -0.00022922  1
  Au  Au248  1  0.49814936  0.16921277  0.32778533  1
  Au  Au249  1  -0.00066910  0.17897983  0.16342464  1
  Au  Au250  1  0.16148499  0.00356897  0.66159851  1
  Au  Au251  1  0.82937433  -0.00362272  0.83582713  1
  Au  Au252  1  0.82563704  0.50293079  0.15527457  1
  Au  Au253  1  0.50054970  0.32740100  0.16105709  1
  Au  Au254  1  -0.00072581  0.17218909  0.82372661  1
  Au  Au255  1  0.17053688  0.49887918  0.67353509  1
  Au  Au256  1  0.50169581  0.66022041  0.83348802  1
  Au  Au257  1  0.84285395  0.32826713  -0.00274899  1
  Au  Au258  1  0.50643612  0.83132277  0.84179254  1
  Au  Au259  1  0.82613307  0.15923579  0.00307521  1
  Au  Au260  1  0.67122714  0.82780770  0.50254798  1
  Au  Au261  1  0.32651088  0.49826286  0.83114090  1
  Au  Au262  1  0.00042716  0.17497313  0.33124687  1
  Au  Au263  1  0.33825940  0.49993898  0.16889761  1
  Au  Au264  1  0.16967597  0.00018035  0.15861060  1
  Au  Au265  1  0.16326041  0.50028000  0.16770922  1
  Au  Au266  1  0.67251214  0.00061877  0.32663860  1
  Au  Au267  1  0.32719170  0.00406054  0.34091391  1
  Au  Au268  1  0.32871631  0.00413833  0.65707344  1
  Au  Au269  1  0.67403850  0.66923364  0.00210707  1
  Au  Au270  1  0.66312187  0.16260321  0.50158402  1
  Au  Au271  1  0.49471369  0.33768913  0.33362098  1
  Au  Au272  1  0.00353566  0.34705426  0.82390417  1
  Au  Au273  1  0.16274843  -0.00008921  0.84148196  1
  Au  Au274  1  0.49585013  0.82737527  0.34242887  1
  Au  Au275  1  0.33042013  0.82223128  -0.00060995  1
  Au  Au276  1  0.82728614  0.49112938  0.34733459  1
  Au  Au277  1  0.66040879  0.50179755  0.32308689  1
  Au  Au278  1  0.50289936  0.82965652  0.15747487  1
  Au  Au279  1  0.83199467  0.00086501  0.65998838  1
  Au  Au280  1  0.49666752  0.65742498  0.32654555  1
  Au  Au281  1  0.49736421  0.83342111  0.66678126  1
  Au  Au282  1  0.66362696  0.33449426  -0.00128818  1
  Au  Au283  1  0.00026799  0.65291499  0.32333609  1
  Au  Au284  1  0.00127315  0.85070138  0.32516422  1
  Au  Au285  1  0.16060647  0.82290845  -0.00110961  1
  Au  Au286  1  0.67430314  0.33772310  0.50437007  1
  Au  Au287  1  0.82493171  0.49802396  0.66940637  1
