# generated using pymatgen
data_Ca24Ti8Al207Au49
_symmetry_space_group_name_H-M   'P 1'
_cell_length_a   17.32303977
_cell_length_b   17.32362503
_cell_length_c   17.32283250
_cell_angle_alpha   89.99977934
_cell_angle_beta   89.99899550
_cell_angle_gamma   89.99942546
_symmetry_Int_Tables_number   1
_chemical_formula_structural   Ca24Ti8Al207Au49
_chemical_formula_sum   'Ca24 Ti8 Al207 Au49'
_cell_volume   5198.54470590
_cell_formula_units_Z   1
loop_
 _symmetry_equiv_pos_site_id
 _symmetry_equiv_pos_as_xyz
  1  'x, y, z'
loop_
 _atom_site_type_symbol
 _atom_site_label
 _atom_site_symmetry_multiplicity
 _atom_site_fract_x
 _atom_site_fract_y
 _atom_site_fract_z
 _atom_site_occupancy
  Ca  Ca0  1  0.25016573  -0.00000224  -0.00021426  1
  Ca  Ca1  1  0.24876770  -0.00133661  0.50061196  1
  Ca  Ca2  1  0.25058624  0.49921781  -0.00123613  1
  Ca  Ca3  1  0.24763045  0.50273611  0.50264951  1
  Ca  Ca4  1  0.75562914  -0.00210134  -0.00317472  1
  Ca  Ca5  1  0.75292927  -0.00356938  0.49939800  1
  Ca  Ca6  1  0.75085613  0.50228940  -0.00600813  1
  Ca  Ca7  1  0.74879699  0.50311605  0.50547372  1
  Ca  Ca8  1  0.00309742  0.24847660  -0.00227896  1
  Ca  Ca9  1  0.00324341  0.24255881  0.50234058  1
  Ca  Ca10  1  -0.00381027  0.75277739  -0.00335016  1
  Ca  Ca11  1  0.00171299  0.75243232  0.50212034  1
  Ca  Ca12  1  0.49770994  0.24816772  -0.00296968  1
  Ca  Ca13  1  0.49791060  0.24712514  0.50166187  1
  Ca  Ca14  1  0.50221041  0.75171919  0.00269290  1
  Ca  Ca15  1  0.49741459  0.75252064  0.49947163  1
  Ca  Ca16  1  0.00274029  -0.00530074  0.25283877  1
  Ca  Ca17  1  -0.00178503  -0.00425608  0.75117842  1
  Ca  Ca18  1  0.00103599  0.50737424  0.25270372  1
  Ca  Ca19  1  -0.00055714  0.50676789  0.74860965  1
  Ca  Ca20  1  0.49716746  -0.00185117  0.24919119  1
  Ca  Ca21  1  0.50159706  0.00226447  0.74896587  1
  Ca  Ca22  1  0.50023573  0.50020998  0.24841784  1
  Ca  Ca23  1  0.50399013  0.49896015  0.75056337  1
  Ti  Ti24  1  0.24998457  0.24974339  0.25076980  1
  Ti  Ti25  1  0.25107344  0.24985121  0.74913032  1
  Ti  Ti26  1  0.24898350  0.74995608  0.24949394  1
  Ti  Ti27  1  0.24936836  0.74956150  0.75104199  1
  Ti  Ti28  1  0.75000040  0.24884317  0.24952903  1
  Ti  Ti29  1  0.74987589  0.24962920  0.75158116  1
  Ti  Ti30  1  0.75132654  0.75113002  0.25013091  1
  Ti  Ti31  1  0.75040284  0.75081034  0.75059391  1
  Al  Al32  1  0.09075832  0.08690230  0.07260768  1
  Al  Al33  1  0.09582169  0.07669743  0.58608774  1
  Al  Al34  1  0.07760772  0.59317659  0.08696766  1
  Al  Al35  1  0.08505679  0.59565613  0.58521093  1
  Al  Al36  1  0.57273637  0.07831685  0.07686325  1
  Al  Al37  1  0.57454593  0.08316814  0.59323573  1
  Al  Al38  1  0.58061247  0.59502191  0.08424280  1
  Al  Al39  1  0.59126301  0.57765544  0.58676551  1
  Al  Al40  1  0.40932418  0.41211801  0.07453837  1
  Al  Al41  1  0.41633973  0.42121345  0.59187821  1
  Al  Al42  1  0.41601697  0.91312862  0.08911651  1
  Al  Al43  1  0.41313963  0.92212268  0.57825979  1
  Al  Al44  1  0.91980446  0.42269604  0.06993938  1
  Al  Al45  1  0.91970136  0.42762261  0.58684905  1
  Al  Al46  1  0.91567139  0.90855371  0.07927706  1
  Al  Al47  1  0.91675899  0.90579480  0.58045407  1
  Al  Al48  1  0.40739747  0.07714391  0.41331446  1
  Al  Al49  1  0.41718857  0.08710879  0.92311986  1
  Al  Al50  1  0.41665247  0.58551885  0.42118153  1
  Al  Al51  1  0.41935022  0.58171982  0.91878963  1
  Al  Al52  1  0.92127633  0.07281398  0.42299287  1
  Al  Al53  1  0.91578734  0.07748906  0.91023350  1
  Al  Al54  1  0.91905160  0.60245696  0.42047012  1
  Al  Al55  1  0.91294257  0.58823620  0.90662533  1
  Al  Al56  1  0.08211349  0.42327736  0.42319795  1
  Al  Al57  1  0.08858496  0.40976382  0.91898551  1
  Al  Al58  1  0.08929049  0.90989555  0.42034364  1
  Al  Al59  1  0.07763747  0.90546641  0.91669427  1
  Al  Al60  1  0.58317366  0.42455760  0.42204562  1
  Al  Al61  1  0.59144757  0.42287674  0.91175281  1
  Al  Al62  1  0.58060830  0.91262809  0.41980141  1
  Al  Al63  1  0.58276711  0.90946542  0.91244244  1
  Al  Al64  1  0.09377115  0.07738793  0.42582115  1
  Al  Al65  1  0.08274710  0.09063636  0.91733281  1
  Al  Al66  1  0.08231738  0.60295706  0.42129898  1
  Al  Al67  1  0.07545071  0.59038532  0.91398022  1
  Al  Al68  1  0.57355923  0.07537649  0.42058494  1
  Al  Al69  1  0.58142784  0.07795778  0.91566135  1
  Al  Al70  1  0.58281338  0.58384010  0.42012198  1
  Al  Al71  1  0.59214885  0.58227677  0.91086428  1
  Al  Al72  1  0.42098730  0.42172202  0.42269650  1
  Al  Al73  1  0.40928341  0.41337634  0.91860329  1
  Al  Al74  1  0.40671975  0.91731966  0.41215030  1
  Al  Al75  1  0.42340059  0.90912798  0.91729395  1
  Al  Al76  1  0.92413042  0.42547379  0.42552702  1
  Al  Al77  1  0.90959537  0.42425504  0.90972804  1
  Al  Al78  1  0.91490298  0.90500773  0.41850426  1
  Al  Al79  1  0.91316594  0.91137849  0.91303680  1
  Al  Al80  1  0.09382622  0.40972709  0.07332221  1
  Al  Al81  1  0.08294639  0.42227748  0.58457106  1
  Al  Al82  1  0.08106767  0.90626017  0.07847951  1
  Al  Al83  1  0.09102097  0.91193462  0.58623415  1
  Al  Al84  1  0.58093709  0.42347740  0.07317348  1
  Al  Al85  1  0.58357457  0.41939035  0.59118872  1
  Al  Al86  1  0.57635653  0.90762814  0.08355502  1
  Al  Al87  1  0.58509840  0.92132630  0.58034762  1
  Al  Al88  1  0.40995286  0.08245128  0.08281880  1
  Al  Al89  1  0.41521673  0.08547166  0.58949584  1
  Al  Al90  1  0.42302428  0.59130684  0.08356471  1
  Al  Al91  1  0.40617460  0.57883518  0.58479870  1
  Al  Al92  1  0.91778005  0.07315511  0.07326470  1
  Al  Al93  1  0.92518007  0.07539560  0.57999797  1
  Al  Al94  1  0.92060291  0.59385036  0.08302746  1
  Al  Al95  1  0.91686482  0.59552711  0.58641347  1
  Al  Al96  1  0.24771295  0.13635755  0.13402929  1
  Al  Al97  1  0.25029441  0.13499052  0.63056676  1
  Al  Al98  1  0.24856090  0.63711320  0.13359049  1
  Al  Al99  1  0.24744345  0.63768950  0.63505566  1
  Al  Al100  1  0.75186024  0.13492970  0.13613306  1
  Al  Al101  1  0.75037709  0.13583315  0.63979432  1
  Al  Al102  1  0.75188934  0.63707680  0.13617113  1
  Al  Al103  1  0.75116157  0.63611701  0.63403225  1
  Al  Al104  1  0.24969223  0.36533396  0.13075978  1
  Al  Al105  1  0.25332973  0.36523324  0.63360603  1
  Al  Al106  1  0.25016331  0.86035313  0.13124667  1
  Al  Al107  1  0.24371468  0.86414851  0.63515913  1
  Al  Al108  1  0.74974619  0.36831822  0.13587826  1
  Al  Al109  1  0.74684215  0.36829253  0.63922220  1
  Al  Al110  1  0.75273994  0.86232176  0.13483135  1
  Al  Al111  1  0.75475932  0.86128086  0.63380276  1
  Al  Al112  1  0.25150864  0.13674427  0.37135392  1
  Al  Al113  1  0.24446523  0.13525102  0.86670430  1
  Al  Al114  1  0.24645103  0.63753682  0.36378964  1
  Al  Al115  1  0.25021806  0.63873703  0.86671022  1
  Al  Al116  1  0.75022920  0.13032509  0.36377385  1
  Al  Al117  1  0.74992722  0.12692894  0.86196642  1
  Al  Al118  1  0.75390968  0.64260159  0.36559217  1
  Al  Al119  1  0.75376046  0.63417079  0.86228771  1
  Al  Al120  1  0.24866713  0.36711321  0.36634311  1
  Al  Al121  1  0.25164699  0.36512431  0.86914103  1
  Al  Al122  1  0.24843132  0.86146288  0.36470068  1
  Al  Al123  1  0.24508966  0.86207782  0.87279108  1
  Al  Al124  1  0.74992706  0.36341273  0.36296175  1
  Al  Al125  1  0.75042780  0.37045376  0.86215345  1
  Al  Al126  1  0.75211987  0.86364363  0.36804700  1
  Al  Al127  1  0.75336490  0.86928178  0.86511894  1
  Al  Al128  1  0.13595057  0.25043131  0.13173092  1
  Al  Al129  1  0.13421527  0.24535848  0.63294178  1
  Al  Al130  1  0.13351000  0.74927465  0.13173669  1
  Al  Al131  1  0.13460024  0.74842281  0.62892723  1
  Al  Al132  1  0.63702243  0.24850394  0.13593065  1
  Al  Al133  1  0.63460457  0.24935259  0.63986606  1
  Al  Al134  1  0.63373486  0.75172510  0.13445083  1
  Al  Al135  1  0.63437422  0.74864832  0.63468181  1
  Al  Al136  1  0.13547472  0.24578180  0.36788174  1
  Al  Al137  1  0.13826510  0.25199492  0.86767387  1
  Al  Al138  1  0.13144498  0.74985979  0.36851575  1
  Al  Al139  1  0.13268991  0.75112503  0.86736012  1
  Al  Al140  1  0.63020504  0.25059940  0.36215385  1
  Al  Al141  1  0.63781355  0.24900028  0.86351465  1
  Al  Al142  1  0.63286305  0.75086775  0.36847874  1
  Al  Al143  1  0.63437388  0.74899495  0.86361361  1
  Al  Al144  1  0.36127907  0.25149844  0.13432931  1
  Al  Al145  1  0.36329204  0.24690461  0.63086304  1
  Al  Al146  1  0.37095661  0.75243543  0.13622438  1
  Al  Al147  1  0.36424020  0.75034682  0.63484375  1
  Al  Al148  1  0.86535069  0.25142099  0.13433413  1
  Al  Al149  1  0.86714514  0.25073260  0.64077154  1
  Al  Al150  1  0.86461769  0.74999768  0.12848064  1
  Al  Al151  1  0.86755471  0.74806446  0.63537541  1
  Al  Al152  1  0.36668979  0.25002498  0.36911829  1
  Al  Al153  1  0.36464414  0.25067777  0.86476582  1
  Al  Al154  1  0.36644293  0.74987808  0.36571916  1
  Al  Al155  1  0.37234925  0.74974813  0.86374316  1
  Al  Al156  1  0.86615249  0.24896703  0.36370687  1
  Al  Al157  1  0.86302728  0.25266516  0.86361307  1
  Al  Al158  1  0.87176368  0.74979046  0.36614002  1
  Al  Al159  1  0.86286986  0.75292154  0.87056330  1
  Al  Al160  1  0.13476449  0.13791155  0.25241577  1
  Al  Al161  1  0.13860914  0.13331217  0.74596302  1
  Al  Al162  1  0.12991509  0.63849178  0.25048367  1
  Al  Al163  1  0.13220670  0.63900496  0.74718990  1
  Al  Al164  1  0.63438652  0.13353294  0.25416880  1
  Al  Al165  1  0.63059788  0.13500531  0.75235307  1
  Al  Al166  1  0.63447319  0.63891093  0.24548914  1
  Al  Al167  1  0.63642823  0.63216473  0.75215295  1
  Al  Al168  1  0.36020928  0.13617702  0.25392203  1
  Al  Al169  1  0.36674918  0.13814865  0.74861719  1
  Al  Al170  1  0.36453933  0.63556239  0.24718195  1
  Al  Al171  1  0.36402884  0.63088689  0.74871218  1
  Al  Al172  1  0.86715241  0.13440992  0.25255065  1
  Al  Al173  1  0.86530158  0.13220326  0.75339640  1
  Al  Al174  1  0.87226697  0.64058957  0.24738795  1
  Al  Al175  1  0.86595332  0.63700845  0.74965988  1
  Al  Al176  1  0.13552131  0.36255921  0.24861805  1
  Al  Al177  1  0.13813326  0.36241241  0.74891828  1
  Al  Al178  1  0.13370012  0.86080263  0.25248090  1
  Al  Al179  1  0.13420286  0.86267599  0.75019721  1
  Al  Al180  1  0.63530505  0.36516599  0.24977138  1
  Al  Al181  1  0.63674576  0.37039101  0.75098489  1
  Al  Al182  1  0.63184361  0.86250640  0.25060017  1
  Al  Al183  1  0.63643614  0.86418128  0.75511046  1
  Al  Al184  1  0.36192624  0.36571497  0.25158138  1
  Al  Al185  1  0.36214745  0.36928118  0.75015430  1
  Al  Al186  1  0.36506220  0.86210731  0.25120057  1
  Al  Al187  1  0.36028188  0.86180764  0.75134115  1
  Al  Al188  1  0.86679127  0.36367867  0.24668126  1
  Al  Al189  1  0.86525338  0.37047137  0.75280981  1
  Al  Al190  1  0.86607388  0.86224223  0.25430582  1
  Al  Al191  1  0.86894447  0.86362540  0.75692098  1
  Al  Al192  1  0.16883321  -0.00205096  0.81998482  1
  Al  Al193  1  0.83160708  -0.00279926  0.68143878  1
  Al  Al194  1  0.81477853  0.50295075  0.68550549  1
  Al  Al195  1  0.31436794  0.67551311  0.50001021  1
  Al  Al196  1  -0.00197928  0.69310509  0.81017238  1
  Al  Al197  1  0.17997899  0.50320216  0.82610936  1
  Al  Al198  1  0.82370610  0.33019262  0.50204354  1
  Al  Al199  1  0.50049018  0.67951867  0.31516142  1
  Al  Al200  1  0.49872134  0.66884023  0.67950408  1
  Al  Al201  1  0.31380685  0.82699850  0.50123978  1
  Al  Al202  1  -0.00072149  0.17312326  0.17375064  1
  Al  Al203  1  0.00069422  0.32208905  0.32407762  1
  Al  Al204  1  0.67470999  -0.00065284  0.68268968  1
  Al  Al205  1  0.00097806  0.18047628  0.81885401  1
  Al  Al206  1  0.68265780  0.67487260  -0.00121190  1
  Al  Al207  1  0.67163474  0.17101217  0.00016237  1
  Al  Al208  1  0.82679299  0.17148938  0.50164490  1
  Al  Al209  1  0.82586925  0.17794055  -0.00236636  1
  Al  Al210  1  0.32196996  0.49848201  0.32402481  1
  Al  Al211  1  -0.00124915  0.81230111  0.18003239  1
  Al  Al212  1  0.67479483  0.50269362  0.31973111  1
  Al  Al213  1  0.31511785  0.18397701  -0.00021930  1
  Al  Al214  1  0.83029956  0.50566879  0.33017113  1
  Al  Al215  1  0.68149212  0.82659724  -0.00096827  1
  Al  Al216  1  0.66832804  0.17511478  0.50041599  1
  Al  Al217  1  0.32522621  -0.00109799  0.18727406  1
  Al  Al218  1  0.17906308  0.31738482  0.50100564  1
  Al  Al219  1  0.49839100  0.31679159  0.67384736  1
  Al  Al220  1  0.50182542  0.32099873  0.82603855  1
  Al  Al221  1  0.17655661  0.50048915  0.17690253  1
  Al  Al222  1  0.67241470  0.32791586  0.50192920  1
  Al  Al223  1  0.50002260  0.32836581  0.17337495  1
  Al  Al224  1  0.18783855  -0.00043664  0.32690625  1
  Al  Al225  1  0.67876539  0.68171535  0.50081803  1
  Al  Al226  1  0.00074199  0.81083715  0.68678988  1
  Al  Al227  1  0.32781213  -0.00091927  0.82876485  1
  Al  Al228  1  0.67157579  -0.00086327  0.17553063  1
  Al  Al229  1  0.68020681  0.32537839  -0.00125480  1
  Al  Al230  1  0.31358266  -0.00068256  0.67411645  1
  Al  Al231  1  0.49775975  0.17120853  0.17837391  1
  Al  Al232  1  0.18149687  0.50221715  0.67205464  1
  Al  Al233  1  0.31881058  0.67962134  0.00080183  1
  Al  Al234  1  0.82766219  -0.00225438  0.17868175  1
  Al  Al235  1  0.82388991  0.50196656  0.16907126  1
  Al  Al236  1  0.17024251  -0.00134494  0.17680290  1
  Al  Al237  1  0.49986368  0.83080195  0.68576929  1
  Al  Al238  1  -0.00052387  0.32388660  0.67975983  1
  Au  Au239  1  0.49533703  0.15900919  0.32708279  1
  Au  Au240  1  0.50047630  0.32314040  0.15788631  1
  Au  Au241  1  0.00015889  0.33887366  0.32846322  1
  Au  Au242  1  0.83979187  0.32431397  0.50393993  1
  Au  Au243  1  0.17281341  -0.00625922  0.16155550  1
  Au  Au244  1  0.00207969  0.82131539  0.67370275  1
  Au  Au245  1  0.83802639  -0.00270599  0.32962850  1
  Au  Au246  1  0.34188432  0.50132084  0.16884454  1
  Au  Au247  1  0.66959941  0.15966528  0.50624603  1
  Au  Au248  1  0.16405599  0.49955960  0.82614747  1
  Au  Au249  1  0.33022109  0.67496876  0.00093290  1
  Au  Au250  1  0.49900538  0.66323907  0.66828754  1
  Au  Au251  1  0.50052607  0.66463923  0.32331230  1
  Au  Au252  1  -0.00051090  0.16229384  0.16130730  1
  Au  Au253  1  0.49932838  0.16313580  0.82433495  1
  Au  Au254  1  0.15534557  -0.00318307  0.82909839  1
  Au  Au255  1  0.00114026  0.33327836  0.67143710  1
  Au  Au256  1  0.50350724  0.67558856  0.83932456  1
  Au  Au257  1  0.82661941  0.50592615  0.67344006  1
  Au  Au258  1  0.00519018  0.15948415  0.66974635  1
  Au  Au259  1  0.65925299  0.50373607  0.16926692  1
  Au  Au260  1  0.32630696  0.16219666  0.50081670  1
  Au  Au261  1  0.82570668  -0.00275705  0.66531592  1
  Au  Au262  1  0.00091480  0.33647858  0.15758499  1
  Au  Au263  1  0.49674394  0.83943382  0.32237132  1
  Au  Au264  1  0.15882552  0.67911347  -0.00098140  1
  Au  Au265  1  0.34369493  -0.00216425  0.82355101  1
  Au  Au266  1  0.33091491  0.50072791  0.33262191  1
  Au  Au267  1  0.66953518  -0.00305993  0.33675036  1
  Au  Au268  1  0.16603938  0.51036852  0.34238528  1
  Au  Au269  1  0.82865684  0.32960153  -0.00378431  1
  Au  Au270  1  0.68007677  0.83454072  0.50270752  1
  Au  Au271  1  0.00538662  0.16096680  0.34261328  1
  Au  Au272  1  0.49825108  0.84191501  0.67311029  1
  Au  Au273  1  0.50300033  0.33154196  0.33910782  1
  Au  Au274  1  0.16396297  0.32535283  0.50157200  1
  Au  Au275  1  -0.00127845  0.32903426  0.83676219  1
  Au  Au276  1  0.83176350  0.67491508  -0.00269304  1
  Au  Au277  1  0.00312383  0.82319436  0.33001203  1
  Au  Au278  1  0.33859775  0.50058097  0.82287692  1
  Au  Au279  1  0.66888515  -0.00124600  0.15951588  1
  Au  Au280  1  0.82533691  0.50838019  0.34674627  1
  Au  Au281  1  0.32819118  0.83398426  0.00079391  1
  Au  Au282  1  0.67172642  -0.00288578  0.83271119  1
  Au  Au283  1  0.83635657  0.50131281  0.17083957  1
  Au  Au284  1  0.33762066  0.33220350  0.50369181  1
  Au  Au285  1  0.50185891  0.33651616  0.82928719  1
  Au  Au286  1  0.16457043  0.50101213  0.16569262  1
  Au  Au287  1  0.67585122  0.66930777  0.50143462  1
