# generated using pymatgen
data_Ca24Ti8Al207Au49
_symmetry_space_group_name_H-M   'P 1'
_cell_length_a   17.31825311
_cell_length_b   17.31898692
_cell_length_c   17.31885259
_cell_angle_alpha   89.99990185
_cell_angle_beta   89.99737884
_cell_angle_gamma   89.99877452
_symmetry_Int_Tables_number   1
_chemical_formula_structural   Ca24Ti8Al207Au49
_chemical_formula_sum   'Ca24 Ti8 Al207 Au49'
_cell_volume   5194.52310374
_cell_formula_units_Z   1
loop_
 _symmetry_equiv_pos_site_id
 _symmetry_equiv_pos_as_xyz
  1  'x, y, z'
loop_
 _atom_site_type_symbol
 _atom_site_label
 _atom_site_symmetry_multiplicity
 _atom_site_fract_x
 _atom_site_fract_y
 _atom_site_fract_z
 _atom_site_occupancy
  Ca  Ca0  1  0.25112051  -0.00269217  0.00121666  1
  Ca  Ca1  1  0.25036300  -0.00050528  0.49954729  1
  Ca  Ca2  1  0.25088958  0.50016764  0.00141693  1
  Ca  Ca3  1  0.25327897  0.49810879  0.49923074  1
  Ca  Ca4  1  0.74808401  -0.00167166  0.00198542  1
  Ca  Ca5  1  0.75168406  0.00169392  0.49981053  1
  Ca  Ca6  1  0.75087370  0.50199257  -0.00004345  1
  Ca  Ca7  1  0.74714426  0.49909398  0.50081959  1
  Ca  Ca8  1  0.00081149  0.24758488  0.00066998  1
  Ca  Ca9  1  -0.00077426  0.25080984  0.49881274  1
  Ca  Ca10  1  0.00194228  0.75048066  -0.00637209  1
  Ca  Ca11  1  0.00308423  0.74828388  0.50128246  1
  Ca  Ca12  1  0.49806858  0.24993546  0.00050753  1
  Ca  Ca13  1  0.49961137  0.25685627  0.49861973  1
  Ca  Ca14  1  0.49390684  0.75091898  0.00152901  1
  Ca  Ca15  1  0.49648382  0.74320049  0.49974145  1
  Ca  Ca16  1  0.00163810  0.00205337  0.24382791  1
  Ca  Ca17  1  0.00044156  -0.00244412  0.75922751  1
  Ca  Ca18  1  0.00961854  0.49345118  0.24897636  1
  Ca  Ca19  1  0.00103404  0.50065350  0.75550917  1
  Ca  Ca20  1  0.49968786  -0.00053012  0.24312119  1
  Ca  Ca21  1  0.49852355  -0.00365089  0.75770810  1
  Ca  Ca22  1  0.48986708  0.49787410  0.25198674  1
  Ca  Ca23  1  0.49864381  0.50509607  0.75035304  1
  Ti  Ti24  1  0.25089272  0.24992203  0.24903752  1
  Ti  Ti25  1  0.24918519  0.25087390  0.75199710  1
  Ti  Ti26  1  0.25033609  0.74976972  0.24933515  1
  Ti  Ti27  1  0.24946060  0.75079090  0.75106318  1
  Ti  Ti28  1  0.74899705  0.24938626  0.24851775  1
  Ti  Ti29  1  0.75087093  0.25107275  0.75109016  1
  Ti  Ti30  1  0.74967822  0.75166529  0.24631078  1
  Ti  Ti31  1  0.74935289  0.74856065  0.75286973  1
  Al  Al32  1  0.08432901  0.09153693  0.08199459  1
  Al  Al33  1  0.08201525  0.07858597  0.57536271  1
  Al  Al34  1  0.08621356  0.59057421  0.08864417  1
  Al  Al35  1  0.09182794  0.57937174  0.59148391  1
  Al  Al36  1  0.57444976  0.08482136  0.07935237  1
  Al  Al37  1  0.58669619  0.08133618  0.57558741  1
  Al  Al38  1  0.57032092  0.59155343  0.08167360  1
  Al  Al39  1  0.57985360  0.58710211  0.59402326  1
  Al  Al40  1  0.40977291  0.42706967  0.09316520  1
  Al  Al41  1  0.41018546  0.41615918  0.57369362  1
  Al  Al42  1  0.40793110  0.90666077  0.09035024  1
  Al  Al43  1  0.42105915  0.90788989  0.58150558  1
  Al  Al44  1  0.91700295  0.40538384  0.07664072  1
  Al  Al45  1  0.91184215  0.42186198  0.57641471  1
  Al  Al46  1  0.92117926  0.91873540  0.07833136  1
  Al  Al47  1  0.92151178  0.91422556  0.57622695  1
  Al  Al48  1  0.41795815  0.09205102  0.41591505  1
  Al  Al49  1  0.41596960  0.08419408  0.92288233  1
  Al  Al50  1  0.40297685  0.57748679  0.41766093  1
  Al  Al51  1  0.41410815  0.59050123  0.92480004  1
  Al  Al52  1  0.91416566  0.08502783  0.40112943  1
  Al  Al53  1  0.91457336  0.08761695  0.93002942  1
  Al  Al54  1  0.92124612  0.57799754  0.42146098  1
  Al  Al55  1  0.92302753  0.58741600  0.91082536  1
  Al  Al56  1  0.09760138  0.41276341  0.42193384  1
  Al  Al57  1  0.09104385  0.42293039  0.91871316  1
  Al  Al58  1  0.08425274  0.91124407  0.42636579  1
  Al  Al59  1  0.09465453  0.91043994  0.91058192  1
  Al  Al60  1  0.57154079  0.41224443  0.41214575  1
  Al  Al61  1  0.58306340  0.41244672  0.90988685  1
  Al  Al62  1  0.58037044  0.91794944  0.41808654  1
  Al  Al63  1  0.58611701  0.91598066  0.92525350  1
  Al  Al64  1  0.07404991  0.09102128  0.41540846  1
  Al  Al65  1  0.09608167  0.07511988  0.92096607  1
  Al  Al66  1  0.08662876  0.57589083  0.41990681  1
  Al  Al67  1  0.08621043  0.58818385  0.90927270  1
  Al  Al68  1  0.58266643  0.08837663  0.41767133  1
  Al  Al69  1  0.58019846  0.08106326  0.91799278  1
  Al  Al70  1  0.57082935  0.57342337  0.42605262  1
  Al  Al71  1  0.58262954  0.58212217  0.91570216  1
  Al  Al72  1  0.40750360  0.41269178  0.40842107  1
  Al  Al73  1  0.42331999  0.41534530  0.91327855  1
  Al  Al74  1  0.41831666  0.91110623  0.41783247  1
  Al  Al75  1  0.40760032  0.90989106  0.92892271  1
  Al  Al76  1  0.91710096  0.41653032  0.42050500  1
  Al  Al77  1  0.90949624  0.41402155  0.91963631  1
  Al  Al78  1  0.90833487  0.92474659  0.41580164  1
  Al  Al79  1  0.92934044  0.90861869  0.91475306  1
  Al  Al80  1  0.08412547  0.41574861  0.08212280  1
  Al  Al81  1  0.10111184  0.41757820  0.58496441  1
  Al  Al82  1  0.09231558  0.91050181  0.07216977  1
  Al  Al83  1  0.08613511  0.90680594  0.58117599  1
  Al  Al84  1  0.57201280  0.41454823  0.07648061  1
  Al  Al85  1  0.58878005  0.42649446  0.58488550  1
  Al  Al86  1  0.57292726  0.90047564  0.08296497  1
  Al  Al87  1  0.57896298  0.91247597  0.58777613  1
  Al  Al88  1  0.40981297  0.08003906  0.08829509  1
  Al  Al89  1  0.41853991  0.08443872  0.57164823  1
  Al  Al90  1  0.40763780  0.59157558  0.08965510  1
  Al  Al91  1  0.41662261  0.58729232  0.58144548  1
  Al  Al92  1  0.92019159  0.09544000  0.08924930  1
  Al  Al93  1  0.91814573  0.07750576  0.57218726  1
  Al  Al94  1  0.92824794  0.59271056  0.08355965  1
  Al  Al95  1  0.91864785  0.58103137  0.58656995  1
  Al  Al96  1  0.24999484  0.12854365  0.13704223  1
  Al  Al97  1  0.24928521  0.13549330  0.63563163  1
  Al  Al98  1  0.25581012  0.63589204  0.13002582  1
  Al  Al99  1  0.24557054  0.63427853  0.63458174  1
  Al  Al100  1  0.75067289  0.13486829  0.12988747  1
  Al  Al101  1  0.75198528  0.12974351  0.63734164  1
  Al  Al102  1  0.74920069  0.64409964  0.12518165  1
  Al  Al103  1  0.74804765  0.63422947  0.63564670  1
  Al  Al104  1  0.25210611  0.36557462  0.13662989  1
  Al  Al105  1  0.24828274  0.36915996  0.63576964  1
  Al  Al106  1  0.25171426  0.86466906  0.12957765  1
  Al  Al107  1  0.24485129  0.86318238  0.63404981  1
  Al  Al108  1  0.75709426  0.35931793  0.13054875  1
  Al  Al109  1  0.74580982  0.36563947  0.63667784  1
  Al  Al110  1  0.75050478  0.86443094  0.12705159  1
  Al  Al111  1  0.75036750  0.86576337  0.63902766  1
  Al  Al112  1  0.25161630  0.13691517  0.36390935  1
  Al  Al113  1  0.24659274  0.12994998  0.86744733  1
  Al  Al114  1  0.25433442  0.63464303  0.36802878  1
  Al  Al115  1  0.25276765  0.63654873  0.86590430  1
  Al  Al116  1  0.75435621  0.13455501  0.36248511  1
  Al  Al117  1  0.75283004  0.13945799  0.87197454  1
  Al  Al118  1  0.75085484  0.63575517  0.36216324  1
  Al  Al119  1  0.74745636  0.63719070  0.87218760  1
  Al  Al120  1  0.25654623  0.36421511  0.36822886  1
  Al  Al121  1  0.24820322  0.36541524  0.86608066  1
  Al  Al122  1  0.25052538  0.86440929  0.36323095  1
  Al  Al123  1  0.24969005  0.86671352  0.86876936  1
  Al  Al124  1  0.74512060  0.36333870  0.36131148  1
  Al  Al125  1  0.75374892  0.36302856  0.86927663  1
  Al  Al126  1  0.75131488  0.86664416  0.36110742  1
  Al  Al127  1  0.74850941  0.86185477  0.87199847  1
  Al  Al128  1  0.13444666  0.24221018  0.13305600  1
  Al  Al129  1  0.13676516  0.25556998  0.63546694  1
  Al  Al130  1  0.13543889  0.74979669  0.13244813  1
  Al  Al131  1  0.13245903  0.75102459  0.63528527  1
  Al  Al132  1  0.63371560  0.25131230  0.13276045  1
  Al  Al133  1  0.63405965  0.25282709  0.63678649  1
  Al  Al134  1  0.63181472  0.75432177  0.12880633  1
  Al  Al135  1  0.63367611  0.74574316  0.63636228  1
  Al  Al136  1  0.13860468  0.25563799  0.36426545  1
  Al  Al137  1  0.13215408  0.24780646  0.86523048  1
  Al  Al138  1  0.13486382  0.75305198  0.36443154  1
  Al  Al139  1  0.13527116  0.75325458  0.86829390  1
  Al  Al140  1  0.62985559  0.25133247  0.36199966  1
  Al  Al141  1  0.63399582  0.25238407  0.86458838  1
  Al  Al142  1  0.63726410  0.75346982  0.36881152  1
  Al  Al143  1  0.63431128  0.74929244  0.87144444  1
  Al  Al144  1  0.36436116  0.25099961  0.13664078  1
  Al  Al145  1  0.36419838  0.25863765  0.63594184  1
  Al  Al146  1  0.36200249  0.75161240  0.13024034  1
  Al  Al147  1  0.36122236  0.74783756  0.63209447  1
  Al  Al148  1  0.86837285  0.24363241  0.13284303  1
  Al  Al149  1  0.86233032  0.24967273  0.63474659  1
  Al  Al150  1  0.87053703  0.75432846  0.12936209  1
  Al  Al151  1  0.86543094  0.74650367  0.63621616  1
  Al  Al152  1  0.37227368  0.25343964  0.36177786  1
  Al  Al153  1  0.36179751  0.24976543  0.86658207  1
  Al  Al154  1  0.36694526  0.74816082  0.36438471  1
  Al  Al155  1  0.36135780  0.75079760  0.87003738  1
  Al  Al156  1  0.86489032  0.24975870  0.36416639  1
  Al  Al157  1  0.86960989  0.25093000  0.86755229  1
  Al  Al158  1  0.86490238  0.74864921  0.36404151  1
  Al  Al159  1  0.86549633  0.74889032  0.86979600  1
  Al  Al160  1  0.13598253  0.13235420  0.24595332  1
  Al  Al161  1  0.13498592  0.13313054  0.75568478  1
  Al  Al162  1  0.14105222  0.63619340  0.24857902  1
  Al  Al163  1  0.13313948  0.64159106  0.75311615  1
  Al  Al164  1  0.63668677  0.13269624  0.24883302  1
  Al  Al165  1  0.63904854  0.13689249  0.75092689  1
  Al  Al166  1  0.63476186  0.64113241  0.24821795  1
  Al  Al167  1  0.63760497  0.63010038  0.75193263  1
  Al  Al168  1  0.36549884  0.13505751  0.24883545  1
  Al  Al169  1  0.36126678  0.13542393  0.75460412  1
  Al  Al170  1  0.36097841  0.63226698  0.24920971  1
  Al  Al171  1  0.36334217  0.63572744  0.74511114  1
  Al  Al172  1  0.86536557  0.13434722  0.24860411  1
  Al  Al173  1  0.86662962  0.13639224  0.75407342  1
  Al  Al174  1  0.86630473  0.64047192  0.24242454  1
  Al  Al175  1  0.86853167  0.63718864  0.75431843  1
  Al  Al176  1  0.13833002  0.36547059  0.24932282  1
  Al  Al177  1  0.13355842  0.36564110  0.75115360  1
  Al  Al178  1  0.13588965  0.86653539  0.23862053  1
  Al  Al179  1  0.13257762  0.86532754  0.75861364  1
  Al  Al180  1  0.62784681  0.36322419  0.24727011  1
  Al  Al181  1  0.63747605  0.37073561  0.75336171  1
  Al  Al182  1  0.63553278  0.86716958  0.24302715  1
  Al  Al183  1  0.63555351  0.86150218  0.75059777  1
  Al  Al184  1  0.36626965  0.36788976  0.25079257  1
  Al  Al185  1  0.36407031  0.36796385  0.75588791  1
  Al  Al186  1  0.36518019  0.86463839  0.24370924  1
  Al  Al187  1  0.36086659  0.86317357  0.75169578  1
  Al  Al188  1  0.86809842  0.35988494  0.24800406  1
  Al  Al189  1  0.86893326  0.36371563  0.75253193  1
  Al  Al190  1  0.86462432  0.86571986  0.24673395  1
  Al  Al191  1  0.86482682  0.86303795  0.75537850  1
  Al  Al192  1  0.18274915  0.50305565  0.80856789  1
  Al  Al193  1  0.00022591  0.33414464  0.67312404  1
  Al  Al194  1  -0.00094740  0.81952391  0.68800998  1
  Al  Al195  1  0.31328053  0.81274711  0.49858895  1
  Al  Al196  1  0.66686076  0.50202378  0.16969681  1
  Al  Al197  1  0.49782324  0.17381324  0.67358352  1
  Al  Al198  1  0.49906419  0.67552532  0.81073685  1
  Al  Al199  1  0.18493315  0.68365777  -0.00083584  1
  Al  Al200  1  0.49963284  0.18110394  0.18045416  1
  Al  Al201  1  0.68299325  0.00108251  0.32241309  1
  Al  Al202  1  0.32911808  -0.00015853  0.67851918  1
  Al  Al203  1  0.00154848  0.17495659  0.67851548  1
  Al  Al204  1  0.49659516  0.69115547  0.18342348  1
  Al  Al205  1  0.49885840  0.83140876  0.83154823  1
  Al  Al206  1  0.16817328  -0.00129517  0.68573245  1
  Al  Al207  1  0.82015224  0.50194497  0.82695889  1
  Al  Al208  1  0.32618171  0.18989986  0.49916672  1
  Al  Al209  1  0.66968092  0.50021851  0.32693000  1
  Al  Al210  1  0.82544790  0.49922210  0.32590101  1
  Al  Al211  1  0.18924751  0.49935177  0.32505387  1
  Al  Al212  1  0.50082049  0.33439151  0.68521187  1
  Al  Al213  1  0.17792499  0.31305661  0.00074463  1
  Al  Al214  1  0.00181253  0.18535054  0.30552600  1
  Al  Al215  1  0.81644883  0.49941852  0.67530089  1
  Al  Al216  1  0.32156594  0.50154740  0.67695728  1
  Al  Al217  1  0.49900709  0.18263616  0.82767379  1
  Al  Al218  1  0.67405994  0.67327642  0.49778857  1
  Al  Al219  1  0.00159254  0.31597793  0.17914329  1
  Al  Al220  1  0.81930487  0.82110538  0.49975684  1
  Al  Al221  1  0.16882985  -0.00195121  0.32215229  1
  Al  Al222  1  0.33001116  -0.00035144  0.31493971  1
  Al  Al223  1  0.68309976  0.18420209  0.49978003  1
  Al  Al224  1  0.67404337  -0.00098074  0.82324767  1
  Al  Al225  1  0.67608967  0.32071112  -0.00049805  1
  Al  Al226  1  0.18373986  0.50150905  0.17230283  1
  Al  Al227  1  0.50117953  0.81829946  0.30906724  1
  Al  Al228  1  0.31143776  0.17647348  0.00249176  1
  Al  Al229  1  0.82865064  0.00050614  0.82478307  1
  Al  Al230  1  0.83259006  0.50077780  0.16901870  1
  Al  Al231  1  0.82243211  0.00145599  0.17935581  1
  Al  Al232  1  -0.00061562  0.83213569  0.32070842  1
  Al  Al233  1  0.00263459  0.66857500  0.31546483  1
  Al  Al234  1  0.18220235  0.68394963  0.49884598  1
  Al  Al235  1  0.33027442  0.32987958  0.00127198  1
  Al  Al236  1  0.81394472  0.31871847  0.49949444  1
  Al  Al237  1  0.49740636  0.80861343  0.67920777  1
  Al  Al238  1  0.17058537  0.18980836  0.49986286  1
  Au  Au239  1  0.00106205  0.31314323  0.16659544  1
  Au  Au240  1  0.67553382  0.00190789  0.33756917  1
  Au  Au241  1  0.66448119  0.33357754  0.49739770  1
  Au  Au242  1  -0.00235982  0.33703781  0.66133834  1
  Au  Au243  1  0.32780564  0.50107528  0.84105229  1
  Au  Au244  1  0.00536308  0.82407010  0.15619450  1
  Au  Au245  1  0.00344675  0.32974592  0.34206913  1
  Au  Au246  1  0.67231261  0.83688092  0.50354351  1
  Au  Au247  1  0.00567709  0.16344580  0.84402749  1
  Au  Au248  1  0.67594553  0.16381722  -0.00063821  1
  Au  Au249  1  0.82793405  0.83463953  -0.00223410  1
  Au  Au250  1  0.83625737  0.66840009  -0.00175450  1
  Au  Au251  1  0.17706684  0.17365085  0.49925963  1
  Au  Au252  1  0.83184747  0.16850889  0.49474911  1
  Au  Au253  1  0.67831595  0.33325567  0.00118294  1
  Au  Au254  1  -0.00349822  0.16096667  0.66877896  1
  Au  Au255  1  0.49365416  0.33032030  0.17159953  1
  Au  Au256  1  0.50258818  0.15841112  0.67407373  1
  Au  Au257  1  0.66089152  -0.00102676  0.67397957  1
  Au  Au258  1  0.49988206  0.34693400  0.67452504  1
  Au  Au259  1  0.67106301  0.49960039  0.82499045  1
  Au  Au260  1  0.33950801  -0.00024993  0.66533298  1
  Au  Au261  1  0.00213208  0.33614057  0.83800425  1
  Au  Au262  1  0.65703059  -0.00557127  0.15976200  1
  Au  Au263  1  0.49368581  0.65451029  0.32822456  1
  Au  Au264  1  0.84849446  0.50114795  0.17468183  1
  Au  Au265  1  0.32650246  -0.00155638  0.84232444  1
  Au  Au266  1  0.83178260  -0.00023653  0.84094102  1
  Au  Au267  1  0.00155072  0.65736107  0.68213725  1
  Au  Au268  1  0.83746314  0.00199626  0.17203077  1
  Au  Au269  1  0.31857914  0.50304173  0.66480726  1
  Au  Au270  1  0.33811263  0.00065256  0.33021749  1
  Au  Au271  1  0.16430558  -0.00014466  0.33837971  1
  Au  Au272  1  0.50190005  0.17731123  0.32965107  1
  Au  Au273  1  0.17050861  0.67128180  0.49946426  1
  Au  Au274  1  0.83998874  0.67344860  0.50001454  1
  Au  Au275  1  0.17267323  -0.00038726  0.15721148  1
  Au  Au276  1  0.66220202  0.67614980  0.00156538  1
  Au  Au277  1  0.32386717  0.82643128  0.50022853  1
  Au  Au278  1  -0.00168159  0.82868432  0.67370916  1
  Au  Au279  1  0.83034023  -0.00414262  0.65985368  1
  Au  Au280  1  0.66549868  0.66443734  0.49937779  1
  Au  Au281  1  -0.00502101  0.83117618  0.33740583  1
  Au  Au282  1  0.65157884  0.50309366  0.17541228  1
  Au  Au283  1  0.16594377  -0.00350963  0.66855847  1
  Au  Au284  1  0.49654933  0.67800094  0.82711372  1
  Au  Au285  1  0.00258193  0.65218944  0.31950213  1
  Au  Au286  1  0.50263384  0.82832621  0.32287732  1
  Au  Au287  1  0.17070002  0.67489365  -0.00112686  1
