# generated using pymatgen
data_Ca24Ti8Al207Au49
_symmetry_space_group_name_H-M   'P 1'
_cell_length_a   17.31870728
_cell_length_b   17.31765273
_cell_length_c   17.31683541
_cell_angle_alpha   89.99704758
_cell_angle_beta   89.99582340
_cell_angle_gamma   90.00213332
_symmetry_Int_Tables_number   1
_chemical_formula_structural   Ca24Ti8Al207Au49
_chemical_formula_sum   'Ca24 Ti8 Al207 Au49'
_cell_volume   5193.65414319
_cell_formula_units_Z   1
loop_
 _symmetry_equiv_pos_site_id
 _symmetry_equiv_pos_as_xyz
  1  'x, y, z'
loop_
 _atom_site_type_symbol
 _atom_site_label
 _atom_site_symmetry_multiplicity
 _atom_site_fract_x
 _atom_site_fract_y
 _atom_site_fract_z
 _atom_site_occupancy
  Ca  Ca0  1  0.25106109  0.00259226  -0.00261739  1
  Ca  Ca1  1  0.24728463  -0.00130078  0.49940759  1
  Ca  Ca2  1  0.26041678  0.49991239  0.00503408  1
  Ca  Ca3  1  0.25639975  0.49873590  0.49976808  1
  Ca  Ca4  1  0.74743195  0.00069489  0.00348827  1
  Ca  Ca5  1  0.74673290  -0.00652495  0.49695830  1
  Ca  Ca6  1  0.74230601  0.49858576  -0.00494131  1
  Ca  Ca7  1  0.74800188  0.50580583  0.50609422  1
  Ca  Ca8  1  -0.00191101  0.24336959  -0.00179671  1
  Ca  Ca9  1  0.00457308  0.24405201  0.50139808  1
  Ca  Ca10  1  -0.00055923  0.75299476  0.00126652  1
  Ca  Ca11  1  -0.00137648  0.75078189  0.49845771  1
  Ca  Ca12  1  0.50243158  0.25231057  -0.00003122  1
  Ca  Ca13  1  0.49955654  0.25190893  0.50006810  1
  Ca  Ca14  1  0.50221551  0.75029861  -0.00090824  1
  Ca  Ca15  1  0.50023941  0.75146721  0.49756770  1
  Ca  Ca16  1  -0.00063404  0.00165173  0.24726328  1
  Ca  Ca17  1  0.00053663  0.00147656  0.75412479  1
  Ca  Ca18  1  0.00153763  0.49612090  0.24807227  1
  Ca  Ca19  1  -0.00548623  0.50248032  0.75093631  1
  Ca  Ca20  1  0.50115959  -0.00300667  0.24805907  1
  Ca  Ca21  1  0.49992409  -0.00292653  0.75339029  1
  Ca  Ca22  1  0.49703595  0.50188182  0.24671270  1
  Ca  Ca23  1  0.50604503  0.50036176  0.75753611  1
  Ti  Ti24  1  0.25241263  0.24987711  0.24942176  1
  Ti  Ti25  1  0.25033695  0.24995585  0.74979187  1
  Ti  Ti26  1  0.25295904  0.75133423  0.24914077  1
  Ti  Ti27  1  0.25023866  0.75126511  0.75161218  1
  Ti  Ti28  1  0.74876033  0.24903750  0.24564857  1
  Ti  Ti29  1  0.75003746  0.25040084  0.75321632  1
  Ti  Ti30  1  0.74734144  0.75140367  0.24738636  1
  Ti  Ti31  1  0.75004270  0.74924963  0.75176132  1
  Al  Al32  1  0.08743623  0.08160537  0.07427915  1
  Al  Al33  1  0.08203615  0.08726242  0.58535368  1
  Al  Al34  1  0.07742370  0.58468897  0.08531950  1
  Al  Al35  1  0.07080790  0.59800015  0.58436232  1
  Al  Al36  1  0.59086367  0.08180934  0.08808071  1
  Al  Al37  1  0.57600012  0.07540804  0.57877371  1
  Al  Al38  1  0.57974340  0.59105472  0.07944516  1
  Al  Al39  1  0.58712182  0.58815201  0.59537354  1
  Al  Al40  1  0.41844195  0.41917655  0.09075147  1
  Al  Al41  1  0.41732539  0.40554660  0.57711657  1
  Al  Al42  1  0.41532436  0.90865461  0.07965038  1
  Al  Al43  1  0.41844234  0.91536894  0.58418997  1
  Al  Al44  1  0.91395534  0.41736300  0.07067957  1
  Al  Al45  1  0.91727463  0.42109985  0.58946198  1
  Al  Al46  1  0.91898213  0.91562596  0.09094854  1
  Al  Al47  1  0.91990016  0.91526272  0.57884592  1
  Al  Al48  1  0.42048880  0.07930313  0.41395803  1
  Al  Al49  1  0.41681590  0.07842934  0.90873658  1
  Al  Al50  1  0.42250742  0.59034776  0.40690525  1
  Al  Al51  1  0.42794897  0.58047623  0.92364494  1
  Al  Al52  1  0.92183402  0.08498295  0.40681545  1
  Al  Al53  1  0.92288076  0.09267227  0.91582397  1
  Al  Al54  1  0.91125818  0.58794077  0.43309638  1
  Al  Al55  1  0.90902604  0.58264654  0.90121124  1
  Al  Al56  1  0.09169729  0.41738823  0.41853442  1
  Al  Al57  1  0.07414774  0.41681082  0.92113950  1
  Al  Al58  1  0.08661465  0.91368259  0.42309809  1
  Al  Al59  1  0.08421972  0.92462887  0.91544088  1
  Al  Al60  1  0.57289884  0.42781240  0.41147820  1
  Al  Al61  1  0.59257258  0.41024950  0.91148331  1
  Al  Al62  1  0.58624050  0.90652016  0.41124496  1
  Al  Al63  1  0.57971825  0.92295044  0.92421012  1
  Al  Al64  1  0.07972171  0.08656021  0.41711929  1
  Al  Al65  1  0.08728184  0.08921997  0.91010592  1
  Al  Al66  1  0.08532359  0.57567525  0.42413741  1
  Al  Al67  1  0.06942948  0.59240163  0.90989222  1
  Al  Al68  1  0.57904046  0.07462755  0.41002109  1
  Al  Al69  1  0.58140890  0.08692624  0.91817557  1
  Al  Al70  1  0.58116595  0.59099801  0.40641674  1
  Al  Al71  1  0.59122808  0.58561709  0.91464087  1
  Al  Al72  1  0.41173874  0.41152617  0.41534280  1
  Al  Al73  1  0.43177956  0.41709739  0.92064391  1
  Al  Al74  1  0.42156424  0.90860581  0.41001467  1
  Al  Al75  1  0.40685107  0.91616516  0.91744921  1
  Al  Al76  1  0.92789989  0.42545963  0.42615592  1
  Al  Al77  1  0.90507350  0.41889278  0.90815962  1
  Al  Al78  1  0.91488333  0.91979851  0.41685071  1
  Al  Al79  1  0.92072778  0.92219794  0.92214721  1
  Al  Al80  1  0.08160876  0.42053469  0.07890391  1
  Al  Al81  1  0.07721773  0.40784775  0.57729303  1
  Al  Al82  1  0.07920210  0.91731406  0.08781510  1
  Al  Al83  1  0.08714471  0.91306324  0.58187229  1
  Al  Al84  1  0.57930287  0.41159263  0.07597115  1
  Al  Al85  1  0.57761073  0.42784895  0.59460793  1
  Al  Al86  1  0.58637883  0.91717413  0.09188286  1
  Al  Al87  1  0.58323014  0.90886250  0.57620753  1
  Al  Al88  1  0.42250731  0.07923824  0.08225416  1
  Al  Al89  1  0.41656369  0.08021678  0.58503187  1
  Al  Al90  1  0.41755206  0.58342802  0.09377952  1
  Al  Al91  1  0.43029349  0.59032420  0.58297912  1
  Al  Al92  1  0.90999944  0.08501488  0.07796615  1
  Al  Al93  1  0.92438652  0.08747373  0.58945406  1
  Al  Al94  1  0.92058271  0.58522300  0.07795213  1
  Al  Al95  1  0.91073394  0.59462888  0.59290486  1
  Al  Al96  1  0.25091835  0.13782807  0.13337585  1
  Al  Al97  1  0.25158380  0.13673699  0.63590400  1
  Al  Al98  1  0.25708468  0.63699933  0.13549456  1
  Al  Al99  1  0.24800433  0.63585243  0.63812633  1
  Al  Al100  1  0.74960244  0.13228136  0.13025429  1
  Al  Al101  1  0.74945015  0.13974592  0.63395201  1
  Al  Al102  1  0.73944319  0.63606414  0.12801742  1
  Al  Al103  1  0.75242671  0.63427712  0.63368320  1
  Al  Al104  1  0.25391396  0.36442049  0.13616259  1
  Al  Al105  1  0.25272895  0.36061062  0.63130381  1
  Al  Al106  1  0.26032557  0.86221882  0.13330519  1
  Al  Al107  1  0.24726679  0.86392468  0.63439896  1
  Al  Al108  1  0.74556359  0.36425797  0.12574544  1
  Al  Al109  1  0.75227562  0.36292494  0.63843898  1
  Al  Al110  1  0.74409443  0.86971188  0.13460681  1
  Al  Al111  1  0.75060720  0.86044273  0.63340188  1
  Al  Al112  1  0.25302153  0.13591090  0.36199912  1
  Al  Al113  1  0.24826930  0.13724466  0.86453524  1
  Al  Al114  1  0.25286558  0.63708314  0.36259372  1
  Al  Al115  1  0.25084485  0.63946087  0.86615496  1
  Al  Al116  1  0.74920833  0.13382498  0.36265287  1
  Al  Al117  1  0.75116252  0.13883137  0.87281815  1
  Al  Al118  1  0.74761105  0.63888220  0.36273001  1
  Al  Al119  1  0.74764297  0.63003481  0.86548696  1
  Al  Al120  1  0.25308607  0.36355443  0.36853025  1
  Al  Al121  1  0.24656779  0.36104909  0.86348561  1
  Al  Al122  1  0.25287164  0.86465370  0.36154166  1
  Al  Al123  1  0.25370704  0.86544334  0.86818129  1
  Al  Al124  1  0.75078812  0.36097239  0.36359876  1
  Al  Al125  1  0.74711134  0.36452053  0.86974534  1
  Al  Al126  1  0.74572367  0.86257993  0.36612760  1
  Al  Al127  1  0.75245951  0.86153030  0.87136522  1
  Al  Al128  1  0.13518956  0.24510334  0.13344794  1
  Al  Al129  1  0.13165043  0.24933011  0.63584913  1
  Al  Al130  1  0.13797518  0.75122128  0.13341530  1
  Al  Al131  1  0.13442471  0.75012640  0.63615983  1
  Al  Al132  1  0.63334492  0.24707849  0.12792335  1
  Al  Al133  1  0.62862635  0.25271314  0.64122984  1
  Al  Al134  1  0.62908076  0.75290277  0.13074665  1
  Al  Al135  1  0.63630299  0.74764776  0.63336524  1
  Al  Al136  1  0.13685207  0.24958036  0.36392200  1
  Al  Al137  1  0.12786570  0.24238595  0.86640819  1
  Al  Al138  1  0.13651868  0.75863040  0.36495936  1
  Al  Al139  1  0.13178735  0.75045884  0.86595525  1
  Al  Al140  1  0.63463763  0.24857183  0.36193849  1
  Al  Al141  1  0.63589432  0.25163306  0.87371632  1
  Al  Al142  1  0.62996753  0.75124125  0.36514489  1
  Al  Al143  1  0.63817672  0.74760060  0.87253601  1
  Al  Al144  1  0.37353841  0.25323258  0.13617466  1
  Al  Al145  1  0.37201768  0.25077737  0.63818176  1
  Al  Al146  1  0.37554748  0.74710238  0.13561969  1
  Al  Al147  1  0.36405844  0.75075912  0.63532712  1
  Al  Al148  1  0.86157686  0.24755737  0.12559636  1
  Al  Al149  1  0.86897836  0.24745840  0.64032227  1
  Al  Al150  1  0.86088006  0.75490460  0.13332197  1
  Al  Al151  1  0.86673083  0.74492872  0.63424487  1
  Al  Al152  1  0.36798578  0.25574447  0.36273859  1
  Al  Al153  1  0.36633296  0.25157506  0.86461828  1
  Al  Al154  1  0.37085248  0.74982921  0.36287725  1
  Al  Al155  1  0.36567874  0.75263664  0.87009248  1
  Al  Al156  1  0.86511704  0.24463332  0.36298709  1
  Al  Al157  1  0.86581659  0.25100432  0.87181736  1
  Al  Al158  1  0.86464729  0.75197551  0.36298193  1
  Al  Al159  1  0.87039863  0.74431085  0.86447430  1
  Al  Al160  1  0.13089989  0.13651501  0.25005982  1
  Al  Al161  1  0.13106681  0.13623936  0.74880180  1
  Al  Al162  1  0.13750887  0.63842574  0.24900873  1
  Al  Al163  1  0.13005196  0.63755404  0.75100265  1
  Al  Al164  1  0.63535375  0.13349504  0.24330886  1
  Al  Al165  1  0.63852911  0.13589673  0.75342779  1
  Al  Al166  1  0.62846894  0.64093906  0.24699559  1
  Al  Al167  1  0.63737413  0.63645182  0.75123894  1
  Al  Al168  1  0.36595179  0.13526442  0.24449970  1
  Al  Al169  1  0.36430827  0.13224881  0.75272435  1
  Al  Al170  1  0.36881701  0.63422347  0.25127670  1
  Al  Al171  1  0.36519665  0.63816323  0.74944322  1
  Al  Al172  1  0.86679485  0.13300014  0.24312254  1
  Al  Al173  1  0.86681314  0.13530577  0.75711746  1
  Al  Al174  1  0.85835840  0.63496848  0.24417885  1
  Al  Al175  1  0.86155853  0.63086078  0.75160532  1
  Al  Al176  1  0.13631231  0.36293535  0.24844045  1
  Al  Al177  1  0.13206368  0.36176716  0.74908081  1
  Al  Al178  1  0.13761881  0.86552057  0.24426946  1
  Al  Al179  1  0.13343566  0.86467909  0.75319351  1
  Al  Al180  1  0.62780633  0.36187714  0.24133664  1
  Al  Al181  1  0.63040351  0.36449268  0.75816964  1
  Al  Al182  1  0.62681903  0.85968527  0.24969572  1
  Al  Al183  1  0.63822940  0.86069040  0.75135161  1
  Al  Al184  1  0.36752714  0.37090720  0.25006371  1
  Al  Al185  1  0.37033101  0.36347487  0.75095654  1
  Al  Al186  1  0.37529221  0.86044837  0.24972504  1
  Al  Al187  1  0.36426884  0.86471741  0.75362676  1
  Al  Al188  1  0.85952269  0.36587704  0.24546778  1
  Al  Al189  1  0.86201258  0.37054526  0.75564041  1
  Al  Al190  1  0.85980849  0.87134854  0.24890889  1
  Al  Al191  1  0.86615163  0.86188751  0.75217810  1
  Al  Al192  1  0.17165230  0.00106217  0.32853727  1
  Al  Al193  1  0.67996846  0.68054149  0.49813522  1
  Al  Al194  1  0.50155357  0.82907090  0.82933666  1
  Al  Al195  1  0.82676879  -0.00159022  0.68107369  1
  Al  Al196  1  0.67693849  -0.00331144  0.31143958  1
  Al  Al197  1  0.17120565  0.50211188  0.82968340  1
  Al  Al198  1  0.18353053  0.49999237  0.32497717  1
  Al  Al199  1  0.32947692  0.32863157  0.00011751  1
  Al  Al200  1  0.50104097  0.81277320  0.67573878  1
  Al  Al201  1  -0.00161153  0.68910095  0.17541117  1
  Al  Al202  1  0.17195303  0.69095829  0.49894593  1
  Al  Al203  1  0.82851795  0.50081974  0.33003328  1
  Al  Al204  1  0.33229505  0.49957730  0.67062331  1
  Al  Al205  1  0.33269129  0.18516451  0.49902741  1
  Al  Al206  1  0.68213351  0.49923595  0.69142485  1
  Al  Al207  1  0.67841695  -0.00067040  0.82757754  1
  Al  Al208  1  0.32649217  0.67630161  0.00114477  1
  Al  Al209  1  0.67097555  -0.00317896  0.67249967  1
  Al  Al210  1  0.82374066  0.67603532  -0.00309196  1
  Al  Al211  1  0.16504445  0.50202509  0.66985156  1
  Al  Al212  1  0.18300915  0.82563443  0.00083894  1
  Al  Al213  1  -0.00094977  0.81577405  0.68146523  1
  Al  Al214  1  -0.00097280  0.31495450  0.32887950  1
  Al  Al215  1  0.67227969  0.50088715  0.31444520  1
  Al  Al216  1  0.50144785  0.18487624  0.82146217  1
  Al  Al217  1  0.82114268  0.50257197  0.16981535  1
  Al  Al218  1  -0.00021935  0.82829813  0.31003414  1
  Al  Al219  1  0.32916848  0.67335797  0.49999823  1
  Al  Al220  1  0.66519975  0.33069906  0.50122340  1
  Al  Al221  1  0.83123752  0.32190464  0.50110732  1
  Al  Al222  1  -0.00248121  0.32370598  0.81882320  1
  Al  Al223  1  0.31872199  0.82722872  0.49841607  1
  Al  Al224  1  0.17631279  0.18054770  0.49990060  1
  Al  Al225  1  0.18869922  0.00087569  0.81856857  1
  Al  Al226  1  0.32970494  0.49859655  0.82886822  1
  Al  Al227  1  0.18161505  0.00130294  0.17435042  1
  Al  Al228  1  -0.00291796  0.31623621  0.17120974  1
  Al  Al229  1  0.16948981  0.31213008  -0.00052858  1
  Al  Al230  1  0.50021873  0.18022312  0.31691842  1
  Al  Al231  1  0.67820402  0.16767849  0.49767972  1
  Al  Al232  1  0.31879030  0.17165746  -0.00142237  1
  Al  Al233  1  -0.00095166  0.66837075  0.32960312  1
  Al  Al234  1  0.18509542  0.50222300  0.16813344  1
  Al  Al235  1  0.50112949  0.67633912  0.81597946  1
  Al  Al236  1  0.32130737  -0.00179168  0.68525403  1
  Al  Al237  1  0.81488754  0.81283860  0.49992118  1
  Al  Al238  1  0.32659566  -0.00156034  0.31722970  1
  Au  Au239  1  0.16585422  0.00200484  0.67134371  1
  Au  Au240  1  0.66237313  0.34652749  0.50124957  1
  Au  Au241  1  0.14971217  0.50220027  0.66478484  1
  Au  Au242  1  0.66398350  0.82854215  0.00056510  1
  Au  Au243  1  0.00179451  0.81986093  0.66483599  1
  Au  Au244  1  -0.00201119  0.31838018  0.66652722  1
  Au  Au245  1  0.16266779  0.66770766  -0.00086976  1
  Au  Au246  1  0.33116698  0.16864025  0.49539652  1
  Au  Au247  1  0.82689552  0.00622905  0.84552673  1
  Au  Au248  1  0.34805305  0.50306357  0.67078949  1
  Au  Au249  1  -0.00026641  0.82559675  0.83845615  1
  Au  Au250  1  0.83256647  0.83269337  0.00304848  1
  Au  Au251  1  0.50134854  0.33165675  0.67973922  1
  Au  Au252  1  0.84234754  0.16911033  0.49868177  1
  Au  Au253  1  0.00190988  0.15786906  0.16834097  1
  Au  Au254  1  0.66700973  0.16179559  0.49783068  1
  Au  Au255  1  0.50312485  0.16281102  0.67566066  1
  Au  Au256  1  -0.00066516  0.32436832  0.83143477  1
  Au  Au257  1  0.00191248  0.83921667  0.32282323  1
  Au  Au258  1  0.82325507  0.66354864  -0.00481891  1
  Au  Au259  1  0.82868494  0.82313870  0.49781109  1
  Au  Au260  1  0.17985050  0.33110598  0.50047620  1
  Au  Au261  1  0.32652910  -0.00195270  0.67355959  1
  Au  Au262  1  0.33899187  0.67048242  0.00106724  1
  Au  Au263  1  0.82221520  0.00068186  0.16459396  1
  Au  Au264  1  0.33466096  0.16776787  -0.00307682  1
  Au  Au265  1  0.65655306  0.49992858  0.16565609  1
  Au  Au266  1  0.33093979  -0.00401981  0.16760374  1
  Au  Au267  1  0.17511859  0.50495290  0.84660357  1
  Au  Au268  1  0.82304417  0.50153412  0.34170488  1
  Au  Au269  1  0.33249741  0.50185996  0.33015257  1
  Au  Au270  1  -0.00387693  0.33260564  0.16445246  1
  Au  Au271  1  0.50045503  0.33032218  0.32491469  1
  Au  Au272  1  0.50028297  0.82622488  0.17214328  1
  Au  Au273  1  0.16884776  0.50243031  0.17446690  1
  Au  Au274  1  0.66685771  0.67037084  0.49876999  1
  Au  Au275  1  0.83207743  0.33408714  0.49805326  1
  Au  Au276  1  0.50282943  0.17130574  0.16888900  1
  Au  Au277  1  0.83211202  0.49751970  0.16629362  1
  Au  Au278  1  0.17648810  0.84097057  0.00209560  1
  Au  Au279  1  0.17456112  0.32881293  -0.00037165  1
  Au  Au280  1  0.82905106  0.50157815  0.67771114  1
  Au  Au281  1  0.82383860  0.00285506  0.33204613  1
  Au  Au282  1  0.82282163  0.32816287  -0.00282570  1
  Au  Au283  1  0.82637490  0.00237022  0.66459250  1
  Au  Au284  1  0.00245989  0.32844139  0.33888154  1
  Au  Au285  1  -0.00158270  0.65225230  0.32442380  1
  Au  Au286  1  0.67311517  0.17013209  0.00048453  1
  Au  Au287  1  0.17467072  0.67385799  0.49858976  1
