# generated using pymatgen
data_Ca24Ti8Al207Au49
_symmetry_space_group_name_H-M   'P 1'
_cell_length_a   17.31708582
_cell_length_b   17.31665431
_cell_length_c   17.31766836
_cell_angle_alpha   89.99903029
_cell_angle_beta   89.99932702
_cell_angle_gamma   89.99316803
_symmetry_Int_Tables_number   1
_chemical_formula_structural   Ca24Ti8Al207Au49
_chemical_formula_sum   'Ca24 Ti8 Al207 Au49'
_cell_volume   5193.11825136
_cell_formula_units_Z   1
loop_
 _symmetry_equiv_pos_site_id
 _symmetry_equiv_pos_as_xyz
  1  'x, y, z'
loop_
 _atom_site_type_symbol
 _atom_site_label
 _atom_site_symmetry_multiplicity
 _atom_site_fract_x
 _atom_site_fract_y
 _atom_site_fract_z
 _atom_site_occupancy
  Ca  Ca0  1  0.24897833  0.00465987  0.00162454  1
  Ca  Ca1  1  0.24886251  -0.00671858  0.49988520  1
  Ca  Ca2  1  0.25214703  0.49761568  0.00350147  1
  Ca  Ca3  1  0.24990107  0.50303192  0.49765897  1
  Ca  Ca4  1  0.75168770  0.00334917  0.00222863  1
  Ca  Ca5  1  0.74873007  -0.00535931  0.50003678  1
  Ca  Ca6  1  0.75139323  0.49885893  0.00072331  1
  Ca  Ca7  1  0.74656501  0.50400107  0.49780940  1
  Ca  Ca8  1  0.00200940  0.25364202  0.00642096  1
  Ca  Ca9  1  -0.00127864  0.25011674  0.49390754  1
  Ca  Ca10  1  -0.00205247  0.74860364  0.00342958  1
  Ca  Ca11  1  0.00043408  0.74610556  0.49468468  1
  Ca  Ca12  1  0.49659080  0.25093527  -0.00302401  1
  Ca  Ca13  1  0.50351315  0.25183765  0.50230019  1
  Ca  Ca14  1  0.50211985  0.74100424  -0.00218836  1
  Ca  Ca15  1  0.50150784  0.74315147  0.49952958  1
  Ca  Ca16  1  0.00535303  -0.00155248  0.25000017  1
  Ca  Ca17  1  0.00039555  -0.00003783  0.74847629  1
  Ca  Ca18  1  -0.00272810  0.50191321  0.24671400  1
  Ca  Ca19  1  -0.00494664  0.49534102  0.75149527  1
  Ca  Ca20  1  0.49938449  -0.00048281  0.25167313  1
  Ca  Ca21  1  0.49584716  0.00102117  0.75177105  1
  Ca  Ca22  1  0.50558287  0.50028606  0.25476464  1
  Ca  Ca23  1  0.50251738  0.49740998  0.75161008  1
  Ti  Ti24  1  0.25114431  0.25105362  0.24881824  1
  Ti  Ti25  1  0.25185919  0.24946436  0.75148138  1
  Ti  Ti26  1  0.24988187  0.74995016  0.24866686  1
  Ti  Ti27  1  0.25011503  0.74956189  0.75180789  1
  Ti  Ti28  1  0.74948948  0.25193587  0.24963885  1
  Ti  Ti29  1  0.74872112  0.25075493  0.75074070  1
  Ti  Ti30  1  0.75065995  0.74798513  0.25091830  1
  Ti  Ti31  1  0.75018502  0.74860408  0.74920129  1
  Al  Al32  1  0.08453526  0.09573242  0.09080510  1
  Al  Al33  1  0.07889654  0.07933586  0.57767937  1
  Al  Al34  1  0.08907622  0.57708347  0.09088655  1
  Al  Al35  1  0.08088398  0.59390526  0.57762811  1
  Al  Al36  1  0.58608296  0.09130412  0.07270916  1
  Al  Al37  1  0.58559868  0.08958033  0.58414462  1
  Al  Al38  1  0.59070372  0.58113519  0.08907587  1
  Al  Al39  1  0.59049369  0.58036849  0.58123706  1
  Al  Al40  1  0.40829238  0.41994257  0.08418673  1
  Al  Al41  1  0.42710277  0.41002056  0.58886660  1
  Al  Al42  1  0.40747921  0.91787493  0.07339127  1
  Al  Al43  1  0.42179484  0.91810100  0.57645107  1
  Al  Al44  1  0.91834347  0.40916538  0.09104907  1
  Al  Al45  1  0.91931131  0.41946761  0.59004154  1
  Al  Al46  1  0.92223902  0.90662732  0.08853536  1
  Al  Al47  1  0.91971305  0.91473917  0.57553914  1
  Al  Al48  1  0.40956278  0.08763264  0.42130571  1
  Al  Al49  1  0.41469471  0.09212495  0.91468876  1
  Al  Al50  1  0.42024107  0.59188558  0.41196437  1
  Al  Al51  1  0.41679392  0.58147061  0.90965888  1
  Al  Al52  1  0.91357287  0.07668007  0.40855198  1
  Al  Al53  1  0.91381709  0.09092116  0.93291930  1
  Al  Al54  1  0.91023473  0.58931898  0.40755244  1
  Al  Al55  1  0.91022683  0.58586331  0.92759015  1
  Al  Al56  1  0.07442541  0.42478965  0.41606147  1
  Al  Al57  1  0.08612683  0.41396338  0.92120968  1
  Al  Al58  1  0.09153466  0.91274039  0.41293690  1
  Al  Al59  1  0.08322959  0.92280365  0.92498060  1
  Al  Al60  1  0.59203253  0.42839631  0.41825933  1
  Al  Al61  1  0.57723674  0.41382340  0.91295787  1
  Al  Al62  1  0.58456536  0.91872701  0.42085860  1
  Al  Al63  1  0.57480421  0.91200352  0.91955321  1
  Al  Al64  1  0.08644661  0.07464114  0.40981078  1
  Al  Al65  1  0.08994001  0.08872364  0.93020874  1
  Al  Al66  1  0.08189781  0.59099195  0.41435598  1
  Al  Al67  1  0.08203900  0.57403396  0.92302177  1
  Al  Al68  1  0.59052068  0.08933747  0.42323490  1
  Al  Al69  1  0.57797377  0.09960976  0.91485204  1
  Al  Al70  1  0.59308293  0.59009857  0.40751201  1
  Al  Al71  1  0.58103905  0.58713488  0.91222356  1
  Al  Al72  1  0.41883057  0.42363004  0.42117515  1
  Al  Al73  1  0.41379108  0.41574727  0.90848709  1
  Al  Al74  1  0.41512026  0.91934026  0.41779303  1
  Al  Al75  1  0.41201383  0.91097676  0.91641578  1
  Al  Al76  1  0.91103357  0.42948522  0.40514736  1
  Al  Al77  1  0.92144367  0.41587879  0.92498930  1
  Al  Al78  1  0.91338999  0.91722664  0.40941716  1
  Al  Al79  1  0.91872328  0.91763781  0.92913523  1
  Al  Al80  1  0.08986850  0.41102874  0.09258297  1
  Al  Al81  1  0.07189745  0.41414594  0.58593925  1
  Al  Al82  1  0.08210816  0.91562209  0.08915658  1
  Al  Al83  1  0.08524235  0.90898960  0.57431295  1
  Al  Al84  1  0.58875755  0.42269840  0.08596774  1
  Al  Al85  1  0.58826120  0.41700026  0.59153923  1
  Al  Al86  1  0.57868815  0.92125837  0.07278298  1
  Al  Al87  1  0.58305416  0.92115076  0.58158140  1
  Al  Al88  1  0.41158525  0.08557239  0.07478353  1
  Al  Al89  1  0.41826646  0.09486297  0.58064113  1
  Al  Al90  1  0.41098065  0.57991628  0.08780785  1
  Al  Al91  1  0.41912167  0.58299067  0.57496819  1
  Al  Al92  1  0.92005898  0.10141436  0.09133138  1
  Al  Al93  1  0.91876928  0.07949279  0.57707674  1
  Al  Al94  1  0.90878973  0.58580074  0.08602633  1
  Al  Al95  1  0.91770984  0.58757160  0.58178338  1
  Al  Al96  1  0.24746955  0.13747616  0.12851859  1
  Al  Al97  1  0.25291269  0.13749872  0.63527914  1
  Al  Al98  1  0.25018224  0.63172741  0.13632938  1
  Al  Al99  1  0.25045630  0.63437024  0.63585389  1
  Al  Al100  1  0.75315209  0.13588237  0.12997736  1
  Al  Al101  1  0.74772355  0.13762926  0.63510158  1
  Al  Al102  1  0.75009372  0.62657272  0.14253196  1
  Al  Al103  1  0.74628188  0.63383982  0.63216802  1
  Al  Al104  1  0.24837768  0.36733663  0.13636809  1
  Al  Al105  1  0.26019750  0.36350732  0.63220778  1
  Al  Al106  1  0.24986959  0.86397672  0.13037959  1
  Al  Al107  1  0.24747348  0.86243914  0.63453537  1
  Al  Al108  1  0.75031207  0.37006325  0.13703971  1
  Al  Al109  1  0.74305781  0.37085940  0.63640909  1
  Al  Al110  1  0.75305558  0.86505745  0.13542156  1
  Al  Al111  1  0.74981550  0.86091585  0.62942467  1
  Al  Al112  1  0.24906437  0.13303638  0.36119044  1
  Al  Al113  1  0.25153085  0.13740174  0.87061626  1
  Al  Al114  1  0.24964736  0.63266103  0.36304526  1
  Al  Al115  1  0.25305071  0.63293205  0.86863257  1
  Al  Al116  1  0.75058318  0.13162415  0.35990976  1
  Al  Al117  1  0.75011069  0.13647514  0.87019399  1
  Al  Al118  1  0.74939780  0.62886112  0.36207116  1
  Al  Al119  1  0.75132232  0.63430712  0.86427436  1
  Al  Al120  1  0.25342458  0.36921472  0.36291137  1
  Al  Al121  1  0.25503335  0.36532143  0.86514833  1
  Al  Al122  1  0.24920629  0.86528443  0.36344243  1
  Al  Al123  1  0.25025725  0.86438448  0.87082238  1
  Al  Al124  1  0.75011433  0.37019127  0.36096486  1
  Al  Al125  1  0.74700530  0.36310570  0.86269161  1
  Al  Al126  1  0.75154242  0.86311479  0.36807718  1
  Al  Al127  1  0.75749753  0.86385040  0.86577534  1
  Al  Al128  1  0.13277627  0.24893660  0.13601687  1
  Al  Al129  1  0.13745002  0.25392960  0.63474696  1
  Al  Al130  1  0.13270161  0.75330288  0.13411860  1
  Al  Al131  1  0.13113369  0.74827688  0.63576941  1
  Al  Al132  1  0.63586902  0.24910055  0.13564102  1
  Al  Al133  1  0.63416311  0.25128976  0.63390946  1
  Al  Al134  1  0.63449613  0.74493791  0.13769064  1
  Al  Al135  1  0.63757529  0.74668356  0.62862415  1
  Al  Al136  1  0.13370574  0.25405819  0.36151225  1
  Al  Al137  1  0.13854929  0.24903530  0.86605457  1
  Al  Al138  1  0.13350973  0.74665708  0.36157988  1
  Al  Al139  1  0.13716278  0.75175042  0.87042477  1
  Al  Al140  1  0.63504179  0.24791533  0.36430985  1
  Al  Al141  1  0.63264130  0.24635187  0.86640291  1
  Al  Al142  1  0.63906713  0.74452473  0.37216620  1
  Al  Al143  1  0.63568188  0.74591492  0.86532324  1
  Al  Al144  1  0.36156084  0.25250040  0.12869349  1
  Al  Al145  1  0.36734641  0.24952023  0.63290986  1
  Al  Al146  1  0.36384470  0.74539828  0.13204145  1
  Al  Al147  1  0.36388575  0.74795845  0.63671292  1
  Al  Al148  1  0.86661316  0.25049387  0.13794065  1
  Al  Al149  1  0.86126437  0.25530262  0.63189966  1
  Al  Al150  1  0.86210117  0.74577787  0.13444832  1
  Al  Al151  1  0.86841402  0.74893004  0.63214413  1
  Al  Al152  1  0.36337934  0.24971099  0.36917135  1
  Al  Al153  1  0.36453872  0.24838842  0.87241123  1
  Al  Al154  1  0.36441885  0.74774828  0.36233354  1
  Al  Al155  1  0.36295907  0.74907430  0.87096050  1
  Al  Al156  1  0.86654755  0.25233108  0.36188665  1
  Al  Al157  1  0.86370195  0.24886392  0.86526493  1
  Al  Al158  1  0.86822121  0.74564845  0.36196532  1
  Al  Al159  1  0.86606694  0.74711808  0.87260934  1
  Al  Al160  1  0.13706794  0.13328589  0.24679846  1
  Al  Al161  1  0.13685250  0.13098274  0.75067757  1
  Al  Al162  1  0.13309386  0.63579539  0.24731221  1
  Al  Al163  1  0.13487530  0.63976978  0.75060809  1
  Al  Al164  1  0.63723360  0.13517303  0.25029602  1
  Al  Al165  1  0.63453764  0.13760153  0.75221084  1
  Al  Al166  1  0.63285600  0.63386152  0.25291863  1
  Al  Al167  1  0.63592023  0.63424596  0.74929766  1
  Al  Al168  1  0.36275633  0.13436372  0.24966880  1
  Al  Al169  1  0.36781269  0.13838392  0.75593555  1
  Al  Al170  1  0.36683306  0.63368108  0.24894302  1
  Al  Al171  1  0.36669586  0.63403581  0.75737152  1
  Al  Al172  1  0.86528522  0.13685052  0.24917655  1
  Al  Al173  1  0.86520693  0.13687124  0.74706171  1
  Al  Al174  1  0.86530414  0.62659999  0.25288390  1
  Al  Al175  1  0.86540369  0.63890011  0.74504147  1
  Al  Al176  1  0.12939437  0.36578647  0.24525727  1
  Al  Al177  1  0.13892576  0.36304709  0.75035812  1
  Al  Al178  1  0.13725039  0.86821091  0.24887004  1
  Al  Al179  1  0.13788333  0.86822788  0.75078159  1
  Al  Al180  1  0.63541630  0.36741331  0.25064726  1
  Al  Al181  1  0.63130631  0.36361107  0.74702896  1
  Al  Al182  1  0.63849611  0.86417306  0.25628609  1
  Al  Al183  1  0.63784117  0.86049885  0.75109338  1
  Al  Al184  1  0.36537627  0.36919646  0.24694771  1
  Al  Al185  1  0.36651747  0.36225113  0.75131883  1
  Al  Al186  1  0.36318225  0.86871031  0.24936904  1
  Al  Al187  1  0.36295387  0.86247537  0.75284359  1
  Al  Al188  1  0.86592061  0.36917319  0.24733502  1
  Al  Al189  1  0.86358570  0.36368110  0.74802884  1
  Al  Al190  1  0.86554353  0.86254884  0.25089160  1
  Al  Al191  1  0.86541398  0.86221592  0.74458891  1
  Al  Al192  1  0.17908053  0.33235376  0.49897699  1
  Al  Al193  1  0.00070139  0.32861822  0.81763094  1
  Al  Al194  1  0.32172604  0.00064515  0.82722753  1
  Al  Al195  1  0.49885894  0.32920523  0.17652809  1
  Al  Al196  1  0.18470335  0.49906053  0.82713679  1
  Al  Al197  1  0.18251277  0.80670208  0.49769597  1
  Al  Al198  1  0.82690992  0.31429047  0.00156547  1
  Al  Al199  1  0.00141985  0.17216858  0.82927586  1
  Al  Al200  1  0.67999958  0.82373087  -0.00036421  1
  Al  Al201  1  0.50236649  0.81253879  0.32805553  1
  Al  Al202  1  0.16639873  0.50179039  0.67225957  1
  Al  Al203  1  0.18405253  0.17142796  0.49722346  1
  Al  Al204  1  0.67218421  0.00065868  0.17867645  1
  Al  Al205  1  0.32167432  0.00157993  0.17826517  1
  Al  Al206  1  0.49774162  0.82204687  0.16818303  1
  Al  Al207  1  0.49910482  0.31006481  0.81184114  1
  Al  Al208  1  0.81675602  0.50222625  0.67744233  1
  Al  Al209  1  0.81547793  0.67863905  0.49794907  1
  Al  Al210  1  0.68387180  0.66955704  0.00211515  1
  Al  Al211  1  0.33045281  0.49972750  0.68617297  1
  Al  Al212  1  0.18026805  0.31472601  0.00146849  1
  Al  Al213  1  0.67128586  0.31494745  -0.00028728  1
  Al  Al214  1  0.50027386  0.18989456  0.68912457  1
  Al  Al215  1  0.67281275  0.49868417  0.81695368  1
  Al  Al216  1  0.31348726  0.67905717  0.49885736  1
  Al  Al217  1  0.50058725  0.67214591  0.68385638  1
  Al  Al218  1  -0.00010042  0.19341830  0.66587151  1
  Al  Al219  1  0.82685232  0.49822771  0.83146769  1
  Al  Al220  1  0.67382933  0.32068972  0.49870777  1
  Al  Al221  1  0.66705793  0.00048007  0.83248146  1
  Al  Al222  1  0.50025768  0.17726936  0.32755984  1
  Al  Al223  1  0.50106620  0.82817757  0.67512623  1
  Al  Al224  1  0.49793006  0.17317205  0.17142155  1
  Al  Al225  1  0.17780833  0.50059726  0.31359454  1
  Al  Al226  1  -0.00108201  0.66802754  0.82181560  1
  Al  Al227  1  0.32130379  0.00104337  0.67088784  1
  Al  Al228  1  0.81016029  0.17071626  0.49705950  1
  Al  Al229  1  0.82640534  0.32935187  0.49690702  1
  Al  Al230  1  0.67922877  -0.00007318  0.67492491  1
  Al  Al231  1  0.17864598  0.67434207  -0.00034269  1
  Al  Al232  1  0.49865799  0.81292637  0.82685854  1
  Al  Al233  1  0.83296457  0.00299789  0.82303365  1
  Al  Al234  1  0.00220176  0.17861376  0.31495011  1
  Al  Al235  1  0.00246905  0.81756360  0.31583980  1
  Al  Al236  1  -0.00220429  0.68268589  0.18280468  1
  Al  Al237  1  0.83232262  0.00068622  0.18079096  1
  Al  Al238  1  0.00016504  0.82846098  0.81830336  1
  Au  Au239  1  0.16133201  0.33257088  0.50007345  1
  Au  Au240  1  0.33625551  0.67100898  -0.00105346  1
  Au  Au241  1  0.34002995  0.50324036  0.32212281  1
  Au  Au242  1  0.50142863  0.82853763  0.33414529  1
  Au  Au243  1  0.84829303  0.00097459  0.17544149  1
  Au  Au244  1  0.00166479  0.17617796  0.84139223  1
  Au  Au245  1  0.32785036  0.32871735  -0.00193244  1
  Au  Au246  1  0.49909536  0.33339553  0.16456986  1
  Au  Au247  1  0.00196544  0.16319016  0.32276070  1
  Au  Au248  1  0.50408487  0.67344972  0.66748871  1
  Au  Au249  1  0.34232604  0.32500966  0.50120953  1
  Au  Au250  1  0.66476172  0.82210610  0.50244611  1
  Au  Au251  1  0.00068123  0.82076231  0.65787471  1
  Au  Au252  1  0.49596547  0.82780967  0.15301971  1
  Au  Au253  1  0.67486743  0.33107309  -0.00144380  1
  Au  Au254  1  0.50052998  0.65552573  0.17725128  1
  Au  Au255  1  0.16546126  0.00161908  0.17482778  1
  Au  Au256  1  0.50648614  0.33829427  0.33838787  1
  Au  Au257  1  0.82607709  0.49708539  0.17025668  1
  Au  Au258  1  0.00254236  0.83242712  0.32358949  1
  Au  Au259  1  0.33980366  0.49933408  0.67253427  1
  Au  Au260  1  0.83168843  0.82594527  0.49521149  1
  Au  Au261  1  0.82879919  0.50206067  0.67288783  1
  Au  Au262  1  0.16306961  0.50235165  0.32148911  1
  Au  Au263  1  0.33806762  0.00175330  0.66884830  1
  Au  Au264  1  0.15919961  -0.00423670  0.66897373  1
  Au  Au265  1  0.16985334  0.66565511  0.00180706  1
  Au  Au266  1  -0.00137776  0.17613813  0.66465967  1
  Au  Au267  1  0.17426816  0.83432610  0.00343471  1
  Au  Au268  1  0.83551642  0.00478913  0.83984180  1
  Au  Au269  1  0.32707007  0.00159807  0.16705309  1
  Au  Au270  1  0.82921015  0.82275440  0.00485039  1
  Au  Au271  1  -0.00283540  0.65225205  0.82751542  1
  Au  Au272  1  0.31997663  0.00121842  0.33886391  1
  Au  Au273  1  0.66058743  0.00119425  0.16646393  1
  Au  Au274  1  0.17922895  0.15503343  0.49646222  1
  Au  Au275  1  0.15030483  0.50487243  0.67622450  1
  Au  Au276  1  0.49935969  0.16536675  0.33158977  1
  Au  Au277  1  -0.00401078  0.33869806  0.32074704  1
  Au  Au278  1  0.50220014  0.18008526  0.67552487  1
  Au  Au279  1  0.65090914  0.00246729  0.82793137  1
  Au  Au280  1  0.00174663  0.83365330  0.83464212  1
  Au  Au281  1  0.82943784  0.34504779  0.49740095  1
  Au  Au282  1  0.82860581  -0.00425476  0.66183523  1
  Au  Au283  1  0.67812571  0.00015762  0.34107904  1
  Au  Au284  1  -0.00160416  0.67083476  0.17064708  1
  Au  Au285  1  0.32981045  0.82524475  0.50149856  1
  Au  Au286  1  0.82020323  0.15730303  0.49429347  1
  Au  Au287  1  0.17295429  0.00453907  0.84054224  1
