# generated using pymatgen
data_Ca24Ti8Al207Au49
_symmetry_space_group_name_H-M   'P 1'
_cell_length_a   17.32018759
_cell_length_b   17.32014110
_cell_length_c   17.32107959
_cell_angle_alpha   90.00136062
_cell_angle_beta   90.00061548
_cell_angle_gamma   90.00355870
_symmetry_Int_Tables_number   1
_chemical_formula_structural   Ca24Ti8Al207Au49
_chemical_formula_sum   'Ca24 Ti8 Al207 Au49'
_cell_volume   5196.11762389
_cell_formula_units_Z   1
loop_
 _symmetry_equiv_pos_site_id
 _symmetry_equiv_pos_as_xyz
  1  'x, y, z'
loop_
 _atom_site_type_symbol
 _atom_site_label
 _atom_site_symmetry_multiplicity
 _atom_site_fract_x
 _atom_site_fract_y
 _atom_site_fract_z
 _atom_site_occupancy
  Ca  Ca0  1  0.24586386  0.00171527  0.00007371  1
  Ca  Ca1  1  0.24399525  -0.00185068  0.49944851  1
  Ca  Ca2  1  0.25126897  0.49835653  -0.00085753  1
  Ca  Ca3  1  0.25158857  0.50011547  0.50086241  1
  Ca  Ca4  1  0.74991113  0.00280646  0.00481294  1
  Ca  Ca5  1  0.75580394  0.00082384  0.49910495  1
  Ca  Ca6  1  0.74801765  0.49705472  -0.00021857  1
  Ca  Ca7  1  0.75127946  0.50465361  0.50083190  1
  Ca  Ca8  1  -0.00201042  0.24911268  0.00378825  1
  Ca  Ca9  1  -0.00024941  0.24202666  0.49718026  1
  Ca  Ca10  1  0.00154283  0.74898732  0.00291141  1
  Ca  Ca11  1  0.00385634  0.75194810  0.49401732  1
  Ca  Ca12  1  0.50530909  0.25027669  -0.00278432  1
  Ca  Ca13  1  0.50137137  0.25043196  0.50240368  1
  Ca  Ca14  1  0.49995745  0.74627217  0.00238143  1
  Ca  Ca15  1  0.49815368  0.74381391  0.49900449  1
  Ca  Ca16  1  0.00195580  -0.00033985  0.25569355  1
  Ca  Ca17  1  -0.00208498  0.00259922  0.75021324  1
  Ca  Ca18  1  0.00187886  0.49950376  0.25158324  1
  Ca  Ca19  1  -0.00065660  0.49817468  0.74790493  1
  Ca  Ca20  1  0.50124962  -0.00078173  0.24412598  1
  Ca  Ca21  1  0.49962169  0.00100124  0.74574577  1
  Ca  Ca22  1  0.49989041  0.50116038  0.24657213  1
  Ca  Ca23  1  0.50038936  0.50029846  0.74610196  1
  Ti  Ti24  1  0.24726592  0.25052572  0.25160299  1
  Ti  Ti25  1  0.25071231  0.25079064  0.74824478  1
  Ti  Ti26  1  0.24847994  0.74963535  0.24907820  1
  Ti  Ti27  1  0.24891151  0.74863035  0.75077569  1
  Ti  Ti28  1  0.75210513  0.25019285  0.25038042  1
  Ti  Ti29  1  0.74941727  0.25261143  0.74823580  1
  Ti  Ti30  1  0.74929173  0.74952747  0.25010125  1
  Ti  Ti31  1  0.74965032  0.74692390  0.74987098  1
  Al  Al32  1  0.08159437  0.08054269  0.07830234  1
  Al  Al33  1  0.08785934  0.08443632  0.57518810  1
  Al  Al34  1  0.09705896  0.58536604  0.08759278  1
  Al  Al35  1  0.08380480  0.58074675  0.58060852  1
  Al  Al36  1  0.59512235  0.08772571  0.08604264  1
  Al  Al37  1  0.58006984  0.09078615  0.58588973  1
  Al  Al38  1  0.58281606  0.57665287  0.08422046  1
  Al  Al39  1  0.58053333  0.59415580  0.58568975  1
  Al  Al40  1  0.40381640  0.41539540  0.08080556  1
  Al  Al41  1  0.41115115  0.42334898  0.59016088  1
  Al  Al42  1  0.41974606  0.91765613  0.08405026  1
  Al  Al43  1  0.40935405  0.90809195  0.57670234  1
  Al  Al44  1  0.89977111  0.41612334  0.08184329  1
  Al  Al45  1  0.91277827  0.42120950  0.57652896  1
  Al  Al46  1  0.91151567  0.91889465  0.09221839  1
  Al  Al47  1  0.92240294  0.92402141  0.58162627  1
  Al  Al48  1  0.41080395  0.07947273  0.42577837  1
  Al  Al49  1  0.41817391  0.08235685  0.91904722  1
  Al  Al50  1  0.41287420  0.58080584  0.42185132  1
  Al  Al51  1  0.41738948  0.58193855  0.91494402  1
  Al  Al52  1  0.91722011  0.08739002  0.41243021  1
  Al  Al53  1  0.91207174  0.08469747  0.91472715  1
  Al  Al54  1  0.91430544  0.59272649  0.41385958  1
  Al  Al55  1  0.91604356  0.57110331  0.91408397  1
  Al  Al56  1  0.09141921  0.41975728  0.41132144  1
  Al  Al57  1  0.08355539  0.42530786  0.92582462  1
  Al  Al58  1  0.08971203  0.91498092  0.41129255  1
  Al  Al59  1  0.08912609  0.92647067  0.91754974  1
  Al  Al60  1  0.58628942  0.42674444  0.42397635  1
  Al  Al61  1  0.58732272  0.40993939  0.91934858  1
  Al  Al62  1  0.58568115  0.92160125  0.41570957  1
  Al  Al63  1  0.58454390  0.92467982  0.92364257  1
  Al  Al64  1  0.08547384  0.08282645  0.41173636  1
  Al  Al65  1  0.08532477  0.08472407  0.91412788  1
  Al  Al66  1  0.08380787  0.58348866  0.40730696  1
  Al  Al67  1  0.09139789  0.58541950  0.92604701  1
  Al  Al68  1  0.59037705  0.07815125  0.42212496  1
  Al  Al69  1  0.59234491  0.08930855  0.92285979  1
  Al  Al70  1  0.59414238  0.58688616  0.42493381  1
  Al  Al71  1  0.57897176  0.57940232  0.91164803  1
  Al  Al72  1  0.41229776  0.42291685  0.42157190  1
  Al  Al73  1  0.41197061  0.41151032  0.91870168  1
  Al  Al74  1  0.40462454  0.91152501  0.42164586  1
  Al  Al75  1  0.41844281  0.92208252  0.92290785  1
  Al  Al76  1  0.91477641  0.41785378  0.41686179  1
  Al  Al77  1  0.89695874  0.41433606  0.92144894  1
  Al  Al78  1  0.92581983  0.91865303  0.41004294  1
  Al  Al79  1  0.90927941  0.92666731  0.91885905  1
  Al  Al80  1  0.09339789  0.42493411  0.08875355  1
  Al  Al81  1  0.08956828  0.41979798  0.57606550  1
  Al  Al82  1  0.08077657  0.91733825  0.08213314  1
  Al  Al83  1  0.08672832  0.91245725  0.57474187  1
  Al  Al84  1  0.59180281  0.41243661  0.07898719  1
  Al  Al85  1  0.57983272  0.41934795  0.58114659  1
  Al  Al86  1  0.58699064  0.92493167  0.09189798  1
  Al  Al87  1  0.57652122  0.92263479  0.57707502  1
  Al  Al88  1  0.42345841  0.07884826  0.08233227  1
  Al  Al89  1  0.42015434  0.09763661  0.58383528  1
  Al  Al90  1  0.41129751  0.57766081  0.08478675  1
  Al  Al91  1  0.41614540  0.58721437  0.59195067  1
  Al  Al92  1  0.90729124  0.08035106  0.08615503  1
  Al  Al93  1  0.90871034  0.08559521  0.57598854  1
  Al  Al94  1  0.91732773  0.57360520  0.08739819  1
  Al  Al95  1  0.90748766  0.58836915  0.57671529  1
  Al  Al96  1  0.24506490  0.13712090  0.13737041  1
  Al  Al97  1  0.24882745  0.13277387  0.63521196  1
  Al  Al98  1  0.24670632  0.63365223  0.13099097  1
  Al  Al99  1  0.25101875  0.62732205  0.63514482  1
  Al  Al100  1  0.75072647  0.13333121  0.13496669  1
  Al  Al101  1  0.75163799  0.13580901  0.63539772  1
  Al  Al102  1  0.75134129  0.63391940  0.13457871  1
  Al  Al103  1  0.75004402  0.62982725  0.63395092  1
  Al  Al104  1  0.24621713  0.36488409  0.13242256  1
  Al  Al105  1  0.25103604  0.36692704  0.62938203  1
  Al  Al106  1  0.24345070  0.86477789  0.13480247  1
  Al  Al107  1  0.24980843  0.86494872  0.63015325  1
  Al  Al108  1  0.75476217  0.36452230  0.13281858  1
  Al  Al109  1  0.75259349  0.37124779  0.63532730  1
  Al  Al110  1  0.74894924  0.86933251  0.13847233  1
  Al  Al111  1  0.75027243  0.86256408  0.63323311  1
  Al  Al112  1  0.24215407  0.13213196  0.36766292  1
  Al  Al113  1  0.24955541  0.13482566  0.86548737  1
  Al  Al114  1  0.24703684  0.62981772  0.36133547  1
  Al  Al115  1  0.25166519  0.63295428  0.86636451  1
  Al  Al116  1  0.75298808  0.13383093  0.36568881  1
  Al  Al117  1  0.75027957  0.13610147  0.86493835  1
  Al  Al118  1  0.75443807  0.63555746  0.36800504  1
  Al  Al119  1  0.74781683  0.62633873  0.86223273  1
  Al  Al120  1  0.24545295  0.36903944  0.36744986  1
  Al  Al121  1  0.25161500  0.36438647  0.86961502  1
  Al  Al122  1  0.24573564  0.86572090  0.36759936  1
  Al  Al123  1  0.24687015  0.86540604  0.86895583  1
  Al  Al124  1  0.75786191  0.36494468  0.36527004  1
  Al  Al125  1  0.75019024  0.36933096  0.86468830  1
  Al  Al126  1  0.74761645  0.86619352  0.36653468  1
  Al  Al127  1  0.75005344  0.86391131  0.86609006  1
  Al  Al128  1  0.13107798  0.25270611  0.13875595  1
  Al  Al129  1  0.13776613  0.24740646  0.62730372  1
  Al  Al130  1  0.13331184  0.74889966  0.13243369  1
  Al  Al131  1  0.13890276  0.75212404  0.63323841  1
  Al  Al132  1  0.63904704  0.24730224  0.13456575  1
  Al  Al133  1  0.63053633  0.25282138  0.63669049  1
  Al  Al134  1  0.63935510  0.74955397  0.13215769  1
  Al  Al135  1  0.63487210  0.74040138  0.63388212  1
  Al  Al136  1  0.13416044  0.24669087  0.36871162  1
  Al  Al137  1  0.13714643  0.25265296  0.86281964  1
  Al  Al138  1  0.13511876  0.75479780  0.36321834  1
  Al  Al139  1  0.13633928  0.74381790  0.87076509  1
  Al  Al140  1  0.63685694  0.24900227  0.36314833  1
  Al  Al141  1  0.63729480  0.24926003  0.86325529  1
  Al  Al142  1  0.63657508  0.74189114  0.36572613  1
  Al  Al143  1  0.64002136  0.74772000  0.86840646  1
  Al  Al144  1  0.36311418  0.25629855  0.13671482  1
  Al  Al145  1  0.37092251  0.25121027  0.63602684  1
  Al  Al146  1  0.36265237  0.74394034  0.13531191  1
  Al  Al147  1  0.36252825  0.74885336  0.63596733  1
  Al  Al148  1  0.86771785  0.25326760  0.13482600  1
  Al  Al149  1  0.86300608  0.25027291  0.62916075  1
  Al  Al150  1  0.86519332  0.75179219  0.13786841  1
  Al  Al151  1  0.86196116  0.74459691  0.63460878  1
  Al  Al152  1  0.36122976  0.25282396  0.36589432  1
  Al  Al153  1  0.36431839  0.25168469  0.86529258  1
  Al  Al154  1  0.36166280  0.75151953  0.36517869  1
  Al  Al155  1  0.36147710  0.74890299  0.86646730  1
  Al  Al156  1  0.86728459  0.24660709  0.36750740  1
  Al  Al157  1  0.86059042  0.25292244  0.86518866  1
  Al  Al158  1  0.86369667  0.74985716  0.36377945  1
  Al  Al159  1  0.86337440  0.74494496  0.86197218  1
  Al  Al160  1  0.13294171  0.13020405  0.25434211  1
  Al  Al161  1  0.13631633  0.13412539  0.74926047  1
  Al  Al162  1  0.13646601  0.63283539  0.24777863  1
  Al  Al163  1  0.13333438  0.63631733  0.74469029  1
  Al  Al164  1  0.63959980  0.12852315  0.24834606  1
  Al  Al165  1  0.63532272  0.13668225  0.74599631  1
  Al  Al166  1  0.63207229  0.63527666  0.24877929  1
  Al  Al167  1  0.63557034  0.62898635  0.74807204  1
  Al  Al168  1  0.36046373  0.13690505  0.25086149  1
  Al  Al169  1  0.36463547  0.13391703  0.74735803  1
  Al  Al170  1  0.36748785  0.63503706  0.25360286  1
  Al  Al171  1  0.36429636  0.63412005  0.74541270  1
  Al  Al172  1  0.86542527  0.13619508  0.24934235  1
  Al  Al173  1  0.86330870  0.13840407  0.74907957  1
  Al  Al174  1  0.86330963  0.62998438  0.24964958  1
  Al  Al175  1  0.86403680  0.62866206  0.74917140  1
  Al  Al176  1  0.13473704  0.36739540  0.25111400  1
  Al  Al177  1  0.13841265  0.36417037  0.74274890  1
  Al  Al178  1  0.13340490  0.87138847  0.25382122  1
  Al  Al179  1  0.13795902  0.86476390  0.75218088  1
  Al  Al180  1  0.63735189  0.36302371  0.24589023  1
  Al  Al181  1  0.63770532  0.37071764  0.74901646  1
  Al  Al182  1  0.63707449  0.86986310  0.25121204  1
  Al  Al183  1  0.63685343  0.86145774  0.74692311  1
  Al  Al184  1  0.36299566  0.36717146  0.25225546  1
  Al  Al185  1  0.36400918  0.36492290  0.74575851  1
  Al  Al186  1  0.36058402  0.86464708  0.24972688  1
  Al  Al187  1  0.36015980  0.86690540  0.74662304  1
  Al  Al188  1  0.86653306  0.37046758  0.24945572  1
  Al  Al189  1  0.86401157  0.37142362  0.75078767  1
  Al  Al190  1  0.86423168  0.86512611  0.25176949  1
  Al  Al191  1  0.86173465  0.86272528  0.75020182  1
  Al  Al192  1  0.00042408  0.82174445  0.67239744  1
  Al  Al193  1  0.31052688  0.49996754  0.18258521  1
  Al  Al194  1  -0.00043093  0.17450925  0.81932647  1
  Al  Al195  1  0.49955390  0.67336229  0.81286643  1
  Al  Al196  1  0.50311606  0.33230261  0.32243818  1
  Al  Al197  1  0.50086930  0.17935709  0.17369628  1
  Al  Al198  1  0.00001117  0.17511247  0.18286478  1
  Al  Al199  1  0.68426514  0.49824299  0.17371783  1
  Al  Al200  1  0.82282760  0.82644613  0.00121532  1
  Al  Al201  1  0.32087854  0.82080888  -0.00057512  1
  Al  Al202  1  0.50092941  0.16781526  0.81559400  1
  Al  Al203  1  0.32830027  0.49841428  0.81710107  1
  Al  Al204  1  0.17457317  -0.00294733  0.67762909  1
  Al  Al205  1  0.67227412  -0.00061454  0.67074188  1
  Al  Al206  1  0.31133419  0.18216439  0.50096294  1
  Al  Al207  1  0.00103050  0.31667724  0.32182370  1
  Al  Al208  1  0.00062218  0.32020191  0.66911044  1
  Al  Al209  1  0.82578989  -0.00042218  0.68333988  1
  Al  Al210  1  0.67911136  0.32672936  0.50013676  1
  Al  Al211  1  0.50080048  0.82168256  0.32818290  1
  Al  Al212  1  0.00207283  0.66883927  0.82269533  1
  Al  Al213  1  0.69198029  0.30841291  -0.00137926  1
  Al  Al214  1  0.68217940  0.50055238  0.32574123  1
  Al  Al215  1  0.81189295  0.18811841  0.00132940  1
  Al  Al216  1  0.32697627  0.68258267  0.50117662  1
  Al  Al217  1  0.83176529  0.81844528  0.49974172  1
  Al  Al218  1  0.33042827  0.18563645  0.00291500  1
  Al  Al219  1  0.31521308  0.00033977  0.32542825  1
  Al  Al220  1  0.50108332  0.81929728  0.17315698  1
  Al  Al221  1  0.68339612  0.17446075  0.50165244  1
  Al  Al222  1  0.31390220  -0.00025097  0.82090485  1
  Al  Al223  1  0.17358275  0.68616884  0.49753318  1
  Al  Al224  1  0.67063290  0.81018155  0.50091569  1
  Al  Al225  1  0.49821904  0.16938402  0.32870095  1
  Al  Al226  1  0.82503912  0.00031513  0.31660256  1
  Al  Al227  1  0.17362825  0.18431175  0.00026384  1
  Al  Al228  1  0.50135273  0.82900600  0.82787518  1
  Al  Al229  1  -0.00182145  0.82214379  0.18478718  1
  Al  Al230  1  0.32036699  0.00063786  0.17335901  1
  Al  Al231  1  0.17463920  0.49934227  0.82052810  1
  Al  Al232  1  -0.00130217  0.83036694  0.82694900  1
  Al  Al233  1  -0.00057126  0.33062916  0.83328533  1
  Al  Al234  1  0.00026807  0.68921990  0.31752559  1
  Al  Al235  1  0.69125668  -0.00010886  0.82544640  1
  Al  Al236  1  0.50056295  0.81120856  0.66956499  1
  Al  Al237  1  0.82241766  0.66896778  -0.00196997  1
  Al  Al238  1  0.50068051  0.32611256  0.81872362  1
  Au  Au239  1  0.84558745  0.82709710  0.49817634  1
  Au  Au240  1  0.17556072  0.49909725  0.67146482  1
  Au  Au241  1  0.66794485  0.82719322  0.50086216  1
  Au  Au242  1  -0.00048603  0.16132040  0.17342022  1
  Au  Au243  1  0.00085994  0.33253642  0.65860547  1
  Au  Au244  1  0.67394050  0.49653202  0.83566388  1
  Au  Au245  1  0.00088772  0.66025308  0.83181165  1
  Au  Au246  1  0.50206652  0.15362380  0.32886841  1
  Au  Au247  1  0.50206110  0.65858681  0.33565469  1
  Au  Au248  1  0.82643939  0.32433921  0.49915797  1
  Au  Au249  1  0.50251704  0.82116814  0.84345581  1
  Au  Au250  1  0.83847803  0.66916109  0.00191890  1
  Au  Au251  1  0.66639028  0.50352521  0.66459106  1
  Au  Au252  1  -0.00598867  0.32961317  0.84851848  1
  Au  Au253  1  0.31983902  0.50107923  0.33054898  1
  Au  Au254  1  0.49797459  0.32897259  0.15417034  1
  Au  Au255  1  0.67404024  0.00114533  0.82616534  1
  Au  Au256  1  0.00125429  0.65809435  0.17355002  1
  Au  Au257  1  0.32822027  0.16894060  0.00648323  1
  Au  Au258  1  0.00139933  0.32651456  0.33518283  1
  Au  Au259  1  0.67361646  0.84063906  0.00707185  1
  Au  Au260  1  0.32960351  0.82945085  0.00174475  1
  Au  Au261  1  0.16441597  0.82577207  -0.00193260  1
  Au  Au262  1  0.00350125  0.83281256  0.18015066  1
  Au  Au263  1  0.32448274  -0.00101164  0.83477025  1
  Au  Au264  1  0.17139596  0.00185512  0.16775160  1
  Au  Au265  1  0.17477897  0.66997153  0.49425071  1
  Au  Au266  1  0.50197599  0.17383758  0.83177061  1
  Au  Au267  1  0.83136135  0.50311972  0.32681933  1
  Au  Au268  1  0.49882486  0.82753295  0.66471788  1
  Au  Au269  1  0.49595305  0.83793320  0.32719480  1
  Au  Au270  1  0.83484362  0.50161389  0.67365893  1
  Au  Au271  1  0.33764805  0.00357103  0.65983280  1
  Au  Au272  1  0.82175036  0.17411961  -0.00063394  1
  Au  Au273  1  -0.00261867  0.34169871  0.15942318  1
  Au  Au274  1  -0.00254028  0.67306604  0.65792112  1
  Au  Au275  1  0.49973715  0.33115153  0.66835416  1
  Au  Au276  1  0.67769783  0.00068003  0.32498553  1
  Au  Au277  1  0.33458896  0.32796572  0.50309071  1
  Au  Au278  1  0.32356338  0.66321229  -0.00102768  1
  Au  Au279  1  0.49903734  0.66898487  0.16318527  1
  Au  Au280  1  -0.00207663  0.15916869  0.66713479  1
  Au  Au281  1  0.16310743  -0.00277547  0.66972679  1
  Au  Au282  1  0.16960614  0.32212682  0.49660582  1
  Au  Au283  1  0.66017402  0.66763338  -0.00242294  1
  Au  Au284  1  0.50314624  0.34380231  0.33393462  1
  Au  Au285  1  0.17403845  0.33452486  0.00114259  1
  Au  Au286  1  -0.00145839  0.84629402  0.82919882  1
  Au  Au287  1  0.32544767  0.00007253  0.33549839  1
