# generated using pymatgen
data_Ca24Ti8Al207Au49
_symmetry_space_group_name_H-M   'P 1'
_cell_length_a   17.32211985
_cell_length_b   17.32214671
_cell_length_c   17.32221206
_cell_angle_alpha   89.99988724
_cell_angle_beta   89.99782939
_cell_angle_gamma   90.00059194
_symmetry_Int_Tables_number   1
_chemical_formula_structural   Ca24Ti8Al207Au49
_chemical_formula_sum   'Ca24 Ti8 Al207 Au49'
_cell_volume   5197.63887845
_cell_formula_units_Z   1
loop_
 _symmetry_equiv_pos_site_id
 _symmetry_equiv_pos_as_xyz
  1  'x, y, z'
loop_
 _atom_site_type_symbol
 _atom_site_label
 _atom_site_symmetry_multiplicity
 _atom_site_fract_x
 _atom_site_fract_y
 _atom_site_fract_z
 _atom_site_occupancy
  Ca  Ca0  1  0.24791396  0.00255924  0.00326461  1
  Ca  Ca1  1  0.25345891  0.00311421  0.49570605  1
  Ca  Ca2  1  0.24831724  0.49994932  0.00210979  1
  Ca  Ca3  1  0.24932626  0.49629894  0.49824013  1
  Ca  Ca4  1  0.75125110  0.00347707  0.00388681  1
  Ca  Ca5  1  0.75172282  0.00324365  0.49564626  1
  Ca  Ca6  1  0.74754647  0.49648069  -0.00087083  1
  Ca  Ca7  1  0.75223783  0.49869347  0.49876589  1
  Ca  Ca8  1  0.00005513  0.24993153  0.00450374  1
  Ca  Ca9  1  -0.00084595  0.25190178  0.49717650  1
  Ca  Ca10  1  -0.00258170  0.74855071  0.00676713  1
  Ca  Ca11  1  -0.00170213  0.75090204  0.49285676  1
  Ca  Ca12  1  0.50109622  0.25065111  0.00073199  1
  Ca  Ca13  1  0.50069156  0.24975446  0.49816162  1
  Ca  Ca14  1  0.49757788  0.74621833  0.00269037  1
  Ca  Ca15  1  0.49883570  0.75134693  0.49666580  1
  Ca  Ca16  1  -0.00323510  0.00153383  0.25523626  1
  Ca  Ca17  1  0.00037366  0.00090529  0.75488090  1
  Ca  Ca18  1  -0.00144689  0.49648547  0.25146523  1
  Ca  Ca19  1  -0.00080013  0.49980865  0.74989628  1
  Ca  Ca20  1  0.50084035  0.00744360  0.25612879  1
  Ca  Ca21  1  0.49631140  0.00277550  0.74946909  1
  Ca  Ca22  1  0.50014343  0.49661739  0.25212695  1
  Ca  Ca23  1  0.50324186  0.49706980  0.75139332  1
  Ti  Ti24  1  0.25026523  0.25083197  0.25078524  1
  Ti  Ti25  1  0.24978303  0.25134178  0.74829028  1
  Ti  Ti26  1  0.24988826  0.74985790  0.24952366  1
  Ti  Ti27  1  0.24992646  0.74906522  0.75094595  1
  Ti  Ti28  1  0.75034408  0.24938516  0.25022041  1
  Ti  Ti29  1  0.74940617  0.25174594  0.75093104  1
  Ti  Ti30  1  0.75035456  0.75002504  0.25068256  1
  Ti  Ti31  1  0.74873627  0.74840102  0.74953104  1
  Al  Al32  1  0.07635304  0.09188567  0.08281901  1
  Al  Al33  1  0.08780505  0.09362999  0.57283939  1
  Al  Al34  1  0.07645805  0.58690153  0.09166803  1
  Al  Al35  1  0.07955497  0.58186167  0.57483953  1
  Al  Al36  1  0.57822985  0.09104352  0.09077271  1
  Al  Al37  1  0.58626812  0.09255193  0.57121477  1
  Al  Al38  1  0.58908883  0.58620711  0.08120779  1
  Al  Al39  1  0.58542602  0.57222941  0.58107125  1
  Al  Al40  1  0.41365110  0.41842549  0.08775246  1
  Al  Al41  1  0.41834402  0.40892241  0.57590581  1
  Al  Al42  1  0.41861185  0.92027640  0.08386408  1
  Al  Al43  1  0.41026301  0.91308634  0.57098760  1
  Al  Al44  1  0.91195664  0.41504978  0.09942141  1
  Al  Al45  1  0.91560599  0.41764065  0.57560088  1
  Al  Al46  1  0.92483728  0.92183006  0.09964763  1
  Al  Al47  1  0.91347695  0.90949935  0.56752249  1
  Al  Al48  1  0.40800295  0.08903974  0.40876160  1
  Al  Al49  1  0.41434302  0.09331786  0.92764996  1
  Al  Al50  1  0.41563216  0.57502297  0.41202409  1
  Al  Al51  1  0.42537005  0.57638329  0.92419197  1
  Al  Al52  1  0.91029250  0.08158568  0.41034657  1
  Al  Al53  1  0.92281374  0.09072816  0.91522180  1
  Al  Al54  1  0.90950016  0.57857745  0.40703995  1
  Al  Al55  1  0.91957273  0.57707477  0.91354636  1
  Al  Al56  1  0.07706132  0.40804610  0.41063644  1
  Al  Al57  1  0.07765583  0.41733894  0.92311030  1
  Al  Al58  1  0.08284100  0.92036863  0.41211097  1
  Al  Al59  1  0.08973269  0.91519931  0.92683347  1
  Al  Al60  1  0.59016439  0.40798186  0.41797197  1
  Al  Al61  1  0.58583536  0.40642348  0.91573145  1
  Al  Al62  1  0.58111083  0.92336666  0.41702073  1
  Al  Al63  1  0.58219854  0.92399455  0.91724938  1
  Al  Al64  1  0.09096324  0.08796168  0.41432097  1
  Al  Al65  1  0.08057051  0.08954764  0.91714741  1
  Al  Al66  1  0.07665883  0.58217614  0.41667515  1
  Al  Al67  1  0.07851388  0.58348623  0.92206845  1
  Al  Al68  1  0.58621244  0.09697910  0.40992463  1
  Al  Al69  1  0.58213865  0.08352641  0.91935145  1
  Al  Al70  1  0.58065242  0.57502285  0.41617434  1
  Al  Al71  1  0.58966155  0.58224870  0.92248466  1
  Al  Al72  1  0.41226587  0.41229328  0.41354308  1
  Al  Al73  1  0.42503350  0.40879451  0.91614897  1
  Al  Al74  1  0.40606566  0.92103814  0.41198816  1
  Al  Al75  1  0.42052597  0.91817518  0.92326638  1
  Al  Al76  1  0.91246470  0.41373129  0.40255927  1
  Al  Al77  1  0.91661241  0.41923261  0.91630529  1
  Al  Al78  1  0.90833620  0.91600924  0.40792450  1
  Al  Al79  1  0.92698995  0.92634567  0.92230732  1
  Al  Al80  1  0.07529423  0.41201154  0.09157447  1
  Al  Al81  1  0.08336587  0.41640275  0.57522417  1
  Al  Al82  1  0.08326251  0.89857346  0.08533540  1
  Al  Al83  1  0.07888227  0.91919148  0.57241587  1
  Al  Al84  1  0.58753103  0.41343883  0.07816451  1
  Al  Al85  1  0.59242242  0.41029585  0.58017464  1
  Al  Al86  1  0.57995060  0.92264579  0.08387667  1
  Al  Al87  1  0.57729162  0.91750851  0.57434607  1
  Al  Al88  1  0.41707696  0.09707032  0.08735095  1
  Al  Al89  1  0.41210360  0.08744484  0.56957179  1
  Al  Al90  1  0.41418104  0.57698629  0.09065441  1
  Al  Al91  1  0.42131342  0.57932210  0.57751491  1
  Al  Al92  1  0.91766228  0.08401298  0.09406832  1
  Al  Al93  1  0.92055665  0.08691480  0.57078328  1
  Al  Al94  1  0.91419792  0.58071019  0.10028103  1
  Al  Al95  1  0.91654248  0.58095727  0.57525946  1
  Al  Al96  1  0.25330435  0.13725601  0.13480381  1
  Al  Al97  1  0.25020230  0.13863267  0.63154501  1
  Al  Al98  1  0.25034817  0.63323267  0.13497409  1
  Al  Al99  1  0.25164324  0.63017887  0.63724438  1
  Al  Al100  1  0.75074151  0.13872742  0.13171161  1
  Al  Al101  1  0.74902076  0.13841127  0.63399248  1
  Al  Al102  1  0.75195306  0.63561420  0.13603130  1
  Al  Al103  1  0.75133472  0.63495493  0.63462783  1
  Al  Al104  1  0.25374699  0.36521885  0.13901128  1
  Al  Al105  1  0.24814123  0.36781895  0.63664652  1
  Al  Al106  1  0.24595964  0.86381429  0.12998486  1
  Al  Al107  1  0.24903275  0.86348114  0.62787234  1
  Al  Al108  1  0.75168950  0.36237388  0.13675855  1
  Al  Al109  1  0.74989959  0.36074954  0.62934878  1
  Al  Al110  1  0.74929139  0.86301723  0.13697233  1
  Al  Al111  1  0.75481594  0.86364025  0.63461230  1
  Al  Al112  1  0.25243702  0.13713986  0.36777813  1
  Al  Al113  1  0.25197772  0.14057047  0.86422112  1
  Al  Al114  1  0.24871809  0.63531581  0.36142605  1
  Al  Al115  1  0.24799120  0.63296739  0.86615337  1
  Al  Al116  1  0.75120352  0.13626292  0.36319960  1
  Al  Al117  1  0.75064981  0.14194800  0.87177682  1
  Al  Al118  1  0.75403630  0.63392236  0.36243277  1
  Al  Al119  1  0.74592683  0.63496241  0.86617901  1
  Al  Al120  1  0.24628878  0.36313256  0.36432885  1
  Al  Al121  1  0.24803687  0.36468413  0.86184810  1
  Al  Al122  1  0.25179893  0.86511821  0.36927344  1
  Al  Al123  1  0.25147762  0.86248354  0.87100847  1
  Al  Al124  1  0.75190110  0.36180545  0.36905692  1
  Al  Al125  1  0.74566367  0.36213527  0.86879108  1
  Al  Al126  1  0.75703360  0.87128827  0.36409666  1
  Al  Al127  1  0.74784606  0.86328638  0.86673485  1
  Al  Al128  1  0.13368586  0.25076154  0.13734600  1
  Al  Al129  1  0.13537698  0.24960799  0.62926095  1
  Al  Al130  1  0.13351533  0.74946343  0.13375504  1
  Al  Al131  1  0.13776566  0.75273040  0.63516650  1
  Al  Al132  1  0.63697323  0.24878102  0.13167042  1
  Al  Al133  1  0.63134978  0.25260723  0.63303769  1
  Al  Al134  1  0.63253598  0.74639047  0.13537142  1
  Al  Al135  1  0.63227448  0.75055308  0.63566724  1
  Al  Al136  1  0.13620755  0.24838324  0.36966957  1
  Al  Al137  1  0.12958872  0.25000567  0.86435672  1
  Al  Al138  1  0.13544455  0.75228323  0.36325626  1
  Al  Al139  1  0.13725742  0.75055583  0.87148525  1
  Al  Al140  1  0.63785637  0.24855016  0.36978463  1
  Al  Al141  1  0.63123160  0.25254484  0.87255114  1
  Al  Al142  1  0.63772438  0.75268141  0.36308326  1
  Al  Al143  1  0.63119145  0.74532310  0.86508569  1
  Al  Al144  1  0.36778765  0.24349872  0.13548349  1
  Al  Al145  1  0.36821074  0.24963402  0.63249027  1
  Al  Al146  1  0.37021510  0.75374929  0.13663395  1
  Al  Al147  1  0.36349535  0.74953435  0.63380185  1
  Al  Al148  1  0.87167843  0.25247042  0.13763793  1
  Al  Al149  1  0.86636908  0.25054717  0.63323310  1
  Al  Al150  1  0.87088018  0.74750334  0.13852951  1
  Al  Al151  1  0.86307145  0.75144806  0.63435978  1
  Al  Al152  1  0.36640053  0.24580596  0.36747307  1
  Al  Al153  1  0.36736643  0.25260907  0.86351445  1
  Al  Al154  1  0.36411822  0.75323931  0.36326219  1
  Al  Al155  1  0.36925177  0.74849070  0.86571574  1
  Al  Al156  1  0.86944352  0.25544564  0.36416435  1
  Al  Al157  1  0.87035865  0.25138946  0.86702456  1
  Al  Al158  1  0.86541848  0.75160929  0.36195029  1
  Al  Al159  1  0.86339764  0.74911582  0.86695540  1
  Al  Al160  1  0.13685301  0.13770824  0.24942952  1
  Al  Al161  1  0.13543470  0.13847821  0.75217099  1
  Al  Al162  1  0.13212053  0.63347257  0.24441789  1
  Al  Al163  1  0.13663806  0.63280446  0.75026136  1
  Al  Al164  1  0.63053407  0.13932137  0.25094629  1
  Al  Al165  1  0.63447993  0.14173070  0.75049147  1
  Al  Al166  1  0.63614557  0.63315047  0.24936142  1
  Al  Al167  1  0.63103966  0.63385621  0.75060236  1
  Al  Al168  1  0.36831610  0.13676976  0.25583228  1
  Al  Al169  1  0.36774706  0.13951848  0.74751941  1
  Al  Al170  1  0.36463403  0.63545487  0.24681695  1
  Al  Al171  1  0.36998000  0.63483768  0.75070272  1
  Al  Al172  1  0.86681129  0.13817282  0.25051303  1
  Al  Al173  1  0.86421214  0.13625598  0.75447861  1
  Al  Al174  1  0.86490770  0.63032477  0.24855015  1
  Al  Al175  1  0.86345973  0.63684847  0.74984328  1
  Al  Al176  1  0.12960353  0.36403880  0.24921769  1
  Al  Al177  1  0.13153789  0.36551066  0.74899392  1
  Al  Al178  1  0.13646282  0.86216643  0.24796376  1
  Al  Al179  1  0.13798372  0.86211274  0.75533785  1
  Al  Al180  1  0.63724893  0.36298609  0.25252011  1
  Al  Al181  1  0.62977751  0.36075603  0.75274667  1
  Al  Al182  1  0.63479007  0.86528940  0.24893596  1
  Al  Al183  1  0.63426824  0.86297622  0.75003407  1
  Al  Al184  1  0.36597566  0.36047572  0.25040985  1
  Al  Al185  1  0.37035979  0.36297266  0.74728543  1
  Al  Al186  1  0.36107102  0.86919248  0.25189130  1
  Al  Al187  1  0.36176800  0.86204414  0.74939284  1
  Al  Al188  1  0.86432895  0.36744938  0.25093087  1
  Al  Al189  1  0.86769381  0.36180889  0.74928136  1
  Al  Al190  1  0.86699803  0.86507386  0.24841962  1
  Al  Al191  1  0.86503897  0.86610459  0.75676524  1
  Al  Al192  1  0.68168172  0.00308005  0.82555210  1
  Al  Al193  1  0.82721945  0.68343065  0.49755618  1
  Al  Al194  1  0.68621166  0.49785471  0.32752866  1
  Al  Al195  1  0.82377952  0.32681827  0.00311289  1
  Al  Al196  1  0.32469055  0.49807684  0.82243431  1
  Al  Al197  1  0.32143988  0.67924184  0.00099618  1
  Al  Al198  1  0.31746293  0.49817621  0.30906526  1
  Al  Al199  1  0.32952160  0.31205171  0.00114887  1
  Al  Al200  1  0.18206911  0.17463004  0.00012828  1
  Al  Al201  1  0.50153994  0.31213611  0.17040771  1
  Al  Al202  1  0.00202520  0.18275678  0.31637188  1
  Al  Al203  1  0.67089588  0.00202108  0.66958545  1
  Al  Al204  1  0.83301379  -0.00020269  0.67379262  1
  Al  Al205  1  0.32550216  0.00466465  0.18469806  1
  Al  Al206  1  0.68394730  0.49803243  0.17479761  1
  Al  Al207  1  0.00075133  0.82658738  0.31588759  1
  Al  Al208  1  0.67327005  0.67074286  0.49837995  1
  Al  Al209  1  -0.00006358  0.17682422  0.68342016  1
  Al  Al210  1  0.17233913  0.32641857  0.00221726  1
  Al  Al211  1  0.00036508  0.67864076  0.82554683  1
  Al  Al212  1  -0.00073337  0.67349770  0.31549621  1
  Al  Al213  1  0.18739907  0.00109260  0.32387269  1
  Al  Al214  1  0.17253268  0.00122602  0.82929886  1
  Al  Al215  1  0.68325545  0.49665984  0.68279546  1
  Al  Al216  1  0.00042239  0.67140982  0.67149608  1
  Al  Al217  1  0.81864403  0.00189190  0.19142235  1
  Al  Al218  1  -0.00184949  0.82988926  0.67662193  1
  Al  Al219  1  0.16709829  -0.00108342  0.17055565  1
  Al  Al220  1  0.50022116  0.67344262  0.32308692  1
  Al  Al221  1  0.32971836  0.00130234  0.82385749  1
  Al  Al222  1  0.17005869  -0.00047878  0.67498795  1
  Al  Al223  1  0.32991542  0.68368789  0.49779319  1
  Al  Al224  1  0.68319884  0.00218349  0.32176823  1
  Al  Al225  1  0.82209024  0.66729963  0.00062832  1
  Al  Al226  1  0.49377991  0.82523092  0.67440902  1
  Al  Al227  1  0.83168897  0.82906618  0.00584847  1
  Al  Al228  1  0.67221028  0.81493840  -0.00052727  1
  Al  Al229  1  0.49885636  0.82882907  0.32408581  1
  Al  Al230  1  0.81810891  0.49843413  0.81611973  1
  Al  Al231  1  0.69023862  0.82893115  0.49835472  1
  Al  Al232  1  0.49951789  0.17690760  0.82256129  1
  Al  Al233  1  0.32798877  0.00072178  0.66898026  1
  Al  Al234  1  0.31654496  0.31224939  0.49923677  1
  Al  Al235  1  0.81518509  0.18123337  0.49721486  1
  Al  Al236  1  0.17400338  0.68170758  0.49968480  1
  Al  Al237  1  0.17567072  0.49760157  0.18088682  1
  Al  Al238  1  0.50147603  0.31392720  0.32735595  1
  Au  Au239  1  0.00001564  0.33883631  0.66997732  1
  Au  Au240  1  0.66266840  0.17537335  0.00193210  1
  Au  Au241  1  0.67302201  0.49821953  0.16577732  1
  Au  Au242  1  -0.00213350  0.82325847  0.66097022  1
  Au  Au243  1  0.49581513  0.83408118  0.66573578  1
  Au  Au244  1  0.83120559  0.50110382  0.66755225  1
  Au  Au245  1  0.33966778  0.49676781  0.83025950  1
  Au  Au246  1  0.50408433  0.66165531  0.66705982  1
  Au  Au247  1  0.65424445  0.00406887  0.67452084  1
  Au  Au248  1  0.00010890  0.16767871  0.66917886  1
  Au  Au249  1  0.17143237  0.83183725  0.49461784  1
  Au  Au250  1  0.17735801  0.49849895  0.16817916  1
  Au  Au251  1  0.67155672  0.00182801  0.32696098  1
  Au  Au252  1  0.33972516  0.00635028  0.17730419  1
  Au  Au253  1  0.83546221  0.16730286  0.00527315  1
  Au  Au254  1  0.16184038  0.49951618  0.83404938  1
  Au  Au255  1  0.50043351  0.83510214  0.17535565  1
  Au  Au256  1  0.15698953  0.67730298  0.00354448  1
  Au  Au257  1  0.82762141  0.33795216  -0.00173791  1
  Au  Au258  1  0.33042999  0.66484532  0.00161801  1
  Au  Au259  1  0.50166478  0.32836373  0.17558053  1
  Au  Au260  1  0.50257213  0.33738800  0.67224259  1
  Au  Au261  1  0.16464563  0.50298094  0.66386446  1
  Au  Au262  1  0.67276700  0.00464015  0.16604884  1
  Au  Au263  1  0.66923787  0.49596214  0.83354539  1
  Au  Au264  1  0.32312999  0.83853150  0.00262417  1
  Au  Au265  1  0.83431251  -0.00054863  0.65683972  1
  Au  Au266  1  0.33167049  0.49600199  0.65861882  1
  Au  Au267  1  0.00030841  0.32463616  0.83748669  1
  Au  Au268  1  0.32487437  0.32863915  0.00116906  1
  Au  Au269  1  0.32748363  0.00593171  0.84000565  1
  Au  Au270  1  0.82776346  0.65181516  0.00106353  1
  Au  Au271  1  0.15439135  -0.00137565  0.17223747  1
  Au  Au272  1  0.67365741  0.82388408  0.49826845  1
  Au  Au273  1  0.50099837  0.66230803  0.17354519  1
  Au  Au274  1  0.17128552  0.49977248  0.33983933  1
  Au  Au275  1  0.82729164  0.32871535  0.49703259  1
  Au  Au276  1  0.83980881  0.84221665  0.00884575  1
  Au  Au277  1  0.17304424  0.00415585  0.65896757  1
  Au  Au278  1  0.83032534  0.00333595  0.83959883  1
  Au  Au279  1  0.65798605  0.82421761  -0.00087196  1
  Au  Au280  1  0.49725294  0.17745394  0.83500871  1
  Au  Au281  1  0.49690377  0.17031245  0.65893604  1
  Au  Au282  1  0.00059407  0.17247156  0.32970000  1
  Au  Au283  1  0.32756284  0.66709668  0.49507720  1
  Au  Au284  1  0.16856013  0.32121044  0.49836681  1
  Au  Au285  1  0.50307297  0.66713421  0.83713160  1
  Au  Au286  1  0.50037226  0.83590035  0.82976477  1
  Au  Au287  1  0.00554665  0.82682674  0.84309062  1
