# generated using pymatgen
data_Ca24Ti8Al207Au49
_symmetry_space_group_name_H-M   'P 1'
_cell_length_a   17.32461496
_cell_length_b   17.32611277
_cell_length_c   17.32494013
_cell_angle_alpha   90.00045503
_cell_angle_beta   89.99893774
_cell_angle_gamma   89.99862424
_symmetry_Int_Tables_number   1
_chemical_formula_structural   Ca24Ti8Al207Au49
_chemical_formula_sum   'Ca24 Ti8 Al207 Au49'
_cell_volume   5200.39665497
_cell_formula_units_Z   1
loop_
 _symmetry_equiv_pos_site_id
 _symmetry_equiv_pos_as_xyz
  1  'x, y, z'
loop_
 _atom_site_type_symbol
 _atom_site_label
 _atom_site_symmetry_multiplicity
 _atom_site_fract_x
 _atom_site_fract_y
 _atom_site_fract_z
 _atom_site_occupancy
  Ca  Ca0  1  0.24926198  -0.00073866  0.00061651  1
  Ca  Ca1  1  0.25131707  -0.00225796  0.50269904  1
  Ca  Ca2  1  0.25096818  0.50048297  -0.00282019  1
  Ca  Ca3  1  0.24815477  0.50186322  0.50033692  1
  Ca  Ca4  1  0.74877916  -0.00140474  0.00198181  1
  Ca  Ca5  1  0.74973091  -0.00098714  0.49776285  1
  Ca  Ca6  1  0.74651006  0.50273826  -0.00043518  1
  Ca  Ca7  1  0.74980096  0.50137132  0.50135371  1
  Ca  Ca8  1  0.00174719  0.25224774  0.00051400  1
  Ca  Ca9  1  0.00047743  0.25092051  0.49898888  1
  Ca  Ca10  1  0.00012348  0.74820870  -0.00097554  1
  Ca  Ca11  1  0.00063319  0.74709500  0.50075313  1
  Ca  Ca12  1  0.50137378  0.25420054  0.00346001  1
  Ca  Ca13  1  0.49838104  0.25152809  0.49594157  1
  Ca  Ca14  1  0.50068311  0.74596939  -0.00282194  1
  Ca  Ca15  1  0.49852806  0.75245039  0.50193274  1
  Ca  Ca16  1  -0.00257437  0.00006371  0.24671370  1
  Ca  Ca17  1  0.00257179  0.00042175  0.75122623  1
  Ca  Ca18  1  -0.00279513  0.50156811  0.25141030  1
  Ca  Ca19  1  0.00195022  0.50056268  0.75512750  1
  Ca  Ca20  1  0.50113589  0.00228357  0.24746638  1
  Ca  Ca21  1  0.49940863  -0.00272220  0.74711329  1
  Ca  Ca22  1  0.50318117  0.49713520  0.24561567  1
  Ca  Ca23  1  0.50133655  0.50149850  0.75513913  1
  Ti  Ti24  1  0.25097437  0.25040674  0.24990413  1
  Ti  Ti25  1  0.25028891  0.25051627  0.74992604  1
  Ti  Ti26  1  0.24939476  0.74966089  0.24990713  1
  Ti  Ti27  1  0.25061655  0.74969825  0.75079846  1
  Ti  Ti28  1  0.74906221  0.25078310  0.24936171  1
  Ti  Ti29  1  0.74890251  0.25200229  0.75110260  1
  Ti  Ti30  1  0.75033445  0.74924559  0.25007344  1
  Ti  Ti31  1  0.74889626  0.74869056  0.75028719  1
  Al  Al32  1  0.09008857  0.07927227  0.08473650  1
  Al  Al33  1  0.08997618  0.07427418  0.58829638  1
  Al  Al34  1  0.08047840  0.58133258  0.07689521  1
  Al  Al35  1  0.09106701  0.58525265  0.58008574  1
  Al  Al36  1  0.58067166  0.08768678  0.08983255  1
  Al  Al37  1  0.58299488  0.07342823  0.58037199  1
  Al  Al38  1  0.58849018  0.58910860  0.08544659  1
  Al  Al39  1  0.58597571  0.58179295  0.58433282  1
  Al  Al40  1  0.42301079  0.41402955  0.08194739  1
  Al  Al41  1  0.41422473  0.42226204  0.58227084  1
  Al  Al42  1  0.40697134  0.91604731  0.08057531  1
  Al  Al43  1  0.41641610  0.91460387  0.59261829  1
  Al  Al44  1  0.91466663  0.42101491  0.08255112  1
  Al  Al45  1  0.91148555  0.42526527  0.58815091  1
  Al  Al46  1  0.91086209  0.91968596  0.08611471  1
  Al  Al47  1  0.91087360  0.92107099  0.58548579  1
  Al  Al48  1  0.42422703  0.08670310  0.41302584  1
  Al  Al49  1  0.41480470  0.07396925  0.91678100  1
  Al  Al50  1  0.41277978  0.58301370  0.42135166  1
  Al  Al51  1  0.40999489  0.58517325  0.91858141  1
  Al  Al52  1  0.91251696  0.07672972  0.40867521  1
  Al  Al53  1  0.91528357  0.07875286  0.92097401  1
  Al  Al54  1  0.91885654  0.57945449  0.41759460  1
  Al  Al55  1  0.91247794  0.59144679  0.91613861  1
  Al  Al56  1  0.08710929  0.42542115  0.41099212  1
  Al  Al57  1  0.09548473  0.41800509  0.91447135  1
  Al  Al58  1  0.08575538  0.91773471  0.42274511  1
  Al  Al59  1  0.08385799  0.91372487  0.91599277  1
  Al  Al60  1  0.57982557  0.41427559  0.40735530  1
  Al  Al61  1  0.58972874  0.42032521  0.91985991  1
  Al  Al62  1  0.59485102  0.92363380  0.41995802  1
  Al  Al63  1  0.58712686  0.91240284  0.92173318  1
  Al  Al64  1  0.07876908  0.07962646  0.41702152  1
  Al  Al65  1  0.08833326  0.07920800  0.92120936  1
  Al  Al66  1  0.09234935  0.58513529  0.41695579  1
  Al  Al67  1  0.08675481  0.58235077  0.90793284  1
  Al  Al68  1  0.58359634  0.08127478  0.40557191  1
  Al  Al69  1  0.58335228  0.07916070  0.92268968  1
  Al  Al70  1  0.58571297  0.57818567  0.41738993  1
  Al  Al71  1  0.58988105  0.58292023  0.91979885  1
  Al  Al72  1  0.42085733  0.41201896  0.40902475  1
  Al  Al73  1  0.41297933  0.42438458  0.91333682  1
  Al  Al74  1  0.41746760  0.92400645  0.42558461  1
  Al  Al75  1  0.40840014  0.91376810  0.91880673  1
  Al  Al76  1  0.91862897  0.42182207  0.41652665  1
  Al  Al77  1  0.91591497  0.42139892  0.91962735  1
  Al  Al78  1  0.90783056  0.92141899  0.41208088  1
  Al  Al79  1  0.91797877  0.91375816  0.91703502  1
  Al  Al80  1  0.08683151  0.40972666  0.07572105  1
  Al  Al81  1  0.08500782  0.42581069  0.58351767  1
  Al  Al82  1  0.08948927  0.91951265  0.08439614  1
  Al  Al83  1  0.09329068  0.91823082  0.58386802  1
  Al  Al84  1  0.59103757  0.41464613  0.08494193  1
  Al  Al85  1  0.58519705  0.42227648  0.58366205  1
  Al  Al86  1  0.59071831  0.91409758  0.07945890  1
  Al  Al87  1  0.58144926  0.91169888  0.58626760  1
  Al  Al88  1  0.41896747  0.08242062  0.09190578  1
  Al  Al89  1  0.40858943  0.07253485  0.58720072  1
  Al  Al90  1  0.42191763  0.59342820  0.07982707  1
  Al  Al91  1  0.41217596  0.58384637  0.58212449  1
  Al  Al92  1  0.91144136  0.07869257  0.08804939  1
  Al  Al93  1  0.91156417  0.07457184  0.58653221  1
  Al  Al94  1  0.90709879  0.58650229  0.07909580  1
  Al  Al95  1  0.91215139  0.57965009  0.58799781  1
  Al  Al96  1  0.24869299  0.13489753  0.13770665  1
  Al  Al97  1  0.25095467  0.13010272  0.63506408  1
  Al  Al98  1  0.25462974  0.63646042  0.13125620  1
  Al  Al99  1  0.25035773  0.63390455  0.63673551  1
  Al  Al100  1  0.75000937  0.13394466  0.13594177  1
  Al  Al101  1  0.75054768  0.13341673  0.63499428  1
  Al  Al102  1  0.74612789  0.63613453  0.12961589  1
  Al  Al103  1  0.74874692  0.63035105  0.63441158  1
  Al  Al104  1  0.25046998  0.36316342  0.13097362  1
  Al  Al105  1  0.25103844  0.36509752  0.63170454  1
  Al  Al106  1  0.25151033  0.86401024  0.13401690  1
  Al  Al107  1  0.25036518  0.86823435  0.63683738  1
  Al  Al108  1  0.74554675  0.36412363  0.13054099  1
  Al  Al109  1  0.74932419  0.37011179  0.63424147  1
  Al  Al110  1  0.74836777  0.86412245  0.13322448  1
  Al  Al111  1  0.75283044  0.86455316  0.63535434  1
  Al  Al112  1  0.25186397  0.13556362  0.36426589  1
  Al  Al113  1  0.24800261  0.13387365  0.86379731  1
  Al  Al114  1  0.24849538  0.62937858  0.36298294  1
  Al  Al115  1  0.25342462  0.63246759  0.86663189  1
  Al  Al116  1  0.74817696  0.13137808  0.36175279  1
  Al  Al117  1  0.74895501  0.13633958  0.86575561  1
  Al  Al118  1  0.74691859  0.63435039  0.36771250  1
  Al  Al119  1  0.74832463  0.63448305  0.86887057  1
  Al  Al120  1  0.25173485  0.36670270  0.36587304  1
  Al  Al121  1  0.24916147  0.36779799  0.86828537  1
  Al  Al122  1  0.24840583  0.86591658  0.36556226  1
  Al  Al123  1  0.25174803  0.86399605  0.86472993  1
  Al  Al124  1  0.74685756  0.36325432  0.36701787  1
  Al  Al125  1  0.74756147  0.36837980  0.87021836  1
  Al  Al126  1  0.75158958  0.86888879  0.36354399  1
  Al  Al127  1  0.74748337  0.86200023  0.86729204  1
  Al  Al128  1  0.13591026  0.25115004  0.13611516  1
  Al  Al129  1  0.13670026  0.25005215  0.63712844  1
  Al  Al130  1  0.13630381  0.74868131  0.13527314  1
  Al  Al131  1  0.13730716  0.74599376  0.63617072  1
  Al  Al132  1  0.63183044  0.25092394  0.13451998  1
  Al  Al133  1  0.63825855  0.25242885  0.63588956  1
  Al  Al134  1  0.63524416  0.74757924  0.13352126  1
  Al  Al135  1  0.63616808  0.74927354  0.63669939  1
  Al  Al136  1  0.13271773  0.25024732  0.36410273  1
  Al  Al137  1  0.13833965  0.25283712  0.86461022  1
  Al  Al138  1  0.13755264  0.74707772  0.36537216  1
  Al  Al139  1  0.13531026  0.74819004  0.86280061  1
  Al  Al140  1  0.63365390  0.25252864  0.36259260  1
  Al  Al141  1  0.63683272  0.25264251  0.86958047  1
  Al  Al142  1  0.63748238  0.74787878  0.36358306  1
  Al  Al143  1  0.63586437  0.74810708  0.86792558  1
  Al  Al144  1  0.37137732  0.25208348  0.13679608  1
  Al  Al145  1  0.36175370  0.24948455  0.63283899  1
  Al  Al146  1  0.36441967  0.74991887  0.13144550  1
  Al  Al147  1  0.36411898  0.75134561  0.63744172  1
  Al  Al148  1  0.86529064  0.25047268  0.13532080  1
  Al  Al149  1  0.86277826  0.25268006  0.63572023  1
  Al  Al150  1  0.86200370  0.74794726  0.13382647  1
  Al  Al151  1  0.86038310  0.74592904  0.62926875  1
  Al  Al152  1  0.36473476  0.25227604  0.36721206  1
  Al  Al153  1  0.36263126  0.25355913  0.86355057  1
  Al  Al154  1  0.36264096  0.74688627  0.36475037  1
  Al  Al155  1  0.36389844  0.74918445  0.86791110  1
  Al  Al156  1  0.86692824  0.25039434  0.36214098  1
  Al  Al157  1  0.86209615  0.25259968  0.86493374  1
  Al  Al158  1  0.86058755  0.74988994  0.36894036  1
  Al  Al159  1  0.86300830  0.74585029  0.86681127  1
  Al  Al160  1  0.13134680  0.13576369  0.24875131  1
  Al  Al161  1  0.13765036  0.13034395  0.74810315  1
  Al  Al162  1  0.13748756  0.63369324  0.25117462  1
  Al  Al163  1  0.13644290  0.63332971  0.75525312  1
  Al  Al164  1  0.63403796  0.13504267  0.24817451  1
  Al  Al165  1  0.63553084  0.13667362  0.74966929  1
  Al  Al166  1  0.63652144  0.63016980  0.24504616  1
  Al  Al167  1  0.63794067  0.62906896  0.75176828  1
  Al  Al168  1  0.36616032  0.13718792  0.24844871  1
  Al  Al169  1  0.36421635  0.13421618  0.74739454  1
  Al  Al170  1  0.36497915  0.63627184  0.24746966  1
  Al  Al171  1  0.36305500  0.62987227  0.75225587  1
  Al  Al172  1  0.86563273  0.13397561  0.25055292  1
  Al  Al173  1  0.86488689  0.13612166  0.74688643  1
  Al  Al174  1  0.86132034  0.63600225  0.24837556  1
  Al  Al175  1  0.86392995  0.63533214  0.75071420  1
  Al  Al176  1  0.13585385  0.36562038  0.25353574  1
  Al  Al177  1  0.13842663  0.36762495  0.75385134  1
  Al  Al178  1  0.13700170  0.86623477  0.24609156  1
  Al  Al179  1  0.13892945  0.86981796  0.74990842  1
  Al  Al180  1  0.63247102  0.36774693  0.24683764  1
  Al  Al181  1  0.63858684  0.37265258  0.75182057  1
  Al  Al182  1  0.63720987  0.86519049  0.25108430  1
  Al  Al183  1  0.63438883  0.86222164  0.74822338  1
  Al  Al184  1  0.36999450  0.36459869  0.25105464  1
  Al  Al185  1  0.36074225  0.37142343  0.75103723  1
  Al  Al186  1  0.36437566  0.86325554  0.24894160  1
  Al  Al187  1  0.36604562  0.86525949  0.74713887  1
  Al  Al188  1  0.86490791  0.36532943  0.24752791  1
  Al  Al189  1  0.86182549  0.36835769  0.74907164  1
  Al  Al190  1  0.86160672  0.86700784  0.24942263  1
  Al  Al191  1  0.86259102  0.86101356  0.75041915  1
  Al  Al192  1  0.31841387  -0.00096114  0.81446165  1
  Al  Al193  1  0.00039784  0.32920693  0.82852903  1
  Al  Al194  1  0.67034298  0.17727499  0.49805337  1
  Al  Al195  1  0.17863256  0.17842777  0.50036325  1
  Al  Al196  1  -0.00097090  0.82635899  0.16942608  1
  Al  Al197  1  0.31048214  0.67701413  0.50015126  1
  Al  Al198  1  0.49982405  0.17298530  0.82224951  1
  Al  Al199  1  0.32705828  0.49994063  0.17905435  1
  Al  Al200  1  0.17409912  0.18366234  0.00083298  1
  Al  Al201  1  0.67294685  -0.00121319  0.82619318  1
  Al  Al202  1  0.68367002  -0.00219278  0.67431313  1
  Al  Al203  1  0.81842521  0.50016532  0.32441124  1
  Al  Al204  1  0.32744597  0.82738616  0.50181944  1
  Al  Al205  1  0.00144614  0.32330433  0.67141345  1
  Al  Al206  1  -0.00105887  0.67230221  0.17194642  1
  Al  Al207  1  -0.00247055  0.32290243  0.17645098  1
  Al  Al208  1  0.81556805  0.81450951  -0.00086131  1
  Al  Al209  1  0.00091332  0.67143584  0.68406401  1
  Al  Al210  1  0.17369618  0.49944854  0.18210186  1
  Al  Al211  1  0.82534250  0.17864443  0.49891336  1
  Al  Al212  1  0.18498553  0.82667078  -0.00029744  1
  Al  Al213  1  0.82728902  -0.00046052  0.80911190  1
  Al  Al214  1  0.81361201  0.50068107  0.17229507  1
  Al  Al215  1  0.50011282  0.18730907  0.31148091  1
  Al  Al216  1  0.50078508  0.67128084  0.82831602  1
  Al  Al217  1  0.18214391  0.67559526  -0.00210148  1
  Al  Al218  1  0.00189496  0.17315884  0.82314671  1
  Al  Al219  1  0.67934798  0.82035411  0.50048903  1
  Al  Al220  1  0.49938777  0.68569452  0.67250214  1
  Al  Al221  1  0.49962203  0.81752776  0.16851960  1
  Al  Al222  1  0.50104626  0.67161361  0.31433802  1
  Al  Al223  1  0.49925119  0.31995745  0.67428075  1
  Al  Al224  1  0.81510248  0.50181131  0.81818229  1
  Al  Al225  1  0.31464488  -0.00012847  0.17981544  1
  Al  Al226  1  -0.00038675  0.81368870  0.82668426  1
  Al  Al227  1  0.18068927  0.00086281  0.31320909  1
  Al  Al228  1  0.49974300  0.82849116  0.81808077  1
  Al  Al229  1  0.68473943  -0.00038167  0.18555634  1
  Al  Al230  1  0.50178530  0.82754473  0.32891730  1
  Al  Al231  1  0.00017538  0.67036595  0.32563505  1
  Al  Al232  1  0.18083665  0.50050797  0.68506180  1
  Al  Al233  1  0.00081988  0.82832444  0.67278781  1
  Al  Al234  1  -0.00012923  0.82348906  0.32051738  1
  Al  Al235  1  0.32794406  0.17947399  0.00105669  1
  Al  Al236  1  0.82020523  0.17890338  0.00397025  1
  Al  Al237  1  0.17663830  0.81325152  0.50106960  1
  Al  Al238  1  0.50164293  0.32974134  0.82947779  1
  Au  Au239  1  0.16744601  -0.00038987  0.32381835  1
  Au  Au240  1  0.49932722  0.33663566  0.67260159  1
  Au  Au241  1  0.66650127  0.67237685  0.49977405  1
  Au  Au242  1  0.32485395  0.33945653  -0.00302470  1
  Au  Au243  1  0.83668271  0.16496747  0.49882630  1
  Au  Au244  1  0.32698765  0.16350180  0.00422287  1
  Au  Au245  1  0.33881396  0.16661746  0.50060911  1
  Au  Au246  1  0.67327789  -0.00053357  0.17245024  1
  Au  Au247  1  0.00156224  0.16302054  0.16654029  1
  Au  Au248  1  0.66404183  0.17517512  0.00256958  1
  Au  Au249  1  0.16942901  0.34150261  0.49819990  1
  Au  Au250  1  0.67568979  0.50058494  0.67394264  1
  Au  Au251  1  0.83117100  0.34063768  0.50048335  1
  Au  Au252  1  0.83021995  0.50222358  0.82605532  1
  Au  Au253  1  0.17119084  -0.00186446  0.82655557  1
  Au  Au254  1  0.00184588  0.17301541  0.84009088  1
  Au  Au255  1  0.33940498  0.00161852  0.32585190  1
  Au  Au256  1  -0.00094718  0.83227960  0.33418091  1
  Au  Au257  1  0.49858383  0.15838270  0.66318967  1
  Au  Au258  1  -0.00263981  0.16648305  0.33106260  1
  Au  Au259  1  0.17057822  0.66710603  -0.00270493  1
  Au  Au260  1  0.49948027  0.83064764  0.83422294  1
  Au  Au261  1  0.16656786  0.16662001  0.50098421  1
  Au  Au262  1  0.49914317  0.82483776  0.15387557  1
  Au  Au263  1  0.82696356  0.83640843  0.50026189  1
  Au  Au264  1  0.82708737  0.82683602  0.00196819  1
  Au  Au265  1  0.32707071  0.50125800  0.67597171  1
  Au  Au266  1  0.00131163  0.33465477  0.33230659  1
  Au  Au267  1  0.83417078  0.66604274  0.49946757  1
  Au  Au268  1  0.82705563  -0.00185645  0.82638472  1
  Au  Au269  1  0.32484366  0.49836804  0.33854674  1
  Au  Au270  1  0.00212435  0.65652493  0.67743831  1
  Au  Au271  1  0.67077399  0.49721159  0.32346205  1
  Au  Au272  1  0.66671136  0.16711410  0.49757443  1
  Au  Au273  1  0.49907483  0.65997953  0.32650408  1
  Au  Au274  1  0.66456798  0.33437682  0.49778399  1
  Au  Au275  1  0.33923300  0.50452093  0.16699178  1
  Au  Au276  1  0.00174362  0.84505191  0.67752847  1
  Au  Au277  1  -0.00113182  0.34009893  0.67359401  1
  Au  Au278  1  0.00001111  0.33146891  0.16762110  1
  Au  Au279  1  0.49935618  0.16982708  0.83821027  1
  Au  Au280  1  0.33507605  0.33278351  0.49752425  1
  Au  Au281  1  -0.00032408  0.15772960  0.66552313  1
  Au  Au282  1  0.16001031  0.49781115  0.17194553  1
  Au  Au283  1  0.82889760  0.17035923  0.00135483  1
  Au  Au284  1  0.82476717  0.33481775  0.00012310  1
  Au  Au285  1  0.49894398  0.66913479  0.67013372  1
  Au  Au286  1  0.50359987  0.84126605  0.33949920  1
  Au  Au287  1  0.50362249  0.32468548  0.17344301  1
