# generated using pymatgen
data_Ca24Ti8Al207Au49
_symmetry_space_group_name_H-M   'P 1'
_cell_length_a   17.31833293
_cell_length_b   17.31751671
_cell_length_c   17.31696137
_cell_angle_alpha   89.99662222
_cell_angle_beta   90.00318946
_cell_angle_gamma   89.99876591
_symmetry_Int_Tables_number   1
_chemical_formula_structural   Ca24Ti8Al207Au49
_chemical_formula_sum   'Ca24 Ti8 Al207 Au49'
_cell_volume   5193.53886568
_cell_formula_units_Z   1
loop_
 _symmetry_equiv_pos_site_id
 _symmetry_equiv_pos_as_xyz
  1  'x, y, z'
loop_
 _atom_site_type_symbol
 _atom_site_label
 _atom_site_symmetry_multiplicity
 _atom_site_fract_x
 _atom_site_fract_y
 _atom_site_fract_z
 _atom_site_occupancy
  Ca  Ca0  1  0.25019952  -0.00040146  0.00251946  1
  Ca  Ca1  1  0.25191642  -0.00471372  0.49305521  1
  Ca  Ca2  1  0.24987289  0.50017818  -0.00078999  1
  Ca  Ca3  1  0.24532654  0.50171610  0.50029268  1
  Ca  Ca4  1  0.75247160  0.00063919  0.00236481  1
  Ca  Ca5  1  0.74805347  0.00201686  0.49536619  1
  Ca  Ca6  1  0.75361872  0.49925111  -0.00372575  1
  Ca  Ca7  1  0.75578969  0.49926099  0.50184176  1
  Ca  Ca8  1  -0.00253929  0.25162929  0.00034989  1
  Ca  Ca9  1  -0.00333769  0.25467050  0.49836130  1
  Ca  Ca10  1  -0.00297774  0.74193025  0.00348922  1
  Ca  Ca11  1  -0.00155099  0.73501273  0.50009101  1
  Ca  Ca12  1  0.50230808  0.25467774  0.00078766  1
  Ca  Ca13  1  0.50148713  0.24941720  0.50098208  1
  Ca  Ca14  1  0.50407406  0.74878380  0.00086072  1
  Ca  Ca15  1  0.50103942  0.74743222  0.49982017  1
  Ca  Ca16  1  -0.00367423  0.00039375  0.24516646  1
  Ca  Ca17  1  0.00120832  -0.00025403  0.74637047  1
  Ca  Ca18  1  -0.00012615  0.49842145  0.25227944  1
  Ca  Ca19  1  -0.00630720  0.50142942  0.74900053  1
  Ca  Ca20  1  0.50324560  -0.00264308  0.24907310  1
  Ca  Ca21  1  0.49868364  0.00000885  0.74522921  1
  Ca  Ca22  1  0.49874116  0.49796967  0.24920463  1
  Ca  Ca23  1  0.50146573  0.50063299  0.74939123  1
  Ti  Ti24  1  0.24903939  0.25043858  0.24992102  1
  Ti  Ti25  1  0.24895940  0.25502534  0.75125475  1
  Ti  Ti26  1  0.24940062  0.74815163  0.25041039  1
  Ti  Ti27  1  0.24970430  0.74539541  0.74949542  1
  Ti  Ti28  1  0.75151292  0.24897777  0.25288279  1
  Ti  Ti29  1  0.75063132  0.25187301  0.74648916  1
  Ti  Ti30  1  0.74993018  0.74980655  0.24779150  1
  Ti  Ti31  1  0.75004879  0.74841239  0.75043733  1
  Al  Al32  1  0.08492010  0.07927549  0.08356297  1
  Al  Al33  1  0.08253603  0.09552114  0.57343390  1
  Al  Al34  1  0.08829342  0.57842386  0.09093007  1
  Al  Al35  1  0.08005479  0.58625282  0.59741149  1
  Al  Al36  1  0.60240368  0.08153379  0.08913944  1
  Al  Al37  1  0.58649012  0.08094421  0.57680074  1
  Al  Al38  1  0.58229982  0.59066250  0.07439737  1
  Al  Al39  1  0.58331964  0.57785021  0.58527588  1
  Al  Al40  1  0.40279367  0.41931382  0.07460609  1
  Al  Al41  1  0.42611912  0.41649692  0.59247959  1
  Al  Al42  1  0.41970325  0.91854336  0.08201224  1
  Al  Al43  1  0.42167016  0.91049937  0.59057672  1
  Al  Al44  1  0.91332023  0.41506649  0.07921994  1
  Al  Al45  1  0.91163296  0.42629950  0.58612177  1
  Al  Al46  1  0.90380159  0.91372373  0.09055540  1
  Al  Al47  1  0.91778091  0.91886192  0.58048683  1
  Al  Al48  1  0.42564245  0.08651813  0.40679608  1
  Al  Al49  1  0.41660680  0.08171242  0.92273694  1
  Al  Al50  1  0.40148110  0.58752136  0.41717157  1
  Al  Al51  1  0.42090980  0.57795122  0.92541203  1
  Al  Al52  1  0.91027891  0.08871594  0.41332279  1
  Al  Al53  1  0.92120190  0.09336985  0.91829581  1
  Al  Al54  1  0.91010923  0.58414932  0.41908663  1
  Al  Al55  1  0.91006856  0.58373828  0.90033620  1
  Al  Al56  1  0.08891144  0.42206708  0.41332508  1
  Al  Al57  1  0.07851421  0.42136994  0.91776962  1
  Al  Al58  1  0.08430210  0.92139312  0.42179500  1
  Al  Al59  1  0.07234817  0.92058562  0.92726520  1
  Al  Al60  1  0.59798494  0.41378562  0.42538719  1
  Al  Al61  1  0.59646975  0.41582924  0.90644721  1
  Al  Al62  1  0.58107692  0.92605634  0.41632305  1
  Al  Al63  1  0.57989059  0.90868448  0.92417380  1
  Al  Al64  1  0.08320393  0.09126787  0.41634727  1
  Al  Al65  1  0.07669493  0.09457850  0.92025383  1
  Al  Al66  1  0.08440021  0.57964472  0.41349345  1
  Al  Al67  1  0.07386390  0.58774143  0.90595971  1
  Al  Al68  1  0.58598505  0.09145628  0.40866297  1
  Al  Al69  1  0.58186408  0.08541503  0.93217384  1
  Al  Al70  1  0.58347723  0.57465169  0.41716419  1
  Al  Al71  1  0.60145875  0.57923461  0.91374303  1
  Al  Al72  1  0.41806514  0.42872680  0.41611249  1
  Al  Al73  1  0.41888952  0.41146652  0.91800463  1
  Al  Al74  1  0.42062233  0.92317644  0.41879757  1
  Al  Al75  1  0.42196475  0.91512877  0.91608275  1
  Al  Al76  1  0.90967945  0.42405589  0.41566290  1
  Al  Al77  1  0.90414070  0.41888668  0.90754493  1
  Al  Al78  1  0.91333726  0.92707813  0.41693293  1
  Al  Al79  1  0.91173258  0.90561525  0.93152180  1
  Al  Al80  1  0.08618446  0.41996322  0.09267803  1
  Al  Al81  1  0.08460481  0.42607789  0.58577350  1
  Al  Al82  1  0.08453566  0.91977485  0.09011839  1
  Al  Al83  1  0.07883232  0.91461348  0.57467534  1
  Al  Al84  1  0.58788870  0.41790487  0.06530016  1
  Al  Al85  1  0.58878140  0.40557539  0.58788297  1
  Al  Al86  1  0.59666674  0.91883762  0.08849953  1
  Al  Al87  1  0.57746287  0.91782150  0.59445839  1
  Al  Al88  1  0.41413338  0.08336101  0.08366453  1
  Al  Al89  1  0.42264945  0.07412101  0.57770976  1
  Al  Al90  1  0.41800012  0.58420941  0.08574650  1
  Al  Al91  1  0.40819361  0.58868010  0.57852411  1
  Al  Al92  1  0.91123249  0.07769563  0.08765480  1
  Al  Al93  1  0.91440721  0.09538410  0.57514041  1
  Al  Al94  1  0.91508898  0.57867782  0.07970869  1
  Al  Al95  1  0.91344761  0.58808856  0.59398594  1
  Al  Al96  1  0.25440512  0.12984931  0.13715248  1
  Al  Al97  1  0.24715378  0.14098198  0.63480150  1
  Al  Al98  1  0.24791554  0.62823229  0.13706124  1
  Al  Al99  1  0.24810658  0.63027855  0.63144056  1
  Al  Al100  1  0.75027258  0.12982728  0.13729773  1
  Al  Al101  1  0.75125294  0.14005549  0.62646316  1
  Al  Al102  1  0.75008005  0.63674213  0.12522947  1
  Al  Al103  1  0.75533990  0.63004720  0.63359106  1
  Al  Al104  1  0.24910548  0.37239955  0.13810708  1
  Al  Al105  1  0.24485088  0.37428299  0.63520685  1
  Al  Al106  1  0.24825592  0.86978938  0.13577774  1
  Al  Al107  1  0.24897808  0.85887451  0.63736779  1
  Al  Al108  1  0.74877462  0.36399891  0.13533115  1
  Al  Al109  1  0.75316721  0.36624110  0.62865177  1
  Al  Al110  1  0.75210805  0.86500187  0.12794190  1
  Al  Al111  1  0.75162741  0.86112784  0.63421122  1
  Al  Al112  1  0.24210545  0.13743580  0.36582633  1
  Al  Al113  1  0.25678278  0.13563177  0.86552812  1
  Al  Al114  1  0.24609672  0.63380209  0.37095342  1
  Al  Al115  1  0.24839172  0.62570823  0.85975057  1
  Al  Al116  1  0.75110480  0.13521359  0.37323822  1
  Al  Al117  1  0.75053771  0.13580123  0.86487946  1
  Al  Al118  1  0.75665727  0.63257520  0.36676928  1
  Al  Al119  1  0.75045823  0.63010580  0.86695443  1
  Al  Al120  1  0.24658084  0.36461357  0.36818268  1
  Al  Al121  1  0.25026492  0.37249124  0.86472353  1
  Al  Al122  1  0.25068135  0.86324514  0.36472993  1
  Al  Al123  1  0.25119494  0.86317631  0.86533463  1
  Al  Al124  1  0.75240936  0.36180199  0.37449695  1
  Al  Al125  1  0.74881907  0.37188868  0.86071103  1
  Al  Al126  1  0.74944964  0.86475248  0.36576512  1
  Al  Al127  1  0.75415466  0.86299268  0.87173980  1
  Al  Al128  1  0.13794946  0.25106758  0.13629494  1
  Al  Al129  1  0.13660055  0.25264327  0.63202653  1
  Al  Al130  1  0.13620700  0.74379189  0.13555727  1
  Al  Al131  1  0.13431122  0.74093719  0.63630807  1
  Al  Al132  1  0.63551519  0.25093769  0.13891542  1
  Al  Al133  1  0.63696741  0.25438779  0.62651972  1
  Al  Al134  1  0.63918535  0.75221697  0.12854017  1
  Al  Al135  1  0.63352636  0.74451012  0.63552270  1
  Al  Al136  1  0.13459052  0.25309620  0.36846041  1
  Al  Al137  1  0.13589053  0.25386017  0.86629248  1
  Al  Al138  1  0.13499695  0.74599353  0.36258847  1
  Al  Al139  1  0.13568317  0.74129387  0.86659246  1
  Al  Al140  1  0.63769760  0.24724733  0.37221131  1
  Al  Al141  1  0.63890739  0.25594004  0.86539745  1
  Al  Al142  1  0.63525511  0.75118700  0.36523271  1
  Al  Al143  1  0.64139870  0.74792415  0.87273903  1
  Al  Al144  1  0.36032768  0.25399526  0.12811367  1
  Al  Al145  1  0.36473330  0.25898673  0.63731346  1
  Al  Al146  1  0.36169006  0.75048052  0.13483135  1
  Al  Al147  1  0.36564073  0.74644929  0.63384393  1
  Al  Al148  1  0.86184939  0.24802170  0.13501199  1
  Al  Al149  1  0.86412542  0.25255150  0.62857901  1
  Al  Al150  1  0.86162656  0.74842110  0.12645372  1
  Al  Al151  1  0.86663541  0.74061131  0.63279152  1
  Al  Al152  1  0.36666116  0.24667770  0.36548454  1
  Al  Al153  1  0.36249124  0.25554092  0.87037872  1
  Al  Al154  1  0.36617639  0.74335668  0.36698225  1
  Al  Al155  1  0.36359536  0.74571286  0.86157176  1
  Al  Al156  1  0.86327077  0.24904743  0.37299760  1
  Al  Al157  1  0.86232424  0.25055764  0.86214315  1
  Al  Al158  1  0.86334689  0.74587746  0.36485439  1
  Al  Al159  1  0.86256289  0.74319787  0.86828149  1
  Al  Al160  1  0.13491101  0.13213875  0.24379151  1
  Al  Al161  1  0.13507552  0.13931998  0.75776102  1
  Al  Al162  1  0.13709241  0.62713698  0.25082990  1
  Al  Al163  1  0.13335749  0.62869994  0.74720468  1
  Al  Al164  1  0.64033093  0.13262383  0.25433265  1
  Al  Al165  1  0.63883652  0.14031154  0.74339164  1
  Al  Al166  1  0.63978210  0.63742514  0.25225880  1
  Al  Al167  1  0.63898792  0.63215587  0.75183603  1
  Al  Al168  1  0.36718991  0.13895479  0.24908792  1
  Al  Al169  1  0.36308704  0.13919701  0.74635884  1
  Al  Al170  1  0.36364578  0.63320088  0.24975017  1
  Al  Al171  1  0.36390168  0.62629356  0.74298104  1
  Al  Al172  1  0.86324721  0.13454993  0.24795903  1
  Al  Al173  1  0.86198365  0.13533898  0.74760251  1
  Al  Al174  1  0.86259324  0.63677680  0.24577896  1
  Al  Al175  1  0.86214683  0.63125362  0.75082030  1
  Al  Al176  1  0.13562892  0.36782987  0.25142888  1
  Al  Al177  1  0.13383102  0.36919487  0.75010287  1
  Al  Al178  1  0.13511224  0.86664554  0.24722127  1
  Al  Al179  1  0.13377973  0.86183842  0.75518084  1
  Al  Al180  1  0.63718116  0.36033880  0.25917969  1
  Al  Al181  1  0.63560209  0.36383612  0.74690189  1
  Al  Al182  1  0.64014992  0.87098419  0.24590128  1
  Al  Al183  1  0.63978053  0.86117188  0.75026863  1
  Al  Al184  1  0.36569029  0.36407820  0.25097439  1
  Al  Al185  1  0.36269069  0.37280419  0.74951629  1
  Al  Al186  1  0.36495679  0.86307004  0.24830913  1
  Al  Al187  1  0.36429859  0.86159965  0.74926148  1
  Al  Al188  1  0.86126326  0.36308979  0.25421923  1
  Al  Al189  1  0.86151163  0.36929668  0.74924403  1
  Al  Al190  1  0.86044557  0.86515893  0.24493933  1
  Al  Al191  1  0.86498196  0.86026933  0.74805780  1
  Al  Al192  1  0.00102250  0.17328234  0.68755801  1
  Al  Al193  1  0.30937504  0.49927056  0.31874708  1
  Al  Al194  1  0.32303266  0.32812094  0.50142741  1
  Al  Al195  1  -0.00188341  0.81738191  0.17222113  1
  Al  Al196  1  0.82222936  0.81432550  0.49966163  1
  Al  Al197  1  -0.00309211  0.82990263  0.32323980  1
  Al  Al198  1  0.49891805  0.33311608  0.16795671  1
  Al  Al199  1  0.17250050  0.00055538  0.31890186  1
  Al  Al200  1  -0.00095267  0.17905406  0.31854191  1
  Al  Al201  1  0.50133609  0.17441416  0.82788554  1
  Al  Al202  1  0.32189756  0.16847796  0.50079619  1
  Al  Al203  1  0.66857723  0.00039266  0.83135594  1
  Al  Al204  1  -0.00206685  0.31935929  0.82673606  1
  Al  Al205  1  0.50245164  0.82339348  0.81389322  1
  Al  Al206  1  0.83392541  -0.00257240  0.82462235  1
  Al  Al207  1  0.50208825  0.68165784  0.17994528  1
  Al  Al208  1  0.68682831  0.49781453  0.68583790  1
  Al  Al209  1  -0.00181689  0.33224616  0.32838724  1
  Al  Al210  1  0.69062254  0.49743625  0.32513528  1
  Al  Al211  1  0.32589371  -0.00035232  0.67779625  1
  Al  Al212  1  -0.00186627  0.31899280  0.17546041  1
  Al  Al213  1  0.68242821  0.19036953  0.00187179  1
  Al  Al214  1  0.32679074  0.00167410  0.31680322  1
  Al  Al215  1  0.50011148  0.18778306  0.66912928  1
  Al  Al216  1  0.50200924  0.82045143  0.32256292  1
  Al  Al217  1  0.81772289  0.00090919  0.31313931  1
  Al  Al218  1  0.17595977  0.81316247  0.50029524  1
  Al  Al219  1  0.18021372  0.32940528  0.00118539  1
  Al  Al220  1  0.68048436  0.00086306  0.67488519  1
  Al  Al221  1  0.50487573  0.16998267  0.18413427  1
  Al  Al222  1  -0.00177960  0.81202732  0.82878736  1
  Al  Al223  1  0.17427463  0.00244941  0.83302666  1
  Al  Al224  1  0.49996228  0.32984445  0.81497281  1
  Al  Al225  1  0.33161279  0.82019586  0.50033844  1
  Al  Al226  1  -0.00143297  0.67066528  0.31939393  1
  Al  Al227  1  0.31759864  0.67714809  -0.00065624  1
  Al  Al228  1  0.50243238  0.31880259  0.33196312  1
  Al  Al229  1  0.18152126  0.17405145  0.00183034  1
  Al  Al230  1  0.17578039  0.82239316  0.00129675  1
  Al  Al231  1  0.81016684  0.32018601  -0.00238431  1
  Al  Al232  1  0.00062939  0.80958235  0.67103823  1
  Al  Al233  1  0.50210379  0.66974707  0.82335767  1
  Al  Al234  1  0.82534485  0.49839963  0.18603796  1
  Al  Al235  1  0.68405625  0.67627245  0.49873977  1
  Al  Al236  1  0.17074459  0.00194138  0.66464132  1
  Al  Al237  1  0.66589080  0.49977375  0.17411106  1
  Al  Al238  1  -0.00162278  0.33220918  0.67400874  1
  Au  Au239  1  0.83347383  0.82685164  0.49786461  1
  Au  Au240  1  0.50409615  0.33032956  0.34402733  1
  Au  Au241  1  0.67329024  0.17280810  0.49969153  1
  Au  Au242  1  0.00213666  0.82789650  0.33878933  1
  Au  Au243  1  0.32555725  -0.00243231  0.16767315  1
  Au  Au244  1  0.00085386  0.17905179  0.67147231  1
  Au  Au245  1  0.82675207  0.00719170  0.65472796  1
  Au  Au246  1  0.65284959  0.00017752  0.82672691  1
  Au  Au247  1  0.32668019  0.50065346  0.66377491  1
  Au  Au248  1  0.33144012  0.49890811  0.83687802  1
  Au  Au249  1  0.15828540  0.32801235  0.50235430  1
  Au  Au250  1  0.49741963  0.67496558  0.66043832  1
  Au  Au251  1  0.00118195  0.16638125  0.16887096  1
  Au  Au252  1  0.32806905  0.83246831  0.50235228  1
  Au  Au253  1  0.17570686  0.00289061  0.64834769  1
  Au  Au254  1  0.16817562  0.33739589  0.00167641  1
  Au  Au255  1  -0.00154816  0.66412779  0.16926757  1
  Au  Au256  1  0.84840367  -0.00353710  0.83226681  1
  Au  Au257  1  0.16910104  0.00181892  0.33120364  1
  Au  Au258  1  0.67393480  0.49532447  0.67480061  1
  Au  Au259  1  0.16675966  0.66372919  0.50213488  1
  Au  Au260  1  0.32380383  0.50126447  0.17116819  1
  Au  Au261  1  0.67523358  0.66182909  0.49814922  1
  Au  Au262  1  0.15792720  0.50031788  0.81997012  1
  Au  Au263  1  -0.00177600  0.81651436  0.84514467  1
  Au  Au264  1  0.16899775  0.65798058  -0.00315724  1
  Au  Au265  1  0.50509439  0.83087571  0.16677219  1
  Au  Au266  1  0.65960875  0.83823448  0.50533049  1
  Au  Au267  1  0.34091518  -0.00151863  0.82589920  1
  Au  Au268  1  0.33955886  0.82392388  -0.00221295  1
  Au  Au269  1  0.67676875  0.82753377  0.00025414  1
  Au  Au270  1  0.67500903  0.50496572  0.16156557  1
  Au  Au271  1  0.82865128  0.66471239  -0.00405191  1
  Au  Au272  1  0.32982363  0.17563220  0.00087245  1
  Au  Au273  1  0.15723666  0.00330477  0.83499736  1
  Au  Au274  1  0.50228616  0.18260379  0.84328778  1
  Au  Au275  1  0.83113614  0.33260295  0.50151169  1
  Au  Au276  1  0.50661926  0.15570749  0.17600767  1
  Au  Au277  1  0.32414799  0.15270802  0.49440144  1
  Au  Au278  1  0.50655445  0.67106134  0.83929026  1
  Au  Au279  1  0.82849960  0.17139507  0.00227490  1
  Au  Au280  1  0.33500977  0.33897858  0.50185090  1
  Au  Au281  1  0.49929728  0.65584092  0.32767966  1
  Au  Au282  1  0.16757745  0.83192130  0.00205864  1
  Au  Au283  1  0.67138750  0.00081043  0.32295628  1
  Au  Au284  1  0.49732161  0.33682663  0.15254781  1
  Au  Au285  1  0.50103785  0.83120699  0.32904881  1
  Au  Au286  1  0.50056702  0.17122478  0.66430632  1
  Au  Au287  1  0.00225138  0.82657785  0.66737674  1
