# generated using pymatgen
data_Ca24Ti8Al207Au49
_symmetry_space_group_name_H-M   'P 1'
_cell_length_a   17.31993761
_cell_length_b   17.32226017
_cell_length_c   17.32017763
_cell_angle_alpha   89.99893743
_cell_angle_beta   90.00399679
_cell_angle_gamma   90.00201806
_symmetry_Int_Tables_number   1
_chemical_formula_structural   Ca24Ti8Al207Au49
_chemical_formula_sum   'Ca24 Ti8 Al207 Au49'
_cell_volume   5196.40773402
_cell_formula_units_Z   1
loop_
 _symmetry_equiv_pos_site_id
 _symmetry_equiv_pos_as_xyz
  1  'x, y, z'
loop_
 _atom_site_type_symbol
 _atom_site_label
 _atom_site_symmetry_multiplicity
 _atom_site_fract_x
 _atom_site_fract_y
 _atom_site_fract_z
 _atom_site_occupancy
  Ca  Ca0  1  0.25108156  -0.00197505  -0.00122016  1
  Ca  Ca1  1  0.25641880  -0.00118663  0.50295720  1
  Ca  Ca2  1  0.24679997  0.50219307  0.00183545  1
  Ca  Ca3  1  0.25334967  0.50043281  0.49850708  1
  Ca  Ca4  1  0.75412422  0.00162741  0.00284893  1
  Ca  Ca5  1  0.74954123  0.00294980  0.49836029  1
  Ca  Ca6  1  0.75299444  0.49865864  0.00072991  1
  Ca  Ca7  1  0.74691589  0.49684027  0.49962404  1
  Ca  Ca8  1  0.00417229  0.25238184  0.00424198  1
  Ca  Ca9  1  -0.00395990  0.24738255  0.49436593  1
  Ca  Ca10  1  0.00554014  0.75101652  0.00450764  1
  Ca  Ca11  1  -0.00279843  0.75463028  0.49643661  1
  Ca  Ca12  1  0.50124727  0.24173027  -0.00302536  1
  Ca  Ca13  1  0.50925609  0.24586872  0.50177564  1
  Ca  Ca14  1  0.49471467  0.75248696  -0.00155656  1
  Ca  Ca15  1  0.50265048  0.75075196  0.50220743  1
  Ca  Ca16  1  -0.00455129  -0.00069672  0.25250205  1
  Ca  Ca17  1  -0.00136092  -0.00179399  0.75270803  1
  Ca  Ca18  1  0.00017364  0.50244389  0.24855950  1
  Ca  Ca19  1  0.00435147  0.50441497  0.75394396  1
  Ca  Ca20  1  0.50406380  -0.00158462  0.25235800  1
  Ca  Ca21  1  0.50069231  0.00110404  0.74864871  1
  Ca  Ca22  1  0.50146881  0.49912413  0.25346083  1
  Ca  Ca23  1  0.49655775  0.50140051  0.74646452  1
  Ti  Ti24  1  0.24676076  0.24993188  0.24801201  1
  Ti  Ti25  1  0.25062646  0.25014363  0.75291829  1
  Ti  Ti26  1  0.24815957  0.74895838  0.24756194  1
  Ti  Ti27  1  0.24977902  0.75098617  0.75187035  1
  Ti  Ti28  1  0.74949084  0.24868454  0.25140509  1
  Ti  Ti29  1  0.75021535  0.24886060  0.74877460  1
  Ti  Ti30  1  0.75154491  0.75130205  0.25096294  1
  Ti  Ti31  1  0.75076765  0.75171396  0.74885613  1
  Al  Al32  1  0.07919753  0.08093929  0.08398727  1
  Al  Al33  1  0.07886679  0.07083784  0.57684918  1
  Al  Al34  1  0.09155334  0.59124656  0.08888941  1
  Al  Al35  1  0.08672829  0.57753743  0.59083247  1
  Al  Al36  1  0.58941935  0.07867960  0.08722509  1
  Al  Al37  1  0.58736600  0.09564720  0.58734686  1
  Al  Al38  1  0.57962817  0.57873913  0.08940204  1
  Al  Al39  1  0.57789759  0.58706269  0.58344814  1
  Al  Al40  1  0.41000743  0.41941463  0.07772837  1
  Al  Al41  1  0.42829121  0.42422445  0.58683996  1
  Al  Al42  1  0.41016630  0.91208479  0.07316942  1
  Al  Al43  1  0.40973636  0.91643765  0.58597320  1
  Al  Al44  1  0.92599344  0.42329245  0.08346682  1
  Al  Al45  1  0.90892530  0.41285898  0.57108791  1
  Al  Al46  1  0.91869720  0.92137266  0.09422645  1
  Al  Al47  1  0.90830861  0.91382177  0.57889262  1
  Al  Al48  1  0.42170492  0.07234381  0.42467143  1
  Al  Al49  1  0.41795118  0.08260306  0.90201987  1
  Al  Al50  1  0.41708980  0.58194828  0.41607747  1
  Al  Al51  1  0.41419298  0.58903976  0.91011612  1
  Al  Al52  1  0.91103156  0.09418850  0.40930848  1
  Al  Al53  1  0.91000326  0.08337360  0.92645960  1
  Al  Al54  1  0.91324312  0.59033775  0.41644553  1
  Al  Al55  1  0.91682581  0.57598623  0.91301925  1
  Al  Al56  1  0.07225688  0.41454354  0.40081391  1
  Al  Al57  1  0.08970319  0.42566784  0.91444662  1
  Al  Al58  1  0.08648012  0.92544159  0.40937681  1
  Al  Al59  1  0.08595793  0.91117566  0.90769659  1
  Al  Al60  1  0.59824943  0.41346199  0.41670381  1
  Al  Al61  1  0.57602856  0.42047512  0.91646274  1
  Al  Al62  1  0.59213030  0.92420148  0.41599119  1
  Al  Al63  1  0.58319952  0.92730364  0.91212959  1
  Al  Al64  1  0.07530614  0.08641199  0.40046440  1
  Al  Al65  1  0.08480107  0.07210009  0.91831468  1
  Al  Al66  1  0.07683722  0.57766598  0.41217929  1
  Al  Al67  1  0.09554550  0.58671621  0.92414864  1
  Al  Al68  1  0.59963093  0.08726412  0.42187789  1
  Al  Al69  1  0.58324021  0.08642257  0.90294705  1
  Al  Al70  1  0.58609425  0.57608400  0.41379130  1
  Al  Al71  1  0.57129458  0.58434776  0.90691731  1
  Al  Al72  1  0.42407705  0.42663245  0.41649132  1
  Al  Al73  1  0.41197599  0.41584585  0.91652150  1
  Al  Al74  1  0.40727062  0.91373390  0.42559657  1
  Al  Al75  1  0.40670738  0.92065459  0.91247260  1
  Al  Al76  1  0.91199071  0.39918598  0.41191106  1
  Al  Al77  1  0.91317964  0.42174716  0.91273579  1
  Al  Al78  1  0.90720181  0.91667635  0.41655333  1
  Al  Al79  1  0.92467749  0.91966646  0.91068902  1
  Al  Al80  1  0.08623168  0.42615181  0.09073610  1
  Al  Al81  1  0.08645664  0.42701933  0.59453363  1
  Al  Al82  1  0.08130699  0.91151443  0.08553239  1
  Al  Al83  1  0.08015245  0.91654741  0.58387874  1
  Al  Al84  1  0.58338707  0.42240500  0.08275556  1
  Al  Al85  1  0.59023618  0.40447074  0.57806462  1
  Al  Al86  1  0.58634141  0.92457934  0.09006615  1
  Al  Al87  1  0.58329395  0.91809313  0.58260048  1
  Al  Al88  1  0.42423679  0.07495436  0.07367089  1
  Al  Al89  1  0.42240977  0.08509272  0.59517600  1
  Al  Al90  1  0.41310905  0.58318511  0.08202277  1
  Al  Al91  1  0.41872881  0.58754134  0.59131132  1
  Al  Al92  1  0.90556617  0.08522744  0.08898768  1
  Al  Al93  1  0.90387261  0.07917354  0.56884288  1
  Al  Al94  1  0.93062039  0.58409176  0.08975830  1
  Al  Al95  1  0.91044360  0.58529996  0.57418257  1
  Al  Al96  1  0.24272346  0.13386739  0.13022634  1
  Al  Al97  1  0.24946394  0.13608967  0.63742725  1
  Al  Al98  1  0.24588696  0.63027687  0.13274782  1
  Al  Al99  1  0.24836234  0.63557780  0.63521136  1
  Al  Al100  1  0.75289863  0.13338981  0.13253641  1
  Al  Al101  1  0.74770985  0.13635382  0.62827618  1
  Al  Al102  1  0.75131659  0.63596112  0.13885611  1
  Al  Al103  1  0.75525287  0.63678465  0.63214649  1
  Al  Al104  1  0.24701855  0.37081052  0.13614375  1
  Al  Al105  1  0.24686319  0.36508005  0.63504319  1
  Al  Al106  1  0.24522645  0.86217163  0.12698266  1
  Al  Al107  1  0.25160581  0.86444060  0.63706572  1
  Al  Al108  1  0.74802407  0.36504094  0.13647922  1
  Al  Al109  1  0.74983386  0.36257742  0.63085436  1
  Al  Al110  1  0.75334923  0.86520002  0.13415112  1
  Al  Al111  1  0.74823852  0.86408843  0.62982936  1
  Al  Al112  1  0.24642967  0.13553104  0.35989295  1
  Al  Al113  1  0.25374548  0.13353221  0.86971951  1
  Al  Al114  1  0.24733867  0.63557295  0.36200253  1
  Al  Al115  1  0.24549361  0.63481676  0.86788837  1
  Al  Al116  1  0.75038967  0.13146007  0.36880635  1
  Al  Al117  1  0.74511973  0.13364229  0.86694789  1
  Al  Al118  1  0.75357644  0.63682541  0.36746785  1
  Al  Al119  1  0.75785901  0.63611125  0.86354399  1
  Al  Al120  1  0.24417139  0.36479479  0.36401559  1
  Al  Al121  1  0.24531958  0.36717485  0.86579478  1
  Al  Al122  1  0.24965862  0.86289620  0.36236438  1
  Al  Al123  1  0.25004688  0.86374483  0.87206845  1
  Al  Al124  1  0.74959966  0.36208404  0.37293327  1
  Al  Al125  1  0.75061098  0.36410466  0.86492872  1
  Al  Al126  1  0.75200576  0.86889860  0.36741636  1
  Al  Al127  1  0.74877329  0.86575505  0.86424520  1
  Al  Al128  1  0.13404750  0.25137494  0.13278732  1
  Al  Al129  1  0.13530763  0.25402204  0.63949399  1
  Al  Al130  1  0.13519697  0.74577552  0.13062687  1
  Al  Al131  1  0.13367517  0.75392823  0.63686085  1
  Al  Al132  1  0.63833485  0.24568149  0.13677396  1
  Al  Al133  1  0.63766425  0.24727472  0.63204645  1
  Al  Al134  1  0.63125001  0.75235940  0.13995768  1
  Al  Al135  1  0.63403652  0.74719133  0.63535306  1
  Al  Al136  1  0.12694781  0.25037832  0.36058553  1
  Al  Al137  1  0.13641211  0.24905212  0.87125372  1
  Al  Al138  1  0.12727089  0.74946003  0.35989877  1
  Al  Al139  1  0.13787805  0.75199381  0.87138826  1
  Al  Al140  1  0.63921812  0.24788698  0.37076761  1
  Al  Al141  1  0.63148731  0.24227574  0.86257863  1
  Al  Al142  1  0.63912413  0.74936628  0.36646113  1
  Al  Al143  1  0.63549818  0.75230291  0.86044266  1
  Al  Al144  1  0.35992466  0.24736770  0.13492685  1
  Al  Al145  1  0.36500251  0.24678314  0.63891454  1
  Al  Al146  1  0.36527649  0.75143540  0.13304698  1
  Al  Al147  1  0.36264239  0.74931593  0.63237839  1
  Al  Al148  1  0.86246652  0.24625860  0.13715677  1
  Al  Al149  1  0.86143395  0.25100177  0.62902650  1
  Al  Al150  1  0.86498661  0.75014989  0.13541876  1
  Al  Al151  1  0.86429641  0.75443292  0.63163463  1
  Al  Al152  1  0.36266464  0.25003237  0.36221485  1
  Al  Al153  1  0.36689669  0.24401138  0.86491840  1
  Al  Al154  1  0.36131655  0.74930247  0.36898102  1
  Al  Al155  1  0.36338538  0.75367629  0.86721749  1
  Al  Al156  1  0.86144424  0.24652272  0.36858912  1
  Al  Al157  1  0.86256622  0.24423191  0.86715035  1
  Al  Al158  1  0.86823276  0.75322672  0.36336282  1
  Al  Al159  1  0.86748205  0.75656393  0.86793684  1
  Al  Al160  1  0.13224063  0.12946183  0.25101586  1
  Al  Al161  1  0.13648739  0.13554272  0.75460045  1
  Al  Al162  1  0.13041803  0.63216164  0.24635595  1
  Al  Al163  1  0.13406417  0.63421444  0.75169423  1
  Al  Al164  1  0.63812544  0.13409383  0.25542577  1
  Al  Al165  1  0.63614090  0.13129886  0.74744906  1
  Al  Al166  1  0.63854168  0.62993480  0.25048572  1
  Al  Al167  1  0.63719275  0.63484725  0.74977584  1
  Al  Al168  1  0.36380310  0.13586449  0.25034737  1
  Al  Al169  1  0.36919798  0.13407468  0.75237087  1
  Al  Al170  1  0.36254888  0.63670680  0.24584917  1
  Al  Al171  1  0.36098528  0.63693216  0.75000047  1
  Al  Al172  1  0.86188285  0.12927883  0.25329536  1
  Al  Al173  1  0.86047529  0.13524477  0.74940463  1
  Al  Al174  1  0.87040892  0.63530878  0.25325835  1
  Al  Al175  1  0.86865362  0.63691116  0.75048905  1
  Al  Al176  1  0.13491585  0.36980691  0.24973034  1
  Al  Al177  1  0.13430455  0.36910300  0.75278169  1
  Al  Al178  1  0.13754021  0.86740889  0.24864918  1
  Al  Al179  1  0.13172424  0.86284461  0.75324297  1
  Al  Al180  1  0.64103476  0.37082080  0.25615751  1
  Al  Al181  1  0.63664807  0.36241074  0.74962528  1
  Al  Al182  1  0.63560170  0.86649501  0.25376551  1
  Al  Al183  1  0.63546379  0.87290004  0.74681068  1
  Al  Al184  1  0.36229278  0.36467136  0.24792466  1
  Al  Al185  1  0.36307930  0.36511482  0.75023952  1
  Al  Al186  1  0.36326920  0.86242933  0.24706427  1
  Al  Al187  1  0.36599484  0.86647843  0.75361776  1
  Al  Al188  1  0.86455460  0.36105484  0.25560736  1
  Al  Al189  1  0.86467843  0.36225468  0.75250018  1
  Al  Al190  1  0.86268373  0.87302138  0.25293679  1
  Al  Al191  1  0.86621794  0.86502036  0.74868047  1
  Al  Al192  1  0.17762681  0.67157596  0.49931263  1
  Al  Al193  1  0.49981741  0.17191646  0.32909050  1
  Al  Al194  1  0.00335408  0.68450167  0.83088152  1
  Al  Al195  1  0.31365998  0.68446791  0.00027681  1
  Al  Al196  1  0.67166191  0.31622253  -0.00149782  1
  Al  Al197  1  0.00031291  0.81246721  0.18393167  1
  Al  Al198  1  0.67077192  0.67481953  -0.00167907  1
  Al  Al199  1  -0.00124090  0.17682562  0.83163114  1
  Al  Al200  1  0.81863783  0.49840220  0.32750402  1
  Al  Al201  1  0.81666920  -0.00012779  0.67354169  1
  Al  Al202  1  0.31676741  -0.00065550  0.32818888  1
  Al  Al203  1  0.82344027  0.49939172  0.17409111  1
  Al  Al204  1  0.50145077  0.67382116  0.32309179  1
  Al  Al205  1  0.31961581  0.00077614  0.68788031  1
  Al  Al206  1  0.31683166  0.31779756  -0.00053286  1
  Al  Al207  1  0.31785837  0.49952998  0.67332325  1
  Al  Al208  1  0.32812838  0.17185907  0.50091146  1
  Al  Al209  1  0.83242752  0.49811795  0.68137268  1
  Al  Al210  1  0.83448025  0.67313198  0.00273750  1
  Al  Al211  1  0.33481238  0.32982313  0.50127786  1
  Al  Al212  1  0.49845878  0.31779746  0.82271165  1
  Al  Al213  1  0.50346816  0.32773574  0.32897565  1
  Al  Al214  1  0.50032666  0.81578738  0.67721368  1
  Al  Al215  1  0.69217398  0.00027650  0.19177192  1
  Al  Al216  1  0.67224952  0.49894096  0.67244617  1
  Al  Al217  1  0.81827087  0.00063199  0.82735442  1
  Al  Al218  1  0.83030450  0.31705754  0.00201074  1
  Al  Al219  1  -0.00244219  0.67719100  0.67156810  1
  Al  Al220  1  0.68512928  0.50244936  0.83221776  1
  Al  Al221  1  0.50046513  0.17073354  0.17350767  1
  Al  Al222  1  0.16965505  0.16897110  0.49542822  1
  Al  Al223  1  0.49831752  0.68579650  0.80493026  1
  Al  Al224  1  0.18975856  -0.00172911  0.81973711  1
  Al  Al225  1  -0.00269119  0.16773937  0.67112552  1
  Al  Al226  1  0.31826578  0.50028515  0.31816683  1
  Al  Al227  1  -0.00288023  0.33031199  0.67573832  1
  Al  Al228  1  -0.00246215  0.17714599  0.18390900  1
  Al  Al229  1  -0.00017238  0.32887316  0.18613952  1
  Al  Al230  1  0.50104385  0.32753479  0.17702178  1
  Al  Al231  1  0.49791922  0.82911154  0.32486128  1
  Al  Al232  1  0.16685914  0.33034419  0.49842572  1
  Al  Al233  1  0.67904865  0.83395364  0.00017835  1
  Al  Al234  1  0.32043927  -0.00005727  0.17163294  1
  Al  Al235  1  0.31519327  0.50107731  0.82592843  1
  Al  Al236  1  0.18338569  0.82922526  0.49723607  1
  Al  Al237  1  0.67581762  0.67757201  0.50029680  1
  Al  Al238  1  0.50197799  0.31316333  0.67315464  1
  Au  Au239  1  0.68137500  0.83690495  0.49807367  1
  Au  Au240  1  0.32779553  0.67512030  -0.00129075  1
  Au  Au241  1  -0.00105541  0.16546474  0.83709160  1
  Au  Au242  1  0.15616353  0.34210502  0.49816424  1
  Au  Au243  1  0.49874544  0.83052029  0.83980688  1
  Au  Au244  1  0.49835814  0.32937180  0.83123408  1
  Au  Au245  1  0.49766220  0.66268342  0.17547929  1
  Au  Au246  1  0.16959952  0.82946311  -0.00059881  1
  Au  Au247  1  0.32391965  0.49981637  0.16943018  1
  Au  Au248  1  -0.00267353  0.67082865  0.66068015  1
  Au  Au249  1  0.16083438  -0.00239358  0.17727815  1
  Au  Au250  1  -0.00142344  0.83724243  0.32968957  1
  Au  Au251  1  -0.00463295  0.84039334  0.67501930  1
  Au  Au252  1  0.33695907  -0.00036080  0.17600847  1
  Au  Au253  1  0.16960814  0.65744166  0.49835381  1
  Au  Au254  1  0.66727551  0.83805023  -0.00092409  1
  Au  Au255  1  -0.00289518  0.16846786  0.17274737  1
  Au  Au256  1  0.67280882  0.15760762  -0.00145299  1
  Au  Au257  1  0.66819475  0.33360441  -0.00158215  1
  Au  Au258  1  0.84349037  0.83714211  -0.00004792  1
  Au  Au259  1  0.16826877  0.50012467  0.32213232  1
  Au  Au260  1  0.49519570  0.32539616  0.16121002  1
  Au  Au261  1  0.34092916  0.16977988  -0.00237956  1
  Au  Au262  1  0.67842104  0.66515215  0.49898449  1
  Au  Au263  1  0.82661237  0.49801637  0.66520807  1
  Au  Au264  1  0.66804107  0.00322868  0.67172167  1
  Au  Au265  1  0.65360133  0.67028992  -0.00232396  1
  Au  Au266  1  0.17090276  0.16258372  -0.00135595  1
  Au  Au267  1  0.49759899  0.82455409  0.66814818  1
  Au  Au268  1  0.34336042  0.67568566  0.50130764  1
  Au  Au269  1  0.17612664  0.84419971  0.49704428  1
  Au  Au270  1  0.83220112  0.66070910  0.00442141  1
  Au  Au271  1  0.82050729  0.00160629  0.32600156  1
  Au  Au272  1  0.82939538  0.49754854  0.33692201  1
  Au  Au273  1  -0.00531154  0.33290553  0.66372536  1
  Au  Au274  1  0.49853474  0.83226452  0.34108950  1
  Au  Au275  1  0.17196589  -0.00108685  0.67435082  1
  Au  Au276  1  0.49792279  0.82996918  0.15885479  1
  Au  Au277  1  0.00302904  0.34098316  0.82955253  1
  Au  Au278  1  0.16941892  0.33980470  0.00410976  1
  Au  Au279  1  0.35048479  0.32550960  0.50130058  1
  Au  Au280  1  0.67309347  0.49955843  0.17587521  1
  Au  Au281  1  0.84345649  0.32773543  0.00376673  1
  Au  Au282  1  0.17332158  0.15273888  0.49229803  1
  Au  Au283  1  -0.00052194  0.67026544  0.32226837  1
  Au  Au284  1  0.00420744  0.67153083  0.84073168  1
  Au  Au285  1  0.66882424  0.50203506  0.82607747  1
  Au  Au286  1  0.50093328  0.16206544  0.33899855  1
  Au  Au287  1  -0.01120544  0.16079724  0.65748411  1
