# generated using pymatgen
data_Ca24Ti8Al207Au49
_symmetry_space_group_name_H-M   'P 1'
_cell_length_a   17.32062514
_cell_length_b   17.32064566
_cell_length_c   17.32025719
_cell_angle_alpha   90.00079456
_cell_angle_beta   89.99832506
_cell_angle_gamma   90.00586467
_symmetry_Int_Tables_number   1
_chemical_formula_structural   Ca24Ti8Al207Au49
_chemical_formula_sum   'Ca24 Ti8 Al207 Au49'
_cell_volume   5196.15352035
_cell_formula_units_Z   1
loop_
 _symmetry_equiv_pos_site_id
 _symmetry_equiv_pos_as_xyz
  1  'x, y, z'
loop_
 _atom_site_type_symbol
 _atom_site_label
 _atom_site_symmetry_multiplicity
 _atom_site_fract_x
 _atom_site_fract_y
 _atom_site_fract_z
 _atom_site_occupancy
  Ca  Ca0  1  0.25338325  -0.00178149  0.00566773  1
  Ca  Ca1  1  0.25530766  0.00106974  0.49544467  1
  Ca  Ca2  1  0.24821173  0.50155198  0.00193684  1
  Ca  Ca3  1  0.25749225  0.49836302  0.49244615  1
  Ca  Ca4  1  0.74904699  -0.00047928  0.00365653  1
  Ca  Ca5  1  0.74833363  0.00348842  0.49813414  1
  Ca  Ca6  1  0.74862561  0.50216550  -0.00033454  1
  Ca  Ca7  1  0.74496950  0.49689898  0.50159768  1
  Ca  Ca8  1  -0.00636761  0.24377332  -0.00173329  1
  Ca  Ca9  1  -0.00452342  0.25045170  0.49828453  1
  Ca  Ca10  1  -0.00334935  0.74860594  0.00044830  1
  Ca  Ca11  1  -0.00165869  0.74278693  0.49800842  1
  Ca  Ca12  1  0.50176545  0.25129195  0.00334799  1
  Ca  Ca13  1  0.50569189  0.25745241  0.49716853  1
  Ca  Ca14  1  0.50339092  0.74902636  0.00190247  1
  Ca  Ca15  1  0.49955212  0.74510842  0.49219177  1
  Ca  Ca16  1  -0.00133345  0.00057348  0.24384023  1
  Ca  Ca17  1  -0.00512318  0.00070224  0.75526220  1
  Ca  Ca18  1  0.00449143  0.50338622  0.25363351  1
  Ca  Ca19  1  -0.00341877  0.50350151  0.75073213  1
  Ca  Ca20  1  0.50240718  -0.00160107  0.24800515  1
  Ca  Ca21  1  0.50413433  -0.00067866  0.75181882  1
  Ca  Ca22  1  0.49772260  0.50014234  0.25261411  1
  Ca  Ca23  1  0.50439106  0.50036060  0.74713545  1
  Ti  Ti24  1  0.25171881  0.24993166  0.25082120  1
  Ti  Ti25  1  0.24973153  0.25140500  0.74950057  1
  Ti  Ti26  1  0.25008560  0.74859149  0.24842725  1
  Ti  Ti27  1  0.25235335  0.74690379  0.75235215  1
  Ti  Ti28  1  0.74868201  0.25091058  0.25174096  1
  Ti  Ti29  1  0.75078252  0.24969328  0.74860638  1
  Ti  Ti30  1  0.74955302  0.74893963  0.24823812  1
  Ti  Ti31  1  0.74922888  0.74866757  0.75224081  1
  Al  Al32  1  0.07996772  0.09570307  0.09063397  1
  Al  Al33  1  0.07310302  0.08527592  0.57370292  1
  Al  Al34  1  0.08813218  0.59219913  0.08530972  1
  Al  Al35  1  0.07732315  0.58202209  0.57281499  1
  Al  Al36  1  0.58691609  0.07849998  0.08999259  1
  Al  Al37  1  0.58883040  0.09233150  0.57796079  1
  Al  Al38  1  0.58390682  0.59243125  0.07965609  1
  Al  Al39  1  0.58410825  0.57826206  0.59147214  1
  Al  Al40  1  0.41304615  0.42344259  0.09860147  1
  Al  Al41  1  0.42822640  0.41477290  0.58270210  1
  Al  Al42  1  0.42234252  0.91465309  0.10097923  1
  Al  Al43  1  0.42375250  0.91372463  0.56745371  1
  Al  Al44  1  0.91371197  0.41087096  0.07337840  1
  Al  Al45  1  0.90459601  0.41603308  0.58616438  1
  Al  Al46  1  0.91575163  0.92193937  0.07981827  1
  Al  Al47  1  0.91386476  0.91635035  0.58646713  1
  Al  Al48  1  0.41861464  0.08097686  0.41384509  1
  Al  Al49  1  0.42505408  0.08489741  0.92992749  1
  Al  Al50  1  0.41629016  0.58274679  0.40381221  1
  Al  Al51  1  0.42249870  0.58396482  0.92076157  1
  Al  Al52  1  0.91238014  0.09120514  0.42172789  1
  Al  Al53  1  0.90465141  0.08381405  0.92237227  1
  Al  Al54  1  0.92307650  0.58231088  0.41116788  1
  Al  Al55  1  0.91582237  0.58234100  0.91424362  1
  Al  Al56  1  0.09493616  0.42652256  0.41113381  1
  Al  Al57  1  0.07475017  0.42502951  0.92198413  1
  Al  Al58  1  0.07767560  0.91769799  0.41408396  1
  Al  Al59  1  0.07083053  0.91504557  0.92517328  1
  Al  Al60  1  0.58896536  0.41328317  0.41212805  1
  Al  Al61  1  0.58949720  0.42557072  0.90691909  1
  Al  Al62  1  0.57950919  0.90998639  0.40215675  1
  Al  Al63  1  0.59538122  0.91162804  0.92791348  1
  Al  Al64  1  0.08125345  0.08309206  0.41723034  1
  Al  Al65  1  0.08022405  0.09165391  0.93257690  1
  Al  Al66  1  0.08733645  0.58739422  0.40553982  1
  Al  Al67  1  0.08177399  0.59087203  0.92168234  1
  Al  Al68  1  0.59016396  0.08746559  0.41604493  1
  Al  Al69  1  0.58450523  0.07782736  0.92042026  1
  Al  Al70  1  0.58010220  0.57693458  0.40947629  1
  Al  Al71  1  0.59511756  0.58727906  0.91523735  1
  Al  Al72  1  0.41689000  0.41779949  0.40346483  1
  Al  Al73  1  0.42801902  0.42306328  0.91813754  1
  Al  Al74  1  0.41936905  0.90573981  0.40441384  1
  Al  Al75  1  0.43151223  0.91768485  0.93116569  1
  Al  Al76  1  0.90909067  0.42066272  0.42513008  1
  Al  Al77  1  0.90472671  0.41528082  0.91638599  1
  Al  Al78  1  0.92121191  0.91642558  0.41894761  1
  Al  Al79  1  0.90603711  0.92151066  0.91293313  1
  Al  Al80  1  0.08307346  0.42423260  0.08453353  1
  Al  Al81  1  0.07883366  0.41929111  0.57240348  1
  Al  Al82  1  0.08219639  0.91972538  0.08413200  1
  Al  Al83  1  0.06786387  0.91413032  0.57944260  1
  Al  Al84  1  0.57637180  0.41857179  0.08280411  1
  Al  Al85  1  0.59110173  0.41159917  0.58646227  1
  Al  Al86  1  0.58730605  0.90855932  0.09214891  1
  Al  Al87  1  0.57960774  0.92096019  0.57849510  1
  Al  Al88  1  0.41472108  0.07774341  0.09512388  1
  Al  Al89  1  0.42871296  0.09171129  0.57374160  1
  Al  Al90  1  0.41291114  0.58259963  0.09343165  1
  Al  Al91  1  0.42488582  0.58407597  0.58165606  1
  Al  Al92  1  0.91582155  0.08834122  0.08543879  1
  Al  Al93  1  0.90750617  0.08616123  0.58069320  1
  Al  Al94  1  0.92489499  0.59017214  0.08121315  1
  Al  Al95  1  0.91144454  0.57561618  0.58565346  1
  Al  Al96  1  0.24977755  0.13390026  0.13615866  1
  Al  Al97  1  0.25047162  0.13767276  0.63531881  1
  Al  Al98  1  0.25275789  0.63502628  0.13344237  1
  Al  Al99  1  0.25439065  0.63627050  0.63560219  1
  Al  Al100  1  0.74974165  0.13642845  0.13588228  1
  Al  Al101  1  0.75390500  0.13558110  0.63278686  1
  Al  Al102  1  0.74257195  0.63900269  0.12858206  1
  Al  Al103  1  0.74862541  0.63251824  0.63490031  1
  Al  Al104  1  0.25396395  0.36693241  0.13763014  1
  Al  Al105  1  0.24948618  0.36238565  0.62845741  1
  Al  Al106  1  0.25217345  0.87107519  0.13908148  1
  Al  Al107  1  0.25604798  0.86165851  0.63981396  1
  Al  Al108  1  0.74658486  0.36441842  0.13688714  1
  Al  Al109  1  0.74904021  0.36386645  0.62892876  1
  Al  Al110  1  0.74443830  0.86398191  0.13115668  1
  Al  Al111  1  0.74794227  0.86465773  0.63744761  1
  Al  Al112  1  0.25103586  0.13769794  0.36187735  1
  Al  Al113  1  0.24880493  0.13854033  0.87191902  1
  Al  Al114  1  0.25410906  0.63137259  0.36077312  1
  Al  Al115  1  0.25222142  0.63711376  0.87021356  1
  Al  Al116  1  0.75029428  0.13723163  0.36313096  1
  Al  Al117  1  0.75684710  0.13548209  0.87015874  1
  Al  Al118  1  0.74514536  0.63580095  0.36350201  1
  Al  Al119  1  0.74614290  0.63434602  0.87186238  1
  Al  Al120  1  0.25464500  0.36487119  0.36613903  1
  Al  Al121  1  0.24916913  0.36362289  0.86347004  1
  Al  Al122  1  0.25339267  0.85976350  0.35781408  1
  Al  Al123  1  0.25271621  0.86183408  0.86828526  1
  Al  Al124  1  0.74342443  0.36230930  0.37227975  1
  Al  Al125  1  0.74636608  0.36766029  0.86236623  1
  Al  Al126  1  0.74822255  0.85956373  0.35985104  1
  Al  Al127  1  0.74762343  0.86075991  0.87317590  1
  Al  Al128  1  0.13695153  0.24790149  0.13387603  1
  Al  Al129  1  0.13142799  0.25293918  0.63486281  1
  Al  Al130  1  0.13794548  0.74625516  0.13410972  1
  Al  Al131  1  0.13587025  0.74718214  0.63703722  1
  Al  Al132  1  0.63256703  0.25464997  0.13687558  1
  Al  Al133  1  0.63597913  0.25595222  0.63213312  1
  Al  Al134  1  0.63023514  0.75307356  0.13399037  1
  Al  Al135  1  0.63162017  0.74235475  0.63786331  1
  Al  Al136  1  0.13519292  0.25037365  0.36206326  1
  Al  Al137  1  0.12904608  0.24490043  0.86592876  1
  Al  Al138  1  0.13086056  0.74848026  0.36174157  1
  Al  Al139  1  0.13473868  0.74712898  0.86840412  1
  Al  Al140  1  0.62803473  0.25224277  0.36460567  1
  Al  Al141  1  0.63591930  0.25359082  0.86558954  1
  Al  Al142  1  0.62794092  0.75110169  0.36125351  1
  Al  Al143  1  0.63205740  0.74718136  0.86941102  1
  Al  Al144  1  0.36525952  0.24896690  0.13659474  1
  Al  Al145  1  0.36753921  0.25665600  0.63357888  1
  Al  Al146  1  0.36509741  0.75057477  0.13181053  1
  Al  Al147  1  0.37064941  0.74200836  0.63498926  1
  Al  Al148  1  0.86481644  0.24600848  0.13487806  1
  Al  Al149  1  0.86391248  0.25089440  0.62759084  1
  Al  Al150  1  0.86085846  0.74945343  0.12692285  1
  Al  Al151  1  0.86173462  0.74818754  0.63682593  1
  Al  Al152  1  0.37424594  0.25382155  0.36145907  1
  Al  Al153  1  0.36678309  0.24933582  0.86668630  1
  Al  Al154  1  0.37030921  0.74504534  0.35912390  1
  Al  Al155  1  0.37094887  0.74638180  0.87245515  1
  Al  Al156  1  0.86176164  0.24896737  0.37321852  1
  Al  Al157  1  0.86832383  0.24911110  0.86154326  1
  Al  Al158  1  0.86836546  0.74822268  0.36260042  1
  Al  Al159  1  0.86039450  0.74843081  0.87303580  1
  Al  Al160  1  0.12822386  0.13716373  0.24574706  1
  Al  Al161  1  0.13061301  0.13693219  0.74976414  1
  Al  Al162  1  0.13577246  0.63159506  0.25451413  1
  Al  Al163  1  0.13586853  0.63661164  0.75149559  1
  Al  Al164  1  0.63545443  0.13649595  0.25094044  1
  Al  Al165  1  0.63941702  0.13743997  0.75008528  1
  Al  Al166  1  0.63095811  0.63652548  0.25306117  1
  Al  Al167  1  0.63410244  0.63319170  0.75496717  1
  Al  Al168  1  0.36542867  0.13390388  0.25029610  1
  Al  Al169  1  0.36283945  0.13819845  0.75114779  1
  Al  Al170  1  0.36583724  0.63120332  0.24885442  1
  Al  Al171  1  0.37102015  0.63563801  0.75355967  1
  Al  Al172  1  0.87097618  0.13944979  0.24890327  1
  Al  Al173  1  0.86713484  0.13330888  0.75042783  1
  Al  Al174  1  0.86351626  0.63721549  0.25059842  1
  Al  Al175  1  0.86194899  0.63468792  0.74942313  1
  Al  Al176  1  0.13701575  0.36701419  0.25147135  1
  Al  Al177  1  0.13136116  0.36108631  0.75434389  1
  Al  Al178  1  0.12850948  0.86157269  0.24616949  1
  Al  Al179  1  0.13733398  0.86350259  0.75231531  1
  Al  Al180  1  0.62893203  0.36745436  0.25679609  1
  Al  Al181  1  0.63203098  0.36412869  0.74708110  1
  Al  Al182  1  0.63071732  0.86272374  0.24618157  1
  Al  Al183  1  0.63429699  0.86178905  0.75499842  1
  Al  Al184  1  0.36852530  0.36726100  0.25171162  1
  Al  Al185  1  0.36991476  0.36362069  0.74999132  1
  Al  Al186  1  0.37218631  0.86040764  0.24778522  1
  Al  Al187  1  0.37103715  0.85741845  0.75276872  1
  Al  Al188  1  0.86106643  0.36141982  0.25436422  1
  Al  Al189  1  0.86088020  0.36591492  0.74616808  1
  Al  Al190  1  0.86856449  0.86000961  0.24478704  1
  Al  Al191  1  0.85966467  0.86900837  0.75564046  1
  Al  Al192  1  0.49928378  0.68633837  0.18789588  1
  Al  Al193  1  0.81467537  0.00056475  0.17269758  1
  Al  Al194  1  0.17413367  0.17907527  0.49917169  1
  Al  Al195  1  0.67204007  0.82863430  0.49817971  1
  Al  Al196  1  0.82812835  0.67023379  0.49776689  1
  Al  Al197  1  0.81399667  0.30598974  -0.00147823  1
  Al  Al198  1  0.17251874  0.49786042  0.67626470  1
  Al  Al199  1  0.18128156  0.81643155  0.00192940  1
  Al  Al200  1  0.67894308  0.00031765  0.67275450  1
  Al  Al201  1  -0.00142105  0.32625670  0.33031677  1
  Al  Al202  1  0.50225936  0.18697912  0.67230230  1
  Al  Al203  1  0.17052225  -0.00035091  0.66680400  1
  Al  Al204  1  0.80860401  0.50193986  0.81021229  1
  Al  Al205  1  -0.00224838  0.81609009  0.68355930  1
  Al  Al206  1  0.17364944  -0.00039919  0.31852433  1
  Al  Al207  1  0.50067318  0.82281303  0.67275552  1
  Al  Al208  1  0.18751577  0.50083199  0.18510773  1
  Al  Al209  1  0.17298604  0.50189796  0.82940547  1
  Al  Al210  1  0.50056874  0.17945118  0.18215426  1
  Al  Al211  1  0.67893379  0.17843951  0.00210479  1
  Al  Al212  1  0.81307595  0.49966436  0.32807065  1
  Al  Al213  1  0.69122790  0.19360139  0.49803047  1
  Al  Al214  1  0.00016248  0.32688720  0.67656588  1
  Al  Al215  1  0.17757842  0.83203069  0.50182498  1
  Al  Al216  1  0.68838469  0.49857239  0.68954090  1
  Al  Al217  1  0.67288084  -0.00143208  0.31119964  1
  Al  Al218  1  0.83118212  0.50047731  0.17118156  1
  Al  Al219  1  0.33012329  -0.00292310  0.31429871  1
  Al  Al220  1  0.68640818  -0.00113036  0.82918636  1
  Al  Al221  1  0.17248496  0.31553699  -0.00148642  1
  Al  Al222  1  0.67175384  0.50212316  0.18791607  1
  Al  Al223  1  0.18354246  0.67239747  0.49660107  1
  Al  Al224  1  0.82929318  -0.00082402  0.32160377  1
  Al  Al225  1  0.82516377  0.82525540  0.49945538  1
  Al  Al226  1  0.33187172  0.49871672  0.67279327  1
  Al  Al227  1  0.33587260  0.00091642  0.66786171  1
  Al  Al228  1  0.33048388  -0.00103357  0.82785890  1
  Al  Al229  1  0.67156139  0.67221015  0.49615837  1
  Al  Al230  1  -0.00064069  0.31516190  0.17222571  1
  Al  Al231  1  0.32736051  0.18130531  0.49719949  1
  Al  Al232  1  0.33189117  0.32385452  0.00055483  1
  Al  Al233  1  0.00091249  0.68343478  0.18667572  1
  Al  Al234  1  -0.00220143  0.68299423  0.81853505  1
  Al  Al235  1  0.32745004  0.49991070  0.82719922  1
  Al  Al236  1  0.32659136  0.81449591  0.49630252  1
  Al  Al237  1  0.50164441  0.18058700  0.82765187  1
  Al  Al238  1  0.16958057  0.00281450  0.83347928  1
  Au  Au239  1  0.34045373  0.00166135  0.65172117  1
  Au  Au240  1  0.68227341  0.16600076  0.00216090  1
  Au  Au241  1  0.16511051  0.00295347  0.84893534  1
  Au  Au242  1  0.66692290  -0.00118151  0.67614049  1
  Au  Au243  1  -0.00235625  0.33652091  0.83233944  1
  Au  Au244  1  0.33529766  0.34074808  0.00085434  1
  Au  Au245  1  0.33561476  0.66380379  0.49662403  1
  Au  Au246  1  0.15473728  0.00013109  0.66343716  1
  Au  Au247  1  0.32527891  0.16008624  0.00783031  1
  Au  Au248  1  0.66396712  0.50227575  0.17285636  1
  Au  Au249  1  0.81795896  0.32279445  0.49965904  1
  Au  Au250  1  0.82448315  0.66575176  0.00038279  1
  Au  Au251  1  0.16277211  0.82347757  0.50315592  1
  Au  Au252  1  0.66292105  0.66346411  0.49826943  1
  Au  Au253  1  0.16028962  0.32712355  -0.00351164  1
  Au  Au254  1  0.49849984  0.32989496  0.17631391  1
  Au  Au255  1  0.16584195  0.82330315  0.00115618  1
  Au  Au256  1  0.50107751  0.17147277  0.33180671  1
  Au  Au257  1  0.17933175  0.00000577  0.33444420  1
  Au  Au258  1  0.50037913  0.16835162  0.82427553  1
  Au  Au259  1  -0.00020566  0.32237428  0.15690891  1
  Au  Au260  1  -0.00619152  0.83228577  0.83009456  1
  Au  Au261  1  0.49806537  0.67745610  0.17354791  1
  Au  Au262  1  0.17514731  0.50372321  0.17315282  1
  Au  Au263  1  0.49880282  0.81909534  0.66060164  1
  Au  Au264  1  0.50241866  0.33699529  0.82201836  1
  Au  Au265  1  0.34163130  -0.00387713  0.84099186  1
  Au  Au266  1  0.34200595  0.33112224  0.49714927  1
  Au  Au267  1  0.50329483  0.66199528  0.82636296  1
  Au  Au268  1  -0.00167775  0.34324897  0.33281826  1
  Au  Au269  1  0.83365142  0.00047941  0.67705468  1
  Au  Au270  1  0.32534888  0.65950274  0.00178811  1
  Au  Au271  1  0.67137371  0.34151124  -0.00233381  1
  Au  Au272  1  0.17612008  0.50385842  0.66104323  1
  Au  Au273  1  0.17431226  0.00558574  0.16018960  1
  Au  Au274  1  -0.00479656  0.16388969  0.83767387  1
  Au  Au275  1  0.82108448  0.50189211  0.82158817  1
  Au  Au276  1  -0.00096004  0.16401093  0.32651218  1
  Au  Au277  1  -0.00328788  0.82960994  0.16628004  1
  Au  Au278  1  0.84630270  0.50070354  0.17851304  1
  Au  Au279  1  -0.00268667  0.66694657  0.66691423  1
  Au  Au280  1  0.50685790  0.83138402  0.83638738  1
  Au  Au281  1  0.82127153  0.83589720  0.00185980  1
  Au  Au282  1  -0.00414214  0.17127403  0.66411557  1
  Au  Au283  1  0.82282798  0.00063612  0.33630123  1
  Au  Au284  1  0.34093902  0.83160825  0.00792766  1
  Au  Au285  1  0.16819523  0.32800720  0.49525074  1
  Au  Au286  1  -0.00175319  0.33605055  0.66823987  1
  Au  Au287  1  -0.00168340  0.81962923  0.33271738  1
