# generated using pymatgen
data_Ca24Ti8Al207Au49
_symmetry_space_group_name_H-M   'P 1'
_cell_length_a   17.32130328
_cell_length_b   17.32099786
_cell_length_c   17.32185784
_cell_angle_alpha   90.00255315
_cell_angle_beta   89.99929128
_cell_angle_gamma   89.99673786
_symmetry_Int_Tables_number   1
_chemical_formula_structural   Ca24Ti8Al207Au49
_chemical_formula_sum   'Ca24 Ti8 Al207 Au49'
_cell_volume   5196.94287084
_cell_formula_units_Z   1
loop_
 _symmetry_equiv_pos_site_id
 _symmetry_equiv_pos_as_xyz
  1  'x, y, z'
loop_
 _atom_site_type_symbol
 _atom_site_label
 _atom_site_symmetry_multiplicity
 _atom_site_fract_x
 _atom_site_fract_y
 _atom_site_fract_z
 _atom_site_occupancy
  Ca  Ca0  1  0.25536470  -0.00046833  0.00180981  1
  Ca  Ca1  1  0.25517524  0.00097280  0.49615652  1
  Ca  Ca2  1  0.24797720  0.50064531  0.00041229  1
  Ca  Ca3  1  0.24961260  0.50025017  0.49978570  1
  Ca  Ca4  1  0.74211868  -0.00170454  -0.00573557  1
  Ca  Ca5  1  0.74598523  -0.00171493  0.50487696  1
  Ca  Ca6  1  0.74508930  0.49779891  0.00537751  1
  Ca  Ca7  1  0.74898131  0.49981299  0.49859215  1
  Ca  Ca8  1  0.00513427  0.25520491  0.00316694  1
  Ca  Ca9  1  -0.00318865  0.25614375  0.49735564  1
  Ca  Ca10  1  0.00186984  0.74871300  0.00097077  1
  Ca  Ca11  1  0.00339893  0.74422174  0.49941380  1
  Ca  Ca12  1  0.49923458  0.24936559  0.00154120  1
  Ca  Ca13  1  0.50525625  0.25058366  0.49752596  1
  Ca  Ca14  1  0.49722500  0.74864396  -0.00074385  1
  Ca  Ca15  1  0.49996371  0.74613393  0.50161331  1
  Ca  Ca16  1  0.00108275  0.00139146  0.25078281  1
  Ca  Ca17  1  -0.00286871  0.00187131  0.74705552  1
  Ca  Ca18  1  0.00186516  0.50161940  0.25097496  1
  Ca  Ca19  1  0.00485711  0.49685718  0.74934599  1
  Ca  Ca20  1  0.49799996  -0.00265540  0.24847524  1
  Ca  Ca21  1  0.50145651  -0.00199099  0.75296779  1
  Ca  Ca22  1  0.50168498  0.50347451  0.25250914  1
  Ca  Ca23  1  0.49850102  0.50347943  0.74712742  1
  Ti  Ti24  1  0.24962798  0.25068491  0.24977841  1
  Ti  Ti25  1  0.25044773  0.25067780  0.75283116  1
  Ti  Ti26  1  0.25090312  0.74939373  0.25105586  1
  Ti  Ti27  1  0.25240711  0.74826275  0.74938224  1
  Ti  Ti28  1  0.74954447  0.25163995  0.25153724  1
  Ti  Ti29  1  0.74909482  0.25032753  0.74884241  1
  Ti  Ti30  1  0.74944904  0.74862612  0.25172245  1
  Ti  Ti31  1  0.74708443  0.75010453  0.74746779  1
  Al  Al32  1  0.08717864  0.08415304  0.08181889  1
  Al  Al33  1  0.07764596  0.08033785  0.57001305  1
  Al  Al34  1  0.07975901  0.58139687  0.08243524  1
  Al  Al35  1  0.08825297  0.58615574  0.59631537  1
  Al  Al36  1  0.57425292  0.08213390  0.08106982  1
  Al  Al37  1  0.58584999  0.08141494  0.58000198  1
  Al  Al38  1  0.58517561  0.58740116  0.09758124  1
  Al  Al39  1  0.57328370  0.58545599  0.58082757  1
  Al  Al40  1  0.41534238  0.41659734  0.08070983  1
  Al  Al41  1  0.42015255  0.42483689  0.58473417  1
  Al  Al42  1  0.41294850  0.90852646  0.07734665  1
  Al  Al43  1  0.42239395  0.91362079  0.58948794  1
  Al  Al44  1  0.91251337  0.42109486  0.08912594  1
  Al  Al45  1  0.91660991  0.41042323  0.57692997  1
  Al  Al46  1  0.92878949  0.91219772  0.08875328  1
  Al  Al47  1  0.91019549  0.91230236  0.57969490  1
  Al  Al48  1  0.41139980  0.09094499  0.42118650  1
  Al  Al49  1  0.41419309  0.08708606  0.92266714  1
  Al  Al50  1  0.41652608  0.59300748  0.41685346  1
  Al  Al51  1  0.41779477  0.58702262  0.91491948  1
  Al  Al52  1  0.91329750  0.09722876  0.42109672  1
  Al  Al53  1  0.90761203  0.08499646  0.91584116  1
  Al  Al54  1  0.91867385  0.57336544  0.42048215  1
  Al  Al55  1  0.92925950  0.57246387  0.92402468  1
  Al  Al56  1  0.07638884  0.41756669  0.40427907  1
  Al  Al57  1  0.09113869  0.40940198  0.90782319  1
  Al  Al58  1  0.07935744  0.91743340  0.41610960  1
  Al  Al59  1  0.08371679  0.91706156  0.92910536  1
  Al  Al60  1  0.59488492  0.42322068  0.41422878  1
  Al  Al61  1  0.57592409  0.41226751  0.91267490  1
  Al  Al62  1  0.57984744  0.91299937  0.41729382  1
  Al  Al63  1  0.58056324  0.91557382  0.90579429  1
  Al  Al64  1  0.08083342  0.08638181  0.41352745  1
  Al  Al65  1  0.08430534  0.08763355  0.92530687  1
  Al  Al66  1  0.09016717  0.57630024  0.41365761  1
  Al  Al67  1  0.09465482  0.57130154  0.91278662  1
  Al  Al68  1  0.58202170  0.08443558  0.42018126  1
  Al  Al69  1  0.58485350  0.07766517  0.91135019  1
  Al  Al70  1  0.58169072  0.58603991  0.40737521  1
  Al  Al71  1  0.57734137  0.58530141  0.91898313  1
  Al  Al72  1  0.42058665  0.42451489  0.41808430  1
  Al  Al73  1  0.41739288  0.40939106  0.91163202  1
  Al  Al74  1  0.42009508  0.91622827  0.41771381  1
  Al  Al75  1  0.41890772  0.90465721  0.91634387  1
  Al  Al76  1  0.91312219  0.40581645  0.41286520  1
  Al  Al77  1  0.92934254  0.41060801  0.91192719  1
  Al  Al78  1  0.91595235  0.90517088  0.42353869  1
  Al  Al79  1  0.91884475  0.93056428  0.91876713  1
  Al  Al80  1  0.08807217  0.41432984  0.07421442  1
  Al  Al81  1  0.08229422  0.42583465  0.59124699  1
  Al  Al82  1  0.08536842  0.90586980  0.08885454  1
  Al  Al83  1  0.07638418  0.91655099  0.57623435  1
  Al  Al84  1  0.58948349  0.42521891  0.09135731  1
  Al  Al85  1  0.58188940  0.41390926  0.57694707  1
  Al  Al86  1  0.57426572  0.91957797  0.07852916  1
  Al  Al87  1  0.58148843  0.90955948  0.58943492  1
  Al  Al88  1  0.41388916  0.09142848  0.08147288  1
  Al  Al89  1  0.41068252  0.08376816  0.57883464  1
  Al  Al90  1  0.42159980  0.59397471  0.09188702  1
  Al  Al91  1  0.41146954  0.59137540  0.58182139  1
  Al  Al92  1  0.92073495  0.08423122  0.07305716  1
  Al  Al93  1  0.90770185  0.08358536  0.57398787  1
  Al  Al94  1  0.91811266  0.57741338  0.09853352  1
  Al  Al95  1  0.92722933  0.58715792  0.58694399  1
  Al  Al96  1  0.24946252  0.13270930  0.13228492  1
  Al  Al97  1  0.25035717  0.13685613  0.63241151  1
  Al  Al98  1  0.25102371  0.63425613  0.13501778  1
  Al  Al99  1  0.24900303  0.63640602  0.63003325  1
  Al  Al100  1  0.74895243  0.13899172  0.13866517  1
  Al  Al101  1  0.74843587  0.13719225  0.62937210  1
  Al  Al102  1  0.74709656  0.62991889  0.14033963  1
  Al  Al103  1  0.74945603  0.63732736  0.63583738  1
  Al  Al104  1  0.24693042  0.36732718  0.13424453  1
  Al  Al105  1  0.24530116  0.36805826  0.63604678  1
  Al  Al106  1  0.25206389  0.86658615  0.13051625  1
  Al  Al107  1  0.25243385  0.85929625  0.63479927  1
  Al  Al108  1  0.74918266  0.36787179  0.13576949  1
  Al  Al109  1  0.75170143  0.36487898  0.63458024  1
  Al  Al110  1  0.74418138  0.85997598  0.13366885  1
  Al  Al111  1  0.74802441  0.86119961  0.62832173  1
  Al  Al112  1  0.24888692  0.13567440  0.36634561  1
  Al  Al113  1  0.25110714  0.13927262  0.87610145  1
  Al  Al114  1  0.24935271  0.63191953  0.36772274  1
  Al  Al115  1  0.25022743  0.63728444  0.86243552  1
  Al  Al116  1  0.75363276  0.14231249  0.37089062  1
  Al  Al117  1  0.74605231  0.13822226  0.86547600  1
  Al  Al118  1  0.74724929  0.63084636  0.36557348  1
  Al  Al119  1  0.74733435  0.63899446  0.86151322  1
  Al  Al120  1  0.24936407  0.36949917  0.36434266  1
  Al  Al121  1  0.24481832  0.36709687  0.86861170  1
  Al  Al122  1  0.25166018  0.86796302  0.36444190  1
  Al  Al123  1  0.25485716  0.86132538  0.87272376  1
  Al  Al124  1  0.75049504  0.36598808  0.36482441  1
  Al  Al125  1  0.74776404  0.36273946  0.86560249  1
  Al  Al126  1  0.74881115  0.85968431  0.37041974  1
  Al  Al127  1  0.74299035  0.86412148  0.86480189  1
  Al  Al128  1  0.13618090  0.24975700  0.13219365  1
  Al  Al129  1  0.13771439  0.25009887  0.63468240  1
  Al  Al130  1  0.13684527  0.75360144  0.13707767  1
  Al  Al131  1  0.13166726  0.74623937  0.63306154  1
  Al  Al132  1  0.63407630  0.25351545  0.13776535  1
  Al  Al133  1  0.63508708  0.24832984  0.63453417  1
  Al  Al134  1  0.63205962  0.74448382  0.13816092  1
  Al  Al135  1  0.63184036  0.75097200  0.63459141  1
  Al  Al136  1  0.13076737  0.25089722  0.36275783  1
  Al  Al137  1  0.13584291  0.25429134  0.87370619  1
  Al  Al138  1  0.13851983  0.74877173  0.36910045  1
  Al  Al139  1  0.13581197  0.75060343  0.86376228  1
  Al  Al140  1  0.62984018  0.25215083  0.36387741  1
  Al  Al141  1  0.62817372  0.25284347  0.86627458  1
  Al  Al142  1  0.63163972  0.74586708  0.36348261  1
  Al  Al143  1  0.62676169  0.75204777  0.86312716  1
  Al  Al144  1  0.36284705  0.25010910  0.13492231  1
  Al  Al145  1  0.36079341  0.24937421  0.63683634  1
  Al  Al146  1  0.36411098  0.74905733  0.13743239  1
  Al  Al147  1  0.36687625  0.74179652  0.63065103  1
  Al  Al148  1  0.86614428  0.25362425  0.13598698  1
  Al  Al149  1  0.86199224  0.25174299  0.62929006  1
  Al  Al150  1  0.86328658  0.74933668  0.13446337  1
  Al  Al151  1  0.86815886  0.75107502  0.63398182  1
  Al  Al152  1  0.36738508  0.24845905  0.36357580  1
  Al  Al153  1  0.36801121  0.25162878  0.86563969  1
  Al  Al154  1  0.36433041  0.74243351  0.36959374  1
  Al  Al155  1  0.37224407  0.74994493  0.86306524  1
  Al  Al156  1  0.86745419  0.25551705  0.36690154  1
  Al  Al157  1  0.86425007  0.25331918  0.86459309  1
  Al  Al158  1  0.86344448  0.74969284  0.36538350  1
  Al  Al159  1  0.86299123  0.75247729  0.86233774  1
  Al  Al160  1  0.13358268  0.13368108  0.24968688  1
  Al  Al161  1  0.13835016  0.13963162  0.75863289  1
  Al  Al162  1  0.13795096  0.63169739  0.25022549  1
  Al  Al163  1  0.13856304  0.63099840  0.74589824  1
  Al  Al164  1  0.63664675  0.13604586  0.25398878  1
  Al  Al165  1  0.63337166  0.13584685  0.75610136  1
  Al  Al166  1  0.63245137  0.63207883  0.25174218  1
  Al  Al167  1  0.62656550  0.63846254  0.74817681  1
  Al  Al168  1  0.36071617  0.12949056  0.24984563  1
  Al  Al169  1  0.36200077  0.13401822  0.75814744  1
  Al  Al170  1  0.36968276  0.63456044  0.25197059  1
  Al  Al171  1  0.37253785  0.63688226  0.74889604  1
  Al  Al172  1  0.87160168  0.14220060  0.25413424  1
  Al  Al173  1  0.86273384  0.13732489  0.75050598  1
  Al  Al174  1  0.86462605  0.63336883  0.24855587  1
  Al  Al175  1  0.86802190  0.63772653  0.74642729  1
  Al  Al176  1  0.13644714  0.36917040  0.25123779  1
  Al  Al177  1  0.13558102  0.36499827  0.75417433  1
  Al  Al178  1  0.13812075  0.86913535  0.24872522  1
  Al  Al179  1  0.13637245  0.86188708  0.74799124  1
  Al  Al180  1  0.63480712  0.36941014  0.25164418  1
  Al  Al181  1  0.63555657  0.36461700  0.74905229  1
  Al  Al182  1  0.63501560  0.86219663  0.25207245  1
  Al  Al183  1  0.63264474  0.86519803  0.75227695  1
  Al  Al184  1  0.36980101  0.36431614  0.25115100  1
  Al  Al185  1  0.36295672  0.36460967  0.75290049  1
  Al  Al186  1  0.36303704  0.86820014  0.24917468  1
  Al  Al187  1  0.36442324  0.86298488  0.75389154  1
  Al  Al188  1  0.86697282  0.36577691  0.25045914  1
  Al  Al189  1  0.86592321  0.36245583  0.74924476  1
  Al  Al190  1  0.86269020  0.86378888  0.24644821  1
  Al  Al191  1  0.86195361  0.86513635  0.74651126  1
  Al  Al192  1  0.00406357  0.66841302  0.81478974  1
  Al  Al193  1  0.82773239  0.66560991  0.00115948  1
  Al  Al194  1  0.68650768  0.31947350  0.49933275  1
  Al  Al195  1  0.81056387  0.00074309  0.82343430  1
  Al  Al196  1  0.82784058  -0.00061934  0.33375045  1
  Al  Al197  1  0.81766411  0.18252015  0.00083580  1
  Al  Al198  1  0.67262998  0.67835602  0.49999729  1
  Al  Al199  1  0.67008143  0.50168539  0.66988263  1
  Al  Al200  1  -0.00031238  0.82688086  0.30887940  1
  Al  Al201  1  0.67060761  -0.00056843  0.17322372  1
  Al  Al202  1  0.32677192  0.68327277  -0.00041976  1
  Al  Al203  1  0.67200483  -0.00050793  0.32698535  1
  Al  Al204  1  0.00344402  0.32381263  0.18272715  1
  Al  Al205  1  0.82850658  0.00131870  0.17007296  1
  Al  Al206  1  0.18231347  -0.00069360  0.83160163  1
  Al  Al207  1  0.00128454  0.32730874  0.68323520  1
  Al  Al208  1  0.49862669  0.18074206  0.18151989  1
  Al  Al209  1  -0.00162667  0.82853113  0.81887437  1
  Al  Al210  1  0.82237538  0.83152146  -0.00141370  1
  Al  Al211  1  -0.00116890  0.17320606  0.66915811  1
  Al  Al212  1  0.49887715  0.81707197  0.17311694  1
  Al  Al213  1  0.31621138  0.50255648  0.67222348  1
  Al  Al214  1  0.17365290  0.67590701  -0.00002915  1
  Al  Al215  1  0.49752766  0.80824029  0.69215041  1
  Al  Al216  1  0.32974684  0.31842895  0.50093729  1
  Al  Al217  1  0.82694133  0.00045958  0.67216022  1
  Al  Al218  1  0.49912282  0.32876051  0.68302133  1
  Al  Al219  1  0.67119609  0.00060291  0.69230815  1
  Al  Al220  1  0.32683829  -0.00051236  0.67941892  1
  Al  Al221  1  0.67546923  0.32448450  -0.00148846  1
  Al  Al222  1  0.67237986  0.67837238  0.00047436  1
  Al  Al223  1  0.49637430  0.17067366  0.67862072  1
  Al  Al224  1  0.00115287  0.66933595  0.32786283  1
  Al  Al225  1  0.31377331  0.31451853  -0.00000423  1
  Al  Al226  1  0.82621200  0.50220777  0.81940354  1
  Al  Al227  1  0.16829139  0.32609936  0.49753446  1
  Al  Al228  1  0.81552675  0.49949748  0.31437860  1
  Al  Al229  1  0.00041308  0.18758676  0.82892749  1
  Al  Al230  1  0.67031104  0.50192953  0.82601771  1
  Al  Al231  1  0.82804343  0.50007512  0.66842210  1
  Al  Al232  1  0.16894532  0.00141244  0.67247249  1
  Al  Al233  1  0.32566950  0.82072179  0.50255170  1
  Al  Al234  1  0.31300679  0.50106935  0.82679185  1
  Al  Al235  1  0.32328182  0.50351330  0.18096867  1
  Al  Al236  1  0.00188642  0.68549864  0.17572484  1
  Al  Al237  1  0.49706102  0.81393653  0.32447946  1
  Al  Al238  1  0.82877849  0.68017989  0.50069194  1
  Au  Au239  1  0.67138076  0.15971910  0.00156513  1
  Au  Au240  1  0.17744210  0.17703571  0.00373223  1
  Au  Au241  1  0.67531250  -0.00053048  0.67571386  1
  Au  Au242  1  0.50517463  0.34023435  0.33166175  1
  Au  Au243  1  0.83824103  0.83472822  -0.00195399  1
  Au  Au244  1  0.67029953  0.82939420  0.49851887  1
  Au  Au245  1  0.33214185  0.50001789  0.17311626  1
  Au  Au246  1  0.49574526  0.17682290  0.66276810  1
  Au  Au247  1  0.17303209  0.65925425  0.50047329  1
  Au  Au248  1  0.33462101  0.00131085  0.33331340  1
  Au  Au249  1  -0.00042397  0.16400719  0.16940147  1
  Au  Au250  1  0.17566560  0.00059664  0.65622856  1
  Au  Au251  1  0.67753490  0.17190691  0.49781954  1
  Au  Au252  1  -0.00605237  0.17499086  0.65375642  1
  Au  Au253  1  0.34403254  -0.00357393  0.83061219  1
  Au  Au254  1  0.49895510  0.17661263  0.84111371  1
  Au  Au255  1  0.50079064  0.67808748  0.82250503  1
  Au  Au256  1  0.67059047  0.33486687  0.00343861  1
  Au  Au257  1  0.16815091  0.00087649  0.33299751  1
  Au  Au258  1  0.82939910  0.49489513  0.83417109  1
  Au  Au259  1  0.33461936  0.82925843  0.50048418  1
  Au  Au260  1  0.32590674  0.50418583  0.33695418  1
  Au  Au261  1  0.82306333  0.00073689  0.15418361  1
  Au  Au262  1  -0.00120403  0.84120624  0.83000532  1
  Au  Au263  1  0.84170389  0.32898041  0.00004283  1
  Au  Au264  1  0.16983126  0.82904600  0.49892326  1
  Au  Au265  1  -0.00096256  0.82147124  0.32522197  1
  Au  Au266  1  -0.00186300  0.82276640  0.65794275  1
  Au  Au267  1  -0.00107600  0.17640047  0.84150775  1
  Au  Au268  1  0.34540321  0.32434691  0.50257536  1
  Au  Au269  1  0.50203577  0.33077523  0.16510614  1
  Au  Au270  1  0.82328955  -0.00069527  0.34996437  1
  Au  Au271  1  0.00345132  0.33859559  0.17484537  1
  Au  Au272  1  0.17830688  0.16440074  0.49819509  1
  Au  Au273  1  0.82979181  0.49762113  0.32360954  1
  Au  Au274  1  0.32967410  0.49931491  0.82493550  1
  Au  Au275  1  0.16726132  -0.00197456  0.16778355  1
  Au  Au276  1  0.33500785  -0.00098076  0.16296155  1
  Au  Au277  1  -0.00139869  0.18083792  0.33666952  1
  Au  Au278  1  0.15795631  0.33830001  0.49827865  1
  Au  Au279  1  0.16736803  0.50073232  0.17108085  1
  Au  Au280  1  0.17661313  0.82415582  0.00170575  1
  Au  Au281  1  0.00722172  0.65878150  0.82849105  1
  Au  Au282  1  0.16610859  0.00091594  0.83646665  1
  Au  Au283  1  0.32772385  0.32449626  -0.00116781  1
  Au  Au284  1  0.83281124  0.66804106  0.50073831  1
  Au  Au285  1  0.82693284  0.65055392  0.00712335  1
  Au  Au286  1  0.65559638  0.82839643  -0.00192472  1
  Au  Au287  1  0.49838908  0.16568514  0.32926664  1
