# generated using pymatgen
data_Ca24Ti8Al207Au49
_symmetry_space_group_name_H-M   'P 1'
_cell_length_a   17.31999002
_cell_length_b   17.31986080
_cell_length_c   17.31907061
_cell_angle_alpha   89.99980783
_cell_angle_beta   90.00433097
_cell_angle_gamma   89.99950625
_symmetry_Int_Tables_number   1
_chemical_formula_structural   Ca24Ti8Al207Au49
_chemical_formula_sum   'Ca24 Ti8 Al207 Au49'
_cell_volume   5195.37160068
_cell_formula_units_Z   1
loop_
 _symmetry_equiv_pos_site_id
 _symmetry_equiv_pos_as_xyz
  1  'x, y, z'
loop_
 _atom_site_type_symbol
 _atom_site_label
 _atom_site_symmetry_multiplicity
 _atom_site_fract_x
 _atom_site_fract_y
 _atom_site_fract_z
 _atom_site_occupancy
  Ca  Ca0  1  0.24981617  -0.00199144  0.00109401  1
  Ca  Ca1  1  0.25087556  0.00166920  0.49672800  1
  Ca  Ca2  1  0.25228157  0.50303403  -0.00052445  1
  Ca  Ca3  1  0.25671983  0.49806463  0.49870941  1
  Ca  Ca4  1  0.74621688  -0.00166171  -0.00045822  1
  Ca  Ca5  1  0.75027532  0.00384292  0.50315662  1
  Ca  Ca6  1  0.74508000  0.50085687  -0.00035007  1
  Ca  Ca7  1  0.74497786  0.49848539  0.49696443  1
  Ca  Ca8  1  0.00315463  0.25378977  0.00091181  1
  Ca  Ca9  1  -0.00504601  0.24733671  0.50201188  1
  Ca  Ca10  1  -0.00240298  0.75131435  -0.00056898  1
  Ca  Ca11  1  -0.00154103  0.75180186  0.49952542  1
  Ca  Ca12  1  0.49935251  0.25939330  -0.00044451  1
  Ca  Ca13  1  0.50311898  0.25229882  0.49795678  1
  Ca  Ca14  1  0.50222488  0.74447242  0.00095055  1
  Ca  Ca15  1  0.50210640  0.74877010  0.49950920  1
  Ca  Ca16  1  0.00148832  0.00586841  0.24358564  1
  Ca  Ca17  1  -0.00648830  0.00028997  0.74710458  1
  Ca  Ca18  1  0.00181186  0.49115204  0.24690551  1
  Ca  Ca19  1  -0.00401265  0.49800404  0.75260896  1
  Ca  Ca20  1  0.50426821  -0.00139255  0.25334323  1
  Ca  Ca21  1  0.50699863  -0.00471133  0.74521762  1
  Ca  Ca22  1  0.49972387  0.50186790  0.24823498  1
  Ca  Ca23  1  0.50205905  0.50235582  0.75271370  1
  Ti  Ti24  1  0.25059886  0.25267029  0.24947971  1
  Ti  Ti25  1  0.25024676  0.25281909  0.75023467  1
  Ti  Ti26  1  0.25329850  0.74793095  0.24867452  1
  Ti  Ti27  1  0.25111596  0.74763105  0.75082671  1
  Ti  Ti28  1  0.74905461  0.25247690  0.24856028  1
  Ti  Ti29  1  0.74999547  0.25027522  0.75079278  1
  Ti  Ti30  1  0.74671069  0.74888636  0.25116580  1
  Ti  Ti31  1  0.74852387  0.75034732  0.74938172  1
  Al  Al32  1  0.08459234  0.09485537  0.08282201  1
  Al  Al33  1  0.07032701  0.08670680  0.58848131  1
  Al  Al34  1  0.08219960  0.57882181  0.07979808  1
  Al  Al35  1  0.09265092  0.57539919  0.58469550  1
  Al  Al36  1  0.58012515  0.07647718  0.07662929  1
  Al  Al37  1  0.59196714  0.08157462  0.58205803  1
  Al  Al38  1  0.58231586  0.59510695  0.08596198  1
  Al  Al39  1  0.58365024  0.58674725  0.58895125  1
  Al  Al40  1  0.41851163  0.42476188  0.08760038  1
  Al  Al41  1  0.41966693  0.42014935  0.58565993  1
  Al  Al42  1  0.42303378  0.90255924  0.08985788  1
  Al  Al43  1  0.42819403  0.90498415  0.58264488  1
  Al  Al44  1  0.92104006  0.41236925  0.09315948  1
  Al  Al45  1  0.91071359  0.41972145  0.58285545  1
  Al  Al46  1  0.92135893  0.92194801  0.07627107  1
  Al  Al47  1  0.90850615  0.92460151  0.59219406  1
  Al  Al48  1  0.42029835  0.08318355  0.41428624  1
  Al  Al49  1  0.42529318  0.09503606  0.92393216  1
  Al  Al50  1  0.41579199  0.57779633  0.40948853  1
  Al  Al51  1  0.41722100  0.58265970  0.92576740  1
  Al  Al52  1  0.90673653  0.09092093  0.42368503  1
  Al  Al53  1  0.91101923  0.07772960  0.91057859  1
  Al  Al54  1  0.90578547  0.57070861  0.41597241  1
  Al  Al55  1  0.90875746  0.58191496  0.91103685  1
  Al  Al56  1  0.07596886  0.41100540  0.40621258  1
  Al  Al57  1  0.08851481  0.41688186  0.92492454  1
  Al  Al58  1  0.08033254  0.92204225  0.42421944  1
  Al  Al59  1  0.08141030  0.90868893  0.92251818  1
  Al  Al60  1  0.58368483  0.41620157  0.39990610  1
  Al  Al61  1  0.58617357  0.42110974  0.90399129  1
  Al  Al62  1  0.58789652  0.90876947  0.42370540  1
  Al  Al63  1  0.58811923  0.90777951  0.91580869  1
  Al  Al64  1  0.07285712  0.08118469  0.42446187  1
  Al  Al65  1  0.08156432  0.09126697  0.92535991  1
  Al  Al66  1  0.08392855  0.57259276  0.42239432  1
  Al  Al67  1  0.08133759  0.58139358  0.91704724  1
  Al  Al68  1  0.58514372  0.08910270  0.42124599  1
  Al  Al69  1  0.58324205  0.08146619  0.91111689  1
  Al  Al70  1  0.58736648  0.57954840  0.41022711  1
  Al  Al71  1  0.58823125  0.58329289  0.92127016  1
  Al  Al72  1  0.42013172  0.41572268  0.40081546  1
  Al  Al73  1  0.42469992  0.41827565  0.91254814  1
  Al  Al74  1  0.41960356  0.91683552  0.42070668  1
  Al  Al75  1  0.42918853  0.90441562  0.92307647  1
  Al  Al76  1  0.91261547  0.41089764  0.40344522  1
  Al  Al77  1  0.91076173  0.42571787  0.91369377  1
  Al  Al78  1  0.91342117  0.92781926  0.42258288  1
  Al  Al79  1  0.90890936  0.92018343  0.90755811  1
  Al  Al80  1  0.08490134  0.40505397  0.08777900  1
  Al  Al81  1  0.08560298  0.42065512  0.58775892  1
  Al  Al82  1  0.08474476  0.91081683  0.07797375  1
  Al  Al83  1  0.07194239  0.92258096  0.58345431  1
  Al  Al84  1  0.57878087  0.42465055  0.08456110  1
  Al  Al85  1  0.58468005  0.42168999  0.58717553  1
  Al  Al86  1  0.58317021  0.89957751  0.08476845  1
  Al  Al87  1  0.59148321  0.90706047  0.58799959  1
  Al  Al88  1  0.41562841  0.08078827  0.08003732  1
  Al  Al89  1  0.42660634  0.08057053  0.57224910  1
  Al  Al90  1  0.41617272  0.59239944  0.08942402  1
  Al  Al91  1  0.42059101  0.58649554  0.58896067  1
  Al  Al92  1  0.92287419  0.08395464  0.08137190  1
  Al  Al93  1  0.90778851  0.08862361  0.59027278  1
  Al  Al94  1  0.91507236  0.57889602  0.08098867  1
  Al  Al95  1  0.90742992  0.57488498  0.58276726  1
  Al  Al96  1  0.24539998  0.13218895  0.13293851  1
  Al  Al97  1  0.25253816  0.13892833  0.63673022  1
  Al  Al98  1  0.25391194  0.63655692  0.13038742  1
  Al  Al99  1  0.24983776  0.62757342  0.63703471  1
  Al  Al100  1  0.74732056  0.13081758  0.13496687  1
  Al  Al101  1  0.75484481  0.13354187  0.63529293  1
  Al  Al102  1  0.74351706  0.62930932  0.13458596  1
  Al  Al103  1  0.74760186  0.63401353  0.63520190  1
  Al  Al104  1  0.25052298  0.36807469  0.13701603  1
  Al  Al105  1  0.25075702  0.37216050  0.63791702  1
  Al  Al106  1  0.25250535  0.86706374  0.13517681  1
  Al  Al107  1  0.25115250  0.86151658  0.63756801  1
  Al  Al108  1  0.74956512  0.37450875  0.13360928  1
  Al  Al109  1  0.75362593  0.36572680  0.63455942  1
  Al  Al110  1  0.74528962  0.86694948  0.13693866  1
  Al  Al111  1  0.74957922  0.86596309  0.63056761  1
  Al  Al112  1  0.25006815  0.14077633  0.36346497  1
  Al  Al113  1  0.24361039  0.13779937  0.86722352  1
  Al  Al114  1  0.25496069  0.62694442  0.36127680  1
  Al  Al115  1  0.25101091  0.63467774  0.86763662  1
  Al  Al116  1  0.75082513  0.13873423  0.36627217  1
  Al  Al117  1  0.75141651  0.12791293  0.86244352  1
  Al  Al118  1  0.74365423  0.63075697  0.36344136  1
  Al  Al119  1  0.74575894  0.63335402  0.86852969  1
  Al  Al120  1  0.25309457  0.37245345  0.36346896  1
  Al  Al121  1  0.25025318  0.36648534  0.86353853  1
  Al  Al122  1  0.25181177  0.86271480  0.36103671  1
  Al  Al123  1  0.24891668  0.86321776  0.86806477  1
  Al  Al124  1  0.75080645  0.37179660  0.36516638  1
  Al  Al125  1  0.74626754  0.36760172  0.86987517  1
  Al  Al126  1  0.74300237  0.86424613  0.36938591  1
  Al  Al127  1  0.74850494  0.86990129  0.86263891  1
  Al  Al128  1  0.13540338  0.25392527  0.13718459  1
  Al  Al129  1  0.13090531  0.25061323  0.63715308  1
  Al  Al130  1  0.13744636  0.75011196  0.13378644  1
  Al  Al131  1  0.13907631  0.74919824  0.63034844  1
  Al  Al132  1  0.64014291  0.25548780  0.13181969  1
  Al  Al133  1  0.63735129  0.25433136  0.63715214  1
  Al  Al134  1  0.63049606  0.74698618  0.13750291  1
  Al  Al135  1  0.63674296  0.75323515  0.62932835  1
  Al  Al136  1  0.13266860  0.25582825  0.36081767  1
  Al  Al137  1  0.13387836  0.24959700  0.86292369  1
  Al  Al138  1  0.14123432  0.74717360  0.36590704  1
  Al  Al139  1  0.13488027  0.75188843  0.86590661  1
  Al  Al140  1  0.63673961  0.25622511  0.36066317  1
  Al  Al141  1  0.63934860  0.25198326  0.87056750  1
  Al  Al142  1  0.62887139  0.74814054  0.36523580  1
  Al  Al143  1  0.63552043  0.74641748  0.86519616  1
  Al  Al144  1  0.36189488  0.25096813  0.13296100  1
  Al  Al145  1  0.36463810  0.25589438  0.63364929  1
  Al  Al146  1  0.36939611  0.74596965  0.13225856  1
  Al  Al147  1  0.36528799  0.74805120  0.63425236  1
  Al  Al148  1  0.86146370  0.25708850  0.13425156  1
  Al  Al149  1  0.86861169  0.24451252  0.63208041  1
  Al  Al150  1  0.86029902  0.74589763  0.13742568  1
  Al  Al151  1  0.85990728  0.75327610  0.62938443  1
  Al  Al152  1  0.36554018  0.25579751  0.36203302  1
  Al  Al153  1  0.36504314  0.25473077  0.86820162  1
  Al  Al154  1  0.37374843  0.74790246  0.36202215  1
  Al  Al155  1  0.36592501  0.74492133  0.86865910  1
  Al  Al156  1  0.86426492  0.25371437  0.36372379  1
  Al  Al157  1  0.85963790  0.25023946  0.86610793  1
  Al  Al158  1  0.85817523  0.75192033  0.36686651  1
  Al  Al159  1  0.86111819  0.75236611  0.86337284  1
  Al  Al160  1  0.13339959  0.13679732  0.24644657  1
  Al  Al161  1  0.13347313  0.13654025  0.74542468  1
  Al  Al162  1  0.13998655  0.62966499  0.24864325  1
  Al  Al163  1  0.13630287  0.63674863  0.75008728  1
  Al  Al164  1  0.64061939  0.12811778  0.25297556  1
  Al  Al165  1  0.63678125  0.13551743  0.75056209  1
  Al  Al166  1  0.62965359  0.63377202  0.24905247  1
  Al  Al167  1  0.63457273  0.63338067  0.75352263  1
  Al  Al168  1  0.36208498  0.13558825  0.24690801  1
  Al  Al169  1  0.36493408  0.13939078  0.75515338  1
  Al  Al170  1  0.37263972  0.63735471  0.24788373  1
  Al  Al171  1  0.36657843  0.63500688  0.74840261  1
  Al  Al172  1  0.86353049  0.13727477  0.24740246  1
  Al  Al173  1  0.86390264  0.13234754  0.74779657  1
  Al  Al174  1  0.85859861  0.62883141  0.25210420  1
  Al  Al175  1  0.86140544  0.63648454  0.74883850  1
  Al  Al176  1  0.13484445  0.36991703  0.24996193  1
  Al  Al177  1  0.13488790  0.36565975  0.74760966  1
  Al  Al178  1  0.13746296  0.86468780  0.24572259  1
  Al  Al179  1  0.13567657  0.86331856  0.75143751  1
  Al  Al180  1  0.63840510  0.37453386  0.25108853  1
  Al  Al181  1  0.63137483  0.36636983  0.75523928  1
  Al  Al182  1  0.62911848  0.86421860  0.25016161  1
  Al  Al183  1  0.63484608  0.86333745  0.74739717  1
  Al  Al184  1  0.36687512  0.36907904  0.25236623  1
  Al  Al185  1  0.37125445  0.36555190  0.74953122  1
  Al  Al186  1  0.37229507  0.85931016  0.24611374  1
  Al  Al187  1  0.36482589  0.86168435  0.75228418  1
  Al  Al188  1  0.86290000  0.36984878  0.25156495  1
  Al  Al189  1  0.86180099  0.36382744  0.74911605  1
  Al  Al190  1  0.85844738  0.86487058  0.24927546  1
  Al  Al191  1  0.85994645  0.87064450  0.74920968  1
  Al  Al192  1  -0.00242640  0.66575351  0.32931816  1
  Al  Al193  1  -0.00001359  0.67119257  0.17296466  1
  Al  Al194  1  -0.00152234  0.67899295  0.82518833  1
  Al  Al195  1  0.68199272  0.80490667  0.00065504  1
  Al  Al196  1  -0.00114326  0.67217699  0.66577260  1
  Al  Al197  1  0.50490669  0.17278773  0.17934577  1
  Al  Al198  1  0.18112469  0.67587984  0.49882274  1
  Al  Al199  1  0.50124465  0.18648314  0.32730547  1
  Al  Al200  1  0.17199008  0.50007720  0.81856040  1
  Al  Al201  1  -0.00253059  0.82494621  0.68143436  1
  Al  Al202  1  0.50027732  0.17781695  0.67134851  1
  Al  Al203  1  -0.00207262  0.16998578  0.81360298  1
  Al  Al204  1  0.31621200  0.81451712  0.00129792  1
  Al  Al205  1  -0.00270106  0.32194491  0.67481649  1
  Al  Al206  1  0.80833591  0.50001354  0.80786068  1
  Al  Al207  1  -0.00143233  0.18154150  0.32604249  1
  Al  Al208  1  0.50276266  0.18989473  0.82638534  1
  Al  Al209  1  0.81949286  0.67854961  0.00082014  1
  Al  Al210  1  0.50264963  0.69141100  0.68437810  1
  Al  Al211  1  0.81988661  0.67744987  0.49852895  1
  Al  Al212  1  0.32655474  0.17959069  0.49809763  1
  Al  Al213  1  0.69053919  0.18558886  0.50149442  1
  Al  Al214  1  -0.00203314  0.19157648  0.17396682  1
  Al  Al215  1  -0.00279764  0.83044684  0.32840774  1
  Al  Al216  1  -0.00177496  0.82398101  0.17137816  1
  Al  Al217  1  0.82397955  0.17768644  -0.00010644  1
  Al  Al218  1  0.68709160  -0.00024514  0.68034189  1
  Al  Al219  1  0.50137927  0.81422125  0.81205280  1
  Al  Al220  1  0.18168470  0.68313000  -0.00122185  1
  Al  Al221  1  0.33117200  -0.00104515  0.66687031  1
  Al  Al222  1  0.18573298  0.30837391  -0.00042717  1
  Al  Al223  1  0.17386684  0.00044142  0.82943736  1
  Al  Al224  1  0.17147895  0.17152420  0.50213514  1
  Al  Al225  1  -0.00111676  0.32906963  0.83071770  1
  Al  Al226  1  0.32694573  0.50095354  0.82112466  1
  Al  Al227  1  0.17219365  0.00110736  0.67393215  1
  Al  Al228  1  0.69038112  0.49797194  0.69373722  1
  Al  Al229  1  0.32840325  -0.00142397  0.32088068  1
  Al  Al230  1  0.17094471  0.00343626  0.32253252  1
  Al  Al231  1  0.32069563  0.81858849  0.49786508  1
  Al  Al232  1  0.32106630  0.50368922  0.18614399  1
  Al  Al233  1  0.17819661  0.32739544  0.50051520  1
  Al  Al234  1  0.33811150  -0.00090783  0.83185316  1
  Al  Al235  1  0.81775150  0.32326367  0.49851270  1
  Al  Al236  1  0.31688269  0.18232803  -0.00004943  1
  Al  Al237  1  0.81796337  0.00196673  0.32155615  1
  Al  Al238  1  0.50168106  0.32852474  0.18676274  1
  Au  Au239  1  0.16794644  -0.00044170  0.15780059  1
  Au  Au240  1  0.33051643  0.34446595  -0.00016049  1
  Au  Au241  1  0.15813817  0.00046098  0.83370055  1
  Au  Au242  1  0.34572414  0.32952359  0.49513351  1
  Au  Au243  1  0.66357737  0.50495757  0.17488324  1
  Au  Au244  1  0.83786980  0.33338676  -0.00001659  1
  Au  Au245  1  0.50111918  0.66277195  0.32237684  1
  Au  Au246  1  -0.00109102  0.65719010  0.67308365  1
  Au  Au247  1  -0.00249401  0.16963768  0.33399598  1
  Au  Au248  1  0.50232745  0.33377626  0.67896342  1
  Au  Au249  1  -0.00303220  0.33409376  0.67047214  1
  Au  Au250  1  0.66431115  -0.00587807  0.16504254  1
  Au  Au251  1  0.17253548  0.49900876  0.16441262  1
  Au  Au252  1  0.17673354  0.49782467  0.33242468  1
  Au  Au253  1  0.32628388  0.50056924  0.67105721  1
  Au  Au254  1  0.31492907  0.16965925  0.00101742  1
  Au  Au255  1  0.32694358  -0.00373983  0.65082158  1
  Au  Au256  1  0.82350832  0.84126922  0.50084853  1
  Au  Au257  1  0.81954673  0.66604093  -0.00176091  1
  Au  Au258  1  0.66498063  0.67216474  0.49836434  1
  Au  Au259  1  0.50051321  0.66689758  0.83415304  1
  Au  Au260  1  0.82431057  0.66580072  0.49777237  1
  Au  Au261  1  0.17661048  0.00521353  0.33846653  1
  Au  Au262  1  -0.00300937  0.17483196  0.82993611  1
  Au  Au263  1  0.68172315  0.50081353  0.67907956  1
  Au  Au264  1  0.83528181  0.49938175  0.17817241  1
  Au  Au265  1  0.33140307  0.82202980  0.00119180  1
  Au  Au266  1  0.17529567  0.66486831  0.49900801  1
  Au  Au267  1  0.16714399  0.67482861  -0.00137262  1
  Au  Au268  1  0.83065034  0.16716820  0.00038611  1
  Au  Au269  1  0.82486664  0.84009629  0.00061269  1
  Au  Au270  1  0.65770679  0.33071104  0.49513605  1
  Au  Au271  1  -0.00351459  0.82907702  0.83254577  1
  Au  Au272  1  -0.00337875  0.64993733  0.32349764  1
  Au  Au273  1  0.50018940  0.83376318  0.32774368  1
  Au  Au274  1  0.50015428  0.16556656  0.67515481  1
  Au  Au275  1  0.50011198  0.17807341  0.16402673  1
  Au  Au276  1  0.67240386  -0.00254842  0.82790504  1
  Au  Au277  1  0.67064918  -0.00019365  0.34135198  1
  Au  Au278  1  0.35426679  -0.00090533  0.83639131  1
  Au  Au279  1  0.66125450  0.33838187  -0.00049417  1
  Au  Au280  1  0.83981135  0.00050347  0.17395144  1
  Au  Au281  1  0.66843600  0.16646977  -0.00201522  1
  Au  Au282  1  0.33744823  0.66941593  0.49732603  1
  Au  Au283  1  0.17139387  0.83947992  0.50566310  1
  Au  Au284  1  0.83038507  0.32117642  0.49957855  1
  Au  Au285  1  0.34305549  -0.00563132  0.17306784  1
  Au  Au286  1  0.16154752  0.32563666  0.49777797  1
  Au  Au287  1  -0.00394162  0.84625014  0.32261753  1
