# generated using pymatgen
data_Ca24Ti8Al207Au49
_symmetry_space_group_name_H-M   'P 1'
_cell_length_a   17.32160337
_cell_length_b   17.32041138
_cell_length_c   17.32088797
_cell_angle_alpha   89.99493449
_cell_angle_beta   90.00242682
_cell_angle_gamma   90.00126205
_symmetry_Int_Tables_number   1
_chemical_formula_structural   Ca24Ti8Al207Au49
_chemical_formula_sum   'Ca24 Ti8 Al207 Au49'
_cell_volume   5196.56594866
_cell_formula_units_Z   1
loop_
 _symmetry_equiv_pos_site_id
 _symmetry_equiv_pos_as_xyz
  1  'x, y, z'
loop_
 _atom_site_type_symbol
 _atom_site_label
 _atom_site_symmetry_multiplicity
 _atom_site_fract_x
 _atom_site_fract_y
 _atom_site_fract_z
 _atom_site_occupancy
  Ca  Ca0  1  0.25695156  0.00086131  0.00502050  1
  Ca  Ca1  1  0.25642983  -0.00081901  0.49408632  1
  Ca  Ca2  1  0.24363391  0.49635992  -0.00326881  1
  Ca  Ca3  1  0.24506268  0.49986553  0.50294905  1
  Ca  Ca4  1  0.74192279  0.00113538  0.00089582  1
  Ca  Ca5  1  0.74858101  0.00350261  0.49792318  1
  Ca  Ca6  1  0.74911090  0.49665562  0.00204448  1
  Ca  Ca7  1  0.75410757  0.49655230  0.49787466  1
  Ca  Ca8  1  -0.00160597  0.25337997  0.00256091  1
  Ca  Ca9  1  -0.00218185  0.25223555  0.49852846  1
  Ca  Ca10  1  -0.00157513  0.74003875  -0.00018716  1
  Ca  Ca11  1  -0.00105011  0.74412412  0.50271765  1
  Ca  Ca12  1  0.50123429  0.24537818  -0.00008369  1
  Ca  Ca13  1  0.50161383  0.24527872  0.49982717  1
  Ca  Ca14  1  0.50456071  0.75002552  0.00061356  1
  Ca  Ca15  1  0.50089699  0.75603091  0.49926396  1
  Ca  Ca16  1  -0.00314223  0.00093987  0.25556955  1
  Ca  Ca17  1  -0.00439763  0.00206060  0.74482574  1
  Ca  Ca18  1  -0.00682284  0.49926272  0.25335904  1
  Ca  Ca19  1  0.00350568  0.49288620  0.74969860  1
  Ca  Ca20  1  0.50252648  0.00556042  0.24981192  1
  Ca  Ca21  1  0.50839311  -0.00023973  0.74624285  1
  Ca  Ca22  1  0.50355890  0.49377497  0.24745589  1
  Ca  Ca23  1  0.50060113  0.50053297  0.74748483  1
  Ti  Ti24  1  0.25080809  0.25234647  0.25192175  1
  Ti  Ti25  1  0.25072045  0.25126953  0.74939981  1
  Ti  Ti26  1  0.25116085  0.75065662  0.25172254  1
  Ti  Ti27  1  0.25168043  0.74817956  0.74688035  1
  Ti  Ti28  1  0.74873667  0.25129809  0.25131492  1
  Ti  Ti29  1  0.74993814  0.25021618  0.74833464  1
  Ti  Ti30  1  0.74691261  0.74984724  0.25119929  1
  Ti  Ti31  1  0.74806216  0.75053476  0.74875072  1
  Al  Al32  1  0.09644939  0.09190879  0.08430428  1
  Al  Al33  1  0.07397776  0.07964469  0.56909622  1
  Al  Al34  1  0.07655870  0.57303728  0.08126005  1
  Al  Al35  1  0.09114383  0.57214868  0.58628072  1
  Al  Al36  1  0.58846208  0.07968251  0.09078673  1
  Al  Al37  1  0.59059124  0.08054793  0.58871579  1
  Al  Al38  1  0.58330166  0.58007792  0.08702283  1
  Al  Al39  1  0.57776664  0.59249029  0.59048432  1
  Al  Al40  1  0.42297277  0.41015029  0.07779220  1
  Al  Al41  1  0.41837606  0.41182882  0.58860321  1
  Al  Al42  1  0.42041521  0.91808305  0.10021041  1
  Al  Al43  1  0.41556500  0.91122956  0.57759062  1
  Al  Al44  1  0.90469506  0.40944331  0.08213404  1
  Al  Al45  1  0.92275540  0.41574923  0.57782002  1
  Al  Al46  1  0.92076946  0.93256416  0.08107446  1
  Al  Al47  1  0.90608798  0.91637805  0.57727090  1
  Al  Al48  1  0.42404125  0.08440218  0.40747527  1
  Al  Al49  1  0.42543698  0.08992854  0.92203325  1
  Al  Al50  1  0.41831505  0.57700067  0.42979423  1
  Al  Al51  1  0.42198127  0.58737255  0.91228290  1
  Al  Al52  1  0.91004754  0.09848344  0.41328411  1
  Al  Al53  1  0.90874146  0.09345050  0.91929766  1
  Al  Al54  1  0.90787316  0.57418686  0.41017405  1
  Al  Al55  1  0.92885321  0.56761945  0.92499197  1
  Al  Al56  1  0.08068003  0.40240468  0.41948143  1
  Al  Al57  1  0.08333336  0.40404200  0.91125133  1
  Al  Al58  1  0.09101095  0.91267288  0.42490546  1
  Al  Al59  1  0.07341925  0.92487666  0.92670221  1
  Al  Al60  1  0.58515300  0.41366506  0.41425842  1
  Al  Al61  1  0.58009801  0.40779619  0.91412384  1
  Al  Al62  1  0.59242547  0.92687742  0.41109695  1
  Al  Al63  1  0.58992343  0.92294262  0.90294510  1
  Al  Al64  1  0.07300889  0.09752643  0.40883048  1
  Al  Al65  1  0.08244665  0.10024209  0.92780259  1
  Al  Al66  1  0.07833187  0.57661605  0.42394516  1
  Al  Al67  1  0.08326007  0.57154718  0.91905752  1
  Al  Al68  1  0.58698164  0.08818884  0.40202074  1
  Al  Al69  1  0.58743599  0.08592483  0.90578158  1
  Al  Al70  1  0.58553206  0.57239126  0.42209194  1
  Al  Al71  1  0.57759860  0.59007606  0.90812567  1
  Al  Al72  1  0.42084402  0.41297842  0.42166358  1
  Al  Al73  1  0.42003846  0.40983896  0.91227928  1
  Al  Al74  1  0.41010356  0.91980621  0.41809292  1
  Al  Al75  1  0.43382634  0.92442668  0.92259734  1
  Al  Al76  1  0.91685916  0.40945842  0.40415723  1
  Al  Al77  1  0.91900604  0.40151599  0.91795796  1
  Al  Al78  1  0.90540711  0.92077829  0.42121453  1
  Al  Al79  1  0.91667650  0.92917778  0.91727851  1
  Al  Al80  1  0.08579958  0.41218066  0.07445888  1
  Al  Al81  1  0.09265483  0.40942870  0.58413469  1
  Al  Al82  1  0.08510940  0.93097159  0.08599075  1
  Al  Al83  1  0.08656234  0.90771420  0.57583326  1
  Al  Al84  1  0.58196363  0.41468378  0.08611615  1
  Al  Al85  1  0.57867829  0.41209388  0.58728602  1
  Al  Al86  1  0.58177960  0.91703398  0.10080543  1
  Al  Al87  1  0.58716459  0.91966051  0.58923120  1
  Al  Al88  1  0.41121042  0.08090814  0.09266539  1
  Al  Al89  1  0.42747888  0.07706712  0.57635741  1
  Al  Al90  1  0.42631365  0.58358246  0.07604814  1
  Al  Al91  1  0.41768961  0.59248143  0.58955064  1
  Al  Al92  1  0.90511503  0.09281937  0.07850127  1
  Al  Al93  1  0.90961310  0.08753788  0.57415844  1
  Al  Al94  1  0.91323855  0.56811161  0.09710756  1
  Al  Al95  1  0.91892669  0.57478607  0.57252451  1
  Al  Al96  1  0.25140838  0.14091060  0.13370696  1
  Al  Al97  1  0.24862823  0.13995674  0.62673464  1
  Al  Al98  1  0.25075091  0.63658365  0.13660386  1
  Al  Al99  1  0.25219910  0.63148732  0.63493488  1
  Al  Al100  1  0.74703719  0.13578841  0.13536629  1
  Al  Al101  1  0.74944008  0.13397127  0.63044058  1
  Al  Al102  1  0.74844766  0.63033393  0.13616902  1
  Al  Al103  1  0.74663260  0.63478473  0.63663908  1
  Al  Al104  1  0.25092778  0.36092574  0.13076695  1
  Al  Al105  1  0.24916216  0.36877350  0.63290655  1
  Al  Al106  1  0.25502310  0.86760908  0.13610807  1
  Al  Al107  1  0.25163883  0.86200261  0.62836632  1
  Al  Al108  1  0.75330609  0.36772033  0.13529586  1
  Al  Al109  1  0.74694800  0.36169299  0.62968535  1
  Al  Al110  1  0.74199410  0.87118456  0.13534367  1
  Al  Al111  1  0.74723987  0.86885854  0.63199605  1
  Al  Al112  1  0.25102752  0.14174606  0.37219026  1
  Al  Al113  1  0.24648338  0.14242612  0.87304939  1
  Al  Al114  1  0.24947018  0.63406045  0.36703859  1
  Al  Al115  1  0.25069403  0.63643366  0.86191608  1
  Al  Al116  1  0.74734513  0.13607880  0.36844785  1
  Al  Al117  1  0.74725772  0.13886333  0.86860096  1
  Al  Al118  1  0.75000757  0.62797667  0.36463838  1
  Al  Al119  1  0.74283845  0.63064380  0.86325893  1
  Al  Al120  1  0.24820419  0.36156665  0.37566373  1
  Al  Al121  1  0.24878447  0.36322224  0.87132402  1
  Al  Al122  1  0.25185805  0.86622880  0.36688882  1
  Al  Al123  1  0.25148026  0.86641740  0.85815911  1
  Al  Al124  1  0.75165238  0.36428905  0.37056050  1
  Al  Al125  1  0.75417788  0.36323319  0.86955687  1
  Al  Al126  1  0.74720789  0.87203095  0.36551886  1
  Al  Al127  1  0.74292105  0.86752515  0.86478414  1
  Al  Al128  1  0.13449959  0.25214768  0.13089944  1
  Al  Al129  1  0.13615558  0.25364414  0.62818571  1
  Al  Al130  1  0.13871729  0.74901713  0.13858557  1
  Al  Al131  1  0.13251792  0.75122256  0.63353977  1
  Al  Al132  1  0.63455368  0.24658609  0.13516901  1
  Al  Al133  1  0.63548922  0.24561357  0.62980505  1
  Al  Al134  1  0.63741962  0.75184961  0.13376464  1
  Al  Al135  1  0.63495371  0.75067491  0.63337112  1
  Al  Al136  1  0.13221752  0.25264253  0.37009436  1
  Al  Al137  1  0.13319668  0.25567165  0.86816389  1
  Al  Al138  1  0.13795825  0.75441264  0.36647879  1
  Al  Al139  1  0.13628463  0.75110845  0.86151743  1
  Al  Al140  1  0.63192488  0.24965681  0.36718396  1
  Al  Al141  1  0.63428682  0.25180138  0.86574066  1
  Al  Al142  1  0.63830937  0.75607554  0.36709157  1
  Al  Al143  1  0.63560468  0.74821613  0.86706609  1
  Al  Al144  1  0.36589129  0.24904413  0.12741964  1
  Al  Al145  1  0.36335559  0.25162652  0.62727126  1
  Al  Al146  1  0.36662417  0.75201621  0.13864490  1
  Al  Al147  1  0.36557445  0.75008035  0.63402438  1
  Al  Al148  1  0.86403037  0.25053703  0.13394181  1
  Al  Al149  1  0.86277174  0.25015919  0.62827515  1
  Al  Al150  1  0.85843149  0.75054530  0.13820687  1
  Al  Al151  1  0.86438745  0.75321646  0.63544896  1
  Al  Al152  1  0.37050164  0.24815103  0.36939705  1
  Al  Al153  1  0.36376598  0.25182891  0.87063856  1
  Al  Al154  1  0.36632720  0.75898228  0.36713949  1
  Al  Al155  1  0.36701043  0.74713252  0.86121732  1
  Al  Al156  1  0.86371082  0.24995913  0.37011729  1
  Al  Al157  1  0.86261900  0.24902488  0.86879075  1
  Al  Al158  1  0.85764252  0.75290506  0.36380858  1
  Al  Al159  1  0.85964059  0.75293793  0.86474238  1
  Al  Al160  1  0.13685685  0.14285404  0.25281085  1
  Al  Al161  1  0.13729294  0.14191058  0.75035349  1
  Al  Al162  1  0.13565708  0.63521797  0.25403135  1
  Al  Al163  1  0.13687803  0.63435089  0.74527928  1
  Al  Al164  1  0.63308556  0.13539429  0.25183816  1
  Al  Al165  1  0.63795442  0.13397143  0.74828047  1
  Al  Al166  1  0.63782566  0.62806531  0.25010990  1
  Al  Al167  1  0.62991237  0.63508309  0.74908184  1
  Al  Al168  1  0.36889126  0.14160347  0.24760713  1
  Al  Al169  1  0.36048926  0.13769011  0.75088284  1
  Al  Al170  1  0.36259926  0.63777648  0.25369263  1
  Al  Al171  1  0.37175505  0.63446808  0.74696454  1
  Al  Al172  1  0.86284950  0.13701527  0.25714376  1
  Al  Al173  1  0.86100218  0.13551380  0.74724877  1
  Al  Al174  1  0.86243150  0.63390090  0.25180993  1
  Al  Al175  1  0.86159244  0.63575685  0.75073010  1
  Al  Al176  1  0.13223611  0.36142157  0.25630895  1
  Al  Al177  1  0.13694541  0.36200347  0.74834001  1
  Al  Al178  1  0.13798425  0.86554210  0.24717920  1
  Al  Al179  1  0.13434551  0.86369805  0.74452634  1
  Al  Al180  1  0.63901280  0.36981911  0.25289830  1
  Al  Al181  1  0.63889184  0.36817170  0.75085570  1
  Al  Al182  1  0.63402900  0.86896944  0.24859971  1
  Al  Al183  1  0.63552514  0.86653124  0.74793275  1
  Al  Al184  1  0.36349709  0.36137596  0.25659869  1
  Al  Al185  1  0.36278306  0.36452797  0.75058789  1
  Al  Al186  1  0.36671496  0.86839817  0.24698019  1
  Al  Al187  1  0.36578992  0.86480698  0.74811971  1
  Al  Al188  1  0.86685074  0.36136497  0.25468898  1
  Al  Al189  1  0.86512518  0.35946899  0.75161908  1
  Al  Al190  1  0.85672033  0.87079453  0.24982128  1
  Al  Al191  1  0.86045007  0.87058970  0.74617559  1
  Al  Al192  1  0.33403341  0.83115372  -0.00036521  1
  Al  Al193  1  -0.00251866  0.82804380  0.33408673  1
  Al  Al194  1  -0.00197555  0.82890588  0.17506091  1
  Al  Al195  1  -0.00044430  0.67224795  0.17485701  1
  Al  Al196  1  0.17715664  0.00231146  0.32192264  1
  Al  Al197  1  -0.00194549  0.83171993  0.82117363  1
  Al  Al198  1  0.17350188  0.82796022  0.00098250  1
  Al  Al199  1  0.00007996  0.67214136  0.82682618  1
  Al  Al200  1  -0.00006418  0.32547259  0.68101840  1
  Al  Al201  1  0.82661336  0.49644878  0.82987124  1
  Al  Al202  1  0.33404328  0.50009345  0.17167372  1
  Al  Al203  1  0.17248178  0.49738133  0.81648313  1
  Al  Al204  1  -0.00158080  0.19289919  0.82480184  1
  Al  Al205  1  0.82741946  0.68089302  0.49961153  1
  Al  Al206  1  -0.00138947  0.16798865  0.18678868  1
  Al  Al207  1  -0.00068659  0.17257667  0.66998202  1
  Al  Al208  1  0.17040940  0.00470138  0.83266290  1
  Al  Al209  1  0.17043646  0.00161416  0.66683935  1
  Al  Al210  1  0.82002239  0.00484554  0.17918202  1
  Al  Al211  1  0.33488771  0.00307937  0.82590516  1
  Al  Al212  1  0.50075058  0.66852437  0.33009749  1
  Al  Al213  1  -0.00185368  0.66910712  0.66932106  1
  Al  Al214  1  0.81898058  0.83032131  0.00118754  1
  Al  Al215  1  0.49938047  0.18939003  0.81747011  1
  Al  Al216  1  0.81062298  0.00380269  0.81942258  1
  Al  Al217  1  -0.00177087  0.32819374  0.17745555  1
  Al  Al218  1  0.32631672  0.68516248  0.49949212  1
  Al  Al219  1  0.50195784  0.81688971  0.82353220  1
  Al  Al220  1  0.50003630  0.83133212  0.31700743  1
  Al  Al221  1  -0.00217355  0.67181398  0.32903242  1
  Al  Al222  1  0.32722922  0.00486693  0.31091927  1
  Al  Al223  1  0.17481733  0.49707857  0.17980785  1
  Al  Al224  1  0.31813236  0.49861015  0.33079199  1
  Al  Al225  1  0.17248995  0.66970797  -0.00008386  1
  Al  Al226  1  0.32912683  0.50081259  0.82032708  1
  Al  Al227  1  0.82511038  0.66433799  0.00017256  1
  Al  Al228  1  0.50013608  0.31623951  0.18346963  1
  Al  Al229  1  0.32826912  0.00079940  0.66993649  1
  Al  Al230  1  0.67363698  0.68012184  0.49879564  1
  Al  Al231  1  0.50169949  0.68429513  0.17434419  1
  Al  Al232  1  0.67980590  0.32152695  0.00020182  1
  Al  Al233  1  0.49978018  0.81890088  0.67189696  1
  Al  Al234  1  0.32693370  0.67403198  -0.00050883  1
  Al  Al235  1  0.19074271  0.00467781  0.17386167  1
  Al  Al236  1  0.82028112  0.49696117  0.67298880  1
  Al  Al237  1  0.50070883  0.31491058  0.69159228  1
  Al  Al238  1  0.17320523  0.67960047  0.50083096  1
  Au  Au239  1  0.00057460  0.82752328  0.15812618  1
  Au  Au240  1  0.82103287  0.00513404  0.33449355  1
  Au  Au241  1  0.15760161  0.82252960  0.00277648  1
  Au  Au242  1  0.66625237  0.32804834  0.50172603  1
  Au  Au243  1  0.15473375  0.49441292  0.32962941  1
  Au  Au244  1  0.32631328  0.50067595  0.83282583  1
  Au  Au245  1  0.32413824  0.16322056  0.00195978  1
  Au  Au246  1  -0.00262995  0.82618045  0.83767670  1
  Au  Au247  1  0.68176941  0.49608827  0.33406918  1
  Au  Au248  1  0.66189116  0.49867362  0.83121109  1
  Au  Au249  1  -0.00069079  0.16357587  0.17100864  1
  Au  Au250  1  0.32601029  0.33246468  0.50259350  1
  Au  Au251  1  0.34610864  -0.00178442  0.82878901  1
  Au  Au252  1  0.82043456  0.00301258  0.65953006  1
  Au  Au253  1  0.83897323  0.49559655  0.82645919  1
  Au  Au254  1  0.66134655  0.66825745  -0.00001334  1
  Au  Au255  1  0.83408874  0.83787933  0.00178248  1
  Au  Au256  1  0.67144023  0.66785660  0.49658032  1
  Au  Au257  1  0.17164161  0.00869058  0.84920016  1
  Au  Au258  1  0.81737886  0.00303440  0.16668470  1
  Au  Au259  1  -0.00193195  0.65658128  0.67248069  1
  Au  Au260  1  0.50075895  0.84440551  0.32673196  1
  Au  Au261  1  0.67657850  0.49816640  0.16802895  1
  Au  Au262  1  0.32789731  0.50221157  0.15568989  1
  Au  Au263  1  0.67550961  0.33247428  0.00529403  1
  Au  Au264  1  0.49950779  0.65339690  0.32277393  1
  Au  Au265  1  0.67278806  0.16097040  0.49790329  1
  Au  Au266  1  0.34988984  0.82662150  0.00290353  1
  Au  Au267  1  0.49981373  0.16756556  0.67217272  1
  Au  Au268  1  0.65807086  0.83991956  0.00177286  1
  Au  Au269  1  0.32638931  0.33024498  -0.00130550  1
  Au  Au270  1  0.67685851  0.84258807  0.50021942  1
  Au  Au271  1  0.17589327  0.00028099  0.65089091  1
  Au  Au272  1  0.16049845  0.17895817  0.49894921  1
  Au  Au273  1  0.16520010  0.00341504  0.33364006  1
  Au  Au274  1  -0.00199988  0.17632290  0.82765380  1
  Au  Au275  1  -0.00354152  0.82382645  0.35059466  1
  Au  Au276  1  -0.00514379  0.83228404  0.65802939  1
  Au  Au277  1  0.50031874  0.32536225  0.33032398  1
  Au  Au278  1  0.67583773  0.16073117  -0.00015289  1
  Au  Au279  1  0.50169911  0.16738131  0.17326952  1
  Au  Au280  1  0.66928409  0.50099046  0.66229041  1
  Au  Au281  1  0.83655716  0.32670236  0.49838898  1
  Au  Au282  1  0.00269966  0.33915361  0.17320145  1
  Au  Au283  1  0.33513870  0.16183761  0.49784920  1
  Au  Au284  1  0.32962977  0.49862563  0.33601380  1
  Au  Au285  1  0.84039027  0.65896073  0.00299139  1
  Au  Au286  1  0.81797238  0.00470904  0.83501069  1
  Au  Au287  1  0.32658755  0.50113711  0.66298856  1
