# generated using pymatgen
data_Ca24Ti8Al207Au49
_symmetry_space_group_name_H-M   'P 1'
_cell_length_a   17.32216429
_cell_length_b   17.32189182
_cell_length_c   17.32398880
_cell_angle_alpha   90.00112010
_cell_angle_beta   89.99993075
_cell_angle_gamma   89.99823111
_symmetry_Int_Tables_number   1
_chemical_formula_structural   Ca24Ti8Al207Au49
_chemical_formula_sum   'Ca24 Ti8 Al207 Au49'
_cell_volume   5198.10884729
_cell_formula_units_Z   1
loop_
 _symmetry_equiv_pos_site_id
 _symmetry_equiv_pos_as_xyz
  1  'x, y, z'
loop_
 _atom_site_type_symbol
 _atom_site_label
 _atom_site_symmetry_multiplicity
 _atom_site_fract_x
 _atom_site_fract_y
 _atom_site_fract_z
 _atom_site_occupancy
  Ca  Ca0  1  0.24756623  0.00202640  -0.00138628  1
  Ca  Ca1  1  0.24754054  0.00451658  0.50249418  1
  Ca  Ca2  1  0.25223889  0.49413411  0.00036475  1
  Ca  Ca3  1  0.24768954  0.49385787  0.50084494  1
  Ca  Ca4  1  0.74576314  0.00109989  0.00088940  1
  Ca  Ca5  1  0.75064990  -0.00037028  0.49885213  1
  Ca  Ca6  1  0.74977858  0.49665901  -0.00209508  1
  Ca  Ca7  1  0.75075547  0.49768446  0.50067919  1
  Ca  Ca8  1  -0.00154897  0.25353574  -0.00155224  1
  Ca  Ca9  1  -0.00099780  0.24814796  0.50134501  1
  Ca  Ca10  1  0.00025498  0.75089879  -0.00384871  1
  Ca  Ca11  1  -0.00278522  0.75768845  0.50160659  1
  Ca  Ca12  1  0.50574397  0.24885993  0.00015683  1
  Ca  Ca13  1  0.50028305  0.24700505  0.50181181  1
  Ca  Ca14  1  0.50203643  0.75226516  0.00436376  1
  Ca  Ca15  1  0.50304477  0.75378200  0.49690439  1
  Ca  Ca16  1  -0.00168595  0.00071095  0.25753550  1
  Ca  Ca17  1  -0.00268195  -0.00139252  0.74384667  1
  Ca  Ca18  1  -0.00319785  0.49947455  0.25376862  1
  Ca  Ca19  1  -0.00669764  0.50152646  0.75431144  1
  Ca  Ca20  1  0.50163037  -0.00059080  0.25264464  1
  Ca  Ca21  1  0.50340642  0.00272267  0.74845366  1
  Ca  Ca22  1  0.50357145  0.49968676  0.24833324  1
  Ca  Ca23  1  0.50357962  0.49557624  0.75355592  1
  Ti  Ti24  1  0.25139370  0.24906559  0.25156655  1
  Ti  Ti25  1  0.25011829  0.24732524  0.74913716  1
  Ti  Ti26  1  0.25103230  0.75278651  0.24981276  1
  Ti  Ti27  1  0.24962713  0.75416061  0.75065081  1
  Ti  Ti28  1  0.74873917  0.25012072  0.24998517  1
  Ti  Ti29  1  0.75040466  0.24980964  0.75057183  1
  Ti  Ti30  1  0.74922369  0.74978479  0.25168290  1
  Ti  Ti31  1  0.75097995  0.74965232  0.74936707  1
  Al  Al32  1  0.08567539  0.08291581  0.07724691  1
  Al  Al33  1  0.08715078  0.08427221  0.57626892  1
  Al  Al34  1  0.07395088  0.57531306  0.07592843  1
  Al  Al35  1  0.07104531  0.58187845  0.58005438  1
  Al  Al36  1  0.59335575  0.08396745  0.08365693  1
  Al  Al37  1  0.58874197  0.08110209  0.58834575  1
  Al  Al38  1  0.58755580  0.58008951  0.09130322  1
  Al  Al39  1  0.58617446  0.57989440  0.57479034  1
  Al  Al40  1  0.41244862  0.41256088  0.07593997  1
  Al  Al41  1  0.41776366  0.40830135  0.57931742  1
  Al  Al42  1  0.42794561  0.90868126  0.08903128  1
  Al  Al43  1  0.41672425  0.92394562  0.57436715  1
  Al  Al44  1  0.90966549  0.41549548  0.07370035  1
  Al  Al45  1  0.90896800  0.41077400  0.58256226  1
  Al  Al46  1  0.91817458  0.91820589  0.08215572  1
  Al  Al47  1  0.91169176  0.91129513  0.58201578  1
  Al  Al48  1  0.41857174  0.09556592  0.41743498  1
  Al  Al49  1  0.41844119  0.08420223  0.91708675  1
  Al  Al50  1  0.42601098  0.58734047  0.41654397  1
  Al  Al51  1  0.42327485  0.57581062  0.92185853  1
  Al  Al52  1  0.91189380  0.08335502  0.42126366  1
  Al  Al53  1  0.91295275  0.08444360  0.91980094  1
  Al  Al54  1  0.90754092  0.58923240  0.42568607  1
  Al  Al55  1  0.90580508  0.58235829  0.91342439  1
  Al  Al56  1  0.08358769  0.40943358  0.41950258  1
  Al  Al57  1  0.08959245  0.41194412  0.91663038  1
  Al  Al58  1  0.07839270  0.91915401  0.40938122  1
  Al  Al59  1  0.08378726  0.92106561  0.90481036  1
  Al  Al60  1  0.59161131  0.41023864  0.41875037  1
  Al  Al61  1  0.58723770  0.41127334  0.91808901  1
  Al  Al62  1  0.58596272  0.90998462  0.41384451  1
  Al  Al63  1  0.58683837  0.92877697  0.91393245  1
  Al  Al64  1  0.09238946  0.08216853  0.41550682  1
  Al  Al65  1  0.09003490  0.07958888  0.91499006  1
  Al  Al66  1  0.07644976  0.57476635  0.42159191  1
  Al  Al67  1  0.07631337  0.57269530  0.91658032  1
  Al  Al68  1  0.58061243  0.08850961  0.41320568  1
  Al  Al69  1  0.59452458  0.08868064  0.91861216  1
  Al  Al70  1  0.58733313  0.58778959  0.41327180  1
  Al  Al71  1  0.58307023  0.57570404  0.91922212  1
  Al  Al72  1  0.41746463  0.40941777  0.42339781  1
  Al  Al73  1  0.41669353  0.40513209  0.91915519  1
  Al  Al74  1  0.42486368  0.91022799  0.41350320  1
  Al  Al75  1  0.41805724  0.92333681  0.92160233  1
  Al  Al76  1  0.91274674  0.40791809  0.42304610  1
  Al  Al77  1  0.90650058  0.42007229  0.91360511  1
  Al  Al78  1  0.91484324  0.91015062  0.41738020  1
  Al  Al79  1  0.92067717  0.91740739  0.91458661  1
  Al  Al80  1  0.08827928  0.40926606  0.07275664  1
  Al  Al81  1  0.08117700  0.40558270  0.57582550  1
  Al  Al82  1  0.08043230  0.92093310  0.08341053  1
  Al  Al83  1  0.07510541  0.91482909  0.58717076  1
  Al  Al84  1  0.59344748  0.41698709  0.08150569  1
  Al  Al85  1  0.59039499  0.41026568  0.57838783  1
  Al  Al86  1  0.58600708  0.92140383  0.10094096  1
  Al  Al87  1  0.59797549  0.92162429  0.58013078  1
  Al  Al88  1  0.42478115  0.08491689  0.07876581  1
  Al  Al89  1  0.41576992  0.09139240  0.57931825  1
  Al  Al90  1  0.42703518  0.58110056  0.08582971  1
  Al  Al91  1  0.42358665  0.57738867  0.57308603  1
  Al  Al92  1  0.91345129  0.08504598  0.07917646  1
  Al  Al93  1  0.90972692  0.08359384  0.57860620  1
  Al  Al94  1  0.90652808  0.58346826  0.07331761  1
  Al  Al95  1  0.90753234  0.58810068  0.58365740  1
  Al  Al96  1  0.25005983  0.13592067  0.13895285  1
  Al  Al97  1  0.25155761  0.13009137  0.63510644  1
  Al  Al98  1  0.25102281  0.63866673  0.13332752  1
  Al  Al99  1  0.25074711  0.63956714  0.63689689  1
  Al  Al100  1  0.74269174  0.13386693  0.13386609  1
  Al  Al101  1  0.74881068  0.13571822  0.63347965  1
  Al  Al102  1  0.74836351  0.63474580  0.13430716  1
  Al  Al103  1  0.75282259  0.63780572  0.62832054  1
  Al  Al104  1  0.25102326  0.36084273  0.13291150  1
  Al  Al105  1  0.24989534  0.36105185  0.62778250  1
  Al  Al106  1  0.24834556  0.86464661  0.13192529  1
  Al  Al107  1  0.24763678  0.87354243  0.63578479  1
  Al  Al108  1  0.74728239  0.36643982  0.13525129  1
  Al  Al109  1  0.75273518  0.36349655  0.63029871  1
  Al  Al110  1  0.74511636  0.86663543  0.13673435  1
  Al  Al111  1  0.75133132  0.86540489  0.63291061  1
  Al  Al112  1  0.25026056  0.13494629  0.36411547  1
  Al  Al113  1  0.25043238  0.13040376  0.86493294  1
  Al  Al114  1  0.24939393  0.64053018  0.36232634  1
  Al  Al115  1  0.25232075  0.63663751  0.86580230  1
  Al  Al116  1  0.74937398  0.13441689  0.36500553  1
  Al  Al117  1  0.74489351  0.13310270  0.86814714  1
  Al  Al118  1  0.74998297  0.63462021  0.37023962  1
  Al  Al119  1  0.75693412  0.63371876  0.87060424  1
  Al  Al120  1  0.25062207  0.35965248  0.37219734  1
  Al  Al121  1  0.25233588  0.36153317  0.86773370  1
  Al  Al122  1  0.24607328  0.86848962  0.36163648  1
  Al  Al123  1  0.24936393  0.87070964  0.86669002  1
  Al  Al124  1  0.74876797  0.36664682  0.36747709  1
  Al  Al125  1  0.75260131  0.36420025  0.86760482  1
  Al  Al126  1  0.74976057  0.86466869  0.36431041  1
  Al  Al127  1  0.74687562  0.86458825  0.86652466  1
  Al  Al128  1  0.13474499  0.24977146  0.13665083  1
  Al  Al129  1  0.13493260  0.24917290  0.63564520  1
  Al  Al130  1  0.13308172  0.75368969  0.13398518  1
  Al  Al131  1  0.13398021  0.75922411  0.63470996  1
  Al  Al132  1  0.62966712  0.24827189  0.13828517  1
  Al  Al133  1  0.63754342  0.25325791  0.63103749  1
  Al  Al134  1  0.63411012  0.75405165  0.13655219  1
  Al  Al135  1  0.63593860  0.75150634  0.63494019  1
  Al  Al136  1  0.13348016  0.24698938  0.36654616  1
  Al  Al137  1  0.13397073  0.25131617  0.86539123  1
  Al  Al138  1  0.13125186  0.76065340  0.36483288  1
  Al  Al139  1  0.13612152  0.75526432  0.86440774  1
  Al  Al140  1  0.63726326  0.24980109  0.36642356  1
  Al  Al141  1  0.63635482  0.24694879  0.86628930  1
  Al  Al142  1  0.63109999  0.74993454  0.36156279  1
  Al  Al143  1  0.63989312  0.74778162  0.86630367  1
  Al  Al144  1  0.37244760  0.25053387  0.13729574  1
  Al  Al145  1  0.36313703  0.24773906  0.62951756  1
  Al  Al146  1  0.36602916  0.75375494  0.13323404  1
  Al  Al147  1  0.36529083  0.75627351  0.63687554  1
  Al  Al148  1  0.86175415  0.25097775  0.13463398  1
  Al  Al149  1  0.86221360  0.25014809  0.63060263  1
  Al  Al150  1  0.86254584  0.75102188  0.13581587  1
  Al  Al151  1  0.86298141  0.75324014  0.63009520  1
  Al  Al152  1  0.36558697  0.24647895  0.37255264  1
  Al  Al153  1  0.36497136  0.24914664  0.86373723  1
  Al  Al154  1  0.36892885  0.75348001  0.36325111  1
  Al  Al155  1  0.36202154  0.75469743  0.86952241  1
  Al  Al156  1  0.86012074  0.24891045  0.36987587  1
  Al  Al157  1  0.86654078  0.25115154  0.86768597  1
  Al  Al158  1  0.86284074  0.75276263  0.36894617  1
  Al  Al159  1  0.86480951  0.75016365  0.86372160  1
  Al  Al160  1  0.13306188  0.13308867  0.25249059  1
  Al  Al161  1  0.13769956  0.12982731  0.74998824  1
  Al  Al162  1  0.13378430  0.63941691  0.25204913  1
  Al  Al163  1  0.13592878  0.63817676  0.74870800  1
  Al  Al164  1  0.63382059  0.13232916  0.25128294  1
  Al  Al165  1  0.63722547  0.13279914  0.75037815  1
  Al  Al166  1  0.63791997  0.63007722  0.25248326  1
  Al  Al167  1  0.64117769  0.63606542  0.75009862  1
  Al  Al168  1  0.37313378  0.13655191  0.25232561  1
  Al  Al169  1  0.36432132  0.13008208  0.75099245  1
  Al  Al170  1  0.36697596  0.63862521  0.25016839  1
  Al  Al171  1  0.36384789  0.63790635  0.75245680  1
  Al  Al172  1  0.86763626  0.13844650  0.24926501  1
  Al  Al173  1  0.86318982  0.13757310  0.75190658  1
  Al  Al174  1  0.86184302  0.63265685  0.25339974  1
  Al  Al175  1  0.86216374  0.63551471  0.74954531  1
  Al  Al176  1  0.13799886  0.36069414  0.25300121  1
  Al  Al177  1  0.13790296  0.36084856  0.75288994  1
  Al  Al178  1  0.13325432  0.87045083  0.24825176  1
  Al  Al179  1  0.13648006  0.87253943  0.75022896  1
  Al  Al180  1  0.63524152  0.36910394  0.24937697  1
  Al  Al181  1  0.63889054  0.36284837  0.75009690  1
  Al  Al182  1  0.63434322  0.86962176  0.25234848  1
  Al  Al183  1  0.63729085  0.86834190  0.74732697  1
  Al  Al184  1  0.36554850  0.36044482  0.25123589  1
  Al  Al185  1  0.36243021  0.36284236  0.74779265  1
  Al  Al186  1  0.36892545  0.86678948  0.25057990  1
  Al  Al187  1  0.36285290  0.87289760  0.74997358  1
  Al  Al188  1  0.85961623  0.36877556  0.25190855  1
  Al  Al189  1  0.86201447  0.36444879  0.75303238  1
  Al  Al190  1  0.86850076  0.86296385  0.25130626  1
  Al  Al191  1  0.86423822  0.86414979  0.74735095  1
  Al  Al192  1  0.50128260  0.31770753  0.81823496  1
  Al  Al193  1  0.49993991  0.67710605  0.67201664  1
  Al  Al194  1  0.18131412  0.50012573  0.82559724  1
  Al  Al195  1  0.81233223  0.00078088  0.17269318  1
  Al  Al196  1  -0.00221573  0.67902026  0.17209544  1
  Al  Al197  1  0.17625988  0.67718809  -0.00190035  1
  Al  Al198  1  0.32837739  0.19156346  0.00143193  1
  Al  Al199  1  0.32924444  0.67593143  0.49996089  1
  Al  Al200  1  0.32938898  0.50188993  0.67822274  1
  Al  Al201  1  0.50081055  0.31403232  0.32209746  1
  Al  Al202  1  -0.00164100  0.17194410  0.66880645  1
  Al  Al203  1  0.68640071  0.49949548  0.82418970  1
  Al  Al204  1  0.80696466  0.18821612  0.00070293  1
  Al  Al205  1  -0.00154743  0.69333991  0.67420943  1
  Al  Al206  1  0.18942252  0.18843217  0.50071854  1
  Al  Al207  1  -0.00158444  0.68410878  0.32913972  1
  Al  Al208  1  0.68906378  0.31010911  0.00165297  1
  Al  Al209  1  0.82467428  0.49982033  0.68356637  1
  Al  Al210  1  -0.00010080  0.67209419  0.82864360  1
  Al  Al211  1  0.50149276  0.67291949  0.82815688  1
  Al  Al212  1  0.17168620  0.67634423  0.49956364  1
  Al  Al213  1  0.81901076  -0.00095488  0.32726452  1
  Al  Al214  1  -0.00259859  0.31845738  0.32639753  1
  Al  Al215  1  0.32753067  0.50008214  0.32442299  1
  Al  Al216  1  0.50051915  0.18010043  0.68045520  1
  Al  Al217  1  -0.00252356  0.32200761  0.17169980  1
  Al  Al218  1  0.68005688  0.17564032  0.49936307  1
  Al  Al219  1  0.00019142  0.82496232  0.81147410  1
  Al  Al220  1  0.82179034  0.49930056  0.17476961  1
  Al  Al221  1  0.32272233  0.00172252  0.33225150  1
  Al  Al222  1  0.31940385  0.82781668  0.49867622  1
  Al  Al223  1  0.50213450  0.68473692  0.18109597  1
  Al  Al224  1  0.81630639  0.00053596  0.67217386  1
  Al  Al225  1  0.67405792  0.49976563  0.67197521  1
  Al  Al226  1  0.32173295  -0.00059139  0.17142875  1
  Al  Al227  1  0.32846144  0.49920463  0.17254963  1
  Al  Al228  1  0.81030718  -0.00047438  0.82707833  1
  Al  Al229  1  0.16768761  0.49668971  0.67002608  1
  Al  Al230  1  0.68699955  0.81823842  0.49818537  1
  Al  Al231  1  0.67480066  0.67650549  0.00098308  1
  Al  Al232  1  0.00321585  0.17583916  0.82483074  1
  Al  Al233  1  0.17270345  0.49823090  0.32847743  1
  Al  Al234  1  0.50143059  0.82829160  0.82053819  1
  Al  Al235  1  0.17074030  0.50079982  0.17760288  1
  Al  Al236  1  0.17392842  0.18489627  -0.00033572  1
  Al  Al237  1  -0.00198955  0.32453458  0.67915619  1
  Al  Al238  1  0.82206504  0.81578203  -0.00037850  1
  Au  Au239  1  0.66333522  0.84065143  0.00462139  1
  Au  Au240  1  0.33042576  0.50094756  0.34111968  1
  Au  Au241  1  0.66534801  0.00038436  0.32823551  1
  Au  Au242  1  0.33502532  0.83316344  0.00245240  1
  Au  Au243  1  0.31978852  0.31671385  0.50071738  1
  Au  Au244  1  0.82318301  0.18213774  0.00074466  1
  Au  Au245  1  0.67839761  0.67144905  0.49956794  1
  Au  Au246  1  0.50367501  0.32934163  0.66832761  1
  Au  Au247  1  0.66737794  0.17834499  0.50120088  1
  Au  Au248  1  0.15128498  0.49371655  0.67432180  1
  Au  Au249  1  -0.00161229  0.16853849  0.34071330  1
  Au  Au250  1  0.50308634  0.83073604  0.83682619  1
  Au  Au251  1  -0.00747329  0.66786494  0.15935761  1
  Au  Au252  1  0.82958721  0.00085249  0.17222003  1
  Au  Au253  1  -0.00186181  0.67507913  0.34343992  1
  Au  Au254  1  0.16851151  0.84299048  0.49754018  1
  Au  Au255  1  0.33486616  -0.00078729  0.16219579  1
  Au  Au256  1  -0.00283524  0.33981434  0.82915143  1
  Au  Au257  1  0.83220420  0.49839723  0.33846216  1
  Au  Au258  1  0.32440104  0.00065418  0.83459228  1
  Au  Au259  1  0.82733719  -0.00153171  0.82492044  1
  Au  Au260  1  0.00078809  0.83863920  0.17782251  1
  Au  Au261  1  0.17363433  0.49635776  0.16125145  1
  Au  Au262  1  0.16526703  0.66480755  -0.00396312  1
  Au  Au263  1  0.83779360  0.82248076  -0.00216890  1
  Au  Au264  1  -0.00399026  0.67681586  0.67165519  1
  Au  Au265  1  0.16039131  0.00067904  0.67463952  1
  Au  Au266  1  0.50250301  0.66068273  0.67174122  1
  Au  Au267  1  0.50315779  0.84133824  0.65740468  1
  Au  Au268  1  0.50110381  0.32145195  0.33733712  1
  Au  Au269  1  0.17812418  0.66036098  0.49964260  1
  Au  Au270  1  0.67742039  0.66396248  -0.00027235  1
  Au  Au271  1  -0.00245917  0.33818386  0.16811832  1
  Au  Au272  1  0.50057723  0.68014204  0.32782200  1
  Au  Au273  1  0.33281467  0.50009654  0.66156958  1
  Au  Au274  1  0.32424830  0.17494744  0.00138193  1
  Au  Au275  1  0.50516049  0.16704694  0.83034924  1
  Au  Au276  1  0.32982216  0.00171804  0.34666179  1
  Au  Au277  1  0.00502287  0.16384420  0.82839949  1
  Au  Au278  1  0.33318672  0.00365914  0.66547065  1
  Au  Au279  1  0.50587228  0.16159531  0.17543829  1
  Au  Au280  1  0.16688541  0.84107232  -0.00360913  1
  Au  Au281  1  0.33031631  0.49615293  0.84225578  1
  Au  Au282  1  0.34112992  0.66735613  0.00260573  1
  Au  Au283  1  0.82026198  0.49718741  0.16226546  1
  Au  Au284  1  0.00229886  0.16182899  0.16860193  1
  Au  Au285  1  0.50145687  0.33397456  0.16061849  1
  Au  Au286  1  0.66514689  0.49854936  0.32619406  1
  Au  Au287  1  0.16160207  0.00286894  0.17719577  1
