# generated using pymatgen
data_Ca24Ti8Al207Au49
_symmetry_space_group_name_H-M   'P 1'
_cell_length_a   17.32147802
_cell_length_b   17.32137939
_cell_length_c   17.32186014
_cell_angle_alpha   90.00147403
_cell_angle_beta   89.99550983
_cell_angle_gamma   89.99576027
_symmetry_Int_Tables_number   1
_chemical_formula_structural   Ca24Ti8Al207Au49
_chemical_formula_sum   'Ca24 Ti8 Al207 Au49'
_cell_volume   5197.11044747
_cell_formula_units_Z   1
loop_
 _symmetry_equiv_pos_site_id
 _symmetry_equiv_pos_as_xyz
  1  'x, y, z'
loop_
 _atom_site_type_symbol
 _atom_site_label
 _atom_site_symmetry_multiplicity
 _atom_site_fract_x
 _atom_site_fract_y
 _atom_site_fract_z
 _atom_site_occupancy
  Ca  Ca0  1  0.24838279  0.00271365  -0.00065348  1
  Ca  Ca1  1  0.24142843  0.00022735  0.49786176  1
  Ca  Ca2  1  0.24958098  0.49636494  -0.00113439  1
  Ca  Ca3  1  0.24265704  0.49800062  0.50223749  1
  Ca  Ca4  1  0.74531895  0.00276666  0.00413977  1
  Ca  Ca5  1  0.75582208  0.00003270  0.49756790  1
  Ca  Ca6  1  0.74187233  0.49848359  0.00366524  1
  Ca  Ca7  1  0.75230362  0.49564402  0.49864273  1
  Ca  Ca8  1  0.00161524  0.24998191  -0.00058658  1
  Ca  Ca9  1  0.00460124  0.25363362  0.49922259  1
  Ca  Ca10  1  0.00273065  0.75427643  0.00205895  1
  Ca  Ca11  1  0.00142881  0.74973157  0.50146230  1
  Ca  Ca12  1  0.50047348  0.24866301  -0.00144974  1
  Ca  Ca13  1  0.49762908  0.25454404  0.50184900  1
  Ca  Ca14  1  0.49691961  0.74711908  -0.00211097  1
  Ca  Ca15  1  0.50210125  0.74628819  0.50065445  1
  Ca  Ca16  1  0.00131673  -0.00271401  0.25249472  1
  Ca  Ca17  1  0.00058966  0.00347855  0.74811871  1
  Ca  Ca18  1  -0.00075492  0.50056320  0.25600291  1
  Ca  Ca19  1  0.00416223  0.49587343  0.74347502  1
  Ca  Ca20  1  0.50122905  -0.00074533  0.24509232  1
  Ca  Ca21  1  0.50155079  0.00090603  0.75732808  1
  Ca  Ca22  1  0.50373464  0.49944130  0.24662975  1
  Ca  Ca23  1  0.49853976  0.49938369  0.75320229  1
  Ti  Ti24  1  0.24683819  0.24977997  0.25155403  1
  Ti  Ti25  1  0.24859888  0.24943616  0.74981070  1
  Ti  Ti26  1  0.24590281  0.75141512  0.25245009  1
  Ti  Ti27  1  0.24826595  0.75102321  0.74881001  1
  Ti  Ti28  1  0.75235924  0.25042804  0.25012451  1
  Ti  Ti29  1  0.75109154  0.25098922  0.74969022  1
  Ti  Ti30  1  0.75214518  0.74975016  0.25216803  1
  Ti  Ti31  1  0.75095293  0.74978850  0.74610557  1
  Al  Al32  1  0.09036207  0.07912469  0.08735981  1
  Al  Al33  1  0.08060130  0.09296000  0.58785448  1
  Al  Al34  1  0.07592975  0.57921776  0.08192188  1
  Al  Al35  1  0.08220327  0.58398825  0.59493719  1
  Al  Al36  1  0.59242116  0.08926432  0.08044731  1
  Al  Al37  1  0.57839030  0.08342385  0.58003655  1
  Al  Al38  1  0.58519523  0.57384215  0.09257339  1
  Al  Al39  1  0.58065838  0.58236887  0.58277354  1
  Al  Al40  1  0.42169583  0.41884146  0.07304725  1
  Al  Al41  1  0.41531447  0.41778279  0.58530558  1
  Al  Al42  1  0.42133188  0.92333022  0.08000552  1
  Al  Al43  1  0.41476801  0.91792946  0.57789951  1
  Al  Al44  1  0.91885871  0.41456179  0.10235815  1
  Al  Al45  1  0.91855832  0.41274108  0.57779216  1
  Al  Al46  1  0.92372043  0.91425582  0.09646827  1
  Al  Al47  1  0.92265884  0.91737430  0.57693128  1
  Al  Al48  1  0.40813620  0.08178087  0.41984110  1
  Al  Al49  1  0.41780435  0.09840825  0.91489577  1
  Al  Al50  1  0.42352786  0.57846361  0.42347351  1
  Al  Al51  1  0.41498701  0.58460892  0.90906448  1
  Al  Al52  1  0.92350850  0.07888529  0.42328245  1
  Al  Al53  1  0.92286325  0.08849427  0.90410924  1
  Al  Al54  1  0.91187655  0.59026323  0.42337470  1
  Al  Al55  1  0.92865064  0.57584073  0.91801041  1
  Al  Al56  1  0.08413036  0.41239183  0.42498396  1
  Al  Al57  1  0.08932234  0.41723189  0.90458528  1
  Al  Al58  1  0.08865052  0.91028971  0.40752191  1
  Al  Al59  1  0.07670799  0.92274395  0.92372281  1
  Al  Al60  1  0.59592363  0.41072002  0.41866896  1
  Al  Al61  1  0.57877458  0.40592991  0.91455658  1
  Al  Al62  1  0.58950905  0.92189674  0.41292772  1
  Al  Al63  1  0.57932754  0.92272868  0.92054462  1
  Al  Al64  1  0.08790262  0.07519613  0.41449143  1
  Al  Al65  1  0.08180902  0.09446664  0.91368544  1
  Al  Al66  1  0.07638627  0.58329109  0.42404865  1
  Al  Al67  1  0.09221312  0.57552164  0.90485378  1
  Al  Al68  1  0.58870202  0.07754557  0.41270007  1
  Al  Al69  1  0.58223320  0.10002413  0.91780707  1
  Al  Al70  1  0.58638763  0.57720775  0.41732609  1
  Al  Al71  1  0.57082569  0.58243545  0.90835480  1
  Al  Al72  1  0.41988221  0.41709751  0.42368071  1
  Al  Al73  1  0.41850426  0.40871492  0.90787275  1
  Al  Al74  1  0.41176570  0.91982191  0.41756958  1
  Al  Al75  1  0.41898127  0.92184797  0.91956286  1
  Al  Al76  1  0.91184842  0.41129117  0.41963861  1
  Al  Al77  1  0.92734085  0.41727404  0.91716969  1
  Al  Al78  1  0.92607633  0.90763053  0.40934932  1
  Al  Al79  1  0.92156691  0.92836078  0.91574026  1
  Al  Al80  1  0.07571873  0.41361273  0.08730253  1
  Al  Al81  1  0.08944431  0.41876893  0.58717909  1
  Al  Al82  1  0.08655989  0.91729191  0.10176104  1
  Al  Al83  1  0.08624112  0.91009716  0.57203360  1
  Al  Al84  1  0.58979986  0.41606296  0.08219347  1
  Al  Al85  1  0.59274029  0.40844346  0.57891068  1
  Al  Al86  1  0.58676242  0.92894043  0.09183143  1
  Al  Al87  1  0.57933344  0.91940965  0.57495071  1
  Al  Al88  1  0.41348725  0.08692469  0.07458398  1
  Al  Al89  1  0.41521547  0.08607038  0.57799699  1
  Al  Al90  1  0.42502934  0.57900993  0.07605972  1
  Al  Al91  1  0.41681022  0.58223696  0.58674264  1
  Al  Al92  1  0.91861183  0.07621110  0.08292279  1
  Al  Al93  1  0.92459928  0.09133941  0.59174075  1
  Al  Al94  1  0.91874697  0.57329603  0.09771735  1
  Al  Al95  1  0.92013341  0.59182322  0.58357603  1
  Al  Al96  1  0.24637770  0.13328030  0.13661811  1
  Al  Al97  1  0.24628142  0.13353381  0.63744923  1
  Al  Al98  1  0.24481928  0.63905542  0.14133845  1
  Al  Al99  1  0.24262247  0.63493553  0.63219298  1
  Al  Al100  1  0.75046768  0.13114533  0.13515271  1
  Al  Al101  1  0.74837240  0.13932557  0.63576975  1
  Al  Al102  1  0.74941305  0.63675344  0.13668672  1
  Al  Al103  1  0.75307339  0.63657318  0.62731750  1
  Al  Al104  1  0.25057175  0.36324684  0.13611610  1
  Al  Al105  1  0.24498664  0.36211025  0.63195989  1
  Al  Al106  1  0.24294113  0.87020174  0.13915370  1
  Al  Al107  1  0.24740332  0.86393693  0.62950430  1
  Al  Al108  1  0.74736861  0.36565812  0.13861715  1
  Al  Al109  1  0.75245403  0.36202741  0.63490016  1
  Al  Al110  1  0.75201263  0.86921093  0.13739182  1
  Al  Al111  1  0.75146884  0.86086254  0.62705789  1
  Al  Al112  1  0.24380330  0.13105642  0.36572682  1
  Al  Al113  1  0.24926441  0.13212817  0.86371778  1
  Al  Al114  1  0.24106370  0.64184116  0.37012542  1
  Al  Al115  1  0.24618133  0.63547455  0.86044192  1
  Al  Al116  1  0.75259113  0.13610506  0.36653779  1
  Al  Al117  1  0.74619143  0.13936996  0.86368627  1
  Al  Al118  1  0.75331812  0.63219868  0.36879802  1
  Al  Al119  1  0.75134191  0.63804944  0.86307187  1
  Al  Al120  1  0.24450715  0.36134526  0.37222051  1
  Al  Al121  1  0.24695114  0.36105107  0.86180504  1
  Al  Al122  1  0.24270484  0.86942503  0.36804371  1
  Al  Al123  1  0.24658816  0.87051276  0.86327420  1
  Al  Al124  1  0.75349633  0.37042833  0.36290932  1
  Al  Al125  1  0.75200477  0.35830876  0.86304699  1
  Al  Al126  1  0.75373985  0.86316024  0.37006681  1
  Al  Al127  1  0.74812596  0.86095288  0.86740803  1
  Al  Al128  1  0.13327301  0.25150999  0.13689832  1
  Al  Al129  1  0.13116510  0.24777470  0.63380301  1
  Al  Al130  1  0.12459561  0.75631943  0.14255429  1
  Al  Al131  1  0.12899573  0.74974968  0.63536051  1
  Al  Al132  1  0.63759427  0.24656238  0.13592241  1
  Al  Al133  1  0.63267371  0.25438174  0.63536428  1
  Al  Al134  1  0.63860148  0.75252483  0.13594685  1
  Al  Al135  1  0.63752370  0.74820744  0.62822437  1
  Al  Al136  1  0.13010414  0.24787218  0.36787183  1
  Al  Al137  1  0.13009114  0.24718019  0.86131470  1
  Al  Al138  1  0.12667242  0.75485109  0.36803093  1
  Al  Al139  1  0.13542411  0.75217813  0.85997028  1
  Al  Al140  1  0.64165918  0.25772582  0.36438879  1
  Al  Al141  1  0.62936077  0.25022752  0.86398468  1
  Al  Al142  1  0.64112455  0.74724423  0.36965024  1
  Al  Al143  1  0.62978517  0.74779570  0.86227025  1
  Al  Al144  1  0.36253307  0.24642730  0.13413574  1
  Al  Al145  1  0.36514645  0.25340697  0.63517631  1
  Al  Al146  1  0.36114141  0.75406499  0.13777043  1
  Al  Al147  1  0.36205957  0.74966167  0.63505435  1
  Al  Al148  1  0.86693346  0.25294626  0.13813298  1
  Al  Al149  1  0.87221121  0.25179573  0.63781219  1
  Al  Al150  1  0.87084227  0.75607102  0.13979961  1
  Al  Al151  1  0.87048579  0.75054954  0.62906075  1
  Al  Al152  1  0.36065474  0.25131084  0.36695976  1
  Al  Al153  1  0.36603641  0.24706267  0.86599940  1
  Al  Al154  1  0.35935991  0.75517340  0.36763797  1
  Al  Al155  1  0.36569874  0.74929194  0.86283293  1
  Al  Al156  1  0.87015949  0.25291593  0.36360370  1
  Al  Al157  1  0.87355121  0.24536531  0.86294858  1
  Al  Al158  1  0.86883251  0.75075172  0.36692978  1
  Al  Al159  1  0.86522358  0.75112383  0.86192986  1
  Al  Al160  1  0.13426971  0.13007033  0.25055947  1
  Al  Al161  1  0.13284898  0.13262752  0.75056303  1
  Al  Al162  1  0.12600576  0.63840748  0.25274020  1
  Al  Al163  1  0.13363645  0.63182077  0.74478332  1
  Al  Al164  1  0.63731934  0.13580676  0.24957818  1
  Al  Al165  1  0.63066735  0.13725728  0.75453370  1
  Al  Al166  1  0.63825963  0.63198784  0.25203409  1
  Al  Al167  1  0.63898539  0.63511951  0.74762748  1
  Al  Al168  1  0.35938729  0.13425092  0.25169386  1
  Al  Al169  1  0.36544920  0.13528654  0.75415592  1
  Al  Al170  1  0.36305271  0.63955063  0.25212505  1
  Al  Al171  1  0.36285586  0.63490116  0.75032667  1
  Al  Al172  1  0.86430584  0.12868166  0.24855517  1
  Al  Al173  1  0.86623004  0.13560846  0.74893802  1
  Al  Al174  1  0.87178761  0.63777170  0.25291854  1
  Al  Al175  1  0.86840903  0.63758713  0.73958114  1
  Al  Al176  1  0.12890405  0.36273460  0.25310889  1
  Al  Al177  1  0.12971822  0.36326075  0.74679642  1
  Al  Al178  1  0.13068446  0.86870813  0.25389852  1
  Al  Al179  1  0.13573784  0.87021665  0.74472380  1
  Al  Al180  1  0.63762994  0.36960206  0.24907332  1
  Al  Al181  1  0.63247472  0.36253020  0.75128144  1
  Al  Al182  1  0.63518883  0.86405859  0.24902922  1
  Al  Al183  1  0.63588234  0.86494410  0.75289288  1
  Al  Al184  1  0.36220719  0.36130020  0.25117370  1
  Al  Al185  1  0.36715594  0.36212517  0.75082558  1
  Al  Al186  1  0.35911223  0.86929459  0.25273377  1
  Al  Al187  1  0.36301294  0.86738112  0.75428804  1
  Al  Al188  1  0.87168595  0.36571750  0.25311209  1
  Al  Al189  1  0.87367366  0.36228750  0.75005916  1
  Al  Al190  1  0.86530318  0.86930665  0.25367297  1
  Al  Al191  1  0.86420976  0.86382318  0.74460682  1
  Al  Al192  1  0.67459042  0.49883339  0.67249584  1
  Al  Al193  1  0.50010193  0.67727820  0.17409676  1
  Al  Al194  1  0.50117885  0.32805106  0.32624663  1
  Al  Al195  1  0.18525684  0.17640538  0.00019149  1
  Al  Al196  1  0.17087289  0.50073379  0.32915467  1
  Al  Al197  1  0.81771863  0.17116451  -0.00127024  1
  Al  Al198  1  0.17074737  0.49898400  0.17480650  1
  Al  Al199  1  0.32407099  0.00183083  0.17674404  1
  Al  Al200  1  0.32126649  0.00181634  0.67541085  1
  Al  Al201  1  0.49933941  0.17309155  0.17078041  1
  Al  Al202  1  0.50121072  0.67248090  0.32745967  1
  Al  Al203  1  0.32796864  0.67400699  0.00085745  1
  Al  Al204  1  0.50171627  0.17759922  0.32899899  1
  Al  Al205  1  0.82860418  0.19015000  0.50091347  1
  Al  Al206  1  0.67198223  -0.00092911  0.67702916  1
  Al  Al207  1  0.81075420  0.50066341  0.18828333  1
  Al  Al208  1  0.17004130  0.67644072  0.00084551  1
  Al  Al209  1  0.50008110  0.82915865  0.32178865  1
  Al  Al210  1  0.17019934  0.82900981  0.00203234  1
  Al  Al211  1  0.67511490  0.31271554  -0.00063626  1
  Al  Al212  1  0.83228556  0.67229012  0.00358794  1
  Al  Al213  1  0.82712890  0.50209133  0.81743154  1
  Al  Al214  1  0.32630578  0.50148420  0.17009616  1
  Al  Al215  1  0.31415727  0.18142175  0.50123997  1
  Al  Al216  1  0.50037930  0.32796742  0.17168428  1
  Al  Al217  1  0.50077343  0.67200548  0.68519844  1
  Al  Al218  1  0.82966758  0.00050541  0.67039184  1
  Al  Al219  1  0.00112323  0.66835322  0.81164153  1
  Al  Al220  1  0.16900820  0.32790871  -0.00027099  1
  Al  Al221  1  0.82878043  0.49904858  0.66695157  1
  Al  Al222  1  0.82778218  0.83384821  -0.00072157  1
  Al  Al223  1  0.32213380  0.50049488  0.32919115  1
  Al  Al224  1  0.81962502  -0.00043666  0.82374350  1
  Al  Al225  1  0.82812132  0.33022028  0.00202747  1
  Al  Al226  1  0.67150435  0.49742240  0.82740715  1
  Al  Al227  1  -0.00011478  0.17953916  0.17369087  1
  Al  Al228  1  0.66439383  0.67533046  -0.00206745  1
  Al  Al229  1  0.31491953  0.49745494  0.82814401  1
  Al  Al230  1  0.49804126  0.18143214  0.68420445  1
  Al  Al231  1  0.68571885  -0.00069779  0.30985324  1
  Al  Al232  1  0.67387389  0.18957069  0.49984909  1
  Al  Al233  1  0.32437624  0.31359427  -0.00141955  1
  Al  Al234  1  0.32351445  0.67725438  0.49804870  1
  Al  Al235  1  0.50011475  0.82836480  0.67853966  1
  Al  Al236  1  0.30698973  0.49823216  0.67475936  1
  Al  Al237  1  0.32377162  0.82847055  0.00008408  1
  Al  Al238  1  -0.00008999  0.82745567  0.81784620  1
  Au  Au239  1  0.83750973  0.65568347  0.00536808  1
  Au  Au240  1  0.67058254  0.00656355  0.84215675  1
  Au  Au241  1  0.31698365  0.00015637  0.33284064  1
  Au  Au242  1  0.49996250  0.82179393  0.66269779  1
  Au  Au243  1  -0.00166161  0.67749774  0.33728005  1
  Au  Au244  1  0.33703905  0.00549584  0.83183806  1
  Au  Au245  1  0.31837650  0.83384142  0.49860526  1
  Au  Au246  1  0.84011308  0.83128689  -0.00244736  1
  Au  Au247  1  0.67794431  -0.00153219  0.66084087  1
  Au  Au248  1  0.00287280  0.67329794  0.82807579  1
  Au  Au249  1  0.32368592  0.50077520  0.67657248  1
  Au  Au250  1  0.82682511  0.49603495  0.83351552  1
  Au  Au251  1  0.00108112  0.33423983  0.33077928  1
  Au  Au252  1  0.82803029  0.34512099  0.00773513  1
  Au  Au253  1  0.33025686  0.00006428  0.66677309  1
  Au  Au254  1  0.17654262  0.66149349  0.00065181  1
  Au  Au255  1  0.83936857  0.82375506  0.49790471  1
  Au  Au256  1  0.50148078  0.82562058  0.15680499  1
  Au  Au257  1  0.67571864  0.66176613  0.49956250  1
  Au  Au258  1  0.65837422  0.66023722  -0.00248576  1
  Au  Au259  1  0.66732517  0.49917594  0.32046574  1
  Au  Au260  1  0.50265155  0.33916642  0.67599021  1
  Au  Au261  1  0.16598801  0.17245652  0.49870248  1
  Au  Au262  1  0.33224527  0.66836924  0.49950898  1
  Au  Au263  1  0.16185931  0.00074130  0.83388911  1
  Au  Au264  1  0.82343742  -0.00152121  0.17193777  1
  Au  Au265  1  0.00273796  0.32531056  0.66246474  1
  Au  Au266  1  -0.00081010  0.67605603  0.16952818  1
  Au  Au267  1  0.32793979  0.32849722  0.50061046  1
  Au  Au268  1  0.49902945  0.82335967  0.83975487  1
  Au  Au269  1  0.49409432  0.16299376  0.32501746  1
  Au  Au270  1  0.49729089  0.16582877  0.67691648  1
  Au  Au271  1  0.84094456  0.17869366  0.50341194  1
  Au  Au272  1  0.32079918  0.00347029  0.16460295  1
  Au  Au273  1  0.50116547  0.82440126  0.33806071  1
  Au  Au274  1  0.83054851  -0.00176373  0.33801333  1
  Au  Au275  1  0.00186712  0.83047026  0.66721263  1
  Au  Au276  1  0.00234275  0.32130918  0.83175345  1
  Au  Au277  1  0.16451047  -0.00148534  0.66288609  1
  Au  Au278  1  0.67245058  0.83199017  0.49736250  1
  Au  Au279  1  0.66896457  0.84218643  0.00554090  1
  Au  Au280  1  0.00196063  0.16073337  0.32766217  1
  Au  Au281  1  -0.00024947  0.16824788  0.16822995  1
  Au  Au282  1  0.82763282  0.15855282  -0.00448994  1
  Au  Au283  1  0.32926194  0.32551910  -0.00146469  1
  Au  Au284  1  0.33761228  0.49929763  0.32250333  1
  Au  Au285  1  0.66238467  0.17671063  0.49769847  1
  Au  Au286  1  0.83379569  0.50273795  0.33344743  1
  Au  Au287  1  0.16300596  0.67235418  0.50448495  1
