# generated using pymatgen
data_Ca24Ti8Al207Au49
_symmetry_space_group_name_H-M   'P 1'
_cell_length_a   17.32523251
_cell_length_b   17.32359784
_cell_length_c   17.32349407
_cell_angle_alpha   89.99582116
_cell_angle_beta   90.00295430
_cell_angle_gamma   90.00184825
_symmetry_Int_Tables_number   1
_chemical_formula_structural   Ca24Ti8Al207Au49
_chemical_formula_sum   'Ca24 Ti8 Al207 Au49'
_cell_volume   5199.39311300
_cell_formula_units_Z   1
loop_
 _symmetry_equiv_pos_site_id
 _symmetry_equiv_pos_as_xyz
  1  'x, y, z'
loop_
 _atom_site_type_symbol
 _atom_site_label
 _atom_site_symmetry_multiplicity
 _atom_site_fract_x
 _atom_site_fract_y
 _atom_site_fract_z
 _atom_site_occupancy
  Ca  Ca0  1  0.24531503  0.00319011  -0.00124012  1
  Ca  Ca1  1  0.25095895  0.00139582  0.49857801  1
  Ca  Ca2  1  0.24473416  0.49916894  0.00466839  1
  Ca  Ca3  1  0.24472845  0.49832615  0.49635111  1
  Ca  Ca4  1  0.74908929  0.00067051  0.00048306  1
  Ca  Ca5  1  0.74758197  0.00191498  0.49947896  1
  Ca  Ca6  1  0.75323102  0.50309455  0.00443939  1
  Ca  Ca7  1  0.75557771  0.49731626  0.50270381  1
  Ca  Ca8  1  0.00393786  0.24867890  0.00038156  1
  Ca  Ca9  1  0.00139787  0.25530246  0.49760269  1
  Ca  Ca10  1  -0.00076978  0.74642686  -0.00107815  1
  Ca  Ca11  1  0.00163696  0.74557425  0.49907757  1
  Ca  Ca12  1  0.49568462  0.24847618  -0.00020795  1
  Ca  Ca13  1  0.49958549  0.24631270  0.50365483  1
  Ca  Ca14  1  0.49992073  0.74919127  0.00239677  1
  Ca  Ca15  1  0.49923000  0.75260225  0.49927046  1
  Ca  Ca16  1  0.00129753  0.00369691  0.25201440  1
  Ca  Ca17  1  0.00200066  -0.00012527  0.75290747  1
  Ca  Ca18  1  0.00425109  0.49844691  0.25279537  1
  Ca  Ca19  1  -0.00184118  0.50014659  0.74944373  1
  Ca  Ca20  1  0.49969004  0.00232080  0.25308957  1
  Ca  Ca21  1  0.50222270  0.00236560  0.74692316  1
  Ca  Ca22  1  0.49759791  0.49968471  0.24781294  1
  Ca  Ca23  1  0.50279995  0.49644614  0.74551185  1
  Ti  Ti24  1  0.24923695  0.25216248  0.25032290  1
  Ti  Ti25  1  0.24868623  0.24922763  0.75008156  1
  Ti  Ti26  1  0.24786348  0.74819970  0.25043589  1
  Ti  Ti27  1  0.24660296  0.75048487  0.75030252  1
  Ti  Ti28  1  0.75054212  0.24914442  0.25073455  1
  Ti  Ti29  1  0.75128861  0.24980957  0.74986300  1
  Ti  Ti30  1  0.75169112  0.75036263  0.24943889  1
  Ti  Ti31  1  0.75167743  0.75083064  0.75052232  1
  Al  Al32  1  0.08779491  0.09059218  0.07763501  1
  Al  Al33  1  0.08524551  0.08803577  0.58366462  1
  Al  Al34  1  0.08746969  0.58572514  0.08280604  1
  Al  Al35  1  0.08105504  0.58751222  0.57588076  1
  Al  Al36  1  0.58173044  0.07763457  0.08084128  1
  Al  Al37  1  0.58086495  0.08701090  0.59322848  1
  Al  Al38  1  0.58779637  0.58018993  0.09220259  1
  Al  Al39  1  0.58135059  0.57768136  0.58281289  1
  Al  Al40  1  0.41445723  0.42062981  0.08896244  1
  Al  Al41  1  0.42082570  0.40135326  0.58013621  1
  Al  Al42  1  0.41799759  0.91816544  0.08256530  1
  Al  Al43  1  0.42112773  0.91848998  0.58016559  1
  Al  Al44  1  0.91903431  0.41989046  0.09414829  1
  Al  Al45  1  0.91807352  0.41688161  0.59467125  1
  Al  Al46  1  0.91851015  0.92007553  0.08058249  1
  Al  Al47  1  0.92150074  0.91121916  0.58994228  1
  Al  Al48  1  0.41517208  0.08700594  0.42432973  1
  Al  Al49  1  0.41797820  0.08922659  0.91396934  1
  Al  Al50  1  0.40413578  0.58275481  0.41936796  1
  Al  Al51  1  0.41963894  0.58140969  0.92525603  1
  Al  Al52  1  0.91993688  0.08674583  0.41211623  1
  Al  Al53  1  0.92593068  0.08739933  0.91419356  1
  Al  Al54  1  0.92314934  0.58697115  0.41320793  1
  Al  Al55  1  0.92319925  0.58762767  0.91098355  1
  Al  Al56  1  0.08865970  0.41428182  0.41178020  1
  Al  Al57  1  0.08405998  0.41070941  0.92071469  1
  Al  Al58  1  0.08090056  0.91718989  0.42030428  1
  Al  Al59  1  0.08133745  0.91246725  0.91441038  1
  Al  Al60  1  0.58184386  0.41716273  0.41855765  1
  Al  Al61  1  0.57779550  0.41737206  0.91454597  1
  Al  Al62  1  0.58529800  0.92121856  0.41157797  1
  Al  Al63  1  0.58512607  0.91820138  0.92009909  1
  Al  Al64  1  0.08217194  0.09155844  0.41748231  1
  Al  Al65  1  0.08510139  0.09863623  0.91621433  1
  Al  Al66  1  0.08754799  0.58357682  0.41027489  1
  Al  Al67  1  0.08265668  0.59678402  0.92038501  1
  Al  Al68  1  0.58173692  0.07838174  0.41523780  1
  Al  Al69  1  0.57837578  0.08594467  0.91111355  1
  Al  Al70  1  0.58315522  0.57896224  0.42198895  1
  Al  Al71  1  0.58341039  0.58137209  0.92064811  1
  Al  Al72  1  0.41131569  0.41444857  0.41708270  1
  Al  Al73  1  0.41972001  0.41293265  0.92000092  1
  Al  Al74  1  0.42176905  0.91836426  0.42020354  1
  Al  Al75  1  0.42045838  0.92287954  0.91979927  1
  Al  Al76  1  0.92638271  0.41760248  0.41400059  1
  Al  Al77  1  0.92313329  0.42089261  0.91259373  1
  Al  Al78  1  0.91691328  0.91936170  0.41671096  1
  Al  Al79  1  0.91977166  0.91502785  0.91363672  1
  Al  Al80  1  0.08420014  0.41241073  0.08574826  1
  Al  Al81  1  0.07855395  0.41024663  0.57541561  1
  Al  Al82  1  0.08098226  0.91956870  0.07821917  1
  Al  Al83  1  0.07901408  0.90864936  0.58829287  1
  Al  Al84  1  0.58249343  0.42284087  0.08983203  1
  Al  Al85  1  0.58072765  0.40982646  0.58844347  1
  Al  Al86  1  0.58641362  0.91653043  0.08121267  1
  Al  Al87  1  0.58482833  0.92581656  0.58904348  1
  Al  Al88  1  0.41607359  0.08067801  0.07795370  1
  Al  Al89  1  0.41671216  0.09629051  0.58550432  1
  Al  Al90  1  0.41258522  0.57953502  0.09034398  1
  Al  Al91  1  0.41296170  0.59206624  0.57436963  1
  Al  Al92  1  0.92143801  0.08042647  0.08124482  1
  Al  Al93  1  0.92010966  0.08301557  0.58510997  1
  Al  Al94  1  0.91587167  0.57902025  0.08938687  1
  Al  Al95  1  0.91192140  0.57916689  0.59003035  1
  Al  Al96  1  0.24923223  0.13849217  0.12876035  1
  Al  Al97  1  0.24889561  0.13607195  0.63286945  1
  Al  Al98  1  0.24698394  0.62929645  0.13413698  1
  Al  Al99  1  0.24563247  0.63415802  0.63620422  1
  Al  Al100  1  0.74982541  0.13478322  0.13611456  1
  Al  Al101  1  0.74920194  0.13358997  0.63705107  1
  Al  Al102  1  0.75241688  0.63345724  0.13137501  1
  Al  Al103  1  0.75258452  0.63063516  0.63800017  1
  Al  Al104  1  0.24812005  0.37228886  0.13764867  1
  Al  Al105  1  0.24380803  0.36077680  0.63441625  1
  Al  Al106  1  0.24722037  0.86360517  0.13439223  1
  Al  Al107  1  0.24792281  0.86484522  0.63051786  1
  Al  Al108  1  0.75111121  0.37156864  0.13718149  1
  Al  Al109  1  0.75188783  0.36790780  0.64006864  1
  Al  Al110  1  0.75257529  0.86490916  0.13540826  1
  Al  Al111  1  0.74504346  0.86753888  0.63545694  1
  Al  Al112  1  0.25218477  0.13744311  0.36573699  1
  Al  Al113  1  0.24734413  0.13491619  0.86815384  1
  Al  Al114  1  0.24718235  0.63186953  0.36524150  1
  Al  Al115  1  0.24416356  0.63616194  0.87156061  1
  Al  Al116  1  0.75019686  0.13005425  0.36389134  1
  Al  Al117  1  0.74804633  0.13193200  0.86128013  1
  Al  Al118  1  0.74984324  0.63891086  0.36514953  1
  Al  Al119  1  0.75518855  0.63566446  0.87081862  1
  Al  Al120  1  0.24526429  0.37012878  0.37088600  1
  Al  Al121  1  0.24874482  0.36475176  0.86137675  1
  Al  Al122  1  0.24837306  0.86067342  0.37189408  1
  Al  Al123  1  0.24547603  0.86847853  0.86512920  1
  Al  Al124  1  0.75153403  0.36178715  0.36598255  1
  Al  Al125  1  0.75647390  0.36595227  0.85923498  1
  Al  Al126  1  0.75070998  0.87111024  0.36579422  1
  Al  Al127  1  0.75437420  0.87000781  0.86192619  1
  Al  Al128  1  0.13581204  0.25100510  0.13646471  1
  Al  Al129  1  0.13060233  0.25109186  0.63267771  1
  Al  Al130  1  0.13634255  0.74553401  0.13128862  1
  Al  Al131  1  0.13043912  0.75212289  0.63581219  1
  Al  Al132  1  0.63706816  0.24988148  0.13781641  1
  Al  Al133  1  0.63191289  0.24764003  0.63819803  1
  Al  Al134  1  0.63814887  0.75021606  0.13616049  1
  Al  Al135  1  0.63871557  0.74814767  0.63160623  1
  Al  Al136  1  0.13362956  0.25880737  0.36805058  1
  Al  Al137  1  0.12912879  0.24786195  0.86322985  1
  Al  Al138  1  0.12860700  0.74492020  0.36235582  1
  Al  Al139  1  0.12896074  0.75108303  0.86626326  1
  Al  Al140  1  0.63541330  0.25152653  0.36433902  1
  Al  Al141  1  0.63566524  0.25168558  0.86163451  1
  Al  Al142  1  0.63691785  0.75116846  0.36459805  1
  Al  Al143  1  0.63796008  0.74717499  0.86222172  1
  Al  Al144  1  0.36175632  0.25273919  0.12986326  1
  Al  Al145  1  0.36633680  0.24748162  0.63240220  1
  Al  Al146  1  0.36058335  0.74707685  0.13232997  1
  Al  Al147  1  0.36064084  0.74895057  0.62980540  1
  Al  Al148  1  0.86402402  0.25016139  0.13746761  1
  Al  Al149  1  0.86719530  0.25249222  0.63678602  1
  Al  Al150  1  0.86476772  0.74775067  0.12976601  1
  Al  Al151  1  0.86592069  0.75313236  0.63671569  1
  Al  Al152  1  0.36379313  0.25175448  0.36833992  1
  Al  Al153  1  0.36211354  0.24899416  0.87058110  1
  Al  Al154  1  0.36002249  0.74686491  0.36917310  1
  Al  Al155  1  0.36077372  0.74680328  0.86716163  1
  Al  Al156  1  0.86596483  0.25182408  0.36408716  1
  Al  Al157  1  0.87376742  0.25187484  0.86141466  1
  Al  Al158  1  0.86909818  0.74923363  0.36342364  1
  Al  Al159  1  0.87041433  0.75166595  0.86536540  1
  Al  Al160  1  0.13804990  0.13847938  0.25064808  1
  Al  Al161  1  0.13541506  0.13174061  0.75193925  1
  Al  Al162  1  0.13713576  0.62680542  0.25094846  1
  Al  Al163  1  0.13108032  0.63312273  0.75370527  1
  Al  Al164  1  0.63502112  0.13401993  0.25416855  1
  Al  Al165  1  0.63472127  0.12946968  0.74668926  1
  Al  Al166  1  0.63866521  0.63069517  0.24205539  1
  Al  Al167  1  0.63683423  0.63309513  0.74733655  1
  Al  Al168  1  0.36224024  0.13849700  0.24908643  1
  Al  Al169  1  0.36369081  0.13544745  0.74739038  1
  Al  Al170  1  0.36131431  0.63275323  0.24671317  1
  Al  Al171  1  0.36273503  0.63761720  0.75171570  1
  Al  Al172  1  0.86588347  0.13483890  0.25274287  1
  Al  Al173  1  0.86715061  0.13333959  0.75296606  1
  Al  Al174  1  0.86389642  0.63349150  0.24791861  1
  Al  Al175  1  0.86602604  0.63355895  0.75215687  1
  Al  Al176  1  0.13625474  0.37220600  0.25264634  1
  Al  Al177  1  0.12928524  0.36489714  0.75051988  1
  Al  Al178  1  0.13503638  0.86174285  0.25051066  1
  Al  Al179  1  0.12985910  0.86658016  0.75119517  1
  Al  Al180  1  0.63720243  0.36714351  0.24656792  1
  Al  Al181  1  0.62874862  0.36423571  0.74721643  1
  Al  Al182  1  0.63729032  0.86443142  0.25064339  1
  Al  Al183  1  0.63722557  0.86971566  0.75161846  1
  Al  Al184  1  0.36243929  0.36451123  0.25080495  1
  Al  Al185  1  0.36936815  0.35909705  0.74811777  1
  Al  Al186  1  0.36130478  0.86098701  0.24947401  1
  Al  Al187  1  0.36166807  0.86393395  0.74765720  1
  Al  Al188  1  0.86594066  0.36739129  0.24972867  1
  Al  Al189  1  0.87263522  0.36751731  0.74730035  1
  Al  Al190  1  0.86562539  0.86457916  0.25422749  1
  Al  Al191  1  0.87215661  0.86704048  0.74817264  1
  Al  Al192  1  0.68076913  0.81952354  -0.00198949  1
  Al  Al193  1  0.82630371  0.00020378  0.18034484  1
  Al  Al194  1  0.49898168  0.82717405  0.31757319  1
  Al  Al195  1  0.82368020  0.50065954  0.32374454  1
  Al  Al196  1  0.00152005  0.31917922  0.19010257  1
  Al  Al197  1  0.31089622  0.31476113  0.50141570  1
  Al  Al198  1  0.32521455  0.00096966  0.17566501  1
  Al  Al199  1  0.00190205  0.19131736  0.31662092  1
  Al  Al200  1  0.68132584  0.49781430  0.82311510  1
  Al  Al201  1  0.82696811  0.33035955  0.00048239  1
  Al  Al202  1  0.49868910  0.32538740  0.18177058  1
  Al  Al203  1  0.82277791  -0.00358651  0.67614130  1
  Al  Al204  1  0.32024426  0.49976906  0.82878889  1
  Al  Al205  1  0.32356384  0.00366889  0.67391189  1
  Al  Al206  1  0.31876462  0.49934918  0.31564925  1
  Al  Al207  1  0.82450007  0.67680773  0.50095451  1
  Al  Al208  1  0.82643796  0.17600165  0.50033685  1
  Al  Al209  1  0.31968368  0.82495747  -0.00432811  1
  Al  Al210  1  0.49903654  0.67184943  0.81999220  1
  Al  Al211  1  0.67210020  0.17061373  0.50031025  1
  Al  Al212  1  -0.00367907  0.67945432  0.67998707  1
  Al  Al213  1  0.00141689  0.67033132  0.18368247  1
  Al  Al214  1  0.00003870  0.82662328  0.18001903  1
  Al  Al215  1  0.49873488  0.68110273  0.17401868  1
  Al  Al216  1  0.67325308  0.32861982  0.00185995  1
  Al  Al217  1  0.00022291  0.18596364  0.68703944  1
  Al  Al218  1  0.67327777  0.17178602  -0.00126143  1
  Al  Al219  1  0.17309264  0.00024460  0.32685273  1
  Al  Al220  1  0.82727917  0.17221890  -0.00254655  1
  Al  Al221  1  0.50116297  0.82255437  0.67526589  1
  Al  Al222  1  0.49846169  0.17921531  0.32630934  1
  Al  Al223  1  0.18450019  0.67961945  0.49893994  1
  Al  Al224  1  0.67306263  0.00013583  0.18288479  1
  Al  Al225  1  0.17231259  0.00147019  0.17276463  1
  Al  Al226  1  0.18394099  0.18678834  0.49690857  1
  Al  Al227  1  0.67604282  0.32341847  0.50305682  1
  Al  Al228  1  0.49941174  0.18251258  0.81110927  1
  Al  Al229  1  0.49901604  0.66784246  0.32491125  1
  Al  Al230  1  0.83078639  0.32998668  0.50151678  1
  Al  Al231  1  0.68035225  0.49769550  0.31952740  1
  Al  Al232  1  0.16675216  0.49623264  0.67442441  1
  Al  Al233  1  0.67523811  0.82707655  0.50183266  1
  Al  Al234  1  0.50021765  0.82816653  0.82753782  1
  Al  Al235  1  0.18084024  0.31208964  -0.00041255  1
  Al  Al236  1  0.32739473  -0.00073157  0.32850781  1
  Al  Al237  1  0.32712649  0.49803163  0.67021032  1
  Al  Al238  1  0.49931089  0.17183943  0.17121661  1
  Au  Au239  1  0.67142521  0.49990883  0.32778255  1
  Au  Au240  1  0.82711925  0.83756110  -0.00096414  1
  Au  Au241  1  0.16583255  0.82601643  0.50067565  1
  Au  Au242  1  0.83690196  0.66560914  0.00026734  1
  Au  Au243  1  0.00068991  0.82436103  0.33401693  1
  Au  Au244  1  0.16695010  -0.00334704  0.66692473  1
  Au  Au245  1  0.84017610  0.82500958  0.50056571  1
  Au  Au246  1  0.33683235  0.82300647  0.49883320  1
  Au  Au247  1  0.34352191  0.49719553  0.66415718  1
  Au  Au248  1  0.49836484  0.32805286  0.82217554  1
  Au  Au249  1  0.66463591  0.67139535  0.00479191  1
  Au  Au250  1  0.83942004  0.32731977  0.00066992  1
  Au  Au251  1  0.32175889  0.66041495  0.00492684  1
  Au  Au252  1  0.32188878  0.49924460  0.32817611  1
  Au  Au253  1  0.67230285  0.49925403  0.83159018  1
  Au  Au254  1  0.33209996  0.49882162  0.83282057  1
  Au  Au255  1  0.82661049  0.00182182  0.33029431  1
  Au  Au256  1  0.49766785  0.67543583  0.83218842  1
  Au  Au257  1  0.67462032  0.49682659  0.66634610  1
  Au  Au258  1  0.83425364  0.00476508  0.83233267  1
  Au  Au259  1  0.16367156  0.49398910  0.66271445  1
  Au  Au260  1  -0.00118009  0.67057253  0.67096164  1
  Au  Au261  1  0.16435937  0.00464358  0.83667361  1
  Au  Au262  1  0.17184715  0.50002721  0.17136637  1
  Au  Au263  1  0.00098169  0.17180530  0.16857321  1
  Au  Au264  1  -0.00005970  0.17445565  0.67428788  1
  Au  Au265  1  0.00148249  0.82319256  0.16796465  1
  Au  Au266  1  0.32368568  0.31660919  0.50199620  1
  Au  Au267  1  0.83047501  -0.00111581  0.66662959  1
  Au  Au268  1  0.32198328  0.16648790  -0.00104535  1
  Au  Au269  1  0.49891417  0.67565169  0.65837518  1
  Au  Au270  1  0.66595816  0.83526773  0.49960742  1
  Au  Au271  1  -0.00034489  0.82415643  0.82251913  1
  Au  Au272  1  0.50104947  0.32800854  0.33183480  1
  Au  Au273  1  0.67679574  0.66164642  0.50271320  1
  Au  Au274  1  0.83742795  0.50250065  0.82381581  1
  Au  Au275  1  0.66327100  0.00037407  0.82550481  1
  Au  Au276  1  0.83581251  0.50080946  0.32021479  1
  Au  Au277  1  0.16086127  0.50465476  0.83835625  1
  Au  Au278  1  0.33765272  0.00080698  0.82795798  1
  Au  Au279  1  0.32608066  0.33648336  0.00517885  1
  Au  Au280  1  0.66077278  0.32840374  0.00495257  1
  Au  Au281  1  0.49641678  0.67589491  0.33967906  1
  Au  Au282  1  0.32859922  0.83337302  -0.00210320  1
  Au  Au283  1  0.16380558  0.82265664  0.00051820  1
  Au  Au284  1  0.33356378  -0.00084632  0.66836250  1
  Au  Au285  1  0.50175692  0.83232390  0.16795940  1
  Au  Au286  1  0.00220767  0.32609876  0.82557889  1
  Au  Au287  1  0.17497068  0.17808688  0.50004881  1
