# generated using pymatgen
data_Ca24Ti8Al207Au49
_symmetry_space_group_name_H-M   'P 1'
_cell_length_a   17.32374892
_cell_length_b   17.32363707
_cell_length_c   17.32155945
_cell_angle_alpha   90.00352920
_cell_angle_beta   89.99936626
_cell_angle_gamma   89.99615674
_symmetry_Int_Tables_number   1
_chemical_formula_structural   Ca24Ti8Al207Au49
_chemical_formula_sum   'Ca24 Ti8 Al207 Au49'
_cell_volume   5198.37905590
_cell_formula_units_Z   1
loop_
 _symmetry_equiv_pos_site_id
 _symmetry_equiv_pos_as_xyz
  1  'x, y, z'
loop_
 _atom_site_type_symbol
 _atom_site_label
 _atom_site_symmetry_multiplicity
 _atom_site_fract_x
 _atom_site_fract_y
 _atom_site_fract_z
 _atom_site_occupancy
  Ca  Ca0  1  0.24699943  0.00422729  -0.00113706  1
  Ca  Ca1  1  0.24516827  -0.00112183  0.50111409  1
  Ca  Ca2  1  0.25261910  0.49522648  0.00015067  1
  Ca  Ca3  1  0.24382056  0.50170530  0.50233532  1
  Ca  Ca4  1  0.74911416  0.00351236  0.00126827  1
  Ca  Ca5  1  0.74967094  -0.00351502  0.49856808  1
  Ca  Ca6  1  0.74965443  0.49599143  0.00240446  1
  Ca  Ca7  1  0.75071148  0.50109643  0.49887532  1
  Ca  Ca8  1  -0.00299877  0.24746977  -0.00254590  1
  Ca  Ca9  1  -0.00326961  0.25042161  0.50113166  1
  Ca  Ca10  1  0.00006227  0.74896568  0.00012953  1
  Ca  Ca11  1  -0.00224647  0.75475610  0.49738050  1
  Ca  Ca12  1  0.50157286  0.24902240  0.00361113  1
  Ca  Ca13  1  0.50323884  0.25158825  0.49851934  1
  Ca  Ca14  1  0.50236226  0.75023725  0.00159515  1
  Ca  Ca15  1  0.50222786  0.75684940  0.49845456  1
  Ca  Ca16  1  -0.00638984  0.00408968  0.25366301  1
  Ca  Ca17  1  -0.00242622  0.00281188  0.75120052  1
  Ca  Ca18  1  -0.00223331  0.49611830  0.25384246  1
  Ca  Ca19  1  0.00145663  0.49453660  0.74788696  1
  Ca  Ca20  1  0.50718508  -0.00027550  0.25218590  1
  Ca  Ca21  1  0.50344332  -0.00048979  0.75147412  1
  Ca  Ca22  1  0.50164984  0.50009387  0.24976050  1
  Ca  Ca23  1  0.50199712  0.49870313  0.75253618  1
  Ti  Ti24  1  0.24744254  0.25029906  0.24844640  1
  Ti  Ti25  1  0.24823538  0.24829484  0.75077073  1
  Ti  Ti26  1  0.25201379  0.75091292  0.25296880  1
  Ti  Ti27  1  0.24889948  0.75146335  0.74804892  1
  Ti  Ti28  1  0.75066779  0.25001167  0.24916192  1
  Ti  Ti29  1  0.75098810  0.24894638  0.75122044  1
  Ti  Ti30  1  0.74955105  0.75097749  0.25050575  1
  Ti  Ti31  1  0.75122452  0.75136488  0.75056576  1
  Al  Al32  1  0.07771797  0.09690754  0.07854389  1
  Al  Al33  1  0.07475281  0.08571117  0.58907184  1
  Al  Al34  1  0.07343209  0.57126327  0.07638094  1
  Al  Al35  1  0.07819461  0.58545990  0.59095732  1
  Al  Al36  1  0.58625013  0.08748541  0.08943299  1
  Al  Al37  1  0.59481160  0.07800305  0.58758695  1
  Al  Al38  1  0.58885093  0.57600822  0.09148568  1
  Al  Al39  1  0.58159194  0.57750236  0.57671847  1
  Al  Al40  1  0.42489475  0.41410071  0.08165369  1
  Al  Al41  1  0.41587508  0.42463387  0.59163626  1
  Al  Al42  1  0.43093334  0.91837304  0.07999391  1
  Al  Al43  1  0.42173201  0.92075506  0.58215732  1
  Al  Al44  1  0.91134163  0.41399430  0.09465860  1
  Al  Al45  1  0.92350276  0.41220166  0.58660183  1
  Al  Al46  1  0.90811027  0.93119777  0.08952225  1
  Al  Al47  1  0.89849252  0.91531517  0.58162089  1
  Al  Al48  1  0.42852156  0.07547381  0.41541584  1
  Al  Al49  1  0.40614291  0.08441936  0.91737857  1
  Al  Al50  1  0.42262646  0.58737421  0.41496802  1
  Al  Al51  1  0.42228783  0.57799074  0.91966038  1
  Al  Al52  1  0.91240235  0.07875475  0.40071824  1
  Al  Al53  1  0.91939986  0.09002227  0.90423976  1
  Al  Al54  1  0.91426940  0.58233682  0.42114954  1
  Al  Al55  1  0.91745796  0.57699569  0.91445963  1
  Al  Al56  1  0.07947732  0.41181347  0.41452563  1
  Al  Al57  1  0.07864950  0.40845023  0.91318813  1
  Al  Al58  1  0.06845114  0.91509591  0.41063729  1
  Al  Al59  1  0.07974314  0.92957333  0.91702312  1
  Al  Al60  1  0.58991807  0.41072065  0.41649561  1
  Al  Al61  1  0.58560981  0.41627100  0.91094361  1
  Al  Al62  1  0.59220958  0.90877203  0.41808118  1
  Al  Al63  1  0.58403275  0.92304316  0.91743053  1
  Al  Al64  1  0.07272830  0.08874973  0.40965911  1
  Al  Al65  1  0.08403613  0.09382290  0.91476273  1
  Al  Al66  1  0.07938258  0.57712209  0.42087686  1
  Al  Al67  1  0.07757139  0.57482173  0.91547648  1
  Al  Al68  1  0.58781969  0.08100374  0.41820038  1
  Al  Al69  1  0.58774078  0.08286257  0.92089479  1
  Al  Al70  1  0.58318849  0.58521418  0.41180835  1
  Al  Al71  1  0.58570169  0.57363543  0.91127598  1
  Al  Al72  1  0.42782632  0.42443584  0.41785676  1
  Al  Al73  1  0.42218444  0.41550612  0.91617821  1
  Al  Al74  1  0.42913839  0.91413946  0.41024316  1
  Al  Al75  1  0.41357636  0.92658446  0.90834787  1
  Al  Al76  1  0.92020085  0.41032371  0.40748349  1
  Al  Al77  1  0.91924347  0.41046554  0.91026238  1
  Al  Al78  1  0.90567378  0.91086114  0.40851501  1
  Al  Al79  1  0.91083158  0.93120881  0.91339967  1
  Al  Al80  1  0.07577816  0.40812085  0.08346917  1
  Al  Al81  1  0.08143714  0.41370852  0.58627404  1
  Al  Al82  1  0.06996344  0.92585737  0.07712927  1
  Al  Al83  1  0.07883686  0.92512856  0.57706812  1
  Al  Al84  1  0.58990945  0.41576033  0.08972461  1
  Al  Al85  1  0.58870710  0.41097256  0.57674409  1
  Al  Al86  1  0.58841606  0.92337387  0.08810537  1
  Al  Al87  1  0.60009724  0.91547484  0.58309648  1
  Al  Al88  1  0.42296353  0.09466348  0.08006424  1
  Al  Al89  1  0.42361154  0.07541391  0.58352785  1
  Al  Al90  1  0.42531294  0.58155709  0.07861669  1
  Al  Al91  1  0.41089326  0.57723693  0.58794389  1
  Al  Al92  1  0.91623217  0.09010239  0.09858350  1
  Al  Al93  1  0.91415127  0.07808540  0.59834292  1
  Al  Al94  1  0.90653724  0.57128906  0.09009126  1
  Al  Al95  1  0.92024849  0.59430330  0.58333430  1
  Al  Al96  1  0.24304492  0.13888398  0.13517450  1
  Al  Al97  1  0.24855155  0.13614993  0.63527019  1
  Al  Al98  1  0.25189849  0.63723760  0.13749151  1
  Al  Al99  1  0.24945696  0.63464783  0.63454668  1
  Al  Al100  1  0.75701589  0.13519117  0.13604342  1
  Al  Al101  1  0.75318245  0.13110020  0.63794764  1
  Al  Al102  1  0.74819787  0.63272455  0.13458086  1
  Al  Al103  1  0.75234343  0.63360141  0.63529047  1
  Al  Al104  1  0.24868112  0.36093882  0.13584936  1
  Al  Al105  1  0.25006902  0.36329648  0.63718167  1
  Al  Al106  1  0.25011403  0.86306814  0.13774148  1
  Al  Al107  1  0.24661861  0.86509189  0.63032586  1
  Al  Al108  1  0.75260729  0.36158774  0.13092624  1
  Al  Al109  1  0.74932282  0.36586988  0.63608888  1
  Al  Al110  1  0.75265475  0.86660751  0.13914365  1
  Al  Al111  1  0.75152988  0.86917173  0.63345281  1
  Al  Al112  1  0.24540880  0.13711310  0.36270864  1
  Al  Al113  1  0.24824708  0.13093603  0.86440069  1
  Al  Al114  1  0.25019256  0.63747473  0.36557220  1
  Al  Al115  1  0.24943680  0.63658266  0.86110394  1
  Al  Al116  1  0.75300846  0.12746685  0.35948299  1
  Al  Al117  1  0.75301232  0.12710043  0.86360250  1
  Al  Al118  1  0.75209921  0.63350205  0.36405495  1
  Al  Al119  1  0.75105798  0.62698294  0.86209486  1
  Al  Al120  1  0.24887196  0.36008161  0.36151346  1
  Al  Al121  1  0.24800319  0.36089110  0.86453104  1
  Al  Al122  1  0.24869232  0.86331479  0.36841619  1
  Al  Al123  1  0.24757778  0.87186673  0.86309680  1
  Al  Al124  1  0.74702332  0.36535576  0.36218986  1
  Al  Al125  1  0.75168762  0.36592859  0.86821102  1
  Al  Al126  1  0.75117221  0.86892760  0.36647437  1
  Al  Al127  1  0.75316875  0.87269112  0.86236103  1
  Al  Al128  1  0.12429229  0.25010864  0.13313240  1
  Al  Al129  1  0.13366392  0.24906987  0.63630097  1
  Al  Al130  1  0.13413493  0.75211179  0.13636435  1
  Al  Al131  1  0.13403977  0.74859641  0.63092897  1
  Al  Al132  1  0.63257749  0.25148040  0.13668832  1
  Al  Al133  1  0.63740639  0.25012498  0.63708290  1
  Al  Al134  1  0.63223516  0.75057465  0.13974290  1
  Al  Al135  1  0.64173687  0.75712106  0.63468153  1
  Al  Al136  1  0.12908678  0.24838892  0.36415447  1
  Al  Al137  1  0.13097125  0.24321698  0.86743769  1
  Al  Al138  1  0.13140350  0.75099426  0.36865858  1
  Al  Al139  1  0.13494221  0.75082985  0.86418684  1
  Al  Al140  1  0.63703980  0.24977880  0.36222292  1
  Al  Al141  1  0.63873933  0.24747857  0.86428117  1
  Al  Al142  1  0.63791619  0.75602415  0.36598400  1
  Al  Al143  1  0.64005465  0.75208484  0.86061538  1
  Al  Al144  1  0.37147559  0.25166536  0.13760200  1
  Al  Al145  1  0.36859025  0.24553306  0.63898207  1
  Al  Al146  1  0.37173078  0.75025871  0.13832800  1
  Al  Al147  1  0.36178418  0.75520020  0.63123719  1
  Al  Al148  1  0.87102619  0.24987601  0.13307791  1
  Al  Al149  1  0.86503697  0.25045731  0.63555865  1
  Al  Al150  1  0.86145233  0.75134446  0.13303037  1
  Al  Al151  1  0.86255444  0.75182487  0.63634027  1
  Al  Al152  1  0.36525638  0.24701160  0.36350018  1
  Al  Al153  1  0.36345468  0.24821088  0.86355404  1
  Al  Al154  1  0.36694037  0.75484260  0.36785407  1
  Al  Al155  1  0.36273144  0.75151194  0.86146029  1
  Al  Al156  1  0.86758302  0.24682111  0.36404440  1
  Al  Al157  1  0.86296938  0.24726987  0.86910141  1
  Al  Al158  1  0.86806137  0.75403631  0.36259547  1
  Al  Al159  1  0.86063435  0.74651530  0.86582538  1
  Al  Al160  1  0.12588633  0.14002435  0.24992563  1
  Al  Al161  1  0.13093802  0.13427711  0.75530764  1
  Al  Al162  1  0.13482012  0.63643021  0.25373829  1
  Al  Al163  1  0.13131687  0.63629128  0.74728556  1
  Al  Al164  1  0.63673554  0.13526562  0.24758347  1
  Al  Al165  1  0.63926658  0.12713107  0.74932572  1
  Al  Al166  1  0.63762133  0.63185129  0.25009783  1
  Al  Al167  1  0.63733002  0.63581572  0.74923884  1
  Al  Al168  1  0.36340397  0.13797592  0.24657242  1
  Al  Al169  1  0.36748794  0.13193182  0.75533392  1
  Al  Al170  1  0.36500509  0.63144283  0.25150913  1
  Al  Al171  1  0.36275640  0.63604141  0.74509517  1
  Al  Al172  1  0.86821597  0.13546637  0.24911485  1
  Al  Al173  1  0.86597454  0.13345190  0.75362163  1
  Al  Al174  1  0.86372054  0.63523632  0.24859362  1
  Al  Al175  1  0.86902173  0.63298614  0.74826771  1
  Al  Al176  1  0.12541547  0.36042529  0.25053474  1
  Al  Al177  1  0.13301443  0.36190887  0.74810236  1
  Al  Al178  1  0.13298065  0.86427733  0.25369199  1
  Al  Al179  1  0.13206661  0.86535305  0.75030396  1
  Al  Al180  1  0.63818737  0.37042412  0.24466268  1
  Al  Al181  1  0.63701743  0.36503202  0.75310046  1
  Al  Al182  1  0.63297099  0.86695846  0.25431380  1
  Al  Al183  1  0.64123506  0.87495858  0.74803846  1
  Al  Al184  1  0.36355245  0.37005592  0.24832219  1
  Al  Al185  1  0.36427525  0.36491451  0.74679052  1
  Al  Al186  1  0.37259212  0.86353599  0.24962430  1
  Al  Al187  1  0.36432019  0.86446876  0.75121105  1
  Al  Al188  1  0.86711235  0.36398729  0.24857543  1
  Al  Al189  1  0.86218614  0.36925641  0.75070386  1
  Al  Al190  1  0.86345211  0.86981374  0.25494246  1
  Al  Al191  1  0.86429084  0.87050234  0.74723331  1
  Al  Al192  1  -0.00239838  0.30858979  0.80846792  1
  Al  Al193  1  0.32578179  -0.00122044  0.68335374  1
  Al  Al194  1  0.33240130  0.00171780  0.16869962  1
  Al  Al195  1  0.67014086  0.68806223  0.49986097  1
  Al  Al196  1  0.67294896  0.82656293  0.00082759  1
  Al  Al197  1  0.33047617  0.33128318  0.50043948  1
  Al  Al198  1  0.17263087  0.32011021  0.49954700  1
  Al  Al199  1  0.17362024  0.49763125  0.82470584  1
  Al  Al200  1  0.50187528  0.17431913  0.67794393  1
  Al  Al201  1  0.16743962  0.00408927  0.17262337  1
  Al  Al202  1  0.17891053  0.31548265  -0.00302626  1
  Al  Al203  1  0.50058004  0.67940203  0.66909581  1
  Al  Al204  1  0.82567661  0.68869983  0.49889426  1
  Al  Al205  1  0.18024830  0.49776931  0.32824734  1
  Al  Al206  1  0.32615544  -0.00117447  0.32595203  1
  Al  Al207  1  0.32776718  0.67464909  -0.00068107  1
  Al  Al208  1  0.30981814  0.18124083  0.00117174  1
  Al  Al209  1  0.32488852  0.16779158  0.49814234  1
  Al  Al210  1  0.83059144  0.16843222  0.50032753  1
  Al  Al211  1  0.17699072  0.49772845  0.17110881  1
  Al  Al212  1  0.16855200  0.67382280  -0.00067623  1
  Al  Al213  1  0.50240529  0.82845179  0.82770589  1
  Al  Al214  1  0.67778869  0.67147609  -0.00252287  1
  Al  Al215  1  -0.00360848  0.82897038  0.18584561  1
  Al  Al216  1  0.00027822  0.67213646  0.18120859  1
  Al  Al217  1  0.82873195  0.83028595  0.00015750  1
  Al  Al218  1  0.50060573  0.31801849  0.81953968  1
  Al  Al219  1  0.18046875  0.49924532  0.67308251  1
  Al  Al220  1  0.50204566  0.68927348  0.31953902  1
  Al  Al221  1  0.50387421  0.82932508  0.67378367  1
  Al  Al222  1  0.50168726  0.17209076  0.31687783  1
  Al  Al223  1  0.82289499  0.50195169  0.31843888  1
  Al  Al224  1  -0.00434687  0.81896954  0.83209503  1
  Al  Al225  1  0.32278958  0.67529765  0.50279741  1
  Al  Al226  1  0.68269874  0.18037531  0.00191365  1
  Al  Al227  1  0.50052153  0.67508506  0.82792162  1
  Al  Al228  1  -0.00156876  0.18856213  0.69023210  1
  Al  Al229  1  0.50085526  0.32463514  0.32077016  1
  Al  Al230  1  0.17028966  0.00032361  0.32790904  1
  Al  Al231  1  0.33123614  0.50058274  0.81208516  1
  Al  Al232  1  0.67918500  0.49997564  0.68421398  1
  Al  Al233  1  0.17262143  0.00092576  0.67937266  1
  Al  Al234  1  0.68910342  0.00148646  0.18293102  1
  Al  Al235  1  0.67527813  0.18364660  0.49954235  1
  Al  Al236  1  0.32403995  0.83302868  -0.00146635  1
  Al  Al237  1  -0.00134850  0.82075146  0.66938034  1
  Al  Al238  1  0.81274584  0.32959874  0.49832528  1
  Au  Au239  1  -0.00332511  0.83056823  0.65645669  1
  Au  Au240  1  0.67627261  0.67201506  0.49861156  1
  Au  Au241  1  0.32549985  0.34665277  0.50029190  1
  Au  Au242  1  0.33138067  0.50079568  0.33468567  1
  Au  Au243  1  0.17468934  0.65771743  -0.00212843  1
  Au  Au244  1  0.33181912  0.66684348  0.50075302  1
  Au  Au245  1  0.16544499  0.66667528  0.50227023  1
  Au  Au246  1  0.67506133  0.00057218  0.82807225  1
  Au  Au247  1  0.82915488  0.33287597  0.49960753  1
  Au  Au248  1  0.15382228  0.17094637  0.49969691  1
  Au  Au249  1  0.49979954  0.17093890  0.84262953  1
  Au  Au250  1  0.82512792  0.84280602  -0.00012732  1
  Au  Au251  1  0.83177197  0.15894789  -0.00047408  1
  Au  Au252  1  0.66211874  0.66715546  -0.00223219  1
  Au  Au253  1  0.00104387  0.65867603  0.82016492  1
  Au  Au254  1  0.84046189  0.66705098  0.00093423  1
  Au  Au255  1  -0.00646547  0.84171544  0.17504397  1
  Au  Au256  1  0.16116898  0.49606813  0.17738928  1
  Au  Au257  1  0.33567875  0.32604394  -0.00021342  1
  Au  Au258  1  0.50159932  0.33805081  0.67185678  1
  Au  Au259  1  0.33620185  0.83941337  0.49716486  1
  Au  Au260  1  0.82314536  0.49686134  0.83592814  1
  Au  Au261  1  0.34723683  0.00397151  0.17382148  1
  Au  Au262  1  0.33670246  0.50098609  0.16372173  1
  Au  Au263  1  -0.00001849  0.67426388  0.34106015  1
  Au  Au264  1  -0.00279820  0.66182768  0.16770952  1
  Au  Au265  1  0.34062023  0.82888690  -0.00285635  1
  Au  Au266  1  0.32629477  0.50112881  0.82858090  1
  Au  Au267  1  0.83412369  0.33153067  0.00107102  1
  Au  Au268  1  0.67590511  -0.00168372  0.33097402  1
  Au  Au269  1  0.66560760  0.32904428  -0.00236112  1
  Au  Au270  1  0.17390594  0.00373353  0.82935299  1
  Au  Au271  1  0.82847472  0.15588366  0.50031403  1
  Au  Au272  1  0.33249513  0.15356771  0.49674470  1
  Au  Au273  1  0.66857951  0.49765055  0.67114080  1
  Au  Au274  1  0.16284667  0.83800784  0.00139988  1
  Au  Au275  1  0.50250046  0.32508949  0.17323293  1
  Au  Au276  1  0.50391443  0.16519574  0.66942699  1
  Au  Au277  1  0.49866159  0.66343391  0.67648460  1
  Au  Au278  1  -0.00435688  0.83583114  0.83515687  1
  Au  Au279  1  -0.00359610  0.32366894  0.17766452  1
  Au  Au280  1  0.83209022  0.49931944  0.32676568  1
  Au  Au281  1  0.84331192  0.50325008  0.66894202  1
  Au  Au282  1  0.66592544  0.49847804  0.32218652  1
  Au  Au283  1  0.50623774  0.83307009  0.17901905  1
  Au  Au284  1  0.50082330  0.66513542  0.17436767  1
  Au  Au285  1  0.16423408  0.83815786  0.49464770  1
  Au  Au286  1  0.15249754  0.00868455  0.17286134  1
  Au  Au287  1  0.17004492  0.32432228  -0.00022347  1
