# generated using pymatgen
data_Ca24Ti8Al207Au49
_symmetry_space_group_name_H-M   'P 1'
_cell_length_a   17.31961281
_cell_length_b   17.31926751
_cell_length_c   17.32051250
_cell_angle_alpha   89.99910847
_cell_angle_beta   90.00605443
_cell_angle_gamma   89.99599062
_symmetry_Int_Tables_number   1
_chemical_formula_structural   Ca24Ti8Al207Au49
_chemical_formula_sum   'Ca24 Ti8 Al207 Au49'
_cell_volume   5195.51297627
_cell_formula_units_Z   1
loop_
 _symmetry_equiv_pos_site_id
 _symmetry_equiv_pos_as_xyz
  1  'x, y, z'
loop_
 _atom_site_type_symbol
 _atom_site_label
 _atom_site_symmetry_multiplicity
 _atom_site_fract_x
 _atom_site_fract_y
 _atom_site_fract_z
 _atom_site_occupancy
  Ca  Ca0  1  0.25411425  0.00113258  0.00548625  1
  Ca  Ca1  1  0.24781036  0.00005061  0.49543199  1
  Ca  Ca2  1  0.24783059  0.49513894  0.00118922  1
  Ca  Ca3  1  0.24905721  0.50024779  0.50025265  1
  Ca  Ca4  1  0.75383726  0.00494105  0.00086400  1
  Ca  Ca5  1  0.75152315  0.00765738  0.49815955  1
  Ca  Ca6  1  0.75344278  0.49585210  -0.00341542  1
  Ca  Ca7  1  0.75524419  0.49585795  0.50326716  1
  Ca  Ca8  1  -0.00224651  0.25148067  0.00600222  1
  Ca  Ca9  1  0.00081950  0.24918863  0.49569572  1
  Ca  Ca10  1  0.00120693  0.74828452  0.00049078  1
  Ca  Ca11  1  0.00433213  0.74869919  0.50012404  1
  Ca  Ca12  1  0.49841505  0.24768288  0.00240176  1
  Ca  Ca13  1  0.50066697  0.24803873  0.49899576  1
  Ca  Ca14  1  0.49841932  0.75208368  0.00055619  1
  Ca  Ca15  1  0.50163758  0.75221896  0.49680856  1
  Ca  Ca16  1  0.00472723  0.00478076  0.25143949  1
  Ca  Ca17  1  -0.00014876  -0.00293090  0.75132151  1
  Ca  Ca18  1  -0.00047893  0.49533143  0.24656403  1
  Ca  Ca19  1  0.00047388  0.50283250  0.74987023  1
  Ca  Ca20  1  0.49648765  0.00278479  0.24735847  1
  Ca  Ca21  1  0.49750065  0.00268738  0.74957131  1
  Ca  Ca22  1  0.49770268  0.49887980  0.24670385  1
  Ca  Ca23  1  0.49975049  0.49842902  0.75115036  1
  Ti  Ti24  1  0.24941830  0.25161854  0.24887100  1
  Ti  Ti25  1  0.25113410  0.25175857  0.75111259  1
  Ti  Ti26  1  0.25067221  0.74931255  0.24791924  1
  Ti  Ti27  1  0.24902178  0.74833009  0.75315912  1
  Ti  Ti28  1  0.75143620  0.24910954  0.24954630  1
  Ti  Ti29  1  0.74969143  0.25095208  0.75015683  1
  Ti  Ti30  1  0.74958593  0.75119631  0.24801203  1
  Ti  Ti31  1  0.75091714  0.74796275  0.75223825  1
  Al  Al32  1  0.08568096  0.08940738  0.09693696  1
  Al  Al33  1  0.08163248  0.07646961  0.57451248  1
  Al  Al34  1  0.08384452  0.57877921  0.08099786  1
  Al  Al35  1  0.08790001  0.58001674  0.59078160  1
  Al  Al36  1  0.58518293  0.08495186  0.07412047  1
  Al  Al37  1  0.59535885  0.08979671  0.58351615  1
  Al  Al38  1  0.57853609  0.58099983  0.07790450  1
  Al  Al39  1  0.57838103  0.58184375  0.59984775  1
  Al  Al40  1  0.41290829  0.40495856  0.08230485  1
  Al  Al41  1  0.41314973  0.42654746  0.58874253  1
  Al  Al42  1  0.41269220  0.91847957  0.09489054  1
  Al  Al43  1  0.40591244  0.92176229  0.58239929  1
  Al  Al44  1  0.91192601  0.40831547  0.09142463  1
  Al  Al45  1  0.91252942  0.41897476  0.58127752  1
  Al  Al46  1  0.92126505  0.92183200  0.07853897  1
  Al  Al47  1  0.92944167  0.92104616  0.58678154  1
  Al  Al48  1  0.41804848  0.08192878  0.41328828  1
  Al  Al49  1  0.41479444  0.09231628  0.91629953  1
  Al  Al50  1  0.41652149  0.57560233  0.41949651  1
  Al  Al51  1  0.40833554  0.58470223  0.92218008  1
  Al  Al52  1  0.91568988  0.09440341  0.40943532  1
  Al  Al53  1  0.91415687  0.08540244  0.92692810  1
  Al  Al54  1  0.92208295  0.57977410  0.41379928  1
  Al  Al55  1  0.91877373  0.58517312  0.92090796  1
  Al  Al56  1  0.08503806  0.41582770  0.40879661  1
  Al  Al57  1  0.09208879  0.41460345  0.92522837  1
  Al  Al58  1  0.09417354  0.92079981  0.41614066  1
  Al  Al59  1  0.07808385  0.91008039  0.91407004  1
  Al  Al60  1  0.57605199  0.40734450  0.41656071  1
  Al  Al61  1  0.58932212  0.41059849  0.91859439  1
  Al  Al62  1  0.57264285  0.92866233  0.41469048  1
  Al  Al63  1  0.58436393  0.92401356  0.93142961  1
  Al  Al64  1  0.08073976  0.08363582  0.40328994  1
  Al  Al65  1  0.07803918  0.08193164  0.93004416  1
  Al  Al66  1  0.08428107  0.57686563  0.40662104  1
  Al  Al67  1  0.08438305  0.58301939  0.91539369  1
  Al  Al68  1  0.58430568  0.09376560  0.42068032  1
  Al  Al69  1  0.57887004  0.09549289  0.91527966  1
  Al  Al70  1  0.57333393  0.57237255  0.42643956  1
  Al  Al71  1  0.58464431  0.57638505  0.91714160  1
  Al  Al72  1  0.42008031  0.41381853  0.40605361  1
  Al  Al73  1  0.41103991  0.41295873  0.92110860  1
  Al  Al74  1  0.41043381  0.91749366  0.41587066  1
  Al  Al75  1  0.41384426  0.92913496  0.92778597  1
  Al  Al76  1  0.92038926  0.41308929  0.41272827  1
  Al  Al77  1  0.91234265  0.41591539  0.92837442  1
  Al  Al78  1  0.92594128  0.93026975  0.41540506  1
  Al  Al79  1  0.92104108  0.91473130  0.91267669  1
  Al  Al80  1  0.08526935  0.40318640  0.08744373  1
  Al  Al81  1  0.09320387  0.42170292  0.58074128  1
  Al  Al82  1  0.09005082  0.92519096  0.08904371  1
  Al  Al83  1  0.08835130  0.90413005  0.57843789  1
  Al  Al84  1  0.58065638  0.40568509  0.07928335  1
  Al  Al85  1  0.59161267  0.42217462  0.58474885  1
  Al  Al86  1  0.57556064  0.90625947  0.08786849  1
  Al  Al87  1  0.58328841  0.93322163  0.59153503  1
  Al  Al88  1  0.40858850  0.08250612  0.07978214  1
  Al  Al89  1  0.41264026  0.07913066  0.58473112  1
  Al  Al90  1  0.40978364  0.58749503  0.07872751  1
  Al  Al91  1  0.41649049  0.58540194  0.59801030  1
  Al  Al92  1  0.91933983  0.09984952  0.08766212  1
  Al  Al93  1  0.90827624  0.08963898  0.57223800  1
  Al  Al94  1  0.90779902  0.57477196  0.08342939  1
  Al  Al95  1  0.91742092  0.57859773  0.58498807  1
  Al  Al96  1  0.25220444  0.13668568  0.13299959  1
  Al  Al97  1  0.25143763  0.13497595  0.63713311  1
  Al  Al98  1  0.25135060  0.63024239  0.13114874  1
  Al  Al99  1  0.24529416  0.62932724  0.63562756  1
  Al  Al100  1  0.75435015  0.13417343  0.13379044  1
  Al  Al101  1  0.74703502  0.13499175  0.63326961  1
  Al  Al102  1  0.74903993  0.63426463  0.13471990  1
  Al  Al103  1  0.75089914  0.63418187  0.63991907  1
  Al  Al104  1  0.24776027  0.36712027  0.13233660  1
  Al  Al105  1  0.24993078  0.36831498  0.63520587  1
  Al  Al106  1  0.25301117  0.86641116  0.13129882  1
  Al  Al107  1  0.25021549  0.86052980  0.63579227  1
  Al  Al108  1  0.75305587  0.36280144  0.13571525  1
  Al  Al109  1  0.74813443  0.36574984  0.63442821  1
  Al  Al110  1  0.75248471  0.86742265  0.13643689  1
  Al  Al111  1  0.74395657  0.86303353  0.63800127  1
  Al  Al112  1  0.24375533  0.13318100  0.36100291  1
  Al  Al113  1  0.25466628  0.13656012  0.87125499  1
  Al  Al114  1  0.24544849  0.62839839  0.36085656  1
  Al  Al115  1  0.25104315  0.63396340  0.86939270  1
  Al  Al116  1  0.75315045  0.13829147  0.36746581  1
  Al  Al117  1  0.75017610  0.13624236  0.86710101  1
  Al  Al118  1  0.74964806  0.63810958  0.36191242  1
  Al  Al119  1  0.74920930  0.62754945  0.86160552  1
  Al  Al120  1  0.24532024  0.37189853  0.36043524  1
  Al  Al121  1  0.25219353  0.36328765  0.86902391  1
  Al  Al122  1  0.25014407  0.86629769  0.36311906  1
  Al  Al123  1  0.25019409  0.86218973  0.87256301  1
  Al  Al124  1  0.75528445  0.35918932  0.36760955  1
  Al  Al125  1  0.74797290  0.36734792  0.86453126  1
  Al  Al126  1  0.74474830  0.86595683  0.36030983  1
  Al  Al127  1  0.75056135  0.86475267  0.86321244  1
  Al  Al128  1  0.13198968  0.25342953  0.13537504  1
  Al  Al129  1  0.13682907  0.25013397  0.63507715  1
  Al  Al130  1  0.13844234  0.74982475  0.13038395  1
  Al  Al131  1  0.13713160  0.74837798  0.63511465  1
  Al  Al132  1  0.63601713  0.25216365  0.13477825  1
  Al  Al133  1  0.63411936  0.24656465  0.63252339  1
  Al  Al134  1  0.63418198  0.75051964  0.13469863  1
  Al  Al135  1  0.63111931  0.74130575  0.64082335  1
  Al  Al136  1  0.13184013  0.24637898  0.36006045  1
  Al  Al137  1  0.13748906  0.25445704  0.86786422  1
  Al  Al138  1  0.13818552  0.75334995  0.36245312  1
  Al  Al139  1  0.13339075  0.74662095  0.87012976  1
  Al  Al140  1  0.63649141  0.24671160  0.36632786  1
  Al  Al141  1  0.63446868  0.25043471  0.86368014  1
  Al  Al142  1  0.62844997  0.75341217  0.36001359  1
  Al  Al143  1  0.63417557  0.74707894  0.86158280  1
  Al  Al144  1  0.36165534  0.25212947  0.13125542  1
  Al  Al145  1  0.36609349  0.24819412  0.63733012  1
  Al  Al146  1  0.36219062  0.75044574  0.13068211  1
  Al  Al147  1  0.36335945  0.74623381  0.64008908  1
  Al  Al148  1  0.87077161  0.24873488  0.13517813  1
  Al  Al149  1  0.86133487  0.24926057  0.62901839  1
  Al  Al150  1  0.86768417  0.75069101  0.13475926  1
  Al  Al151  1  0.86331705  0.74957014  0.63722389  1
  Al  Al152  1  0.36046825  0.25226272  0.36090777  1
  Al  Al153  1  0.36591500  0.24907964  0.86792448  1
  Al  Al154  1  0.36756526  0.75200044  0.35951254  1
  Al  Al155  1  0.36422255  0.74866356  0.86845872  1
  Al  Al156  1  0.86944062  0.24638852  0.36730628  1
  Al  Al157  1  0.86397351  0.24849499  0.86746435  1
  Al  Al158  1  0.86401564  0.75065690  0.36064847  1
  Al  Al159  1  0.87118956  0.75341309  0.86361901  1
  Al  Al160  1  0.13086666  0.13890079  0.24593438  1
  Al  Al161  1  0.13753642  0.13833793  0.75315426  1
  Al  Al162  1  0.13666600  0.63030722  0.24461711  1
  Al  Al163  1  0.13206279  0.63388321  0.75224621  1
  Al  Al164  1  0.63731153  0.13480047  0.24953883  1
  Al  Al165  1  0.63466711  0.13595102  0.74966756  1
  Al  Al166  1  0.63119287  0.63625578  0.24902952  1
  Al  Al167  1  0.63434095  0.62590647  0.74974548  1
  Al  Al168  1  0.36355031  0.13490874  0.24731106  1
  Al  Al169  1  0.36760251  0.13711864  0.75340812  1
  Al  Al170  1  0.36380375  0.62968207  0.24937462  1
  Al  Al171  1  0.36240190  0.62972092  0.74536198  1
  Al  Al172  1  0.87170496  0.13910728  0.24967566  1
  Al  Al173  1  0.86110872  0.13754441  0.74777040  1
  Al  Al174  1  0.86348477  0.63321083  0.24561175  1
  Al  Al175  1  0.87161115  0.63579866  0.75388060  1
  Al  Al176  1  0.13363716  0.36792475  0.24730876  1
  Al  Al177  1  0.13526713  0.36872449  0.74905327  1
  Al  Al178  1  0.13826157  0.86774740  0.25064971  1
  Al  Al179  1  0.13549310  0.86246834  0.75429027  1
  Al  Al180  1  0.63555632  0.36344855  0.25281291  1
  Al  Al181  1  0.63443627  0.36771132  0.74945070  1
  Al  Al182  1  0.62684654  0.86708085  0.24637027  1
  Al  Al183  1  0.63244114  0.86564505  0.74798194  1
  Al  Al184  1  0.36132715  0.37075543  0.24845723  1
  Al  Al185  1  0.36532274  0.36754053  0.74892706  1
  Al  Al186  1  0.36886652  0.86612043  0.24529043  1
  Al  Al187  1  0.36409891  0.86416655  0.74973503  1
  Al  Al188  1  0.86793173  0.36144986  0.24563380  1
  Al  Al189  1  0.86767292  0.36080212  0.75057167  1
  Al  Al190  1  0.86865810  0.86587843  0.24893599  1
  Al  Al191  1  0.86520662  0.86561281  0.74919725  1
  Al  Al192  1  0.18332926  0.18622838  0.00248686  1
  Al  Al193  1  0.67049580  0.66927361  0.50271773  1
  Al  Al194  1  0.49673733  0.68426688  0.17689786  1
  Al  Al195  1  0.31386603  0.82566983  0.49875208  1
  Al  Al196  1  0.49961974  0.17632539  0.67395010  1
  Al  Al197  1  0.82736144  0.67258786  0.49857619  1
  Al  Al198  1  0.00066825  0.31531370  0.31265159  1
  Al  Al199  1  0.68653164  0.19090221  -0.00012331  1
  Al  Al200  1  0.19218784  0.00239835  0.19202256  1
  Al  Al201  1  0.66861003  0.00067612  0.81852706  1
  Al  Al202  1  0.81496518  0.49929915  0.68351461  1
  Al  Al203  1  0.32797521  0.67313914  0.50241315  1
  Al  Al204  1  0.49861848  0.32233241  0.18742091  1
  Al  Al205  1  0.32335724  0.32741336  0.49951192  1
  Al  Al206  1  0.81021040  0.30931354  0.00096357  1
  Al  Al207  1  0.82704103  0.00208925  0.82576129  1
  Al  Al208  1  0.17242347  0.31805454  0.49627178  1
  Al  Al209  1  0.67334321  -0.00308984  0.17302611  1
  Al  Al210  1  0.49736342  0.66925319  0.81462397  1
  Al  Al211  1  0.81825072  0.68171598  -0.00164028  1
  Al  Al212  1  0.68261743  0.49745040  0.16842270  1
  Al  Al213  1  0.31145345  -0.00047660  0.30881756  1
  Al  Al214  1  0.81186379  -0.00134906  0.66807810  1
  Al  Al215  1  0.00163875  0.81780525  0.68566926  1
  Al  Al216  1  0.00137549  0.68021334  0.31676776  1
  Al  Al217  1  0.49855861  0.81724216  0.66676960  1
  Al  Al218  1  0.82188492  0.00182077  0.31968670  1
  Al  Al219  1  0.19011564  -0.00300154  0.67013011  1
  Al  Al220  1  0.31853633  0.17196450  0.49828488  1
  Al  Al221  1  0.83197727  0.83248820  0.49847650  1
  Al  Al222  1  0.66847544  0.83233240  0.50028907  1
  Al  Al223  1  0.68240265  0.81855099  0.00008591  1
  Al  Al224  1  -0.00074777  0.17153843  0.82786999  1
  Al  Al225  1  0.67372309  0.49959454  0.32721410  1
  Al  Al226  1  0.67869840  0.31868477  0.49775235  1
  Al  Al227  1  0.00100265  0.32855539  0.82998218  1
  Al  Al228  1  0.00129142  0.82387353  0.17817239  1
  Al  Al229  1  0.49838914  0.18780030  0.32253293  1
  Al  Al230  1  0.17050987  0.00198876  0.82804783  1
  Al  Al231  1  -0.00197599  0.17864858  0.66988817  1
  Al  Al232  1  0.49929623  0.32060771  0.82616676  1
  Al  Al233  1  0.32687112  0.00082300  0.81802234  1
  Al  Al234  1  0.49916199  0.83148277  0.83003804  1
  Al  Al235  1  0.49859950  0.17112582  0.16927360  1
  Al  Al236  1  0.82763013  0.49787573  0.31593159  1
  Al  Al237  1  0.17131146  0.68184067  0.49640408  1
  Al  Al238  1  0.31705959  0.49927662  0.82560184  1
  Au  Au239  1  0.16824982  0.17825406  0.00288358  1
  Au  Au240  1  0.50029916  0.66679135  0.33505165  1
  Au  Au241  1  0.32970979  0.50059523  0.82363275  1
  Au  Au242  1  0.33059211  0.49777279  0.16295454  1
  Au  Au243  1  0.00061220  0.16175433  0.67078196  1
  Au  Au244  1  0.33922922  0.33018041  0.50108958  1
  Au  Au245  1  0.83102208  0.83276501  -0.00357236  1
  Au  Au246  1  0.00096378  0.32570108  0.84255752  1
  Au  Au247  1  0.49757420  0.83732878  0.32475460  1
  Au  Au248  1  0.49636918  0.32119451  0.83855643  1
  Au  Au249  1  0.67477406  0.49439930  0.34247996  1
  Au  Au250  1  0.16320960  0.49601327  0.17335338  1
  Au  Au251  1  0.67021801  0.67050269  -0.00306371  1
  Au  Au252  1  0.49794562  0.16387911  0.67434783  1
  Au  Au253  1  0.00626789  0.83138704  0.33669181  1
  Au  Au254  1  0.50260085  0.34097136  0.67174357  1
  Au  Au255  1  -0.00124736  0.67084630  0.66774314  1
  Au  Au256  1  0.00430939  0.34375878  0.66662755  1
  Au  Au257  1  0.16633266  0.16631887  0.49244426  1
  Au  Au258  1  0.33611176  0.82803637  0.00331457  1
  Au  Au259  1  0.66540651  -0.00077952  0.16370266  1
  Au  Au260  1  0.17390209  0.00162443  0.84032256  1
  Au  Au261  1  0.66962605  0.49563938  0.82414640  1
  Au  Au262  1  0.67297527  0.00778948  0.33745967  1
  Au  Au263  1  -0.00469675  0.65891165  0.16889329  1
  Au  Au264  1  0.34500390  0.67771533  0.50491163  1
  Au  Au265  1  0.66982487  0.32757096  0.49992834  1
  Au  Au266  1  0.49704872  0.83264801  0.65976300  1
  Au  Au267  1  0.17529908  -0.00533713  0.66312302  1
  Au  Au268  1  0.49866814  0.84002278  0.84334304  1
  Au  Au269  1  0.00356372  0.83236450  0.16907921  1
  Au  Au270  1  0.83718012  0.49968113  0.82974873  1
  Au  Au271  1  0.84166636  0.00643759  0.17122491  1
  Au  Au272  1  0.00032181  0.67990081  0.83616578  1
  Au  Au273  1  0.32355790  0.50009082  0.33288787  1
  Au  Au274  1  0.84759674  0.82625051  0.49771999  1
  Au  Au275  1  0.66636818  0.84896386  0.50048366  1
  Au  Au276  1  0.67191037  0.65357242  0.50856992  1
  Au  Au277  1  0.32048678  0.00162466  0.32274824  1
  Au  Au278  1  0.67471310  0.49510569  0.15408871  1
  Au  Au279  1  0.83550651  0.32163925  0.49807899  1
  Au  Au280  1  0.16238060  0.66822311  0.49587844  1
  Au  Au281  1  0.17829041  0.66179132  0.00041010  1
  Au  Au282  1  0.82871224  0.00078671  0.66670947  1
  Au  Au283  1  0.66778635  0.00267220  0.83552893  1
  Au  Au284  1  0.16625009  0.83129482  0.00110478  1
  Au  Au285  1  0.49721425  0.66221799  0.83012003  1
  Au  Au286  1  0.49693498  0.67571608  0.16208879  1
  Au  Au287  1  0.16477508  0.49831370  0.82276469  1
