# generated using pymatgen
data_Ca24Ti8Al207Au49
_symmetry_space_group_name_H-M   'P 1'
_cell_length_a   17.31892805
_cell_length_b   17.32037055
_cell_length_c   17.31907689
_cell_angle_alpha   89.99900880
_cell_angle_beta   90.00749977
_cell_angle_gamma   89.99877538
_symmetry_Int_Tables_number   1
_chemical_formula_structural   Ca24Ti8Al207Au49
_chemical_formula_sum   'Ca24 Ti8 Al207 Au49'
_cell_volume   5195.20779968
_cell_formula_units_Z   1
loop_
 _symmetry_equiv_pos_site_id
 _symmetry_equiv_pos_as_xyz
  1  'x, y, z'
loop_
 _atom_site_type_symbol
 _atom_site_label
 _atom_site_symmetry_multiplicity
 _atom_site_fract_x
 _atom_site_fract_y
 _atom_site_fract_z
 _atom_site_occupancy
  Ca  Ca0  1  0.25159894  -0.00200606  -0.00504231  1
  Ca  Ca1  1  0.25300446  0.00255721  0.50095533  1
  Ca  Ca2  1  0.25158016  0.50125076  -0.00259765  1
  Ca  Ca3  1  0.24623874  0.49902771  0.50299275  1
  Ca  Ca4  1  0.75934467  0.00228983  -0.00557588  1
  Ca  Ca5  1  0.75444379  0.00272071  0.50286262  1
  Ca  Ca6  1  0.75461565  0.49903406  -0.00060552  1
  Ca  Ca7  1  0.75287019  0.50200528  0.49795085  1
  Ca  Ca8  1  0.00428601  0.24844094  -0.00356359  1
  Ca  Ca9  1  0.00091136  0.25120531  0.50718471  1
  Ca  Ca10  1  0.00434645  0.74367021  0.00161353  1
  Ca  Ca11  1  0.00103896  0.74887083  0.49914705  1
  Ca  Ca12  1  0.49408272  0.25033271  0.00085929  1
  Ca  Ca13  1  0.49823060  0.24720703  0.50047646  1
  Ca  Ca14  1  0.49823718  0.74682035  0.00237048  1
  Ca  Ca15  1  0.49587542  0.75198963  0.50091903  1
  Ca  Ca16  1  -0.00012921  -0.00231262  0.25027542  1
  Ca  Ca17  1  -0.00065580  0.00415562  0.74780441  1
  Ca  Ca18  1  0.00226331  0.50226691  0.24969443  1
  Ca  Ca19  1  0.00296028  0.49899607  0.74911672  1
  Ca  Ca20  1  0.49561805  -0.00153933  0.24942528  1
  Ca  Ca21  1  0.49915113  0.00034776  0.74947673  1
  Ca  Ca22  1  0.49955178  0.49907644  0.24735556  1
  Ca  Ca23  1  0.49390389  0.49731101  0.75464836  1
  Ti  Ti24  1  0.25112020  0.25112198  0.24878916  1
  Ti  Ti25  1  0.24814915  0.25002591  0.75045012  1
  Ti  Ti26  1  0.25013898  0.75049240  0.25011686  1
  Ti  Ti27  1  0.24962424  0.75137420  0.74966059  1
  Ti  Ti28  1  0.74855815  0.25172548  0.25207968  1
  Ti  Ti29  1  0.75122140  0.24899609  0.74959199  1
  Ti  Ti30  1  0.75055303  0.74845849  0.25138613  1
  Ti  Ti31  1  0.75079674  0.75002391  0.74782677  1
  Al  Al32  1  0.08096990  0.07674926  0.07389949  1
  Al  Al33  1  0.08488192  0.08748062  0.59356707  1
  Al  Al34  1  0.09174305  0.58835560  0.08242585  1
  Al  Al35  1  0.08876457  0.57273570  0.58391226  1
  Al  Al36  1  0.57276873  0.07963544  0.07651652  1
  Al  Al37  1  0.58405463  0.07980584  0.58760313  1
  Al  Al38  1  0.58929342  0.57737719  0.08540303  1
  Al  Al39  1  0.58294994  0.58218037  0.58440612  1
  Al  Al40  1  0.40379258  0.41357015  0.07920684  1
  Al  Al41  1  0.40462581  0.42060688  0.58482160  1
  Al  Al42  1  0.39884552  0.91973989  0.08791766  1
  Al  Al43  1  0.40920198  0.91412996  0.57913772  1
  Al  Al44  1  0.91909084  0.42456968  0.08181272  1
  Al  Al45  1  0.92978275  0.41162333  0.58771765  1
  Al  Al46  1  0.92397708  0.91335218  0.07810072  1
  Al  Al47  1  0.91134872  0.92573964  0.58696588  1
  Al  Al48  1  0.42120211  0.08717274  0.41207006  1
  Al  Al49  1  0.41130000  0.09738675  0.91838424  1
  Al  Al50  1  0.41196921  0.57910965  0.42199580  1
  Al  Al51  1  0.41083617  0.57612208  0.91543961  1
  Al  Al52  1  0.91453006  0.08935879  0.42611107  1
  Al  Al53  1  0.91460798  0.09119016  0.90692599  1
  Al  Al54  1  0.92010501  0.58418972  0.40493364  1
  Al  Al55  1  0.91097950  0.58383270  0.91961974  1
  Al  Al56  1  0.08778292  0.41522359  0.42895562  1
  Al  Al57  1  0.08705447  0.41769897  0.90956189  1
  Al  Al58  1  0.07544061  0.91240654  0.41981596  1
  Al  Al59  1  0.09523237  0.91134633  0.91871341  1
  Al  Al60  1  0.58158929  0.41709597  0.41334653  1
  Al  Al61  1  0.57649217  0.42158076  0.91005536  1
  Al  Al62  1  0.58748747  0.91493236  0.42666874  1
  Al  Al63  1  0.57355448  0.92941127  0.92207370  1
  Al  Al64  1  0.07595197  0.08564293  0.42753308  1
  Al  Al65  1  0.07799263  0.08786225  0.90923235  1
  Al  Al66  1  0.07707546  0.58700319  0.41779114  1
  Al  Al67  1  0.09405742  0.58364557  0.91932672  1
  Al  Al68  1  0.57834048  0.08974771  0.41392165  1
  Al  Al69  1  0.57108537  0.09094350  0.90749306  1
  Al  Al70  1  0.58614334  0.57794876  0.41893819  1
  Al  Al71  1  0.58485161  0.57843461  0.91289275  1
  Al  Al72  1  0.41331041  0.41466603  0.41885113  1
  Al  Al73  1  0.40718325  0.41060079  0.91562476  1
  Al  Al74  1  0.40988285  0.91511314  0.42111078  1
  Al  Al75  1  0.40873547  0.91479403  0.92747884  1
  Al  Al76  1  0.91841685  0.42274407  0.41712332  1
  Al  Al77  1  0.92387877  0.41892797  0.91019656  1
  Al  Al78  1  0.91975023  0.91417282  0.41690467  1
  Al  Al79  1  0.91592040  0.92351038  0.91814610  1
  Al  Al80  1  0.08785108  0.42564951  0.08110019  1
  Al  Al81  1  0.09188480  0.40971265  0.59111894  1
  Al  Al82  1  0.09057860  0.90308320  0.07748941  1
  Al  Al83  1  0.09015646  0.92551922  0.58690375  1
  Al  Al84  1  0.57956546  0.42458177  0.08492522  1
  Al  Al85  1  0.58348524  0.42179104  0.58027016  1
  Al  Al86  1  0.57159512  0.92170390  0.08023606  1
  Al  Al87  1  0.59362769  0.91703416  0.58358242  1
  Al  Al88  1  0.40347832  0.08392546  0.08227680  1
  Al  Al89  1  0.42233911  0.07990685  0.58412553  1
  Al  Al90  1  0.40648293  0.57627448  0.08268299  1
  Al  Al91  1  0.40579766  0.57991930  0.58951645  1
  Al  Al92  1  0.91299510  0.08877923  0.06918341  1
  Al  Al93  1  0.91202361  0.08999716  0.58993447  1
  Al  Al94  1  0.91207431  0.58994332  0.08208490  1
  Al  Al95  1  0.92715174  0.57414663  0.57497782  1
  Al  Al96  1  0.25575303  0.13459409  0.13169116  1
  Al  Al97  1  0.24627678  0.12984635  0.63878341  1
  Al  Al98  1  0.24853723  0.63918682  0.13196399  1
  Al  Al99  1  0.25084386  0.63516046  0.63504232  1
  Al  Al100  1  0.74958869  0.13721235  0.13637394  1
  Al  Al101  1  0.75480818  0.13640551  0.62940179  1
  Al  Al102  1  0.75259390  0.63357143  0.13751640  1
  Al  Al103  1  0.74899825  0.63652714  0.63271031  1
  Al  Al104  1  0.25573124  0.36576427  0.12985334  1
  Al  Al105  1  0.24414331  0.36693947  0.63520100  1
  Al  Al106  1  0.25186476  0.86098752  0.12977221  1
  Al  Al107  1  0.25067987  0.87045152  0.63485114  1
  Al  Al108  1  0.74906021  0.37153342  0.13926611  1
  Al  Al109  1  0.74931584  0.36248638  0.63504043  1
  Al  Al110  1  0.74997242  0.86102933  0.13828852  1
  Al  Al111  1  0.75051833  0.86183150  0.62863636  1
  Al  Al112  1  0.25156970  0.13695455  0.36532008  1
  Al  Al113  1  0.25171968  0.12870405  0.86460876  1
  Al  Al114  1  0.25492975  0.63672991  0.36395188  1
  Al  Al115  1  0.24927792  0.62980277  0.86473704  1
  Al  Al116  1  0.74762715  0.13812487  0.37250558  1
  Al  Al117  1  0.75534907  0.13527798  0.86440484  1
  Al  Al118  1  0.74794670  0.63449398  0.36637976  1
  Al  Al119  1  0.75000386  0.63368442  0.86253808  1
  Al  Al120  1  0.25123727  0.36399898  0.36258331  1
  Al  Al121  1  0.24939169  0.36810135  0.86790215  1
  Al  Al122  1  0.25460231  0.86616097  0.36753812  1
  Al  Al123  1  0.24998444  0.87018245  0.86425535  1
  Al  Al124  1  0.74628134  0.36501882  0.36451324  1
  Al  Al125  1  0.75211277  0.36046732  0.86501699  1
  Al  Al126  1  0.75010675  0.86358261  0.36916205  1
  Al  Al127  1  0.75182327  0.86355498  0.86142194  1
  Al  Al128  1  0.13903463  0.25499007  0.13089268  1
  Al  Al129  1  0.13410020  0.25418126  0.63597286  1
  Al  Al130  1  0.13387538  0.75015704  0.13256840  1
  Al  Al131  1  0.13806627  0.75218873  0.63742034  1
  Al  Al132  1  0.63121566  0.25293294  0.13697941  1
  Al  Al133  1  0.63725208  0.24666222  0.63080383  1
  Al  Al134  1  0.62832136  0.74411010  0.13949951  1
  Al  Al135  1  0.62938127  0.75210653  0.63567402  1
  Al  Al136  1  0.13596281  0.25424071  0.36797203  1
  Al  Al137  1  0.13668712  0.25000865  0.86425232  1
  Al  Al138  1  0.13609945  0.74867878  0.36578611  1
  Al  Al139  1  0.13920837  0.75068199  0.86578502  1
  Al  Al140  1  0.63002140  0.24951331  0.36690104  1
  Al  Al141  1  0.63406577  0.24565707  0.86573564  1
  Al  Al142  1  0.63338522  0.75352693  0.36480536  1
  Al  Al143  1  0.63530298  0.74721157  0.86355982  1
  Al  Al144  1  0.36547408  0.24941139  0.13067955  1
  Al  Al145  1  0.35930472  0.25056176  0.63898265  1
  Al  Al146  1  0.36770110  0.75404084  0.13240531  1
  Al  Al147  1  0.36567772  0.75183767  0.63364675  1
  Al  Al148  1  0.86358073  0.24948020  0.13514273  1
  Al  Al149  1  0.86656073  0.24899997  0.63278445  1
  Al  Al150  1  0.86991171  0.74683739  0.13585330  1
  Al  Al151  1  0.86450813  0.75011392  0.62842203  1
  Al  Al152  1  0.36882302  0.24988528  0.36222002  1
  Al  Al153  1  0.35944857  0.24802427  0.86903265  1
  Al  Al154  1  0.36583485  0.75185294  0.36749652  1
  Al  Al155  1  0.36003753  0.75423053  0.86528796  1
  Al  Al156  1  0.86368388  0.25120220  0.36898618  1
  Al  Al157  1  0.87039991  0.24355370  0.86488896  1
  Al  Al158  1  0.86324618  0.74760151  0.37002875  1
  Al  Al159  1  0.86408957  0.74681218  0.86473052  1
  Al  Al160  1  0.13780315  0.13760306  0.24719116  1
  Al  Al161  1  0.13553834  0.13327103  0.75195610  1
  Al  Al162  1  0.13238909  0.63761115  0.24849753  1
  Al  Al163  1  0.13908136  0.62965029  0.75089600  1
  Al  Al164  1  0.63521486  0.13401367  0.25370988  1
  Al  Al165  1  0.63951507  0.13525364  0.74891889  1
  Al  Al166  1  0.63606765  0.62892611  0.25075626  1
  Al  Al167  1  0.63373670  0.63617582  0.74887853  1
  Al  Al168  1  0.36319918  0.13189089  0.25080459  1
  Al  Al169  1  0.36386803  0.13165827  0.75320870  1
  Al  Al170  1  0.36526286  0.63729653  0.24284806  1
  Al  Al171  1  0.36251791  0.63697648  0.75042933  1
  Al  Al172  1  0.86260079  0.13774814  0.25261986  1
  Al  Al173  1  0.86572208  0.13433681  0.74648232  1
  Al  Al174  1  0.87187766  0.63667866  0.24912001  1
  Al  Al175  1  0.86506916  0.63586786  0.74992522  1
  Al  Al176  1  0.13519862  0.36484355  0.24793677  1
  Al  Al177  1  0.13727503  0.37440571  0.75081769  1
  Al  Al178  1  0.13757004  0.86370815  0.24855509  1
  Al  Al179  1  0.13710551  0.87096836  0.75147270  1
  Al  Al180  1  0.62939820  0.36649414  0.25207150  1
  Al  Al181  1  0.63556231  0.36331078  0.75530754  1
  Al  Al182  1  0.62983465  0.86289827  0.24826381  1
  Al  Al183  1  0.63458614  0.86559150  0.74565801  1
  Al  Al184  1  0.36896497  0.36203564  0.24616967  1
  Al  Al185  1  0.36102040  0.36495648  0.75571276  1
  Al  Al186  1  0.36466428  0.86769904  0.24873518  1
  Al  Al187  1  0.36361860  0.87254168  0.74627120  1
  Al  Al188  1  0.87122608  0.36244188  0.24842468  1
  Al  Al189  1  0.86677520  0.36239619  0.74945228  1
  Al  Al190  1  0.86446068  0.86198776  0.25018966  1
  Al  Al191  1  0.86465871  0.86381163  0.74554539  1
  Al  Al192  1  0.00064173  0.17813833  0.16711133  1
  Al  Al193  1  0.49749901  0.17617863  0.18333256  1
  Al  Al194  1  0.18674618  0.17907842  -0.00137092  1
  Al  Al195  1  0.81983978  0.49955630  0.31457850  1
  Al  Al196  1  -0.00075095  0.81146669  0.31981283  1
  Al  Al197  1  0.67197417  0.83144135  -0.00043084  1
  Al  Al198  1  0.81671258  0.49813508  0.82463070  1
  Al  Al199  1  0.19012545  0.50165891  0.17640909  1
  Al  Al200  1  0.49694728  0.31265007  0.82824415  1
  Al  Al201  1  0.18290452  0.82803531  0.50085712  1
  Al  Al202  1  0.82359531  -0.00060529  0.81129848  1
  Al  Al203  1  -0.00051293  0.82294335  0.82482768  1
  Al  Al204  1  0.81991850  0.00011789  0.16854942  1
  Al  Al205  1  0.67063356  0.00053287  0.82741686  1
  Al  Al206  1  0.31414990  0.68500438  -0.00197823  1
  Al  Al207  1  0.49711187  0.67174914  0.82439503  1
  Al  Al208  1  0.82373265  0.32847042  0.50204339  1
  Al  Al209  1  0.00223843  0.30964439  0.80553080  1
  Al  Al210  1  0.49844404  0.82980591  0.82615806  1
  Al  Al211  1  0.18847656  -0.00140253  0.16950993  1
  Al  Al212  1  0.17965082  0.67203787  0.50019093  1
  Al  Al213  1  0.82908372  0.31494685  -0.00041500  1
  Al  Al214  1  0.69224849  -0.00006960  0.67667490  1
  Al  Al215  1  0.68238840  0.17037037  -0.00079085  1
  Al  Al216  1  0.30989106  0.32362382  0.50034523  1
  Al  Al217  1  0.00111759  0.82833297  0.66961330  1
  Al  Al218  1  0.50003439  0.17357605  0.68727175  1
  Al  Al219  1  0.66930000  0.33005162  -0.00124731  1
  Al  Al220  1  0.16968925  0.50176780  0.32927879  1
  Al  Al221  1  0.50042549  0.32847239  0.67815974  1
  Al  Al222  1  0.82889043  0.00199882  0.32652613  1
  Al  Al223  1  0.33098569  0.17323442  0.50112354  1
  Al  Al224  1  0.49965860  0.67606080  0.32149363  1
  Al  Al225  1  0.17481040  0.00219074  0.32994012  1
  Al  Al226  1  0.30566570  0.49928908  0.69375263  1
  Al  Al227  1  0.17706437  0.18602674  0.50218564  1
  Al  Al228  1  0.67431846  0.49909002  0.69181620  1
  Al  Al229  1  0.68509997  0.67156484  -0.00042005  1
  Al  Al230  1  0.00252022  0.67138999  0.67195814  1
  Al  Al231  1  -0.00055588  0.18058879  0.32611889  1
  Al  Al232  1  0.67802619  0.68676765  0.50055392  1
  Al  Al233  1  0.83200892  0.49907864  0.67224339  1
  Al  Al234  1  0.32738546  0.49943698  0.30744421  1
  Al  Al235  1  0.67110571  -0.00151568  0.32494042  1
  Al  Al236  1  0.00137622  0.18861873  0.69089611  1
  Al  Al237  1  0.00259369  0.66799933  0.82781097  1
  Al  Al238  1  0.82874773  0.81411301  0.00008298  1
  Au  Au239  1  0.33734595  0.00144149  0.32677152  1
  Au  Au240  1  0.16314177  0.00225197  0.82357611  1
  Au  Au241  1  0.67013687  0.16457261  0.50237644  1
  Au  Au242  1  0.84176104  0.32608354  -0.00245080  1
  Au  Au243  1  -0.00170479  0.16199540  0.17240435  1
  Au  Au244  1  0.82620141  0.83962580  0.50069351  1
  Au  Au245  1  0.67929166  0.49910008  0.67511942  1
  Au  Au246  1  0.17076248  0.83207850  0.50045465  1
  Au  Au247  1  0.18043407  0.50168364  0.82265450  1
  Au  Au248  1  0.65940158  -0.00061576  0.17180220  1
  Au  Au249  1  0.49575857  0.16307337  0.17288460  1
  Au  Au250  1  0.17236414  0.17400299  0.50214665  1
  Au  Au251  1  0.00467338  0.33036784  0.34088334  1
  Au  Au252  1  0.49833361  0.66078529  0.16199461  1
  Au  Au253  1  0.83607445  0.32671578  0.50380779  1
  Au  Au254  1  0.67392792  0.00023277  0.33730277  1
  Au  Au255  1  0.68042132  0.84610064  -0.00042967  1
  Au  Au256  1  0.83630156  -0.00003576  0.16428612  1
  Au  Au257  1  0.00272947  0.66418281  0.17363243  1
  Au  Au258  1  0.32241978  0.49872146  0.32370327  1
  Au  Au259  1  0.17831036  0.33949624  0.00014148  1
  Au  Au260  1  0.66917461  0.33150483  0.49794311  1
  Au  Au261  1  0.17267210  0.16939353  -0.00366243  1
  Au  Au262  1  0.49499906  0.32651666  0.66283595  1
  Au  Au263  1  0.84024292  0.66508729  0.49871695  1
  Au  Au264  1  0.49846177  0.32227180  0.33818642  1
  Au  Au265  1  0.32517761  0.67199100  -0.00280782  1
  Au  Au266  1  0.50001725  0.83247580  0.65925307  1
  Au  Au267  1  0.17836245  -0.00418122  0.15616525  1
  Au  Au268  1  0.15807013  0.00272919  0.33230594  1
  Au  Au269  1  0.67110492  0.49809586  0.32442791  1
  Au  Au270  1  0.00257974  0.32137463  0.81806741  1
  Au  Au271  1  0.49595487  0.65968806  0.67509429  1
  Au  Au272  1  0.82501947  0.50248870  0.16679632  1
  Au  Au273  1  0.66564596  0.34133989  0.00293407  1
  Au  Au274  1  0.49775685  0.82436430  0.84239075  1
  Au  Au275  1  0.66315840  0.67826339  0.50061572  1
  Au  Au276  1  0.00014600  0.83289288  0.83506055  1
  Au  Au277  1  0.49908890  0.66421916  0.33355606  1
  Au  Au278  1  0.32440197  0.00194556  0.66300635  1
  Au  Au279  1  0.67993848  0.65603869  -0.00137467  1
  Au  Au280  1  0.33379758  0.00195596  0.83541595  1
  Au  Au281  1  0.00479962  0.34156548  0.16959532  1
  Au  Au282  1  0.67234843  0.15690993  -0.00300178  1
  Au  Au283  1  0.00241615  0.83113216  0.17330452  1
  Au  Au284  1  0.50062574  0.83604417  0.33787574  1
  Au  Au285  1  0.49277741  0.83427515  0.16340354  1
  Au  Au286  1  0.49636737  0.34012423  0.16887003  1
  Au  Au287  1  0.32938903  0.67373156  0.50244665  1
