# generated using pymatgen
data_Ca24Ti8Al207Au49
_symmetry_space_group_name_H-M   'P 1'
_cell_length_a   17.31863543
_cell_length_b   17.31975297
_cell_length_c   17.31961715
_cell_angle_alpha   90.00039662
_cell_angle_beta   90.00370413
_cell_angle_gamma   89.99831178
_symmetry_Int_Tables_number   1
_chemical_formula_structural   Ca24Ti8Al207Au49
_chemical_formula_sum   'Ca24 Ti8 Al207 Au49'
_cell_volume   5195.09687174
_cell_formula_units_Z   1
loop_
 _symmetry_equiv_pos_site_id
 _symmetry_equiv_pos_as_xyz
  1  'x, y, z'
loop_
 _atom_site_type_symbol
 _atom_site_label
 _atom_site_symmetry_multiplicity
 _atom_site_fract_x
 _atom_site_fract_y
 _atom_site_fract_z
 _atom_site_occupancy
  Ca  Ca0  1  0.24964172  -0.00440891  0.00082010  1
  Ca  Ca1  1  0.24488229  0.00591358  0.50126686  1
  Ca  Ca2  1  0.25223803  0.50202752  0.00250437  1
  Ca  Ca3  1  0.25093442  0.49281833  0.49877974  1
  Ca  Ca4  1  0.75211409  -0.00089601  -0.00176172  1
  Ca  Ca5  1  0.74894375  -0.00337120  0.50244125  1
  Ca  Ca6  1  0.74685209  0.50112813  -0.00223508  1
  Ca  Ca7  1  0.74764136  0.50118792  0.50166032  1
  Ca  Ca8  1  -0.00083530  0.25221686  -0.00171948  1
  Ca  Ca9  1  -0.00087871  0.25263728  0.49922495  1
  Ca  Ca10  1  -0.00102546  0.75148625  -0.00031472  1
  Ca  Ca11  1  -0.00497550  0.74487793  0.49912488  1
  Ca  Ca12  1  0.49926334  0.25886571  -0.00207429  1
  Ca  Ca13  1  0.50144873  0.25235944  0.50122393  1
  Ca  Ca14  1  0.50124130  0.74576836  -0.00118460  1
  Ca  Ca15  1  0.50341940  0.74478358  0.50206815  1
  Ca  Ca16  1  -0.00036630  0.00325174  0.25275970  1
  Ca  Ca17  1  -0.00066771  0.00258686  0.75576381  1
  Ca  Ca18  1  -0.00078881  0.49690839  0.24824076  1
  Ca  Ca19  1  -0.00651626  0.49753789  0.74808004  1
  Ca  Ca20  1  0.50095495  -0.00038791  0.25138648  1
  Ca  Ca21  1  0.50332473  -0.00356310  0.75363671  1
  Ca  Ca22  1  0.49863104  0.49749545  0.25209139  1
  Ca  Ca23  1  0.50489873  0.50412453  0.75279245  1
  Ti  Ti24  1  0.25109428  0.25041847  0.24987747  1
  Ti  Ti25  1  0.24899756  0.25177871  0.75135053  1
  Ti  Ti26  1  0.25153415  0.74994829  0.24901343  1
  Ti  Ti27  1  0.25135902  0.74967938  0.75095063  1
  Ti  Ti28  1  0.75065259  0.25097698  0.24940511  1
  Ti  Ti29  1  0.75043817  0.25097220  0.75132920  1
  Ti  Ti30  1  0.74992283  0.74908561  0.24847779  1
  Ti  Ti31  1  0.74929788  0.74901683  0.75124694  1
  Al  Al32  1  0.07639006  0.08159750  0.07847422  1
  Al  Al33  1  0.08635929  0.08229901  0.57949858  1
  Al  Al34  1  0.09119496  0.58346226  0.08790293  1
  Al  Al35  1  0.07079669  0.57463106  0.57525342  1
  Al  Al36  1  0.57930684  0.07899019  0.07532746  1
  Al  Al37  1  0.59895484  0.08078058  0.58436827  1
  Al  Al38  1  0.58963760  0.57931835  0.08417760  1
  Al  Al39  1  0.59543070  0.58823608  0.59240805  1
  Al  Al40  1  0.41423104  0.42116247  0.08511764  1
  Al  Al41  1  0.41144186  0.41447275  0.57433324  1
  Al  Al42  1  0.40624568  0.91327157  0.07711300  1
  Al  Al43  1  0.42838865  0.92158267  0.58280434  1
  Al  Al44  1  0.91570930  0.41917771  0.07849720  1
  Al  Al45  1  0.91281885  0.41859073  0.59683529  1
  Al  Al46  1  0.92241290  0.91870423  0.07456543  1
  Al  Al47  1  0.91274100  0.91893659  0.58128744  1
  Al  Al48  1  0.41053978  0.08233230  0.41166538  1
  Al  Al49  1  0.41741986  0.07945750  0.91766989  1
  Al  Al50  1  0.42587811  0.57743301  0.41062717  1
  Al  Al51  1  0.41497566  0.58251852  0.90609021  1
  Al  Al52  1  0.92181395  0.09389301  0.41327952  1
  Al  Al53  1  0.90360160  0.08550678  0.91613982  1
  Al  Al54  1  0.90788847  0.58836076  0.42676598  1
  Al  Al55  1  0.90651022  0.57541511  0.91256544  1
  Al  Al56  1  0.08903297  0.40827864  0.42045996  1
  Al  Al57  1  0.08254932  0.41801337  0.91696807  1
  Al  Al58  1  0.08354030  0.92565155  0.42138224  1
  Al  Al59  1  0.09946744  0.91543062  0.91566622  1
  Al  Al60  1  0.57594453  0.41331168  0.41686361  1
  Al  Al61  1  0.57995135  0.41517130  0.91123117  1
  Al  Al62  1  0.57989940  0.91697895  0.42688949  1
  Al  Al63  1  0.58984533  0.90863402  0.91461204  1
  Al  Al64  1  0.08326814  0.09158668  0.41147236  1
  Al  Al65  1  0.08554433  0.07574000  0.91353621  1
  Al  Al66  1  0.08038413  0.57740358  0.41676749  1
  Al  Al67  1  0.08497106  0.57774429  0.92389099  1
  Al  Al68  1  0.58774191  0.09246483  0.42570140  1
  Al  Al69  1  0.58415930  0.08089588  0.91418794  1
  Al  Al70  1  0.58601219  0.59016908  0.42332999  1
  Al  Al71  1  0.58074815  0.58715905  0.90781089  1
  Al  Al72  1  0.41340036  0.40897245  0.41243685  1
  Al  Al73  1  0.41602273  0.41826136  0.90835176  1
  Al  Al74  1  0.41422413  0.92515707  0.40763358  1
  Al  Al75  1  0.41186880  0.90935563  0.91728919  1
  Al  Al76  1  0.92649170  0.41973603  0.42291673  1
  Al  Al77  1  0.90694576  0.41703599  0.90792894  1
  Al  Al78  1  0.91570593  0.91769125  0.42223905  1
  Al  Al79  1  0.90954616  0.92539045  0.91412025  1
  Al  Al80  1  0.09108904  0.42382030  0.08840305  1
  Al  Al81  1  0.07591834  0.40530666  0.58287580  1
  Al  Al82  1  0.08720915  0.90955819  0.07443235  1
  Al  Al83  1  0.08526986  0.92255538  0.58117969  1
  Al  Al84  1  0.58786694  0.42176298  0.08255991  1
  Al  Al85  1  0.59492436  0.42633628  0.58706133  1
  Al  Al86  1  0.58807900  0.91202827  0.07222100  1
  Al  Al87  1  0.59124328  0.91813090  0.58970849  1
  Al  Al88  1  0.41451853  0.07715813  0.07757620  1
  Al  Al89  1  0.42143176  0.07838572  0.57283131  1
  Al  Al90  1  0.41251690  0.57796143  0.08506924  1
  Al  Al91  1  0.43179389  0.58554977  0.59013660  1
  Al  Al92  1  0.91294897  0.09252326  0.07588636  1
  Al  Al93  1  0.91402808  0.08295720  0.58283935  1
  Al  Al94  1  0.91896366  0.58173744  0.08078981  1
  Al  Al95  1  0.89762461  0.58103726  0.58865569  1
  Al  Al96  1  0.25060456  0.13364579  0.13662478  1
  Al  Al97  1  0.24879276  0.13855209  0.63789853  1
  Al  Al98  1  0.25161653  0.63320699  0.13528199  1
  Al  Al99  1  0.24823983  0.63409355  0.63575328  1
  Al  Al100  1  0.75438752  0.13315954  0.13479267  1
  Al  Al101  1  0.74753329  0.13308756  0.63640417  1
  Al  Al102  1  0.74827979  0.63149840  0.13089120  1
  Al  Al103  1  0.74966341  0.63173582  0.63455995  1
  Al  Al104  1  0.24963247  0.36976395  0.13733260  1
  Al  Al105  1  0.25012626  0.36640901  0.63564933  1
  Al  Al106  1  0.25223362  0.86496231  0.13058140  1
  Al  Al107  1  0.24974134  0.86410761  0.63921699  1
  Al  Al108  1  0.75120925  0.37060736  0.13626279  1
  Al  Al109  1  0.75145032  0.36987843  0.63797306  1
  Al  Al110  1  0.74945348  0.86322666  0.12851282  1
  Al  Al111  1  0.74890776  0.86409334  0.63578981  1
  Al  Al112  1  0.25388741  0.13807127  0.36491089  1
  Al  Al113  1  0.24535518  0.13768558  0.86476383  1
  Al  Al114  1  0.25091533  0.63429197  0.36579311  1
  Al  Al115  1  0.25433989  0.63505900  0.86448267  1
  Al  Al116  1  0.74546643  0.13165637  0.36355687  1
  Al  Al117  1  0.75562368  0.13380376  0.86583347  1
  Al  Al118  1  0.74786426  0.63249021  0.36986310  1
  Al  Al119  1  0.74678913  0.62985890  0.86861574  1
  Al  Al120  1  0.25047878  0.36315292  0.36856416  1
  Al  Al121  1  0.24879128  0.36429387  0.86468747  1
  Al  Al122  1  0.25363049  0.86321538  0.36276974  1
  Al  Al123  1  0.25090468  0.86280015  0.86918659  1
  Al  Al124  1  0.75037537  0.36660104  0.36570553  1
  Al  Al125  1  0.75303882  0.37220771  0.86150903  1
  Al  Al126  1  0.74822204  0.86619121  0.36475438  1
  Al  Al127  1  0.74750752  0.86315981  0.86960637  1
  Al  Al128  1  0.13864162  0.24892801  0.12806381  1
  Al  Al129  1  0.13450018  0.25422785  0.63492554  1
  Al  Al130  1  0.13742885  0.75086772  0.13457522  1
  Al  Al131  1  0.13516851  0.75104480  0.63825712  1
  Al  Al132  1  0.63409502  0.25222548  0.13568888  1
  Al  Al133  1  0.63640671  0.25111008  0.63630740  1
  Al  Al134  1  0.63500195  0.74801273  0.12970770  1
  Al  Al135  1  0.63285007  0.74112577  0.63598661  1
  Al  Al136  1  0.13669144  0.25097697  0.36487772  1
  Al  Al137  1  0.12963683  0.25198426  0.86886188  1
  Al  Al138  1  0.13579715  0.74521274  0.36371781  1
  Al  Al139  1  0.13512496  0.75532273  0.86761485  1
  Al  Al140  1  0.63544648  0.25073041  0.36502303  1
  Al  Al141  1  0.63386471  0.25049252  0.86268049  1
  Al  Al142  1  0.63511300  0.74578736  0.36531246  1
  Al  Al143  1  0.63356900  0.74575681  0.86393763  1
  Al  Al144  1  0.36449087  0.25072328  0.13655223  1
  Al  Al145  1  0.36620955  0.25859255  0.63653643  1
  Al  Al146  1  0.36705028  0.75482547  0.13627438  1
  Al  Al147  1  0.37049577  0.73961136  0.63753791  1
  Al  Al148  1  0.86120539  0.25103399  0.13015526  1
  Al  Al149  1  0.86436841  0.25093156  0.63756043  1
  Al  Al150  1  0.86214556  0.74818233  0.12985746  1
  Al  Al151  1  0.86137154  0.74800791  0.63808423  1
  Al  Al152  1  0.36842717  0.25793857  0.36631206  1
  Al  Al153  1  0.36756058  0.25190783  0.86495652  1
  Al  Al154  1  0.36860386  0.74250157  0.36173341  1
  Al  Al155  1  0.36883521  0.75124251  0.86391767  1
  Al  Al156  1  0.86389415  0.24712313  0.36339374  1
  Al  Al157  1  0.86670714  0.25343226  0.86733690  1
  Al  Al158  1  0.86212034  0.74395477  0.36359281  1
  Al  Al159  1  0.86029500  0.74900579  0.87071367  1
  Al  Al160  1  0.13389421  0.13797779  0.25386467  1
  Al  Al161  1  0.13203121  0.13696911  0.75308190  1
  Al  Al162  1  0.13678353  0.63414002  0.24671250  1
  Al  Al163  1  0.13757309  0.63640591  0.75403084  1
  Al  Al164  1  0.63398455  0.13452277  0.24864077  1
  Al  Al165  1  0.63686207  0.13371839  0.75240663  1
  Al  Al166  1  0.63725938  0.63483663  0.24936991  1
  Al  Al167  1  0.63950987  0.62768157  0.74999891  1
  Al  Al168  1  0.36520737  0.13195895  0.25283825  1
  Al  Al169  1  0.36576964  0.13894214  0.75221998  1
  Al  Al170  1  0.36412586  0.63375803  0.24616531  1
  Al  Al171  1  0.36907385  0.63339299  0.75544458  1
  Al  Al172  1  0.86255266  0.13170936  0.25266378  1
  Al  Al173  1  0.86728066  0.13433513  0.75251726  1
  Al  Al174  1  0.85833865  0.62861487  0.24908908  1
  Al  Al175  1  0.85847265  0.62998635  0.75237815  1
  Al  Al176  1  0.13644059  0.36189766  0.24770328  1
  Al  Al177  1  0.12910002  0.36226922  0.75069945  1
  Al  Al178  1  0.13895102  0.86167914  0.25095007  1
  Al  Al179  1  0.13354301  0.86639627  0.75593188  1
  Al  Al180  1  0.63436428  0.36525602  0.25128837  1
  Al  Al181  1  0.63771777  0.37047121  0.75136586  1
  Al  Al182  1  0.63400470  0.86219094  0.24950421  1
  Al  Al183  1  0.63586639  0.86436931  0.74941336  1
  Al  Al184  1  0.36659186  0.36475400  0.24923451  1
  Al  Al185  1  0.36859156  0.36756908  0.75827301  1
  Al  Al186  1  0.36587381  0.86912069  0.25094592  1
  Al  Al187  1  0.36764593  0.86343258  0.74977062  1
  Al  Al188  1  0.86334383  0.36820231  0.25066553  1
  Al  Al189  1  0.86798879  0.36544688  0.74839690  1
  Al  Al190  1  0.86009926  0.86801790  0.25048449  1
  Al  Al191  1  0.86551922  0.86500361  0.75439586  1
  Al  Al192  1  0.68770287  -0.00090509  0.81666782  1
  Al  Al193  1  -0.00228581  0.17438670  0.18711189  1
  Al  Al194  1  0.32688210  0.66382911  0.49894470  1
  Al  Al195  1  0.32974759  0.68665334  0.00102741  1
  Al  Al196  1  0.17325610  0.18657316  0.50025165  1
  Al  Al197  1  0.17502161  0.00148835  0.68512797  1
  Al  Al198  1  0.50188137  0.82097092  0.68224050  1
  Al  Al199  1  0.50028230  0.67242156  0.18254527  1
  Al  Al200  1  0.17373676  0.49738453  0.31275613  1
  Al  Al201  1  -0.00017661  0.82202055  0.32823562  1
  Al  Al202  1  0.32841698  0.49908722  0.31559008  1
  Al  Al203  1  -0.00064587  0.67316722  0.83135650  1
  Al  Al204  1  0.18480920  0.50041703  0.82710662  1
  Al  Al205  1  0.68094649  0.32762494  -0.00176962  1
  Al  Al206  1  0.81343375  -0.00002549  0.68599924  1
  Al  Al207  1  0.18427596  0.00128752  0.32866662  1
  Al  Al208  1  0.30917970  0.00010163  0.82853569  1
  Al  Al209  1  0.67356552  0.50028709  0.32308806  1
  Al  Al210  1  0.82782344  0.33018944  0.50219668  1
  Al  Al211  1  0.17774277  -0.00104922  0.17324101  1
  Al  Al212  1  0.82476663  0.81452963  0.49964205  1
  Al  Al213  1  -0.00116262  0.82536043  0.17178139  1
  Al  Al214  1  0.16974989  0.49722328  0.67068787  1
  Al  Al215  1  0.67894302  -0.00210420  0.17740150  1
  Al  Al216  1  0.49961756  0.81581522  0.32300830  1
  Al  Al217  1  -0.00004555  0.33053478  0.17276686  1
  Al  Al218  1  0.33145452  0.50029052  0.68766238  1
  Al  Al219  1  0.32790190  0.00191577  0.67211735  1
  Al  Al220  1  0.32954503  0.18847292  0.50223696  1
  Al  Al221  1  -0.00449497  0.67009469  0.67296108  1
  Al  Al222  1  0.50280678  0.33214636  0.68085100  1
  Al  Al223  1  0.32322576  0.32956545  -0.00031177  1
  Al  Al224  1  0.50000947  0.18507516  0.32310300  1
  Al  Al225  1  0.67379921  0.32022525  0.50054870  1
  Al  Al226  1  0.80853284  0.17349430  0.49975831  1
  Al  Al227  1  0.50152925  0.32570314  0.17367800  1
  Al  Al228  1  -0.00119208  0.82633946  0.67330186  1
  Al  Al229  1  0.50236528  0.16908056  0.67660366  1
  Al  Al230  1  0.17242039  0.81998587  0.49900205  1
  Al  Al231  1  0.17427791  0.68368750  -0.00035690  1
  Al  Al232  1  0.32230750  0.17506375  -0.00065402  1
  Al  Al233  1  0.68774657  0.16962752  -0.00040395  1
  Al  Al234  1  -0.00110419  0.67247944  0.17811311  1
  Al  Al235  1  0.67384146  0.81510034  0.50180912  1
  Al  Al236  1  -0.00018744  0.31530006  0.32632179  1
  Al  Al237  1  0.00105854  0.18509858  0.67577038  1
  Al  Al238  1  0.32926019  0.83148883  0.50136712  1
  Au  Au239  1  0.67147539  0.17568220  -0.00072167  1
  Au  Au240  1  0.32339199  0.84736711  0.50094302  1
  Au  Au241  1  0.33885316  0.66723688  0.49710372  1
  Au  Au242  1  0.00299524  0.82981598  0.66169575  1
  Au  Au243  1  0.83024163  0.66757012  0.00005470  1
  Au  Au244  1  0.83141569  0.32800372  -0.00069871  1
  Au  Au245  1  0.33476051  0.50212914  0.67178946  1
  Au  Au246  1  0.17400187  0.15995373  -0.00265490  1
  Au  Au247  1  0.65772925  0.50112178  0.32781846  1
  Au  Au248  1  0.50272973  0.34277283  0.66836223  1
  Au  Au249  1  0.66263442  0.67355016  -0.00257899  1
  Au  Au250  1  0.33895428  -0.00033349  0.17814732  1
  Au  Au251  1  0.32572214  -0.00074623  0.82440830  1
  Au  Au252  1  0.66888362  -0.00016095  0.34402699  1
  Au  Au253  1  -0.00547690  0.65856156  0.32713860  1
  Au  Au254  1  0.83654245  0.00218612  0.33438473  1
  Au  Au255  1  0.67362734  -0.00219226  0.82641874  1
  Au  Au256  1  0.50370530  0.15286391  0.67199300  1
  Au  Au257  1  0.82417304  0.83650154  -0.00175316  1
  Au  Au258  1  0.32806608  0.67014499  -0.00206732  1
  Au  Au259  1  0.50152687  0.65656063  0.17662048  1
  Au  Au260  1  -0.00294302  0.16733784  0.83935141  1
  Au  Au261  1  0.00273018  0.17303998  0.66395445  1
  Au  Au262  1  0.82513629  0.50069647  0.16377905  1
  Au  Au263  1  0.83671128  0.49721362  0.33477309  1
  Au  Au264  1  0.17290151  0.33709954  0.00233007  1
  Au  Au265  1  0.50367488  0.33822212  0.17484992  1
  Au  Au266  1  0.17568772  0.49504159  0.32908351  1
  Au  Au267  1  0.49863139  0.17868506  0.84124256  1
  Au  Au268  1  0.82652016  -0.00129542  0.67484933  1
  Au  Au269  1  0.50186268  0.82464782  0.67000824  1
  Au  Au270  1  -0.00000975  0.84228644  0.83620013  1
  Au  Au271  1  0.66479122  -0.00253645  0.16785617  1
  Au  Au272  1  0.82532859  0.17676698  0.49827146  1
  Au  Au273  1  0.00436758  0.83818616  0.32591196  1
  Au  Au274  1  0.32313255  0.17245827  0.50246382  1
  Au  Au275  1  0.15769911  0.49688147  0.67450235  1
  Au  Au276  1  0.16141463  -0.00437104  0.17637495  1
  Au  Au277  1  0.49987732  0.83057265  0.15473859  1
  Au  Au278  1  0.50101982  0.82786370  0.33487089  1
  Au  Au279  1  0.50090061  0.17223942  0.33409561  1
  Au  Au280  1  -0.00000331  0.65700675  0.82645629  1
  Au  Au281  1  -0.00129695  0.33948719  0.82416261  1
  Au  Au282  1  0.84043853  -0.00073165  0.16541991  1
  Au  Au283  1  0.16109497  0.67082874  0.50323838  1
  Au  Au284  1  0.50165525  0.81765782  0.83723940  1
  Au  Au285  1  -0.00276348  0.17956468  0.17091907  1
  Au  Au286  1  0.67090556  0.49870057  0.82733401  1
  Au  Au287  1  0.49620431  0.17061583  0.15822042  1
