# generated using pymatgen
data_Ca24Ti8Al207Au49
_symmetry_space_group_name_H-M   'P 1'
_cell_length_a   17.32032733
_cell_length_b   17.32201907
_cell_length_c   17.32152602
_cell_angle_alpha   90.00205668
_cell_angle_beta   90.00179902
_cell_angle_gamma   90.00516991
_symmetry_Int_Tables_number   1
_chemical_formula_structural   Ca24Ti8Al207Au49
_chemical_formula_sum   'Ca24 Ti8 Al207 Au49'
_cell_volume   5196.85687202
_cell_formula_units_Z   1
loop_
 _symmetry_equiv_pos_site_id
 _symmetry_equiv_pos_as_xyz
  1  'x, y, z'
loop_
 _atom_site_type_symbol
 _atom_site_label
 _atom_site_symmetry_multiplicity
 _atom_site_fract_x
 _atom_site_fract_y
 _atom_site_fract_z
 _atom_site_occupancy
  Ca  Ca0  1  0.24601529  0.00383744  0.00049270  1
  Ca  Ca1  1  0.24395832  -0.00067867  0.49951704  1
  Ca  Ca2  1  0.25034136  0.49472656  0.00150610  1
  Ca  Ca3  1  0.24696871  0.49938218  0.50181103  1
  Ca  Ca4  1  0.75516276  0.00021717  -0.00047850  1
  Ca  Ca5  1  0.75182034  -0.00011492  0.50019858  1
  Ca  Ca6  1  0.75690677  0.50295440  0.00011615  1
  Ca  Ca7  1  0.75839350  0.49836379  0.49810538  1
  Ca  Ca8  1  0.00511457  0.24510966  0.00530099  1
  Ca  Ca9  1  -0.00101173  0.25082597  0.49840586  1
  Ca  Ca10  1  0.00050999  0.75040318  -0.00149486  1
  Ca  Ca11  1  0.00164718  0.75494095  0.50086965  1
  Ca  Ca12  1  0.49526089  0.24804571  -0.00032219  1
  Ca  Ca13  1  0.49846527  0.24592761  0.49951468  1
  Ca  Ca14  1  0.49856074  0.74953387  -0.00053355  1
  Ca  Ca15  1  0.49704748  0.75306142  0.50160055  1
  Ca  Ca16  1  -0.00104280  0.00038529  0.25038802  1
  Ca  Ca17  1  -0.00486176  -0.00233905  0.75016823  1
  Ca  Ca18  1  0.00935779  0.49650134  0.24880726  1
  Ca  Ca19  1  0.00267062  0.50127637  0.74778505  1
  Ca  Ca20  1  0.50192844  0.00321376  0.25259404  1
  Ca  Ca21  1  0.50283313  0.00254079  0.74880371  1
  Ca  Ca22  1  0.49266569  0.49732119  0.24738565  1
  Ca  Ca23  1  0.49685742  0.49915680  0.75083383  1
  Ti  Ti24  1  0.24909165  0.25015748  0.25101371  1
  Ti  Ti25  1  0.25111897  0.25079062  0.74978540  1
  Ti  Ti26  1  0.24694812  0.74928257  0.24967277  1
  Ti  Ti27  1  0.24774959  0.75049281  0.75132607  1
  Ti  Ti28  1  0.75214372  0.24698564  0.25086058  1
  Ti  Ti29  1  0.75021118  0.24652763  0.74935897  1
  Ti  Ti30  1  0.75256133  0.75275869  0.25032696  1
  Ti  Ti31  1  0.75296141  0.75214287  0.74970833  1
  Al  Al32  1  0.08829349  0.09023391  0.09254811  1
  Al  Al33  1  0.08304025  0.07929594  0.57291531  1
  Al  Al34  1  0.09756137  0.58145715  0.08112717  1
  Al  Al35  1  0.09291680  0.58440887  0.58816805  1
  Al  Al36  1  0.58334779  0.08380672  0.09081635  1
  Al  Al37  1  0.58471902  0.08028323  0.58632629  1
  Al  Al38  1  0.57720829  0.57987192  0.08072078  1
  Al  Al39  1  0.57840207  0.58215411  0.57783790  1
  Al  Al40  1  0.40292220  0.40939411  0.08161651  1
  Al  Al41  1  0.40867791  0.41463126  0.59032607  1
  Al  Al42  1  0.41823732  0.92542788  0.07673659  1
  Al  Al43  1  0.42195400  0.90682016  0.58791592  1
  Al  Al44  1  0.93008039  0.41861741  0.08557874  1
  Al  Al45  1  0.91560632  0.41467657  0.57481902  1
  Al  Al46  1  0.91376193  0.92248329  0.08514763  1
  Al  Al47  1  0.91239372  0.91649294  0.58612600  1
  Al  Al48  1  0.41892589  0.09478263  0.41620997  1
  Al  Al49  1  0.42109864  0.09817836  0.91546403  1
  Al  Al50  1  0.41133792  0.57400584  0.41785547  1
  Al  Al51  1  0.41250857  0.57298458  0.92244849  1
  Al  Al52  1  0.91247505  0.07783319  0.40966758  1
  Al  Al53  1  0.91206137  0.07258130  0.91057955  1
  Al  Al54  1  0.92607944  0.58139386  0.42229092  1
  Al  Al55  1  0.92680401  0.59152896  0.90697230  1
  Al  Al56  1  0.08487025  0.41693048  0.40914881  1
  Al  Al57  1  0.09335709  0.41565510  0.92690508  1
  Al  Al58  1  0.08206868  0.90954227  0.41179115  1
  Al  Al59  1  0.07058825  0.91081661  0.91448287  1
  Al  Al60  1  0.57305583  0.40872992  0.41826219  1
  Al  Al61  1  0.56630966  0.41039984  0.90875225  1
  Al  Al62  1  0.59051629  0.92711242  0.41919311  1
  Al  Al63  1  0.58821268  0.92815856  0.90847021  1
  Al  Al64  1  0.08500546  0.08373524  0.41575114  1
  Al  Al65  1  0.08594656  0.08548890  0.92983048  1
  Al  Al66  1  0.09077741  0.57990888  0.41345535  1
  Al  Al67  1  0.08825969  0.59379536  0.91685235  1
  Al  Al68  1  0.58302671  0.08785660  0.40774869  1
  Al  Al69  1  0.58279749  0.08706280  0.90194299  1
  Al  Al70  1  0.57517400  0.58549353  0.42396175  1
  Al  Al71  1  0.57592866  0.57710119  0.92451300  1
  Al  Al72  1  0.41070963  0.41275100  0.41212857  1
  Al  Al73  1  0.40655406  0.40496113  0.91685830  1
  Al  Al74  1  0.41718994  0.92288428  0.43228355  1
  Al  Al75  1  0.42325846  0.92055885  0.91732077  1
  Al  Al76  1  0.92482069  0.40273644  0.41654189  1
  Al  Al77  1  0.92652485  0.42980948  0.92327804  1
  Al  Al78  1  0.91671148  0.91460603  0.41044639  1
  Al  Al79  1  0.91058528  0.91252984  0.90277419  1
  Al  Al80  1  0.09715803  0.41103445  0.08861648  1
  Al  Al81  1  0.08693961  0.42385136  0.58191688  1
  Al  Al82  1  0.08761997  0.92557574  0.08927890  1
  Al  Al83  1  0.08290256  0.91328772  0.57585551  1
  Al  Al84  1  0.56666787  0.42133997  0.07725235  1
  Al  Al85  1  0.57444645  0.41377226  0.57925826  1
  Al  Al86  1  0.59051326  0.92977827  0.08560717  1
  Al  Al87  1  0.58351954  0.91693573  0.59532947  1
  Al  Al88  1  0.41747334  0.08989687  0.07806721  1
  Al  Al89  1  0.41804793  0.08903924  0.57719799  1
  Al  Al90  1  0.40432911  0.57224919  0.08807112  1
  Al  Al91  1  0.40685876  0.57433461  0.58935276  1
  Al  Al92  1  0.92305643  0.08267910  0.09445284  1
  Al  Al93  1  0.90736930  0.07525069  0.58582254  1
  Al  Al94  1  0.92586912  0.58159634  0.07558076  1
  Al  Al95  1  0.92592282  0.58083497  0.58236176  1
  Al  Al96  1  0.24292380  0.13862816  0.13107744  1
  Al  Al97  1  0.25473154  0.13604668  0.63494688  1
  Al  Al98  1  0.24679171  0.63495070  0.13036838  1
  Al  Al99  1  0.24575983  0.63399196  0.63706974  1
  Al  Al100  1  0.75138553  0.13583568  0.13075671  1
  Al  Al101  1  0.75305820  0.13189236  0.63564777  1
  Al  Al102  1  0.75365535  0.63748939  0.13241043  1
  Al  Al103  1  0.75291923  0.64090146  0.63543175  1
  Al  Al104  1  0.24938235  0.36064572  0.13124379  1
  Al  Al105  1  0.25206400  0.36679135  0.63040984  1
  Al  Al106  1  0.24478370  0.86464275  0.13405011  1
  Al  Al107  1  0.24604112  0.86408764  0.63838834  1
  Al  Al108  1  0.75461894  0.36302331  0.14093841  1
  Al  Al109  1  0.75118031  0.36155683  0.63562256  1
  Al  Al110  1  0.75088577  0.86561720  0.13632201  1
  Al  Al111  1  0.75511611  0.86868829  0.64013796  1
  Al  Al112  1  0.24955431  0.13836267  0.36255281  1
  Al  Al113  1  0.24806403  0.13600190  0.86854424  1
  Al  Al114  1  0.24578540  0.63465285  0.36510467  1
  Al  Al115  1  0.24686487  0.63695679  0.87155023  1
  Al  Al116  1  0.75306385  0.12875391  0.36292408  1
  Al  Al117  1  0.74891847  0.13060270  0.86742559  1
  Al  Al118  1  0.75593722  0.63904102  0.36644713  1
  Al  Al119  1  0.75265654  0.64094482  0.86755610  1
  Al  Al120  1  0.24715871  0.36522826  0.37025921  1
  Al  Al121  1  0.24898859  0.36489747  0.87077718  1
  Al  Al122  1  0.24445782  0.86436008  0.36358909  1
  Al  Al123  1  0.24956461  0.86910215  0.86335073  1
  Al  Al124  1  0.75773329  0.35807217  0.36451346  1
  Al  Al125  1  0.75112309  0.35925423  0.86428035  1
  Al  Al126  1  0.75275504  0.87464200  0.36133973  1
  Al  Al127  1  0.75322778  0.87169404  0.86002172  1
  Al  Al128  1  0.13164537  0.25102849  0.13478617  1
  Al  Al129  1  0.13791421  0.25299733  0.63348126  1
  Al  Al130  1  0.13064423  0.74764537  0.13426173  1
  Al  Al131  1  0.12790433  0.75088747  0.63766972  1
  Al  Al132  1  0.63610338  0.24516043  0.13444189  1
  Al  Al133  1  0.63487610  0.24811308  0.63616262  1
  Al  Al134  1  0.63564060  0.74779770  0.13674657  1
  Al  Al135  1  0.63558684  0.75649155  0.63426637  1
  Al  Al136  1  0.13158481  0.25412969  0.36394394  1
  Al  Al137  1  0.13852385  0.25305311  0.86849794  1
  Al  Al138  1  0.12877831  0.75688288  0.36565148  1
  Al  Al139  1  0.13229929  0.74802086  0.86698965  1
  Al  Al140  1  0.63008307  0.24679159  0.36244308  1
  Al  Al141  1  0.63238877  0.24466841  0.86678320  1
  Al  Al142  1  0.63885942  0.75452069  0.36424473  1
  Al  Al143  1  0.63556975  0.75305525  0.86440534  1
  Al  Al144  1  0.36302652  0.25184119  0.13321522  1
  Al  Al145  1  0.36432978  0.25101848  0.62854099  1
  Al  Al146  1  0.35996466  0.74720181  0.12852197  1
  Al  Al147  1  0.36086887  0.75177632  0.63635476  1
  Al  Al148  1  0.87298596  0.24543905  0.13715972  1
  Al  Al149  1  0.86327930  0.24759412  0.62931721  1
  Al  Al150  1  0.87140971  0.75315563  0.13722692  1
  Al  Al151  1  0.87480264  0.75283085  0.63864475  1
  Al  Al152  1  0.36542365  0.25287012  0.36815735  1
  Al  Al153  1  0.36618819  0.25420403  0.86648339  1
  Al  Al154  1  0.36134224  0.74794966  0.36302819  1
  Al  Al155  1  0.36155837  0.74900871  0.86945149  1
  Al  Al156  1  0.86596756  0.24440036  0.37047870  1
  Al  Al157  1  0.86372481  0.24208705  0.86545040  1
  Al  Al158  1  0.87123425  0.75702886  0.36341565  1
  Al  Al159  1  0.87056352  0.75199278  0.86206651  1
  Al  Al160  1  0.13173002  0.13530454  0.24508835  1
  Al  Al161  1  0.13881541  0.13837583  0.75154316  1
  Al  Al162  1  0.13612559  0.63275473  0.25124283  1
  Al  Al163  1  0.13132405  0.63585282  0.75220795  1
  Al  Al164  1  0.63984920  0.12880752  0.25009508  1
  Al  Al165  1  0.63595685  0.13228447  0.75401554  1
  Al  Al166  1  0.63242502  0.63619012  0.24875580  1
  Al  Al167  1  0.63462941  0.64019780  0.74818761  1
  Al  Al168  1  0.36323154  0.13776534  0.25001940  1
  Al  Al169  1  0.36527226  0.13595784  0.75525122  1
  Al  Al170  1  0.36336139  0.63524670  0.24584892  1
  Al  Al171  1  0.36177878  0.63480844  0.74732676  1
  Al  Al172  1  0.86773624  0.13367027  0.24998351  1
  Al  Al173  1  0.86240981  0.12944495  0.74997772  1
  Al  Al174  1  0.86706147  0.63509110  0.25046434  1
  Al  Al175  1  0.87118931  0.63779963  0.75089057  1
  Al  Al176  1  0.13284241  0.36343600  0.24940402  1
  Al  Al177  1  0.14111303  0.36827384  0.74664526  1
  Al  Al178  1  0.12899432  0.86355694  0.24810997  1
  Al  Al179  1  0.12760537  0.86215652  0.75395059  1
  Al  Al180  1  0.63598422  0.36232177  0.25260745  1
  Al  Al181  1  0.63230098  0.35953277  0.75534513  1
  Al  Al182  1  0.63743813  0.87373648  0.24847828  1
  Al  Al183  1  0.63470893  0.86673445  0.75140652  1
  Al  Al184  1  0.36059897  0.36574130  0.24976895  1
  Al  Al185  1  0.36331242  0.36275411  0.75036641  1
  Al  Al186  1  0.36236485  0.86509360  0.24745814  1
  Al  Al187  1  0.36942336  0.86394746  0.75053933  1
  Al  Al188  1  0.87612753  0.35924905  0.25194875  1
  Al  Al189  1  0.86398554  0.36134850  0.74944357  1
  Al  Al190  1  0.87084948  0.86753674  0.25139374  1
  Al  Al191  1  0.87066810  0.86693759  0.75087155  1
  Al  Al192  1  0.00075247  0.18297437  0.31741500  1
  Al  Al193  1  0.00167177  0.17051147  0.82928966  1
  Al  Al194  1  0.17442139  0.68713706  0.50008611  1
  Al  Al195  1  0.50000721  0.17366727  0.18471052  1
  Al  Al196  1  0.17089708  -0.00011972  0.82964777  1
  Al  Al197  1  0.66731428  0.32464941  0.00044067  1
  Al  Al198  1  0.00209884  0.67502788  0.31878475  1
  Al  Al199  1  0.31575349  0.18769463  0.00002057  1
  Al  Al200  1  0.17594990  0.81916217  -0.00117112  1
  Al  Al201  1  0.83146419  0.32184695  0.00090041  1
  Al  Al202  1  0.67179589  0.49967357  0.67202839  1
  Al  Al203  1  0.32645944  0.49867534  0.81554174  1
  Al  Al204  1  0.00016480  0.32915454  0.67099801  1
  Al  Al205  1  0.49904583  0.82437417  0.33074549  1
  Al  Al206  1  0.49858306  0.68572890  0.67061245  1
  Al  Al207  1  0.19330121  0.49832368  0.18790923  1
  Al  Al208  1  0.82898808  0.82189685  -0.00084667  1
  Al  Al209  1  0.33159752  0.00015026  0.67428435  1
  Al  Al210  1  0.82071390  0.82147439  0.49948086  1
  Al  Al211  1  0.49781706  0.32538903  0.17806960  1
  Al  Al212  1  0.49758334  0.68102249  0.82764440  1
  Al  Al213  1  0.32567352  0.67058719  0.50097068  1
  Al  Al214  1  0.17151505  -0.00024334  0.31557040  1
  Al  Al215  1  0.32872227  0.00087507  0.32846844  1
  Al  Al216  1  0.30864041  0.00273370  0.16877081  1
  Al  Al217  1  0.68592953  0.32938579  0.49840184  1
  Al  Al218  1  0.50120058  0.82316903  0.16841997  1
  Al  Al219  1  0.67935376  0.17171643  0.49906731  1
  Al  Al220  1  0.17530698  0.50200021  0.81940154  1
  Al  Al221  1  0.82972678  0.49973098  0.67297694  1
  Al  Al222  1  0.50032762  0.17309372  0.68342650  1
  Al  Al223  1  0.18630522  0.18044313  0.49885876  1
  Al  Al224  1  0.49914132  0.32192626  0.68454131  1
  Al  Al225  1  0.83763737  0.49341312  0.32347681  1
  Al  Al226  1  0.00213567  0.32820291  0.82431448  1
  Al  Al227  1  0.82825330  0.50142890  0.82543730  1
  Al  Al228  1  0.67898597  0.49740675  0.16549470  1
  Al  Al229  1  0.17263899  -0.00026810  0.67326622  1
  Al  Al230  1  0.67528899  0.50104780  0.32924590  1
  Al  Al231  1  0.31046600  0.82249554  0.50049242  1
  Al  Al232  1  0.68547656  0.00088070  0.68627905  1
  Al  Al233  1  0.30713514  0.50178048  0.30973786  1
  Al  Al234  1  0.67271387  0.82669118  -0.00006542  1
  Al  Al235  1  0.00034254  0.17466997  0.67245694  1
  Al  Al236  1  0.81207643  0.00090675  0.18772297  1
  Al  Al237  1  0.68022458  0.68193712  0.49622456  1
  Al  Al238  1  0.67166977  0.49921194  0.82756140  1
  Au  Au239  1  0.49682169  0.33142490  0.67477954  1
  Au  Au240  1  0.67815052  0.50130354  0.65565258  1
  Au  Au241  1  0.82937350  0.16440972  0.49835365  1
  Au  Au242  1  0.67452997  0.84237191  -0.00416708  1
  Au  Au243  1  0.83379738  0.33852722  0.00173327  1
  Au  Au244  1  0.66673751  0.49574836  0.16789008  1
  Au  Au245  1  0.65149342  0.32781033  0.00004923  1
  Au  Au246  1  0.50320292  0.84232332  0.82098931  1
  Au  Au247  1  0.67131224  0.67306929  0.49848870  1
  Au  Au248  1  0.33665895  0.82871201  -0.00283784  1
  Au  Au249  1  0.49539306  0.66664955  0.83737943  1
  Au  Au250  1  0.33452143  0.00635025  0.83840581  1
  Au  Au251  1  0.83736141  0.67200039  0.50349618  1
  Au  Au252  1  0.16180169  0.82822590  -0.00039171  1
  Au  Au253  1  0.00021881  0.16923487  0.32711770  1
  Au  Au254  1  0.00266419  0.66414179  0.67778599  1
  Au  Au255  1  0.83971658  0.16033105  0.00193207  1
  Au  Au256  1  0.00309400  0.67317376  0.33121083  1
  Au  Au257  1  0.49677440  0.31987503  0.32570593  1
  Au  Au258  1  0.49311613  0.66041210  0.16670495  1
  Au  Au259  1  0.49902694  0.83480238  0.34390701  1
  Au  Au260  1  0.50325432  0.84010463  0.16596217  1
  Au  Au261  1  0.00262551  0.32851194  0.84085567  1
  Au  Au262  1  0.00431507  0.32690390  0.17268821  1
  Au  Au263  1  0.66991370  0.32272751  0.49849107  1
  Au  Au264  1  0.32509702  0.00490088  0.16420787  1
  Au  Au265  1  0.65915821  0.50055926  0.33689607  1
  Au  Au266  1  0.84008359  0.67197410  -0.00407199  1
  Au  Au267  1  0.49388690  0.66306450  0.33281390  1
  Au  Au268  1  -0.00076652  0.84084564  0.17322046  1
  Au  Au269  1  0.49619306  0.67233171  0.66024412  1
  Au  Au270  1  0.00044555  0.15867928  0.66908627  1
  Au  Au271  1  0.00076422  0.83741287  0.67423797  1
  Au  Au272  1  0.31667465  0.49982956  0.32351536  1
  Au  Au273  1  0.32146041  0.65829566  0.00138672  1
  Au  Au274  1  0.67493606  0.49628560  0.84424269  1
  Au  Au275  1  0.32893385  -0.00000172  0.66166560  1
  Au  Au276  1  0.66850778  0.15482599  -0.00181806  1
  Au  Au277  1  0.00605196  0.66705643  0.16454216  1
  Au  Au278  1  0.83530645  0.49362355  0.33605564  1
  Au  Au279  1  0.66831237  0.66589376  0.00197979  1
  Au  Au280  1  0.32526315  0.00112075  0.34075357  1
  Au  Au281  1  0.17197239  0.50129841  0.83164906  1
  Au  Au282  1  0.67217065  0.83898802  0.50549385  1
  Au  Au283  1  0.67878901  0.00244220  0.32147882  1
  Au  Au284  1  0.33087616  0.32311680  0.50018210  1
  Au  Au285  1  0.83728743  0.50308326  0.16617588  1
  Au  Au286  1  0.16209862  0.32812873  0.49880916  1
  Au  Au287  1  0.15825736  -0.00230913  0.82965652  1
