# generated using pymatgen
data_Ca24Ti8Al207Au49
_symmetry_space_group_name_H-M   'P 1'
_cell_length_a   17.32319943
_cell_length_b   17.32426883
_cell_length_c   17.32415611
_cell_angle_alpha   89.99828782
_cell_angle_beta   90.00288978
_cell_angle_gamma   89.99908327
_symmetry_Int_Tables_number   1
_chemical_formula_structural   Ca24Ti8Al207Au49
_chemical_formula_sum   'Ca24 Ti8 Al207 Au49'
_cell_volume   5199.18303628
_cell_formula_units_Z   1
loop_
 _symmetry_equiv_pos_site_id
 _symmetry_equiv_pos_as_xyz
  1  'x, y, z'
loop_
 _atom_site_type_symbol
 _atom_site_label
 _atom_site_symmetry_multiplicity
 _atom_site_fract_x
 _atom_site_fract_y
 _atom_site_fract_z
 _atom_site_occupancy
  Ca  Ca0  1  0.25279960  0.00197426  -0.00156245  1
  Ca  Ca1  1  0.25255288  0.00166934  0.50186021  1
  Ca  Ca2  1  0.24544126  0.49413407  0.00011040  1
  Ca  Ca3  1  0.24937380  0.49963634  0.50089120  1
  Ca  Ca4  1  0.74966254  0.00093309  -0.00316979  1
  Ca  Ca5  1  0.75461006  0.00551086  0.50078311  1
  Ca  Ca6  1  0.75204114  0.50056355  -0.00107588  1
  Ca  Ca7  1  0.75158585  0.49552290  0.50156051  1
  Ca  Ca8  1  -0.00165741  0.25084412  0.00030433  1
  Ca  Ca9  1  -0.00284690  0.24888301  0.50058726  1
  Ca  Ca10  1  -0.00475791  0.75273375  -0.00429912  1
  Ca  Ca11  1  0.00150686  0.74957216  0.50204412  1
  Ca  Ca12  1  0.50240806  0.24399347  -0.00063979  1
  Ca  Ca13  1  0.50092666  0.24909558  0.50063580  1
  Ca  Ca14  1  0.50900893  0.75144270  -0.00266582  1
  Ca  Ca15  1  0.49777213  0.75038474  0.50463565  1
  Ca  Ca16  1  -0.00261352  0.00507318  0.25242686  1
  Ca  Ca17  1  -0.00102677  0.00360224  0.75012526  1
  Ca  Ca18  1  0.00076694  0.49549269  0.25301612  1
  Ca  Ca19  1  -0.00154289  0.49349070  0.74823987  1
  Ca  Ca20  1  0.49912016  0.00998197  0.25137327  1
  Ca  Ca21  1  0.49578028  0.00208981  0.75022853  1
  Ca  Ca22  1  0.49967499  0.49606891  0.25361878  1
  Ca  Ca23  1  0.50667309  0.49889832  0.74502766  1
  Ti  Ti24  1  0.24911892  0.25048653  0.25367573  1
  Ti  Ti25  1  0.24819060  0.24930727  0.74811193  1
  Ti  Ti26  1  0.25013757  0.75004067  0.25317572  1
  Ti  Ti27  1  0.24966614  0.75004065  0.74803612  1
  Ti  Ti28  1  0.75055958  0.24883616  0.25191011  1
  Ti  Ti29  1  0.75031632  0.24990179  0.74893098  1
  Ti  Ti30  1  0.75087182  0.75091349  0.25041592  1
  Ti  Ti31  1  0.75059572  0.74931384  0.74999322  1
  Al  Al32  1  0.08054792  0.08706005  0.08084026  1
  Al  Al33  1  0.07978879  0.08567205  0.58654023  1
  Al  Al34  1  0.08283765  0.57428072  0.07893137  1
  Al  Al35  1  0.08625995  0.59057246  0.58104848  1
  Al  Al36  1  0.58651361  0.09024839  0.08071428  1
  Al  Al37  1  0.58598630  0.08124104  0.57547719  1
  Al  Al38  1  0.59381303  0.58411598  0.07354328  1
  Al  Al39  1  0.59153533  0.57604027  0.58930140  1
  Al  Al40  1  0.41372183  0.41116149  0.07830947  1
  Al  Al41  1  0.42103502  0.42080666  0.57593056  1
  Al  Al42  1  0.42024832  0.92620140  0.07302813  1
  Al  Al43  1  0.40798927  0.92022003  0.58888969  1
  Al  Al44  1  0.92227203  0.42017589  0.08074109  1
  Al  Al45  1  0.90996438  0.40543380  0.58845278  1
  Al  Al46  1  0.91020169  0.91764674  0.07510594  1
  Al  Al47  1  0.91695812  0.92293875  0.58032566  1
  Al  Al48  1  0.41732978  0.09417250  0.41637087  1
  Al  Al49  1  0.41681859  0.07755555  0.91601991  1
  Al  Al50  1  0.39830292  0.58230875  0.41739367  1
  Al  Al51  1  0.42295893  0.57941552  0.91909930  1
  Al  Al52  1  0.91041661  0.09308828  0.41190555  1
  Al  Al53  1  0.90749049  0.08402840  0.90881604  1
  Al  Al54  1  0.91618411  0.57296843  0.42478212  1
  Al  Al55  1  0.91182632  0.58118464  0.91543082  1
  Al  Al56  1  0.08061643  0.41642439  0.41600386  1
  Al  Al57  1  0.08155474  0.40353111  0.91617737  1
  Al  Al58  1  0.08749854  0.91347590  0.42643600  1
  Al  Al59  1  0.08131867  0.92443423  0.91700179  1
  Al  Al60  1  0.58965509  0.40885704  0.42487667  1
  Al  Al61  1  0.59353957  0.42470223  0.91341232  1
  Al  Al62  1  0.59434624  0.91646103  0.42314741  1
  Al  Al63  1  0.59515877  0.91989833  0.91361937  1
  Al  Al64  1  0.07434363  0.09010973  0.41426704  1
  Al  Al65  1  0.08293995  0.08713684  0.91338274  1
  Al  Al66  1  0.09796417  0.58403997  0.42530610  1
  Al  Al67  1  0.07990222  0.57908838  0.91824592  1
  Al  Al68  1  0.58134973  0.09168965  0.41145898  1
  Al  Al69  1  0.59450314  0.08218165  0.91782651  1
  Al  Al70  1  0.58307975  0.57397606  0.42380998  1
  Al  Al71  1  0.59823683  0.58582010  0.91355761  1
  Al  Al72  1  0.41151813  0.42005324  0.41287723  1
  Al  Al73  1  0.41056497  0.41375043  0.92229144  1
  Al  Al74  1  0.41672455  0.92185216  0.42738343  1
  Al  Al75  1  0.41212411  0.92206146  0.91303510  1
  Al  Al76  1  0.91051404  0.40548299  0.42247293  1
  Al  Al77  1  0.92061154  0.41324320  0.90739657  1
  Al  Al78  1  0.90939107  0.92950456  0.41455391  1
  Al  Al79  1  0.90136136  0.92112494  0.91294139  1
  Al  Al80  1  0.08679787  0.41162811  0.07885678  1
  Al  Al81  1  0.07358153  0.41073050  0.58859395  1
  Al  Al82  1  0.08143338  0.92497335  0.07677132  1
  Al  Al83  1  0.09208306  0.91321931  0.58150390  1
  Al  Al84  1  0.58164238  0.42079334  0.07996791  1
  Al  Al85  1  0.59866565  0.41464752  0.58646220  1
  Al  Al86  1  0.59135318  0.91838707  0.07427743  1
  Al  Al87  1  0.58803530  0.91369806  0.57961793  1
  Al  Al88  1  0.42545603  0.08785820  0.08845540  1
  Al  Al89  1  0.40472288  0.08382117  0.58043175  1
  Al  Al90  1  0.41921436  0.57630846  0.07801953  1
  Al  Al91  1  0.41132952  0.58913540  0.57535535  1
  Al  Al92  1  0.91646651  0.08760491  0.08107408  1
  Al  Al93  1  0.91311765  0.09398163  0.58261962  1
  Al  Al94  1  0.91214134  0.58070373  0.07697185  1
  Al  Al95  1  0.91878924  0.57388450  0.58635593  1
  Al  Al96  1  0.24911926  0.13734172  0.13650876  1
  Al  Al97  1  0.24698950  0.13347552  0.63206905  1
  Al  Al98  1  0.25174964  0.63357259  0.13471096  1
  Al  Al99  1  0.24829019  0.63298360  0.63073380  1
  Al  Al100  1  0.75026290  0.13447113  0.13586081  1
  Al  Al101  1  0.75234091  0.13902643  0.62689164  1
  Al  Al102  1  0.74952455  0.63644441  0.12974951  1
  Al  Al103  1  0.74916206  0.63156109  0.63603644  1
  Al  Al104  1  0.24956252  0.36322504  0.13701698  1
  Al  Al105  1  0.24677839  0.36808447  0.63139039  1
  Al  Al106  1  0.25064903  0.86400632  0.13599430  1
  Al  Al107  1  0.24991070  0.86703373  0.63105679  1
  Al  Al108  1  0.74903416  0.36320389  0.13687615  1
  Al  Al109  1  0.74927749  0.36375460  0.63188622  1
  Al  Al110  1  0.74979673  0.86807291  0.13278183  1
  Al  Al111  1  0.74929382  0.86430928  0.62967891  1
  Al  Al112  1  0.24960987  0.13840113  0.37341836  1
  Al  Al113  1  0.25267072  0.13393434  0.86572179  1
  Al  Al114  1  0.24868192  0.63136291  0.36971007  1
  Al  Al115  1  0.24814439  0.63284753  0.86370217  1
  Al  Al116  1  0.75256372  0.13509822  0.37226044  1
  Al  Al117  1  0.74898664  0.13137860  0.86290121  1
  Al  Al118  1  0.74894803  0.62933265  0.36945797  1
  Al  Al119  1  0.74933997  0.63159144  0.86900664  1
  Al  Al120  1  0.24999709  0.36538890  0.37226094  1
  Al  Al121  1  0.24444784  0.36389253  0.86385130  1
  Al  Al122  1  0.24853177  0.86335278  0.37425987  1
  Al  Al123  1  0.25227012  0.86694682  0.86342745  1
  Al  Al124  1  0.75236901  0.36396678  0.36978938  1
  Al  Al125  1  0.74952681  0.36933004  0.86097990  1
  Al  Al126  1  0.75271514  0.86986823  0.36917569  1
  Al  Al127  1  0.75024946  0.86771410  0.86475084  1
  Al  Al128  1  0.13458942  0.25385737  0.13443883  1
  Al  Al129  1  0.13502536  0.25084812  0.63030516  1
  Al  Al130  1  0.13295381  0.74983521  0.13843676  1
  Al  Al131  1  0.13707756  0.75021865  0.63098303  1
  Al  Al132  1  0.63318446  0.24369584  0.13424990  1
  Al  Al133  1  0.63671248  0.24916349  0.62887804  1
  Al  Al134  1  0.63864552  0.75095752  0.13026174  1
  Al  Al135  1  0.63664954  0.75060263  0.63610104  1
  Al  Al136  1  0.13116328  0.25040707  0.37167190  1
  Al  Al137  1  0.12914973  0.25170394  0.86512458  1
  Al  Al138  1  0.13647862  0.74933023  0.37127681  1
  Al  Al139  1  0.12943771  0.74838860  0.85995461  1
  Al  Al140  1  0.63761129  0.25025773  0.37188465  1
  Al  Al141  1  0.63961189  0.24600657  0.86498140  1
  Al  Al142  1  0.63989429  0.75688092  0.37001492  1
  Al  Al143  1  0.63890032  0.74958574  0.87068282  1
  Al  Al144  1  0.36614239  0.24621375  0.13740691  1
  Al  Al145  1  0.36060843  0.24715950  0.62808427  1
  Al  Al146  1  0.36429424  0.74660627  0.13887408  1
  Al  Al147  1  0.36007219  0.75061916  0.62887297  1
  Al  Al148  1  0.86397479  0.24842378  0.13774196  1
  Al  Al149  1  0.86457162  0.25314381  0.63208509  1
  Al  Al150  1  0.86629912  0.75073659  0.13659049  1
  Al  Al151  1  0.86216676  0.75139487  0.63073305  1
  Al  Al152  1  0.36509385  0.24721476  0.37335735  1
  Al  Al153  1  0.36367219  0.24884005  0.86102899  1
  Al  Al154  1  0.35990553  0.74891388  0.37655732  1
  Al  Al155  1  0.36393436  0.74700814  0.86151067  1
  Al  Al156  1  0.86864273  0.24679312  0.36712872  1
  Al  Al157  1  0.86761919  0.24965760  0.86275079  1
  Al  Al158  1  0.86150286  0.75468537  0.37171253  1
  Al  Al159  1  0.86610093  0.74895642  0.86398914  1
  Al  Al160  1  0.13574473  0.13919771  0.25490977  1
  Al  Al161  1  0.13421247  0.13488982  0.75230107  1
  Al  Al162  1  0.13880706  0.63473857  0.25309023  1
  Al  Al163  1  0.13730655  0.63043023  0.74700600  1
  Al  Al164  1  0.63148939  0.14013997  0.25412087  1
  Al  Al165  1  0.63691150  0.13563574  0.74820770  1
  Al  Al166  1  0.63620634  0.63888600  0.25519012  1
  Al  Al167  1  0.64024339  0.63189791  0.75122429  1
  Al  Al168  1  0.36676407  0.13840762  0.25481064  1
  Al  Al169  1  0.36225457  0.13290626  0.74538757  1
  Al  Al170  1  0.36123984  0.63348569  0.25821587  1
  Al  Al171  1  0.36219199  0.63155925  0.74605791  1
  Al  Al172  1  0.86257156  0.13032443  0.25515279  1
  Al  Al173  1  0.86335240  0.13682022  0.75144405  1
  Al  Al174  1  0.86174708  0.63678602  0.25121610  1
  Al  Al175  1  0.86248191  0.63198201  0.75454209  1
  Al  Al176  1  0.13630325  0.36396359  0.25852825  1
  Al  Al177  1  0.13231881  0.36431178  0.74775696  1
  Al  Al178  1  0.13558577  0.86157021  0.25228944  1
  Al  Al179  1  0.13583086  0.86637102  0.74931340  1
  Al  Al180  1  0.63713707  0.36160884  0.25273902  1
  Al  Al181  1  0.63857913  0.36552557  0.74745899  1
  Al  Al182  1  0.63741385  0.86100600  0.24931161  1
  Al  Al183  1  0.63818254  0.86398275  0.75559905  1
  Al  Al184  1  0.36508998  0.36145086  0.25609904  1
  Al  Al185  1  0.36142156  0.36395295  0.74616503  1
  Al  Al186  1  0.36319062  0.86226994  0.25239331  1
  Al  Al187  1  0.36329311  0.86659355  0.74812562  1
  Al  Al188  1  0.86501958  0.36237186  0.25705105  1
  Al  Al189  1  0.86827899  0.36273610  0.74971582  1
  Al  Al190  1  0.86159702  0.87049275  0.24968085  1
  Al  Al191  1  0.86349698  0.86607274  0.75263443  1
  Al  Al192  1  0.49983587  0.67198163  0.66951702  1
  Al  Al193  1  0.82714592  0.00265879  0.68268849  1
  Al  Al194  1  0.50102856  0.31460902  0.33210294  1
  Al  Al195  1  0.81558359  0.49711946  0.68040370  1
  Al  Al196  1  0.32798049  0.00146372  0.17378419  1
  Al  Al197  1  0.50172057  0.82913080  0.32995160  1
  Al  Al198  1  -0.00138842  0.67005269  0.67951984  1
  Al  Al199  1  0.67787605  0.67866204  0.49930817  1
  Al  Al200  1  -0.00073350  0.18830883  0.68076644  1
  Al  Al201  1  0.67398892  0.50083098  0.17917872  1
  Al  Al202  1  0.50378178  0.67380427  0.82025570  1
  Al  Al203  1  0.50148564  0.16956647  0.82878385  1
  Al  Al204  1  0.00078008  0.66973741  0.32717572  1
  Al  Al205  1  0.17541712  0.00044502  0.32565471  1
  Al  Al206  1  -0.00227939  0.83111123  0.32418413  1
  Al  Al207  1  0.81065737  0.81787684  -0.00104338  1
  Al  Al208  1  0.81397410  0.17459431  -0.00149603  1
  Al  Al209  1  0.33223264  0.49768709  0.18546071  1
  Al  Al210  1  0.32645627  0.82167260  -0.00009280  1
  Al  Al211  1  0.50440226  0.67229434  0.17100310  1
  Al  Al212  1  0.67543094  0.00445855  0.17767146  1
  Al  Al213  1  -0.00056787  0.17471798  0.18471244  1
  Al  Al214  1  0.50041291  0.32150770  0.17647772  1
  Al  Al215  1  0.67944384  -0.00054913  0.32335158  1
  Al  Al216  1  0.50276842  0.32287747  0.82723358  1
  Al  Al217  1  0.17868568  0.18503564  0.00157221  1
  Al  Al218  1  0.83053725  0.32676043  -0.00103605  1
  Al  Al219  1  0.17352336  0.00133674  0.17227880  1
  Al  Al220  1  0.17996629  0.00006325  0.81671352  1
  Al  Al221  1  0.82667203  0.49863341  0.17937631  1
  Al  Al222  1  0.17399734  0.49736280  0.18235264  1
  Al  Al223  1  0.49990899  0.83171560  0.82827585  1
  Al  Al224  1  0.49918943  0.82930461  0.17086118  1
  Al  Al225  1  0.49953647  0.82700106  0.67264157  1
  Al  Al226  1  0.32167611  0.50128848  0.82259188  1
  Al  Al227  1  -0.00055639  0.67498552  0.17029084  1
  Al  Al228  1  0.49844351  0.17408944  0.67308641  1
  Al  Al229  1  0.17269510  0.82905243  -0.00138304  1
  Al  Al230  1  0.49807065  0.67202689  0.33287624  1
  Al  Al231  1  0.50129593  0.32886683  0.67117452  1
  Al  Al232  1  0.30664922  0.31388155  -0.00008535  1
  Al  Al233  1  0.67135926  -0.00172275  0.68666929  1
  Al  Al234  1  0.00030552  0.32702121  0.18112770  1
  Al  Al235  1  0.67303924  0.31476267  0.00014241  1
  Al  Al236  1  0.17618754  0.67665211  0.00034141  1
  Al  Al237  1  -0.00060120  0.82688727  0.67552613  1
  Al  Al238  1  0.32919646  0.00158180  0.32786899  1
  Au  Au239  1  0.17834126  0.00085252  0.66444260  1
  Au  Au240  1  0.16508647  0.33216947  0.50272273  1
  Au  Au241  1  0.00349811  0.66407965  0.34364372  1
  Au  Au242  1  0.50225757  0.32688433  0.32951223  1
  Au  Au243  1  0.50199985  0.33887580  0.83102214  1
  Au  Au244  1  0.16806333  0.18062964  -0.00407977  1
  Au  Au245  1  0.83379986  0.66796358  0.50506667  1
  Au  Au246  1  0.17558721  0.49863521  0.33312448  1
  Au  Au247  1  0.66580165  0.49532090  0.32866893  1
  Au  Au248  1  0.34184567  0.17101486  0.00020084  1
  Au  Au249  1  0.49699260  0.83304616  0.34093706  1
  Au  Au250  1  0.66696359  0.00211797  0.16924975  1
  Au  Au251  1  0.33575081  0.50076037  0.66606369  1
  Au  Au252  1  0.82339772  0.84150533  0.49944487  1
  Au  Au253  1  0.00000499  0.83642395  0.15953875  1
  Au  Au254  1  0.17808640  -0.00072370  0.82917644  1
  Au  Au255  1  0.16342401  0.49903251  0.66425171  1
  Au  Au256  1  0.00077803  0.66314375  0.16642192  1
  Au  Au257  1  0.83946829  0.00152685  0.17345733  1
  Au  Au258  1  0.50379059  0.66330443  0.16225576  1
  Au  Au259  1  -0.00408891  0.83544101  0.83876050  1
  Au  Au260  1  0.32568145  0.49719034  0.16937303  1
  Au  Au261  1  0.33975749  0.67493388  -0.00097138  1
  Au  Au262  1  0.17010898  0.16594695  0.50091460  1
  Au  Au263  1  -0.00045999  0.83215832  0.66385534  1
  Au  Au264  1  -0.00152385  0.32173121  0.33150884  1
  Au  Au265  1  0.50096212  0.84074733  0.82876819  1
  Au  Au266  1  0.49307107  0.66100645  0.33581764  1
  Au  Au267  1  0.67343392  0.17652287  0.49825492  1
  Au  Au268  1  0.33052950  0.49908840  0.83124323  1
  Au  Au269  1  0.66820772  0.67087483  0.50180011  1
  Au  Au270  1  0.67110410  0.00229338  0.33207624  1
  Au  Au271  1  0.67865686  0.33082038  -0.00016669  1
  Au  Au272  1  0.33452336  0.32661397  0.50079582  1
  Au  Au273  1  0.82425606  0.49657534  0.82827337  1
  Au  Au274  1  -0.00104705  0.66227030  0.82711162  1
  Au  Au275  1  0.49995522  0.83744798  0.16142454  1
  Au  Au276  1  0.16630358  0.66716852  -0.00042977  1
  Au  Au277  1  -0.00244619  0.83870106  0.33570371  1
  Au  Au278  1  0.32387110  0.82989655  0.50298184  1
  Au  Au279  1  0.16536875  0.00063105  0.33590970  1
  Au  Au280  1  0.50047252  0.31798583  0.16411765  1
  Au  Au281  1  0.82159568  0.67132483  -0.00050318  1
  Au  Au282  1  0.16486160  0.49273751  0.83312640  1
  Au  Au283  1  0.67659136  -0.00225286  0.67051051  1
  Au  Au284  1  0.83349291  0.49621553  0.32966196  1
  Au  Au285  1  -0.00342501  0.17404582  0.82784498  1
  Au  Au286  1  0.50402523  0.66404773  0.82980026  1
  Au  Au287  1  0.49817107  0.16417659  0.66316554  1
