# generated using pymatgen
data_Ca24Ti8Al207Au49
_symmetry_space_group_name_H-M   'P 1'
_cell_length_a   17.32291687
_cell_length_b   17.32279701
_cell_length_c   17.32263421
_cell_angle_alpha   90.00070441
_cell_angle_beta   90.00164779
_cell_angle_gamma   89.99772082
_symmetry_Int_Tables_number   1
_chemical_formula_structural   Ca24Ti8Al207Au49
_chemical_formula_sum   'Ca24 Ti8 Al207 Au49'
_cell_volume   5198.19984103
_cell_formula_units_Z   1
loop_
 _symmetry_equiv_pos_site_id
 _symmetry_equiv_pos_as_xyz
  1  'x, y, z'
loop_
 _atom_site_type_symbol
 _atom_site_label
 _atom_site_symmetry_multiplicity
 _atom_site_fract_x
 _atom_site_fract_y
 _atom_site_fract_z
 _atom_site_occupancy
  Ca  Ca0  1  0.25221871  0.00408971  0.00246630  1
  Ca  Ca1  1  0.25176425  0.00095752  0.49522502  1
  Ca  Ca2  1  0.25072405  0.49624245  -0.00344935  1
  Ca  Ca3  1  0.24638858  0.49912963  0.50332263  1
  Ca  Ca4  1  0.75092279  0.00158701  0.00005154  1
  Ca  Ca5  1  0.75058698  0.00270570  0.50175963  1
  Ca  Ca6  1  0.74869899  0.49783741  -0.00158003  1
  Ca  Ca7  1  0.75013417  0.49716333  0.49693185  1
  Ca  Ca8  1  -0.00203875  0.24743209  -0.00077107  1
  Ca  Ca9  1  -0.00422117  0.25214746  0.50145415  1
  Ca  Ca10  1  -0.00106237  0.75221039  0.00014290  1
  Ca  Ca11  1  -0.00297750  0.74552210  0.49798015  1
  Ca  Ca12  1  0.50083065  0.24653434  0.00395594  1
  Ca  Ca13  1  0.50578319  0.24885796  0.49903274  1
  Ca  Ca14  1  0.50389816  0.75085901  -0.00212972  1
  Ca  Ca15  1  0.50600654  0.75090666  0.50481942  1
  Ca  Ca16  1  -0.00646553  -0.00001622  0.24871283  1
  Ca  Ca17  1  -0.00692924  0.00148665  0.74953766  1
  Ca  Ca18  1  -0.00058747  0.50065012  0.25595027  1
  Ca  Ca19  1  0.00273229  0.49654430  0.74603408  1
  Ca  Ca20  1  0.50252664  0.00630766  0.24685814  1
  Ca  Ca21  1  0.50328173  0.00295225  0.74793114  1
  Ca  Ca22  1  0.50071558  0.49319418  0.25055148  1
  Ca  Ca23  1  0.50021273  0.49702712  0.74692223  1
  Ti  Ti24  1  0.24956242  0.24881930  0.24979346  1
  Ti  Ti25  1  0.25063572  0.24973271  0.75102279  1
  Ti  Ti26  1  0.24747124  0.75021557  0.25105933  1
  Ti  Ti27  1  0.24964069  0.74784954  0.74970167  1
  Ti  Ti28  1  0.75040713  0.24731574  0.25082614  1
  Ti  Ti29  1  0.74959297  0.24782771  0.74943839  1
  Ti  Ti30  1  0.75102138  0.75218203  0.25009388  1
  Ti  Ti31  1  0.74965201  0.75305324  0.75026832  1
  Al  Al32  1  0.08717968  0.08045607  0.08403661  1
  Al  Al33  1  0.07171144  0.08618376  0.59165661  1
  Al  Al34  1  0.07896491  0.58788562  0.08959100  1
  Al  Al35  1  0.08683764  0.57528430  0.58739490  1
  Al  Al36  1  0.58790699  0.08600345  0.09466373  1
  Al  Al37  1  0.59257490  0.08787551  0.58860358  1
  Al  Al38  1  0.58727196  0.57423969  0.07778755  1
  Al  Al39  1  0.58557249  0.58495640  0.57873229  1
  Al  Al40  1  0.42321182  0.40536588  0.08826678  1
  Al  Al41  1  0.41431046  0.41838047  0.59259252  1
  Al  Al42  1  0.42137208  0.93263974  0.07823821  1
  Al  Al43  1  0.42809974  0.92779478  0.58007875  1
  Al  Al44  1  0.91875162  0.41376832  0.07922981  1
  Al  Al45  1  0.91393718  0.41346378  0.57867256  1
  Al  Al46  1  0.90630008  0.91346157  0.07829422  1
  Al  Al47  1  0.91056856  0.91701200  0.57713293  1
  Al  Al48  1  0.41701548  0.08272461  0.40645087  1
  Al  Al49  1  0.41216215  0.08911401  0.92103644  1
  Al  Al50  1  0.42056289  0.57600245  0.42233254  1
  Al  Al51  1  0.41625583  0.58054648  0.91494406  1
  Al  Al52  1  0.90876598  0.08397898  0.41849855  1
  Al  Al53  1  0.90477679  0.08106615  0.91243728  1
  Al  Al54  1  0.92317872  0.58883548  0.41453373  1
  Al  Al55  1  0.92065215  0.58542437  0.92188050  1
  Al  Al56  1  0.08383149  0.41607723  0.41278036  1
  Al  Al57  1  0.08551262  0.41451700  0.91688474  1
  Al  Al58  1  0.07982126  0.92233915  0.40608973  1
  Al  Al59  1  0.07064979  0.92294415  0.92480355  1
  Al  Al60  1  0.58606035  0.40467998  0.41738251  1
  Al  Al61  1  0.58050945  0.41060495  0.92464116  1
  Al  Al62  1  0.59293555  0.91438664  0.42428890  1
  Al  Al63  1  0.59286303  0.91395819  0.92237650  1
  Al  Al64  1  0.08112069  0.07776484  0.41007574  1
  Al  Al65  1  0.07731021  0.08543228  0.92380370  1
  Al  Al66  1  0.08351867  0.57762744  0.40583786  1
  Al  Al67  1  0.08141115  0.57897458  0.91375862  1
  Al  Al68  1  0.58665944  0.08893252  0.42050503  1
  Al  Al69  1  0.58386393  0.08334309  0.91831682  1
  Al  Al70  1  0.58974472  0.58271027  0.42210628  1
  Al  Al71  1  0.58164358  0.58353035  0.91995326  1
  Al  Al72  1  0.42297819  0.41379900  0.41466094  1
  Al  Al73  1  0.41797738  0.41622559  0.91792163  1
  Al  Al74  1  0.41401222  0.92894059  0.40836038  1
  Al  Al75  1  0.42397609  0.92743488  0.91684654  1
  Al  Al76  1  0.92131276  0.40562119  0.41682804  1
  Al  Al77  1  0.92247997  0.41320033  0.92000469  1
  Al  Al78  1  0.90938190  0.91783748  0.41364403  1
  Al  Al79  1  0.90255076  0.91776786  0.91539711  1
  Al  Al80  1  0.08343852  0.41552797  0.07808756  1
  Al  Al81  1  0.08656447  0.41725380  0.58461594  1
  Al  Al82  1  0.07956947  0.92049046  0.08715812  1
  Al  Al83  1  0.07455680  0.92772334  0.58247427  1
  Al  Al84  1  0.58374710  0.40638379  0.08775560  1
  Al  Al85  1  0.58627168  0.40875587  0.57789316  1
  Al  Al86  1  0.60588445  0.92435377  0.08186522  1
  Al  Al87  1  0.59606795  0.91967971  0.58621211  1
  Al  Al88  1  0.41369705  0.09783085  0.08560192  1
  Al  Al89  1  0.42958855  0.08827374  0.58834198  1
  Al  Al90  1  0.41843560  0.57278594  0.07067100  1
  Al  Al91  1  0.41268826  0.57528131  0.59355958  1
  Al  Al92  1  0.90501410  0.08330034  0.07474588  1
  Al  Al93  1  0.91000072  0.09518048  0.58265305  1
  Al  Al94  1  0.92109612  0.59247021  0.08502147  1
  Al  Al95  1  0.91754476  0.57762483  0.57783026  1
  Al  Al96  1  0.25384139  0.13641050  0.13029386  1
  Al  Al97  1  0.25322070  0.13679627  0.63767215  1
  Al  Al98  1  0.24547627  0.63555193  0.13678538  1
  Al  Al99  1  0.24981185  0.63073154  0.63233717  1
  Al  Al100  1  0.74807558  0.13027872  0.13455498  1
  Al  Al101  1  0.75054857  0.12884012  0.63610016  1
  Al  Al102  1  0.74807496  0.63707640  0.13561987  1
  Al  Al103  1  0.74805736  0.63453655  0.63500049  1
  Al  Al104  1  0.24935987  0.36282777  0.13641691  1
  Al  Al105  1  0.25252726  0.36784869  0.63722611  1
  Al  Al106  1  0.24474170  0.86853176  0.13604566  1
  Al  Al107  1  0.25169322  0.86382245  0.63432432  1
  Al  Al108  1  0.75291586  0.36092844  0.13661022  1
  Al  Al109  1  0.74788794  0.35806320  0.62588118  1
  Al  Al110  1  0.75168527  0.87288946  0.13430490  1
  Al  Al111  1  0.74802200  0.87494952  0.63477171  1
  Al  Al112  1  0.24922086  0.13404298  0.36443633  1
  Al  Al113  1  0.25015328  0.13698938  0.86972553  1
  Al  Al114  1  0.24549619  0.63471428  0.36985903  1
  Al  Al115  1  0.24755293  0.63372367  0.86354699  1
  Al  Al116  1  0.75269460  0.13273844  0.36593187  1
  Al  Al117  1  0.75113463  0.13228134  0.86806193  1
  Al  Al118  1  0.75058290  0.62816410  0.36275386  1
  Al  Al119  1  0.74685124  0.63411902  0.86504150  1
  Al  Al120  1  0.24917602  0.36433648  0.36324454  1
  Al  Al121  1  0.25243378  0.36373487  0.86391426  1
  Al  Al122  1  0.24720465  0.86459563  0.36643657  1
  Al  Al123  1  0.24841357  0.86269994  0.86433496  1
  Al  Al124  1  0.74924064  0.36425253  0.36987702  1
  Al  Al125  1  0.74902718  0.36291270  0.86382475  1
  Al  Al126  1  0.75127485  0.86868421  0.36512837  1
  Al  Al127  1  0.75350093  0.86914106  0.86910240  1
  Al  Al128  1  0.13305484  0.24743069  0.13790106  1
  Al  Al129  1  0.12959780  0.25139396  0.63591082  1
  Al  Al130  1  0.13556192  0.75039589  0.13363703  1
  Al  Al131  1  0.13346639  0.74412768  0.63262710  1
  Al  Al132  1  0.63254941  0.24587068  0.13597484  1
  Al  Al133  1  0.63549641  0.24588029  0.63555113  1
  Al  Al134  1  0.64037907  0.75877429  0.12984747  1
  Al  Al135  1  0.63951486  0.75491132  0.63498273  1
  Al  Al136  1  0.13104219  0.25132531  0.36362913  1
  Al  Al137  1  0.13338771  0.24659221  0.86509453  1
  Al  Al138  1  0.12884421  0.74561678  0.36365734  1
  Al  Al139  1  0.13543995  0.74898401  0.86783415  1
  Al  Al140  1  0.63637354  0.24658487  0.36499176  1
  Al  Al141  1  0.63498387  0.24158366  0.86553805  1
  Al  Al142  1  0.63729456  0.75453491  0.36334285  1
  Al  Al143  1  0.63904818  0.75659676  0.86768503  1
  Al  Al144  1  0.36597653  0.25008202  0.13143045  1
  Al  Al145  1  0.36590054  0.24992547  0.63324619  1
  Al  Al146  1  0.36251919  0.75134302  0.13783428  1
  Al  Al147  1  0.36277557  0.74667469  0.63438272  1
  Al  Al148  1  0.86371931  0.24636488  0.13238523  1
  Al  Al149  1  0.86494493  0.24547661  0.62946429  1
  Al  Al150  1  0.86020157  0.75483712  0.13210399  1
  Al  Al151  1  0.86230610  0.75352874  0.63603759  1
  Al  Al152  1  0.36468266  0.24979784  0.36586660  1
  Al  Al153  1  0.36465905  0.24764090  0.87238534  1
  Al  Al154  1  0.36389191  0.74676128  0.36493388  1
  Al  Al155  1  0.36379972  0.74866043  0.86196364  1
  Al  Al156  1  0.86294323  0.24806838  0.37120507  1
  Al  Al157  1  0.86181379  0.24611773  0.86954410  1
  Al  Al158  1  0.86398002  0.74838299  0.36465447  1
  Al  Al159  1  0.86202422  0.75304131  0.86819050  1
  Al  Al160  1  0.13368405  0.13167431  0.25199262  1
  Al  Al161  1  0.13038416  0.13813548  0.74754508  1
  Al  Al162  1  0.13428699  0.63098268  0.25433230  1
  Al  Al163  1  0.13662764  0.63242113  0.74536654  1
  Al  Al164  1  0.63219457  0.13349761  0.24803350  1
  Al  Al165  1  0.63268816  0.13232959  0.74735006  1
  Al  Al166  1  0.63405481  0.63852888  0.25167588  1
  Al  Al167  1  0.63784172  0.63102007  0.74966302  1
  Al  Al168  1  0.37067668  0.13829867  0.24935485  1
  Al  Al169  1  0.37213001  0.13954334  0.75133597  1
  Al  Al170  1  0.36375190  0.63605067  0.25293525  1
  Al  Al171  1  0.36332511  0.63242238  0.74645653  1
  Al  Al172  1  0.86173732  0.12913860  0.25000586  1
  Al  Al173  1  0.86157487  0.12989987  0.74867571  1
  Al  Al174  1  0.86463508  0.63493742  0.25276925  1
  Al  Al175  1  0.86295095  0.63787361  0.74914511  1
  Al  Al176  1  0.13260782  0.36707956  0.25537293  1
  Al  Al177  1  0.13597582  0.36541602  0.74367511  1
  Al  Al178  1  0.13435427  0.86912492  0.25316212  1
  Al  Al179  1  0.13522784  0.86179162  0.74668122  1
  Al  Al180  1  0.63710765  0.36078811  0.25064243  1
  Al  Al181  1  0.63818191  0.36738941  0.74709463  1
  Al  Al182  1  0.63802878  0.86991590  0.24857804  1
  Al  Al183  1  0.63787672  0.86945583  0.74795313  1
  Al  Al184  1  0.36668172  0.36125184  0.24711929  1
  Al  Al185  1  0.36633386  0.36277866  0.74844801  1
  Al  Al186  1  0.36188469  0.87000287  0.25538730  1
  Al  Al187  1  0.36482488  0.86443791  0.74813553  1
  Al  Al188  1  0.86575937  0.36096189  0.25762854  1
  Al  Al189  1  0.86272469  0.35929098  0.74394025  1
  Al  Al190  1  0.86122298  0.87358259  0.25036064  1
  Al  Al191  1  0.86070609  0.87440920  0.74900698  1
  Al  Al192  1  -0.00489875  0.17203590  0.81746313  1
  Al  Al193  1  0.18239754  0.00140311  0.67201361  1
  Al  Al194  1  0.68606816  0.00004081  0.81700763  1
  Al  Al195  1  0.32693920  0.49846028  0.81583355  1
  Al  Al196  1  0.68450430  0.68997145  0.49868440  1
  Al  Al197  1  0.81944340  0.49721179  0.67230066  1
  Al  Al198  1  0.31925178  0.67450700  0.00048290  1
  Al  Al199  1  -0.00379197  0.82889519  0.82917732  1
  Al  Al200  1  -0.00068129  0.68391756  0.19292572  1
  Al  Al201  1  0.50085137  0.67537560  0.82533793  1
  Al  Al202  1  0.82974666  0.50012191  0.17635081  1
  Al  Al203  1  0.50172302  0.82945734  0.82689980  1
  Al  Al204  1  0.68269987  0.67880102  0.00006861  1
  Al  Al205  1  0.68324939  0.00162148  0.31767089  1
  Al  Al206  1  0.16606428  0.00115479  0.82173419  1
  Al  Al207  1  0.17133585  0.16756231  0.50197273  1
  Al  Al208  1  0.00018850  0.32424001  0.81719725  1
  Al  Al209  1  0.50193046  0.82765702  0.67335571  1
  Al  Al210  1  0.49760779  0.66845961  0.17278170  1
  Al  Al211  1  -0.00451779  0.17858947  0.32273678  1
  Al  Al212  1  0.50094842  0.31657061  0.31491007  1
  Al  Al213  1  -0.00310899  0.81690699  0.32033042  1
  Al  Al214  1  0.17907921  0.32583836  0.49965893  1
  Al  Al215  1  0.17428606  0.49750782  0.81532642  1
  Al  Al216  1  0.50121335  0.82571618  0.32935325  1
  Al  Al217  1  0.69112882  0.18767543  0.50107458  1
  Al  Al218  1  0.00014652  0.67586918  0.82058527  1
  Al  Al219  1  0.17328471  0.49850966  0.18180171  1
  Al  Al220  1  0.32891566  0.49876387  0.17065675  1
  Al  Al221  1  0.67340293  0.49779002  0.18099618  1
  Al  Al222  1  -0.00215623  0.82292179  0.67477582  1
  Al  Al223  1  0.32571045  0.00186650  0.81886215  1
  Al  Al224  1  0.33153406  0.82384812  0.49918398  1
  Al  Al225  1  0.68288142  0.31556867  0.00078016  1
  Al  Al226  1  0.50240844  0.67360365  0.67350132  1
  Al  Al227  1  0.50233050  0.31693806  0.67220153  1
  Al  Al228  1  0.33031319  0.17712131  0.49972877  1
  Al  Al229  1  0.32168237  0.00399311  0.17776295  1
  Al  Al230  1  0.16596396  0.82538397  0.49958960  1
  Al  Al231  1  0.50130651  0.31822285  0.82501175  1
  Al  Al232  1  0.32472190  0.83297952  -0.00112351  1
  Al  Al233  1  0.18286247  0.31687954  -0.00013146  1
  Al  Al234  1  -0.00109461  0.32135785  0.18708910  1
  Al  Al235  1  0.80897590  0.81954773  0.49990762  1
  Al  Al236  1  0.50193541  0.83131500  0.16952629  1
  Al  Al237  1  0.31425863  0.49961575  0.32896989  1
  Al  Al238  1  0.82578298  0.49859658  0.82953493  1
  Au  Au239  1  0.15890710  0.17085341  0.50179195  1
  Au  Au240  1  0.84167933  0.49880011  0.82377609  1
  Au  Au241  1  -0.00138470  0.65883703  0.67277753  1
  Au  Au242  1  0.49593908  0.65242825  0.16782120  1
  Au  Au243  1  0.50234698  0.17050228  0.32301189  1
  Au  Au244  1  0.83133768  0.67230446  0.49938782  1
  Au  Au245  1  0.34054574  0.82715362  -0.00384831  1
  Au  Au246  1  -0.00109265  0.33020274  0.66726718  1
  Au  Au247  1  0.16847872  0.49840313  0.16977532  1
  Au  Au248  1  0.17419387  0.16976628  0.00188774  1
  Au  Au249  1  0.16339594  0.84211774  0.49902418  1
  Au  Au250  1  0.33250191  0.65981992  0.50528988  1
  Au  Au251  1  -0.00463672  0.16836036  0.82973568  1
  Au  Au252  1  0.83625933  0.68175107  -0.00063321  1
  Au  Au253  1  0.82248010  0.32017696  0.49881773  1
  Au  Au254  1  0.67006821  0.67832549  -0.00001685  1
  Au  Au255  1  0.00078442  0.33364849  0.17556632  1
  Au  Au256  1  -0.00590777  0.16302997  0.16044405  1
  Au  Au257  1  0.33282008  0.32661996  0.00115117  1
  Au  Au258  1  -0.00491632  0.82778534  0.16453736  1
  Au  Au259  1  0.67396281  -0.00064232  0.82874516  1
  Au  Au260  1  0.50253227  0.67100990  0.34335487  1
  Au  Au261  1  0.16409218  0.65936358  0.49685216  1
  Au  Au262  1  0.67525475  0.00143767  0.33271777  1
  Au  Au263  1  0.67213078  0.16753088  0.00459176  1
  Au  Au264  1  0.82970833  0.00307181  0.66724735  1
  Au  Au265  1  0.16724366  0.00031691  0.18225441  1
  Au  Au266  1  0.32912059  0.34101378  0.50282905  1
  Au  Au267  1  0.82510274  0.50267490  0.16010766  1
  Au  Au268  1  0.83795431  0.49685219  0.33788873  1
  Au  Au269  1  0.49825809  0.16991864  0.82989665  1
  Au  Au270  1  0.82596815  0.00150350  0.16877862  1
  Au  Au271  1  -0.00296838  0.82858606  0.32552636  1
  Au  Au272  1  -0.00421719  0.17041683  0.33416923  1
  Au  Au273  1  0.51105138  0.84469581  0.16227176  1
  Au  Au274  1  0.49821217  0.83739672  0.33258754  1
  Au  Au275  1  0.34240953  0.83585525  0.49916228  1
  Au  Au276  1  0.67117150  0.49695468  0.65834692  1
  Au  Au277  1  0.33066456  0.49917517  0.32418920  1
  Au  Au278  1  0.33511612  0.00279553  0.66893554  1
  Au  Au279  1  0.66200670  0.49575203  0.33009668  1
  Au  Au280  1  0.16964745  0.66109123  -0.00177812  1
  Au  Au281  1  0.33612643  0.16599102  0.49972015  1
  Au  Au282  1  0.83184639  0.32239904  -0.00192236  1
  Au  Au283  1  0.16055994  0.83136663  0.00039316  1
  Au  Au284  1  0.00107437  0.83509649  0.67187736  1
  Au  Au285  1  0.17254801  -0.00372701  0.83671925  1
  Au  Au286  1  0.33417557  0.00536955  0.18047266  1
  Au  Au287  1  0.65863631  0.49556332  0.83287145  1
