# generated using pymatgen
data_Ca24Ti8Al207Au49
_symmetry_space_group_name_H-M   'P 1'
_cell_length_a   17.31788835
_cell_length_b   17.31880624
_cell_length_c   17.31759563
_cell_angle_alpha   89.99742798
_cell_angle_beta   90.00124611
_cell_angle_gamma   90.00357428
_symmetry_Int_Tables_number   1
_chemical_formula_structural   Ca24Ti8Al207Au49
_chemical_formula_sum   'Ca24 Ti8 Al207 Au49'
_cell_volume   5193.98249844
_cell_formula_units_Z   1
loop_
 _symmetry_equiv_pos_site_id
 _symmetry_equiv_pos_as_xyz
  1  'x, y, z'
loop_
 _atom_site_type_symbol
 _atom_site_label
 _atom_site_symmetry_multiplicity
 _atom_site_fract_x
 _atom_site_fract_y
 _atom_site_fract_z
 _atom_site_occupancy
  Ca  Ca0  1  0.25433123  0.00080950  0.00024509  1
  Ca  Ca1  1  0.25155882  -0.00163153  0.49896139  1
  Ca  Ca2  1  0.24829876  0.49733757  -0.00418759  1
  Ca  Ca3  1  0.24985175  0.50050684  0.50324194  1
  Ca  Ca4  1  0.75220317  -0.00189448  0.00193463  1
  Ca  Ca5  1  0.74853637  -0.00157180  0.49677370  1
  Ca  Ca6  1  0.75539716  0.50125645  -0.00538744  1
  Ca  Ca7  1  0.75230278  0.50101010  0.50522013  1
  Ca  Ca8  1  0.00462931  0.25952054  -0.00574200  1
  Ca  Ca9  1  0.00506614  0.25411766  0.50722906  1
  Ca  Ca10  1  0.00008960  0.74615254  -0.00587839  1
  Ca  Ca11  1  0.00071037  0.74630396  0.50140678  1
  Ca  Ca12  1  0.49198815  0.25453431  -0.00017187  1
  Ca  Ca13  1  0.49890493  0.25104708  0.49906981  1
  Ca  Ca14  1  0.49781318  0.74999531  0.00254101  1
  Ca  Ca15  1  0.50036432  0.74710089  0.50087399  1
  Ca  Ca16  1  -0.00189492  0.00237232  0.24905711  1
  Ca  Ca17  1  0.00116887  0.00029960  0.74690475  1
  Ca  Ca18  1  -0.00116147  0.49840958  0.24966088  1
  Ca  Ca19  1  0.00226376  0.49959563  0.74875341  1
  Ca  Ca20  1  0.50147778  -0.00126362  0.25238889  1
  Ca  Ca21  1  0.49873394  0.00611845  0.75158043  1
  Ca  Ca22  1  0.49959121  0.50105107  0.25180993  1
  Ca  Ca23  1  0.49823216  0.49511926  0.74726536  1
  Ti  Ti24  1  0.25084647  0.25113034  0.25154487  1
  Ti  Ti25  1  0.24955357  0.25193085  0.74800183  1
  Ti  Ti26  1  0.25100027  0.74899690  0.24874661  1
  Ti  Ti27  1  0.24850863  0.74799722  0.75058292  1
  Ti  Ti28  1  0.74800578  0.24986522  0.25090948  1
  Ti  Ti29  1  0.75173867  0.25180011  0.74972681  1
  Ti  Ti30  1  0.74962090  0.75002511  0.25157880  1
  Ti  Ti31  1  0.75260037  0.74867134  0.74924123  1
  Al  Al32  1  0.09034807  0.08331341  0.07546864  1
  Al  Al33  1  0.08638355  0.09117588  0.58215563  1
  Al  Al34  1  0.07652504  0.58313071  0.08615700  1
  Al  Al35  1  0.09288493  0.58329240  0.58733378  1
  Al  Al36  1  0.58613658  0.07509385  0.09781796  1
  Al  Al37  1  0.57981266  0.08610361  0.58289892  1
  Al  Al38  1  0.57932923  0.57935440  0.07839146  1
  Al  Al39  1  0.59171659  0.57819679  0.58576298  1
  Al  Al40  1  0.40675444  0.41305176  0.08054779  1
  Al  Al41  1  0.41507906  0.40912927  0.58913306  1
  Al  Al42  1  0.41216306  0.91309966  0.08129702  1
  Al  Al43  1  0.40748984  0.92149020  0.57751014  1
  Al  Al44  1  0.91506981  0.42708178  0.09004123  1
  Al  Al45  1  0.92209879  0.41910861  0.59410947  1
  Al  Al46  1  0.90978635  0.92000136  0.08797299  1
  Al  Al47  1  0.91983857  0.90779317  0.58751995  1
  Al  Al48  1  0.42231457  0.09057388  0.41227434  1
  Al  Al49  1  0.41264766  0.09230255  0.91911857  1
  Al  Al50  1  0.40975990  0.58880558  0.42283191  1
  Al  Al51  1  0.40730187  0.57051323  0.91360971  1
  Al  Al52  1  0.91123813  0.07861215  0.42037606  1
  Al  Al53  1  0.92087224  0.08049673  0.90514433  1
  Al  Al54  1  0.90044367  0.58650503  0.41814387  1
  Al  Al55  1  0.92286109  0.58362132  0.90200274  1
  Al  Al56  1  0.07729510  0.41777740  0.42781175  1
  Al  Al57  1  0.09562010  0.41714021  0.90996555  1
  Al  Al58  1  0.08880910  0.92230153  0.42879243  1
  Al  Al59  1  0.08255114  0.91618760  0.91670551  1
  Al  Al60  1  0.57599855  0.42042974  0.41744617  1
  Al  Al61  1  0.57842684  0.41354894  0.89694952  1
  Al  Al62  1  0.58524427  0.92206306  0.40786128  1
  Al  Al63  1  0.57669950  0.92400904  0.91997083  1
  Al  Al64  1  0.09466365  0.08366270  0.42628266  1
  Al  Al65  1  0.08270010  0.08968411  0.91555206  1
  Al  Al66  1  0.08788134  0.58895959  0.42715980  1
  Al  Al67  1  0.08549128  0.57983778  0.90252008  1
  Al  Al68  1  0.58392574  0.08425770  0.39971811  1
  Al  Al69  1  0.57464544  0.08103251  0.91092857  1
  Al  Al70  1  0.58569530  0.58357952  0.42321154  1
  Al  Al71  1  0.58945431  0.56986965  0.91560554  1
  Al  Al72  1  0.41173388  0.41089113  0.42486411  1
  Al  Al73  1  0.40643040  0.40929343  0.90728647  1
  Al  Al74  1  0.41793793  0.91314123  0.41888977  1
  Al  Al75  1  0.41404571  0.91414973  0.92277413  1
  Al  Al76  1  0.91464370  0.42752824  0.40989174  1
  Al  Al77  1  0.91918679  0.42367712  0.90999885  1
  Al  Al78  1  0.90880521  0.92103247  0.42242063  1
  Al  Al79  1  0.91415460  0.92198021  0.91025694  1
  Al  Al80  1  0.08753666  0.41602740  0.07307761  1
  Al  Al81  1  0.08600593  0.41440869  0.59371798  1
  Al  Al82  1  0.08374053  0.91891617  0.07880375  1
  Al  Al83  1  0.08100918  0.90673089  0.58828881  1
  Al  Al84  1  0.57171409  0.42232382  0.08316556  1
  Al  Al85  1  0.57937092  0.41605794  0.59743080  1
  Al  Al86  1  0.58836798  0.92042974  0.09539875  1
  Al  Al87  1  0.57716182  0.92521195  0.57282379  1
  Al  Al88  1  0.41294932  0.08801836  0.08044284  1
  Al  Al89  1  0.41629011  0.08339615  0.58455432  1
  Al  Al90  1  0.40896483  0.57416918  0.08778496  1
  Al  Al91  1  0.40932024  0.58100625  0.58152129  1
  Al  Al92  1  0.91066539  0.07392715  0.08783238  1
  Al  Al93  1  0.91907911  0.08369530  0.58236391  1
  Al  Al94  1  0.91673749  0.58524552  0.10246614  1
  Al  Al95  1  0.91004366  0.58570466  0.58316070  1
  Al  Al96  1  0.25356527  0.13034162  0.13470728  1
  Al  Al97  1  0.24754273  0.13989113  0.63114896  1
  Al  Al98  1  0.25333015  0.63069083  0.13457521  1
  Al  Al99  1  0.24948220  0.63300865  0.63431665  1
  Al  Al100  1  0.74633233  0.13124587  0.13609681  1
  Al  Al101  1  0.74978730  0.13582422  0.63710561  1
  Al  Al102  1  0.75130630  0.63298108  0.13783544  1
  Al  Al103  1  0.75362067  0.62804653  0.63988324  1
  Al  Al104  1  0.25269711  0.36839967  0.13501345  1
  Al  Al105  1  0.24991064  0.36530842  0.62879095  1
  Al  Al106  1  0.25074540  0.86568948  0.12967421  1
  Al  Al107  1  0.24610222  0.86299630  0.63370711  1
  Al  Al108  1  0.75502391  0.36791400  0.13327248  1
  Al  Al109  1  0.74750547  0.37492045  0.64059669  1
  Al  Al110  1  0.74907848  0.86503389  0.13658271  1
  Al  Al111  1  0.75389330  0.86784045  0.63614630  1
  Al  Al112  1  0.25017659  0.13589337  0.36805222  1
  Al  Al113  1  0.25362042  0.13561372  0.86472885  1
  Al  Al114  1  0.24933269  0.63263663  0.36460049  1
  Al  Al115  1  0.24683216  0.63037202  0.86649805  1
  Al  Al116  1  0.74593039  0.12824648  0.36152224  1
  Al  Al117  1  0.75482156  0.12970237  0.86102487  1
  Al  Al118  1  0.75216695  0.62829287  0.36162551  1
  Al  Al119  1  0.75388094  0.63218859  0.86161236  1
  Al  Al120  1  0.25189601  0.36435159  0.37435293  1
  Al  Al121  1  0.24765999  0.37192570  0.86116212  1
  Al  Al122  1  0.24929385  0.86329510  0.36517356  1
  Al  Al123  1  0.24706181  0.86532111  0.86894839  1
  Al  Al124  1  0.75158364  0.36941656  0.36568688  1
  Al  Al125  1  0.75404061  0.36696311  0.86432903  1
  Al  Al126  1  0.75285118  0.87146353  0.36363937  1
  Al  Al127  1  0.75428265  0.86961242  0.86115310  1
  Al  Al128  1  0.14002683  0.25376135  0.13357784  1
  Al  Al129  1  0.13323347  0.25409510  0.63264145  1
  Al  Al130  1  0.13853680  0.74751789  0.12904707  1
  Al  Al131  1  0.13621415  0.74626031  0.63150159  1
  Al  Al132  1  0.63590098  0.25425208  0.13875470  1
  Al  Al133  1  0.63586804  0.25142582  0.63517106  1
  Al  Al134  1  0.63090714  0.74837404  0.14013922  1
  Al  Al135  1  0.63914342  0.74612377  0.63605500  1
  Al  Al136  1  0.14048479  0.25098836  0.37381150  1
  Al  Al137  1  0.13711699  0.25595564  0.86666919  1
  Al  Al138  1  0.13692727  0.74554234  0.37092918  1
  Al  Al139  1  0.13469288  0.74813323  0.86810978  1
  Al  Al140  1  0.62969975  0.24864077  0.36599346  1
  Al  Al141  1  0.63513957  0.25717988  0.86152003  1
  Al  Al142  1  0.63881683  0.74737186  0.36369806  1
  Al  Al143  1  0.64051723  0.74858440  0.86070363  1
  Al  Al144  1  0.36319435  0.24863983  0.13419687  1
  Al  Al145  1  0.36615825  0.25823819  0.63207949  1
  Al  Al146  1  0.36862965  0.75167982  0.13357446  1
  Al  Al147  1  0.36205103  0.74442209  0.63603253  1
  Al  Al148  1  0.85906377  0.24805593  0.13365656  1
  Al  Al149  1  0.87013056  0.25490837  0.63911336  1
  Al  Al150  1  0.86263287  0.74712411  0.13957523  1
  Al  Al151  1  0.86609457  0.74710878  0.63659641  1
  Al  Al152  1  0.36926630  0.25191926  0.36504462  1
  Al  Al153  1  0.36347036  0.25586252  0.86204684  1
  Al  Al154  1  0.36361201  0.74502755  0.36427835  1
  Al  Al155  1  0.36067610  0.75127917  0.86579041  1
  Al  Al156  1  0.86020275  0.24791690  0.36075685  1
  Al  Al157  1  0.86577969  0.25375800  0.86436643  1
  Al  Al158  1  0.86208847  0.74495196  0.36529957  1
  Al  Al159  1  0.86716711  0.74555520  0.85995789  1
  Al  Al160  1  0.13888621  0.13760906  0.24725703  1
  Al  Al161  1  0.13546102  0.13856825  0.74755455  1
  Al  Al162  1  0.13539013  0.63554632  0.24729038  1
  Al  Al163  1  0.13264297  0.63379480  0.75403567  1
  Al  Al164  1  0.63321707  0.13200520  0.25158289  1
  Al  Al165  1  0.63402287  0.13492280  0.75296379  1
  Al  Al166  1  0.62981043  0.63269801  0.25146353  1
  Al  Al167  1  0.63619722  0.63146914  0.74713028  1
  Al  Al168  1  0.36488189  0.13663953  0.25302360  1
  Al  Al169  1  0.36367404  0.14050943  0.74835132  1
  Al  Al170  1  0.36865167  0.63511810  0.24675478  1
  Al  Al171  1  0.36000619  0.62830505  0.75313831  1
  Al  Al172  1  0.85982679  0.12660945  0.24787495  1
  Al  Al173  1  0.86646241  0.13163758  0.74640373  1
  Al  Al174  1  0.86453314  0.63027573  0.25004667  1
  Al  Al175  1  0.87008638  0.62654874  0.75084715  1
  Al  Al176  1  0.13941276  0.36692021  0.25251214  1
  Al  Al177  1  0.13180779  0.36465847  0.75010433  1
  Al  Al178  1  0.13773274  0.86131643  0.24617460  1
  Al  Al179  1  0.13335180  0.86311614  0.74808381  1
  Al  Al180  1  0.63496323  0.36815076  0.25544869  1
  Al  Al181  1  0.62987143  0.36516364  0.74721794  1
  Al  Al182  1  0.63712967  0.86823587  0.25097167  1
  Al  Al183  1  0.63686849  0.86566726  0.75041482  1
  Al  Al184  1  0.36235463  0.36610321  0.25064206  1
  Al  Al185  1  0.36162954  0.37087290  0.74958369  1
  Al  Al186  1  0.36314080  0.86417015  0.24620324  1
  Al  Al187  1  0.35986405  0.86323662  0.75117009  1
  Al  Al188  1  0.86452869  0.36616701  0.24912896  1
  Al  Al189  1  0.86892697  0.37084622  0.75042518  1
  Al  Al190  1  0.86450434  0.87197735  0.24897524  1
  Al  Al191  1  0.86728279  0.86738343  0.74918211  1
  Al  Al192  1  0.67172934  0.32529454  0.50250331  1
  Al  Al193  1  0.32912541  -0.00027277  0.32272461  1
  Al  Al194  1  0.00160884  0.32869347  0.17143255  1
  Al  Al195  1  0.00144426  0.68017973  0.68114467  1
  Al  Al196  1  -0.00017185  0.81649627  0.81563083  1
  Al  Al197  1  0.83249613  0.32959235  0.49996999  1
  Al  Al198  1  0.32118303  0.68080358  -0.00058970  1
  Al  Al199  1  0.66982237  0.82726369  0.49823643  1
  Al  Al200  1  0.83440024  0.17591755  -0.00345760  1
  Al  Al201  1  0.49768974  0.32929457  0.18280780  1
  Al  Al202  1  0.67713074  -0.00243188  0.67685630  1
  Al  Al203  1  0.49994785  0.82445437  0.66799836  1
  Al  Al204  1  0.49853181  0.18819712  0.82630256  1
  Al  Al205  1  0.67163608  0.17316652  0.00013821  1
  Al  Al206  1  0.31719437  0.00203947  0.68198168  1
  Al  Al207  1  0.69225254  0.67515099  0.50161731  1
  Al  Al208  1  0.17496245  0.00010394  0.32315088  1
  Al  Al209  1  0.49888056  0.18527852  0.67430701  1
  Al  Al210  1  0.82873991  0.82641406  -0.00211026  1
  Al  Al211  1  0.32259321  0.50070020  0.31786420  1
  Al  Al212  1  0.49941165  0.17697778  0.18208528  1
  Al  Al213  1  0.49932264  0.66961299  0.67197663  1
  Al  Al214  1  0.49974107  0.82484518  0.82623995  1
  Al  Al215  1  0.81730653  0.17540366  0.50058804  1
  Al  Al216  1  0.67092801  0.33448917  -0.00098613  1
  Al  Al217  1  0.67754896  0.82569147  -0.00158335  1
  Al  Al218  1  0.67397148  0.67161743  -0.00081205  1
  Al  Al219  1  -0.00100244  0.66941974  0.31925791  1
  Al  Al220  1  0.68280629  0.49932799  0.17935987  1
  Al  Al221  1  0.17692893  0.49840052  0.17587214  1
  Al  Al222  1  0.18246549  0.49900799  0.68871860  1
  Al  Al223  1  0.82272560  0.81136106  0.50101196  1
  Al  Al224  1  0.00068606  0.32737190  0.32569464  1
  Al  Al225  1  0.32113174  0.18533914  0.49921528  1
  Al  Al226  1  -0.00027968  0.81429754  0.16936449  1
  Al  Al227  1  0.49850499  0.67236613  0.83183954  1
  Al  Al228  1  0.19303121  0.19083808  0.00018871  1
  Al  Al229  1  -0.00076068  0.17194920  0.17152933  1
  Al  Al230  1  0.31945207  0.81231202  0.49941759  1
  Al  Al231  1  0.00382424  0.17134122  0.33512115  1
  Al  Al232  1  0.17646506  0.00186028  0.82046868  1
  Al  Al233  1  0.00081962  0.18525751  0.81554449  1
  Al  Al234  1  0.30773420  0.31297492  -0.00153682  1
  Al  Al235  1  0.82792037  0.67231627  -0.00036051  1
  Al  Al236  1  0.69018754  0.49823288  0.80736154  1
  Al  Al237  1  0.50029229  0.82026218  0.32158579  1
  Al  Al238  1  0.00283565  0.83138856  0.32899099  1
  Au  Au239  1  0.16740193  0.00122740  0.82909245  1
  Au  Au240  1  0.66188638  0.82972896  0.00107392  1
  Au  Au241  1  0.33983628  0.00011032  0.82960122  1
  Au  Au242  1  0.67446725  -0.00056630  0.83326046  1
  Au  Au243  1  0.49828708  0.83501000  0.17326533  1
  Au  Au244  1  0.49809016  0.32660964  0.33359085  1
  Au  Au245  1  0.17891490  0.83628435  -0.00015034  1
  Au  Au246  1  0.17104033  0.81965717  0.50137811  1
  Au  Au247  1  0.65842698  0.33207079  -0.00097447  1
  Au  Au248  1  0.33196687  0.66798333  -0.00014121  1
  Au  Au249  1  0.67553278  0.49913085  0.16397396  1
  Au  Au250  1  0.18179162  0.17825955  -0.00280929  1
  Au  Au251  1  0.33169071  -0.00036045  0.17015934  1
  Au  Au252  1  0.84517694  0.32812115  0.49937911  1
  Au  Au253  1  0.17076901  0.00000366  0.65895029  1
  Au  Au254  1  0.49830663  0.66142887  0.16801588  1
  Au  Au255  1  0.83187649  0.16337223  -0.00411684  1
  Au  Au256  1  0.17022903  0.32999378  0.50274154  1
  Au  Au257  1  0.00449222  0.17578799  0.35130297  1
  Au  Au258  1  0.16242090  0.49801715  0.33818598  1
  Au  Au259  1  0.15669917  0.66801855  -0.00317000  1
  Au  Au260  1  0.66858177  -0.00023584  0.66802642  1
  Au  Au261  1  0.66784059  0.16112871  0.49309612  1
  Au  Au262  1  0.82735535  0.82335196  0.50086795  1
  Au  Au263  1  0.82383828  0.00150274  0.32476253  1
  Au  Au264  1  0.66886971  0.33731009  0.50460731  1
  Au  Au265  1  0.49964764  0.16770613  0.17109841  1
  Au  Au266  1  0.82485554  0.49938257  0.67838643  1
  Au  Au267  1  0.00323624  0.84679132  0.33371262  1
  Au  Au268  1  0.32969953  0.17082536  0.49942528  1
  Au  Au269  1  0.49414554  0.84004355  0.66990778  1
  Au  Au270  1  0.84075178  -0.00112695  0.67482847  1
  Au  Au271  1  0.33477053  0.49966006  0.32928404  1
  Au  Au272  1  0.00070785  0.17684396  0.66660660  1
  Au  Au273  1  0.00172606  0.67194348  0.66654428  1
  Au  Au274  1  0.33008242  0.49897117  0.67488997  1
  Au  Au275  1  -0.00219560  0.65742804  0.33054156  1
  Au  Au276  1  0.17140244  0.49880863  0.16326501  1
  Au  Au277  1  0.67769719  0.50061841  0.33914506  1
  Au  Au278  1  0.16270867  -0.00061768  0.17549215  1
  Au  Au279  1  0.50212469  0.65611986  0.82865260  1
  Au  Au280  1  -0.00189448  0.82105543  0.15387984  1
  Au  Au281  1  0.50064419  0.67288684  0.34160289  1
  Au  Au282  1  0.83536379  0.34128746  0.00040616  1
  Au  Au283  1  -0.00142539  0.17604981  0.15512935  1
  Au  Au284  1  -0.00219706  0.82704610  0.82907884  1
  Au  Au285  1  0.66211609  0.15769565  0.00141580  1
  Au  Au286  1  0.00236254  0.33482822  0.82686516  1
  Au  Au287  1  0.84000553  0.66117126  -0.00024045  1
