# generated using pymatgen
data_Ca24Ti8Al207Au49
_symmetry_space_group_name_H-M   'P 1'
_cell_length_a   17.32104617
_cell_length_b   17.32093667
_cell_length_c   17.32068918
_cell_angle_alpha   89.99911801
_cell_angle_beta   89.99743145
_cell_angle_gamma   90.00083790
_symmetry_Int_Tables_number   1
_chemical_formula_structural   Ca24Ti8Al207Au49
_chemical_formula_sum   'Ca24 Ti8 Al207 Au49'
_cell_volume   5196.49676062
_cell_formula_units_Z   1
loop_
 _symmetry_equiv_pos_site_id
 _symmetry_equiv_pos_as_xyz
  1  'x, y, z'
loop_
 _atom_site_type_symbol
 _atom_site_label
 _atom_site_symmetry_multiplicity
 _atom_site_fract_x
 _atom_site_fract_y
 _atom_site_fract_z
 _atom_site_occupancy
  Ca  Ca0  1  0.24805117  0.00416322  0.00132357  1
  Ca  Ca1  1  0.25090081  -0.00829375  0.49987924  1
  Ca  Ca2  1  0.24808121  0.49705974  -0.00094253  1
  Ca  Ca3  1  0.24760921  0.50704314  0.49948782  1
  Ca  Ca4  1  0.74893446  0.00341353  -0.00487752  1
  Ca  Ca5  1  0.75502988  -0.00057788  0.50155694  1
  Ca  Ca6  1  0.74828430  0.49780977  0.00036675  1
  Ca  Ca7  1  0.75324652  0.49900348  0.49873183  1
  Ca  Ca8  1  0.00151852  0.25250252  0.00001501  1
  Ca  Ca9  1  -0.00123813  0.25356734  0.49952470  1
  Ca  Ca10  1  0.00375447  0.74671992  -0.00500661  1
  Ca  Ca11  1  0.00383977  0.74324775  0.50465030  1
  Ca  Ca12  1  0.49915333  0.25168153  0.00215480  1
  Ca  Ca13  1  0.50418313  0.25276480  0.49940191  1
  Ca  Ca14  1  0.49955527  0.74763310  0.00124242  1
  Ca  Ca15  1  0.49867431  0.74527115  0.49826892  1
  Ca  Ca16  1  -0.00066610  -0.00080839  0.24630751  1
  Ca  Ca17  1  -0.00273695  -0.00087672  0.75697955  1
  Ca  Ca18  1  0.00361993  0.50043721  0.24907759  1
  Ca  Ca19  1  0.00317455  0.50148535  0.75166082  1
  Ca  Ca20  1  0.49738117  0.00125156  0.24243501  1
  Ca  Ca21  1  0.50025428  -0.00241288  0.75542024  1
  Ca  Ca22  1  0.49564366  0.50015486  0.25005241  1
  Ca  Ca23  1  0.49646435  0.50626450  0.75077332  1
  Ti  Ti24  1  0.25027839  0.25094541  0.24978577  1
  Ti  Ti25  1  0.24895475  0.25138487  0.74985567  1
  Ti  Ti26  1  0.24884533  0.74834003  0.25063986  1
  Ti  Ti27  1  0.24846201  0.74743399  0.74943435  1
  Ti  Ti28  1  0.74950421  0.25222561  0.25015674  1
  Ti  Ti29  1  0.75048839  0.25030072  0.75001967  1
  Ti  Ti30  1  0.75074777  0.74743705  0.25225023  1
  Ti  Ti31  1  0.75240765  0.74977868  0.74895632  1
  Al  Al32  1  0.08378626  0.08237398  0.08075255  1
  Al  Al33  1  0.07079640  0.09150647  0.58593044  1
  Al  Al34  1  0.09614893  0.58286044  0.07264279  1
  Al  Al35  1  0.08743994  0.58968894  0.59612916  1
  Al  Al36  1  0.59185604  0.08360793  0.08210098  1
  Al  Al37  1  0.58298618  0.08329194  0.58229559  1
  Al  Al38  1  0.57741280  0.57396674  0.07487855  1
  Al  Al39  1  0.57681321  0.59018782  0.58952043  1
  Al  Al40  1  0.40286597  0.41291797  0.08242217  1
  Al  Al41  1  0.41664440  0.43090668  0.57895836  1
  Al  Al42  1  0.41873641  0.92391242  0.08904171  1
  Al  Al43  1  0.41330472  0.90212620  0.57442076  1
  Al  Al44  1  0.91071199  0.41509501  0.08128330  1
  Al  Al45  1  0.92548339  0.41801938  0.58223874  1
  Al  Al46  1  0.91280229  0.90854584  0.07103528  1
  Al  Al47  1  0.92123367  0.90915823  0.58900778  1
  Al  Al48  1  0.42255369  0.07626667  0.41464543  1
  Al  Al49  1  0.41942646  0.09685238  0.91925564  1
  Al  Al50  1  0.40733305  0.58579845  0.41745246  1
  Al  Al51  1  0.41742040  0.58257888  0.90517290  1
  Al  Al52  1  0.92188162  0.09723017  0.42291311  1
  Al  Al53  1  0.92121041  0.08932759  0.91120136  1
  Al  Al54  1  0.90819732  0.58254950  0.42034256  1
  Al  Al55  1  0.93009640  0.59279243  0.90882764  1
  Al  Al56  1  0.07897244  0.42336005  0.40718849  1
  Al  Al57  1  0.09134266  0.41926040  0.91237474  1
  Al  Al58  1  0.08985231  0.90990151  0.42555783  1
  Al  Al59  1  0.07852855  0.90946097  0.91170591  1
  Al  Al60  1  0.58954726  0.42335687  0.40993647  1
  Al  Al61  1  0.58679033  0.41826460  0.92157322  1
  Al  Al62  1  0.57452602  0.91837217  0.41707047  1
  Al  Al63  1  0.57891497  0.91805204  0.92075033  1
  Al  Al64  1  0.07561215  0.08634956  0.41357416  1
  Al  Al65  1  0.08133004  0.08619781  0.91067631  1
  Al  Al66  1  0.09263648  0.58304450  0.42305411  1
  Al  Al67  1  0.09184290  0.59120275  0.90814643  1
  Al  Al68  1  0.57993549  0.08283126  0.41988282  1
  Al  Al69  1  0.57938644  0.09692051  0.92119309  1
  Al  Al70  1  0.58799123  0.57914180  0.41057435  1
  Al  Al71  1  0.57751410  0.58820362  0.90813645  1
  Al  Al72  1  0.41468802  0.42798999  0.41177503  1
  Al  Al73  1  0.40869864  0.41724137  0.91924537  1
  Al  Al74  1  0.40948555  0.90940859  0.41545737  1
  Al  Al75  1  0.42076605  0.92335267  0.91901553  1
  Al  Al76  1  0.91444467  0.41991391  0.40592064  1
  Al  Al77  1  0.92118171  0.41099378  0.92159466  1
  Al  Al78  1  0.92511349  0.91690413  0.42797949  1
  Al  Al79  1  0.91747207  0.89846003  0.91156428  1
  Al  Al80  1  0.09311474  0.42092086  0.08007748  1
  Al  Al81  1  0.08540774  0.42653265  0.59704227  1
  Al  Al82  1  0.08396529  0.92126485  0.07434086  1
  Al  Al83  1  0.08471792  0.89941156  0.58241419  1
  Al  Al84  1  0.59003661  0.41122161  0.07774092  1
  Al  Al85  1  0.58114627  0.42675355  0.57483071  1
  Al  Al86  1  0.58553443  0.92159683  0.08942524  1
  Al  Al87  1  0.57418302  0.91579515  0.58033854  1
  Al  Al88  1  0.40789611  0.08385561  0.08171529  1
  Al  Al89  1  0.42517182  0.07885916  0.57893122  1
  Al  Al90  1  0.41172103  0.57248596  0.08653042  1
  Al  Al91  1  0.41284005  0.59326683  0.58858595  1
  Al  Al92  1  0.92005252  0.08261861  0.07658627  1
  Al  Al93  1  0.91636635  0.09697226  0.58699169  1
  Al  Al94  1  0.91975571  0.57733674  0.07967024  1
  Al  Al95  1  0.92412830  0.59244076  0.58277201  1
  Al  Al96  1  0.25039804  0.13542735  0.13512346  1
  Al  Al97  1  0.25212233  0.13568186  0.63455390  1
  Al  Al98  1  0.24487643  0.63120292  0.13191623  1
  Al  Al99  1  0.24314130  0.62926452  0.63484614  1
  Al  Al100  1  0.75151073  0.13438958  0.13513843  1
  Al  Al101  1  0.74957940  0.13329182  0.63815877  1
  Al  Al102  1  0.75298819  0.63391879  0.13528254  1
  Al  Al103  1  0.75540130  0.63157141  0.63614263  1
  Al  Al104  1  0.24979964  0.36694700  0.13317812  1
  Al  Al105  1  0.24613829  0.37471086  0.64025402  1
  Al  Al106  1  0.24967666  0.86304646  0.13788789  1
  Al  Al107  1  0.24895699  0.86061477  0.63839277  1
  Al  Al108  1  0.74811828  0.36786174  0.13469496  1
  Al  Al109  1  0.75017617  0.36870099  0.63270827  1
  Al  Al110  1  0.75078020  0.86250377  0.13719508  1
  Al  Al111  1  0.75439215  0.86127269  0.63201136  1
  Al  Al112  1  0.25307047  0.13600853  0.36818878  1
  Al  Al113  1  0.24635604  0.13791731  0.86345316  1
  Al  Al114  1  0.24950114  0.63456746  0.36668739  1
  Al  Al115  1  0.24344109  0.63263156  0.86426129  1
  Al  Al116  1  0.74683543  0.13623802  0.36520413  1
  Al  Al117  1  0.75584213  0.13141842  0.86248033  1
  Al  Al118  1  0.75109199  0.63062119  0.36655846  1
  Al  Al119  1  0.75148619  0.63908981  0.86075162  1
  Al  Al120  1  0.24862141  0.36725008  0.36270890  1
  Al  Al121  1  0.24898141  0.36446530  0.86359863  1
  Al  Al122  1  0.25145496  0.86532088  0.36673939  1
  Al  Al123  1  0.24986089  0.85785778  0.86244780  1
  Al  Al124  1  0.75269247  0.36739842  0.36946669  1
  Al  Al125  1  0.74886534  0.36241947  0.86250828  1
  Al  Al126  1  0.75194153  0.86271021  0.37052265  1
  Al  Al127  1  0.75559472  0.86602001  0.86417391  1
  Al  Al128  1  0.13382376  0.24913000  0.13333354  1
  Al  Al129  1  0.13475831  0.24981914  0.63681085  1
  Al  Al130  1  0.13487894  0.74530071  0.13161288  1
  Al  Al131  1  0.12804387  0.74400270  0.63821409  1
  Al  Al132  1  0.63667751  0.25283414  0.13517905  1
  Al  Al133  1  0.63652267  0.24928255  0.63079894  1
  Al  Al134  1  0.63646253  0.74839856  0.13762552  1
  Al  Al135  1  0.63668790  0.74808393  0.63334816  1
  Al  Al136  1  0.13479116  0.24998651  0.36542596  1
  Al  Al137  1  0.12847942  0.24919765  0.86222330  1
  Al  Al138  1  0.13373168  0.74432985  0.36660402  1
  Al  Al139  1  0.12982628  0.74603693  0.86173039  1
  Al  Al140  1  0.63755684  0.25284661  0.36909714  1
  Al  Al141  1  0.63295280  0.25007437  0.86510164  1
  Al  Al142  1  0.63568171  0.75169531  0.36593238  1
  Al  Al143  1  0.63202638  0.74967205  0.86387456  1
  Al  Al144  1  0.36289765  0.25324511  0.13549375  1
  Al  Al145  1  0.36537294  0.25036887  0.63510282  1
  Al  Al146  1  0.36314145  0.74575155  0.13788251  1
  Al  Al147  1  0.36317766  0.74687856  0.63611115  1
  Al  Al148  1  0.86728003  0.25056095  0.13597815  1
  Al  Al149  1  0.86633809  0.24990748  0.63771902  1
  Al  Al150  1  0.86662769  0.74936550  0.13653922  1
  Al  Al151  1  0.87082235  0.74850400  0.63421252  1
  Al  Al152  1  0.36408323  0.25221436  0.36544081  1
  Al  Al153  1  0.36594910  0.25427459  0.86538596  1
  Al  Al154  1  0.36367470  0.75303538  0.36549450  1
  Al  Al155  1  0.36978677  0.74066299  0.86214630  1
  Al  Al156  1  0.86549317  0.25354317  0.36428795  1
  Al  Al157  1  0.87225944  0.24904511  0.86005441  1
  Al  Al158  1  0.86280938  0.74459115  0.37356067  1
  Al  Al159  1  0.86943573  0.75090196  0.86242434  1
  Al  Al160  1  0.13629962  0.13670617  0.25175391  1
  Al  Al161  1  0.13102940  0.13580590  0.75008088  1
  Al  Al162  1  0.13252964  0.63335062  0.24760595  1
  Al  Al163  1  0.13138444  0.63210959  0.75037387  1
  Al  Al164  1  0.63708003  0.13576267  0.24497691  1
  Al  Al165  1  0.63425250  0.13471354  0.75508169  1
  Al  Al166  1  0.63766883  0.63104938  0.25509429  1
  Al  Al167  1  0.63461155  0.63707805  0.74781765  1
  Al  Al168  1  0.36259960  0.13129051  0.24739289  1
  Al  Al169  1  0.36714756  0.13606764  0.75794754  1
  Al  Al170  1  0.36143883  0.63356731  0.25329067  1
  Al  Al171  1  0.35985161  0.63275333  0.74699656  1
  Al  Al172  1  0.86462967  0.13679279  0.25361188  1
  Al  Al173  1  0.86794219  0.13206307  0.74914659  1
  Al  Al174  1  0.86513887  0.63104393  0.25336018  1
  Al  Al175  1  0.87220667  0.63622993  0.74833159  1
  Al  Al176  1  0.13688363  0.36694235  0.24436348  1
  Al  Al177  1  0.13435134  0.36992882  0.75452866  1
  Al  Al178  1  0.13237829  0.85933514  0.25004891  1
  Al  Al179  1  0.12694640  0.85912819  0.74997583  1
  Al  Al180  1  0.63885334  0.36954192  0.25572321  1
  Al  Al181  1  0.63197324  0.36297411  0.74865642  1
  Al  Al182  1  0.63799380  0.86482041  0.24908566  1
  Al  Al183  1  0.63552825  0.86410630  0.75486900  1
  Al  Al184  1  0.36375601  0.36666521  0.25108585  1
  Al  Al185  1  0.36746292  0.36598803  0.74838800  1
  Al  Al186  1  0.36274346  0.86885039  0.25098426  1
  Al  Al187  1  0.36724100  0.86165770  0.75409933  1
  Al  Al188  1  0.86229478  0.37023429  0.25019763  1
  Al  Al189  1  0.86532478  0.36762831  0.74835974  1
  Al  Al190  1  0.86662960  0.86178891  0.25393684  1
  Al  Al191  1  0.87114157  0.86486637  0.74868828  1
  Al  Al192  1  0.67826778  0.50159178  0.17507062  1
  Al  Al193  1  0.50028375  0.66906776  0.17071957  1
  Al  Al194  1  0.17651359  -0.00046295  0.32797592  1
  Al  Al195  1  0.32645417  0.32534203  0.49847530  1
  Al  Al196  1  0.32787704  0.82757281  0.00312115  1
  Al  Al197  1  0.67878369  -0.00411617  0.67912509  1
  Al  Al198  1  0.00009457  0.17868255  0.18776635  1
  Al  Al199  1  0.00061206  0.31548294  0.31582290  1
  Al  Al200  1  0.82965149  0.00207366  0.33125451  1
  Al  Al201  1  0.18242885  -0.00101966  0.17179107  1
  Al  Al202  1  0.30842331  0.50013482  0.19063677  1
  Al  Al203  1  0.31693035  0.19126805  -0.00031291  1
  Al  Al204  1  0.68618378  0.82912877  0.00099609  1
  Al  Al205  1  0.19182350  0.80345350  0.50214066  1
  Al  Al206  1  0.81969715  -0.00270001  0.16975549  1
  Al  Al207  1  0.31571733  0.66747368  -0.00181544  1
  Al  Al208  1  0.83067947  0.50182227  0.82391520  1
  Al  Al209  1  0.81953356  0.18430843  0.50114228  1
  Al  Al210  1  0.49895952  0.67420064  0.32454948  1
  Al  Al211  1  0.49992781  0.82421304  0.18145790  1
  Al  Al212  1  0.50036108  0.32778866  0.17208741  1
  Al  Al213  1  0.30735843  0.68844431  0.50108024  1
  Al  Al214  1  0.50088067  0.81438970  0.68024251  1
  Al  Al215  1  0.17790200  0.17113163  0.50079963  1
  Al  Al216  1  0.68424476  0.18996768  -0.00055989  1
  Al  Al217  1  0.00129018  0.31749402  0.68280468  1
  Al  Al218  1  0.67418367  0.50062323  0.82209229  1
  Al  Al219  1  0.17233587  0.81513915  -0.00282234  1
  Al  Al220  1  0.16655201  -0.00135067  0.67269519  1
  Al  Al221  1  0.31286354  0.49869959  0.81982889  1
  Al  Al222  1  0.68302934  0.67582509  0.49962224  1
  Al  Al223  1  0.18783168  0.31959429  -0.00191848  1
  Al  Al224  1  0.17900158  -0.00380182  0.82766167  1
  Al  Al225  1  0.50032444  0.18147805  0.68597841  1
  Al  Al226  1  0.50035832  0.33005775  0.32619371  1
  Al  Al227  1  0.67402328  0.67196884  -0.00118664  1
  Al  Al228  1  0.83133576  0.68712252  -0.00133801  1
  Al  Al229  1  0.00166087  0.82548397  0.17183690  1
  Al  Al230  1  0.67138387  0.00020011  0.31609977  1
  Al  Al231  1  0.50063412  0.17700474  0.32308893  1
  Al  Al232  1  0.16989472  0.33268349  0.50015521  1
  Al  Al233  1  0.00054113  0.67199976  0.32921980  1
  Al  Al234  1  0.50122169  0.32808390  0.82678828  1
  Al  Al235  1  0.18790402  0.50129891  0.31136240  1
  Al  Al236  1  0.33160048  -0.00424687  0.67859299  1
  Al  Al237  1  0.81097891  0.31930720  -0.00126426  1
  Al  Al238  1  0.49959002  0.17229559  0.17013323  1
  Au  Au239  1  0.67341559  0.16563715  0.49927516  1
  Au  Au240  1  0.49797659  0.81337009  0.66289279  1
  Au  Au241  1  0.83664410  -0.00470383  0.83785648  1
  Au  Au242  1  0.00250876  0.32604852  0.83100399  1
  Au  Au243  1  0.66692557  -0.00543150  0.66707748  1
  Au  Au244  1  0.82339621  -0.00375155  0.15305942  1
  Au  Au245  1  0.65524585  0.00162691  0.32076580  1
  Au  Au246  1  0.00361292  0.34229196  0.16872187  1
  Au  Au247  1  0.83904876  0.33161601  0.49911531  1
  Au  Au248  1  0.83266105  0.17498169  -0.00422918  1
  Au  Au249  1  0.32428670  0.83966647  0.00372083  1
  Au  Au250  1  0.00043556  0.16338871  0.18008591  1
  Au  Au251  1  0.83067064  0.49868295  0.83987421  1
  Au  Au252  1  0.67245772  0.66282461  0.49966681  1
  Au  Au253  1  0.32384032  0.50288729  0.67246347  1
  Au  Au254  1  0.00018972  0.83424481  0.16292282  1
  Au  Au255  1  0.83297877  0.50099076  0.17899356  1
  Au  Au256  1  0.16028933  -0.00078938  0.32251612  1
  Au  Au257  1  0.66931503  0.33615278  0.49877727  1
  Au  Au258  1  0.67127429  0.83876479  0.49878383  1
  Au  Au259  1  0.32312936  0.68271661  0.50096123  1
  Au  Au260  1  0.49938657  0.34115518  0.66500435  1
  Au  Au261  1  0.00738844  0.66191452  0.16255514  1
  Au  Au262  1  0.49833706  0.82264400  0.33214966  1
  Au  Au263  1  0.16860947  0.17213152  -0.00305002  1
  Au  Au264  1  0.33545406  -0.00634685  0.66225659  1
  Au  Au265  1  0.32961121  0.00845622  0.84174467  1
  Au  Au266  1  0.33122436  0.66306934  -0.00184453  1
  Au  Au267  1  0.16577788  0.34362501  0.50423763  1
  Au  Au268  1  0.33834016  -0.00000078  0.32127636  1
  Au  Au269  1  0.84123989  0.00205532  0.66885036  1
  Au  Au270  1  0.50027565  0.16644639  0.67757923  1
  Au  Au271  1  0.66071520  0.50166464  0.67405172  1
  Au  Au272  1  0.84592942  0.00459431  0.33710196  1
  Au  Au273  1  0.50331932  0.32717787  0.83945819  1
  Au  Au274  1  0.83610512  0.50445326  0.66012143  1
  Au  Au275  1  0.15067811  0.00135942  0.67332021  1
  Au  Au276  1  0.66590903  0.49981603  0.17757283  1
  Au  Au277  1  0.49797483  0.82126675  0.83667722  1
  Au  Au278  1  0.33517948  0.16172502  0.49766778  1
  Au  Au279  1  -0.00121072  0.66286707  0.33741863  1
  Au  Au280  1  0.83353476  0.67030933  -0.00296818  1
  Au  Au281  1  0.00086019  0.82793598  0.33684079  1
  Au  Au282  1  0.66956902  0.83086861  0.00293795  1
  Au  Au283  1  0.83770923  0.82193068  0.50236522  1
  Au  Au284  1  0.00002026  0.81905314  0.67742065  1
  Au  Au285  1  0.16648200  0.16581261  0.50109500  1
  Au  Au286  1  0.33171534  0.33673933  0.49855566  1
  Au  Au287  1  0.66149469  0.00717973  0.83832581  1
