# generated using pymatgen
data_Ca24Ti8Al207Au49
_symmetry_space_group_name_H-M   'P 1'
_cell_length_a   17.32153759
_cell_length_b   17.32133036
_cell_length_c   17.32158719
_cell_angle_alpha   90.00098134
_cell_angle_beta   89.99993870
_cell_angle_gamma   90.00055131
_symmetry_Int_Tables_number   1
_chemical_formula_structural   Ca24Ti8Al207Au49
_chemical_formula_sum   'Ca24 Ti8 Al207 Au49'
_cell_volume   5197.03174791
_cell_formula_units_Z   1
loop_
 _symmetry_equiv_pos_site_id
 _symmetry_equiv_pos_as_xyz
  1  'x, y, z'
loop_
 _atom_site_type_symbol
 _atom_site_label
 _atom_site_symmetry_multiplicity
 _atom_site_fract_x
 _atom_site_fract_y
 _atom_site_fract_z
 _atom_site_occupancy
  Ca  Ca0  1  0.25485181  0.00321923  0.00538772  1
  Ca  Ca1  1  0.25587964  -0.00559289  0.49760378  1
  Ca  Ca2  1  0.24656769  0.49921187  -0.00036425  1
  Ca  Ca3  1  0.24935133  0.50251656  0.49958188  1
  Ca  Ca4  1  0.74934513  0.00095762  0.00461430  1
  Ca  Ca5  1  0.74814108  -0.00369564  0.49707912  1
  Ca  Ca6  1  0.75200570  0.49874488  0.00220851  1
  Ca  Ca7  1  0.75418411  0.50603958  0.49708406  1
  Ca  Ca8  1  -0.00324631  0.25409248  0.00541760  1
  Ca  Ca9  1  0.00371333  0.25039525  0.49560696  1
  Ca  Ca10  1  -0.00019503  0.74392452  0.00821517  1
  Ca  Ca11  1  0.00000274  0.74904756  0.49589676  1
  Ca  Ca12  1  0.50021284  0.24540647  -0.00336125  1
  Ca  Ca13  1  0.49929296  0.24646141  0.50253931  1
  Ca  Ca14  1  0.49877708  0.74987139  -0.00020108  1
  Ca  Ca15  1  0.49814495  0.75110193  0.50188784  1
  Ca  Ca16  1  0.00108875  -0.00306349  0.24971943  1
  Ca  Ca17  1  0.00007710  0.00170431  0.75193613  1
  Ca  Ca18  1  0.00114292  0.50037080  0.24813268  1
  Ca  Ca19  1  0.00088660  0.49630131  0.75511785  1
  Ca  Ca20  1  0.49453241  -0.00059704  0.25075002  1
  Ca  Ca21  1  0.49986500  -0.00138799  0.74978009  1
  Ca  Ca22  1  0.50062303  0.49993763  0.24526411  1
  Ca  Ca23  1  0.49551847  0.50114265  0.75109452  1
  Ti  Ti24  1  0.24867746  0.25010820  0.24941864  1
  Ti  Ti25  1  0.25107168  0.25310592  0.75032291  1
  Ti  Ti26  1  0.25009677  0.74971526  0.24998234  1
  Ti  Ti27  1  0.25215753  0.74732454  0.74965198  1
  Ti  Ti28  1  0.75056633  0.24937323  0.24913988  1
  Ti  Ti29  1  0.74996092  0.24959168  0.75190451  1
  Ti  Ti30  1  0.75093316  0.74971674  0.25008477  1
  Ti  Ti31  1  0.74820284  0.74846892  0.74893664  1
  Al  Al32  1  0.07959497  0.08368178  0.08388902  1
  Al  Al33  1  0.07844234  0.08424945  0.57749769  1
  Al  Al34  1  0.08749425  0.57653636  0.09472974  1
  Al  Al35  1  0.08913491  0.58215932  0.57182386  1
  Al  Al36  1  0.58451621  0.08836657  0.09489081  1
  Al  Al37  1  0.57082611  0.08790191  0.58830787  1
  Al  Al38  1  0.58708525  0.57613432  0.08637337  1
  Al  Al39  1  0.57578960  0.59672799  0.58307456  1
  Al  Al40  1  0.42004145  0.42308929  0.07819127  1
  Al  Al41  1  0.41161723  0.42319705  0.59826506  1
  Al  Al42  1  0.41353314  0.92728878  0.09085220  1
  Al  Al43  1  0.41323891  0.90437680  0.57549643  1
  Al  Al44  1  0.91201160  0.41019635  0.09057599  1
  Al  Al45  1  0.92124115  0.42078772  0.57352185  1
  Al  Al46  1  0.91851540  0.91248921  0.09299621  1
  Al  Al47  1  0.90827766  0.91573850  0.56870687  1
  Al  Al48  1  0.40833561  0.07331154  0.41148302  1
  Al  Al49  1  0.41807186  0.08222441  0.91967380  1
  Al  Al50  1  0.41309710  0.58562486  0.42269942  1
  Al  Al51  1  0.41909703  0.58253367  0.91299761  1
  Al  Al52  1  0.92366545  0.08140611  0.41637051  1
  Al  Al53  1  0.91450497  0.10134672  0.92090743  1
  Al  Al54  1  0.91769154  0.59329695  0.41412848  1
  Al  Al55  1  0.91194262  0.57517908  0.91397333  1
  Al  Al56  1  0.08426229  0.42046397  0.39588425  1
  Al  Al57  1  0.07865238  0.41697111  0.92388362  1
  Al  Al58  1  0.08730865  0.90524642  0.40690015  1
  Al  Al59  1  0.07738853  0.92446132  0.93244947  1
  Al  Al60  1  0.58159366  0.42923148  0.41807446  1
  Al  Al61  1  0.59049697  0.41184838  0.91937856  1
  Al  Al62  1  0.57419374  0.90919409  0.41197034  1
  Al  Al63  1  0.58023256  0.91945808  0.92201407  1
  Al  Al64  1  0.08450559  0.07856086  0.41190198  1
  Al  Al65  1  0.07521906  0.09640236  0.91599084  1
  Al  Al66  1  0.08842778  0.58480454  0.40853594  1
  Al  Al67  1  0.07591475  0.57735725  0.92418888  1
  Al  Al68  1  0.57420027  0.07336686  0.41576455  1
  Al  Al69  1  0.58164448  0.08449586  0.92349506  1
  Al  Al70  1  0.58983286  0.58617664  0.42044889  1
  Al  Al71  1  0.58363523  0.57886592  0.91571469  1
  Al  Al72  1  0.41889053  0.42606121  0.42278332  1
  Al  Al73  1  0.41879273  0.41992669  0.91773031  1
  Al  Al74  1  0.40941532  0.90876177  0.41031124  1
  Al  Al75  1  0.41846504  0.92078313  0.91588089  1
  Al  Al76  1  0.92464258  0.41043074  0.41023129  1
  Al  Al77  1  0.90486718  0.41408955  0.91831471  1
  Al  Al78  1  0.92186285  0.90049399  0.41055038  1
  Al  Al79  1  0.91941894  0.92344749  0.93332306  1
  Al  Al80  1  0.08510156  0.41256508  0.09760180  1
  Al  Al81  1  0.08274462  0.42194406  0.57976236  1
  Al  Al82  1  0.07939580  0.90951335  0.09279086  1
  Al  Al83  1  0.09006955  0.91096417  0.56485372  1
  Al  Al84  1  0.59894989  0.41574399  0.08143647  1
  Al  Al85  1  0.56873746  0.41243493  0.58974724  1
  Al  Al86  1  0.58773476  0.92518659  0.08763942  1
  Al  Al87  1  0.57483357  0.90674979  0.58248742  1
  Al  Al88  1  0.41710983  0.08935545  0.09563111  1
  Al  Al89  1  0.41614251  0.08782558  0.58264848  1
  Al  Al90  1  0.42140265  0.58023538  0.08066666  1
  Al  Al91  1  0.41300964  0.58776915  0.59427536  1
  Al  Al92  1  0.91419619  0.08938913  0.08287757  1
  Al  Al93  1  0.92142281  0.07796874  0.58325719  1
  Al  Al94  1  0.91621598  0.57728911  0.08705330  1
  Al  Al95  1  0.90848581  0.58777743  0.57318272  1
  Al  Al96  1  0.24999205  0.13387509  0.13793319  1
  Al  Al97  1  0.25219104  0.13550726  0.63692279  1
  Al  Al98  1  0.24792085  0.63308464  0.13356617  1
  Al  Al99  1  0.25412865  0.63019771  0.63456713  1
  Al  Al100  1  0.75033512  0.13460495  0.13603472  1
  Al  Al101  1  0.75236102  0.13835765  0.63662254  1
  Al  Al102  1  0.75038778  0.63692320  0.12953851  1
  Al  Al103  1  0.75339366  0.63626302  0.63342759  1
  Al  Al104  1  0.24666583  0.37038160  0.13876660  1
  Al  Al105  1  0.25046437  0.37070856  0.63656478  1
  Al  Al106  1  0.25360853  0.86588898  0.13752762  1
  Al  Al107  1  0.25506360  0.86275148  0.62917874  1
  Al  Al108  1  0.74804445  0.36393177  0.13362772  1
  Al  Al109  1  0.75564473  0.36179224  0.63751498  1
  Al  Al110  1  0.75088880  0.86385456  0.13769234  1
  Al  Al111  1  0.75010946  0.85909162  0.62467398  1
  Al  Al112  1  0.24981988  0.13578632  0.36250899  1
  Al  Al113  1  0.24996041  0.13986437  0.86235422  1
  Al  Al114  1  0.24893877  0.63644209  0.36559791  1
  Al  Al115  1  0.25417102  0.62886427  0.86577223  1
  Al  Al116  1  0.74881832  0.13419896  0.36201917  1
  Al  Al117  1  0.75063107  0.13839674  0.86627400  1
  Al  Al118  1  0.75477980  0.63730408  0.36720136  1
  Al  Al119  1  0.74974953  0.63490651  0.86958379  1
  Al  Al120  1  0.24115765  0.36792731  0.36272853  1
  Al  Al121  1  0.25239468  0.36981539  0.86306243  1
  Al  Al122  1  0.25205601  0.86194559  0.36852933  1
  Al  Al123  1  0.25103386  0.86097343  0.86825167  1
  Al  Al124  1  0.75354100  0.36345918  0.36096058  1
  Al  Al125  1  0.74914696  0.36240281  0.86682676  1
  Al  Al126  1  0.75017644  0.86214764  0.37042410  1
  Al  Al127  1  0.74880757  0.86270723  0.86472445  1
  Al  Al128  1  0.13358083  0.25254596  0.13722545  1
  Al  Al129  1  0.14027774  0.25213916  0.62877989  1
  Al  Al130  1  0.13076573  0.74911717  0.13874807  1
  Al  Al131  1  0.13692954  0.75001289  0.63333186  1
  Al  Al132  1  0.63509905  0.24724260  0.13615712  1
  Al  Al133  1  0.63133876  0.24842198  0.63462386  1
  Al  Al134  1  0.63589832  0.75004134  0.13663598  1
  Al  Al135  1  0.63119243  0.74998361  0.63200016  1
  Al  Al136  1  0.13061401  0.25090521  0.36367298  1
  Al  Al137  1  0.12955047  0.25096207  0.86244980  1
  Al  Al138  1  0.13520925  0.75439551  0.36490894  1
  Al  Al139  1  0.13908693  0.74636930  0.86761982  1
  Al  Al140  1  0.63206718  0.24408148  0.35885583  1
  Al  Al141  1  0.63353833  0.25266231  0.86851220  1
  Al  Al142  1  0.63375967  0.75398401  0.36436120  1
  Al  Al143  1  0.63155915  0.74689914  0.86566889  1
  Al  Al144  1  0.36640449  0.24619343  0.13773374  1
  Al  Al145  1  0.36893699  0.25197135  0.63806328  1
  Al  Al146  1  0.36308815  0.74981214  0.13305137  1
  Al  Al147  1  0.36592374  0.74746688  0.63158426  1
  Al  Al148  1  0.86349740  0.24989867  0.13405798  1
  Al  Al149  1  0.86549787  0.24910297  0.63651212  1
  Al  Al150  1  0.87055890  0.74742981  0.13880228  1
  Al  Al151  1  0.86591073  0.74957929  0.62924166  1
  Al  Al152  1  0.36340232  0.24921307  0.36328391  1
  Al  Al153  1  0.36660784  0.25049817  0.86330799  1
  Al  Al154  1  0.36438454  0.75191284  0.37171411  1
  Al  Al155  1  0.36694091  0.74631988  0.86660553  1
  Al  Al156  1  0.87183174  0.24876485  0.36053356  1
  Al  Al157  1  0.86884629  0.24835894  0.86859879  1
  Al  Al158  1  0.86669545  0.75187485  0.36700279  1
  Al  Al159  1  0.86263855  0.74783972  0.86559422  1
  Al  Al160  1  0.13293101  0.13422952  0.25083402  1
  Al  Al161  1  0.13629549  0.13625491  0.74990493  1
  Al  Al162  1  0.13616553  0.63239957  0.25046482  1
  Al  Al163  1  0.14015705  0.62912524  0.74819075  1
  Al  Al164  1  0.63216432  0.12939641  0.24651533  1
  Al  Al165  1  0.63205445  0.13866736  0.75054505  1
  Al  Al166  1  0.63721668  0.63623495  0.24889653  1
  Al  Al167  1  0.63083494  0.63978989  0.74728499  1
  Al  Al168  1  0.36594473  0.13227216  0.24965281  1
  Al  Al169  1  0.37028825  0.13724016  0.74694876  1
  Al  Al170  1  0.36332086  0.63547771  0.25126780  1
  Al  Al171  1  0.36947546  0.63295355  0.74690805  1
  Al  Al172  1  0.86660159  0.13433276  0.24969467  1
  Al  Al173  1  0.86635506  0.13766069  0.75462969  1
  Al  Al174  1  0.86632126  0.63479741  0.25087017  1
  Al  Al175  1  0.86227404  0.63515712  0.75193390  1
  Al  Al176  1  0.12971537  0.36576412  0.24845959  1
  Al  Al177  1  0.13644838  0.37036583  0.75162609  1
  Al  Al178  1  0.13248914  0.86381441  0.25040789  1
  Al  Al179  1  0.13861593  0.86009198  0.74557082  1
  Al  Al180  1  0.63618875  0.36969769  0.24506889  1
  Al  Al181  1  0.63455226  0.36188525  0.74659001  1
  Al  Al182  1  0.63666079  0.86818271  0.25079282  1
  Al  Al183  1  0.63500126  0.86048186  0.74430139  1
  Al  Al184  1  0.36367264  0.36688195  0.25034575  1
  Al  Al185  1  0.36842928  0.37026914  0.74722773  1
  Al  Al186  1  0.36587404  0.86509902  0.25613410  1
  Al  Al187  1  0.36862212  0.86097064  0.74314889  1
  Al  Al188  1  0.87046455  0.36228456  0.24722581  1
  Al  Al189  1  0.86563578  0.36509758  0.76078458  1
  Al  Al190  1  0.86980599  0.86110993  0.25057550  1
  Al  Al191  1  0.86028985  0.85944623  0.74509845  1
  Al  Al192  1  0.67118949  0.33181852  0.50174791  1
  Al  Al193  1  0.00019319  0.67160532  0.67070119  1
  Al  Al194  1  0.68147839  0.50228679  0.31762343  1
  Al  Al195  1  0.67407835  0.00058210  0.82777433  1
  Al  Al196  1  -0.00123720  0.18614578  0.17933195  1
  Al  Al197  1  0.18173759  -0.00107638  0.17623041  1
  Al  Al198  1  0.32035129  0.17295657  0.49871826  1
  Al  Al199  1  0.83028274  0.49797411  0.68583751  1
  Al  Al200  1  0.67319242  -0.00065700  0.66768243  1
  Al  Al201  1  0.67815625  0.16867212  0.49951940  1
  Al  Al202  1  0.18093890  0.68741669  0.49813973  1
  Al  Al203  1  0.49995408  0.31992963  0.32586668  1
  Al  Al204  1  0.00095951  0.32751254  0.67897758  1
  Al  Al205  1  0.18016859  -0.00215984  0.66771024  1
  Al  Al206  1  0.50328767  0.82259790  0.81874804  1
  Al  Al207  1  0.00231527  0.68663332  0.31983947  1
  Al  Al208  1  -0.00075521  0.83175140  0.66665785  1
  Al  Al209  1  0.50009778  0.67400414  0.17522623  1
  Al  Al210  1  0.67343272  0.82358889  0.00123164  1
  Al  Al211  1  0.18879750  -0.00268427  0.32721897  1
  Al  Al212  1  0.83353954  -0.00160843  0.82673729  1
  Al  Al213  1  0.17716531  0.81976881  0.00044164  1
  Al  Al214  1  0.32719508  0.32678032  0.00166089  1
  Al  Al215  1  0.32507233  -0.00005931  0.81868324  1
  Al  Al216  1  0.82056925  -0.00306656  0.32864576  1
  Al  Al217  1  0.68718293  0.18535852  0.00102828  1
  Al  Al218  1  0.82613097  0.81977048  0.00366410  1
  Al  Al219  1  0.32373290  0.32882671  0.50247905  1
  Al  Al220  1  0.31936074  0.17356142  0.00101128  1
  Al  Al221  1  0.50183226  0.32093554  0.16819858  1
  Al  Al222  1  0.82441258  -0.00150017  0.67368398  1
  Al  Al223  1  0.00095401  0.67191203  0.82573742  1
  Al  Al224  1  0.68464967  0.68190237  0.50024249  1
  Al  Al225  1  0.82815494  0.32023219  0.49682019  1
  Al  Al226  1  0.00131252  0.17176934  0.68310016  1
  Al  Al227  1  -0.00070665  0.83083358  0.83028429  1
  Al  Al228  1  0.31371914  0.50043304  0.31851640  1
  Al  Al229  1  0.66706121  0.50327993  0.67202858  1
  Al  Al230  1  0.49958580  0.68581333  0.33022608  1
  Al  Al231  1  0.16870369  -0.00018678  0.83022952  1
  Al  Al232  1  0.50234079  0.32470612  0.82035472  1
  Al  Al233  1  0.50015832  0.83053338  0.18543360  1
  Al  Al234  1  0.68590855  0.49891987  0.82683964  1
  Al  Al235  1  0.81892900  0.00001502  0.17275570  1
  Al  Al236  1  0.17504970  0.32286416  0.00084941  1
  Al  Al237  1  0.80936998  0.49938291  0.18312763  1
  Al  Al238  1  0.81115593  0.31248678  0.00082652  1
  Au  Au239  1  0.17399634  0.00354446  0.84578950  1
  Au  Au240  1  0.66871224  0.49998098  0.31816433  1
  Au  Au241  1  0.84070020  0.49911835  0.32904652  1
  Au  Au242  1  0.00341877  0.65635845  0.66847323  1
  Au  Au243  1  0.67606964  0.34763918  0.50514831  1
  Au  Au244  1  0.66119021  0.67216680  0.00195257  1
  Au  Au245  1  0.67004356  0.82907219  0.49731400  1
  Au  Au246  1  -0.00256139  0.32474514  0.84230649  1
  Au  Au247  1  0.50307100  0.32628590  0.15224587  1
  Au  Au248  1  0.34586889  -0.00441797  0.66980770  1
  Au  Au249  1  0.50008101  0.66877143  0.33223369  1
  Au  Au250  1  0.66294231  0.16232441  0.49797353  1
  Au  Au251  1  0.16682070  0.66288499  0.00210256  1
  Au  Au252  1  0.33144243  0.84146468  0.00191020  1
  Au  Au253  1  0.50044275  0.33333089  0.33673633  1
  Au  Au254  1  0.49748532  0.33569621  0.82478384  1
  Au  Au255  1  0.83623653  0.66881150  -0.00075631  1
  Au  Au256  1  0.50032110  0.16154390  0.82259885  1
  Au  Au257  1  0.65125395  0.50545979  0.67738893  1
  Au  Au258  1  0.65790907  -0.00126110  0.67504382  1
  Au  Au259  1  0.50118861  0.66613783  0.82007001  1
  Au  Au260  1  0.49409042  0.15991542  0.32535348  1
  Au  Au261  1  0.16678362  -0.00288983  0.65880061  1
  Au  Au262  1  0.50091251  0.83176101  0.82712351  1
  Au  Au263  1  0.82826940  0.00478425  0.84155067  1
  Au  Au264  1  0.00109826  0.32165953  0.66306228  1
  Au  Au265  1  0.32112624  0.50039937  0.33420773  1
  Au  Au266  1  0.33990636  0.32800722  0.50745451  1
  Au  Au267  1  0.00224662  0.17363563  0.32605493  1
  Au  Au268  1  0.00069220  0.83986730  0.65714609  1
  Au  Au269  1  0.32283124  0.50153845  0.16152714  1
  Au  Au270  1  0.17874544  0.50108313  0.66151046  1
  Au  Au271  1  0.00093808  0.66991516  0.17372115  1
  Au  Au272  1  0.65878296  -0.00312169  0.32115044  1
  Au  Au273  1  0.17145324  0.16379457  0.49632696  1
  Au  Au274  1  0.16826156  0.82842396  0.00257431  1
  Au  Au275  1  0.32793732  0.67537353  0.50423473  1
  Au  Au276  1  0.16342599  0.49915088  0.83192998  1
  Au  Au277  1  -0.00184228  0.82400106  0.84608038  1
  Au  Au278  1  0.33728197  0.66923363  0.00062320  1
  Au  Au279  1  0.84302759  0.17179101  0.50160840  1
  Au  Au280  1  0.16928381  -0.00149348  0.17299255  1
  Au  Au281  1  0.83337444  0.49713952  0.66905501  1
  Au  Au282  1  0.49998568  0.83427895  0.16936169  1
  Au  Au283  1  0.33143164  0.50008309  0.82493919  1
  Au  Au284  1  0.67517761  0.17362222  0.00373347  1
  Au  Au285  1  0.83629374  -0.00678663  0.32701940  1
  Au  Au286  1  0.16066934  0.33631047  0.49022471  1
  Au  Au287  1  0.16695090  0.17515090  0.00177336  1
