# generated using pymatgen
data_Ca24Ti8Al207Au49
_symmetry_space_group_name_H-M   'P 1'
_cell_length_a   17.32056700
_cell_length_b   17.31957553
_cell_length_c   17.32052129
_cell_angle_alpha   89.99631613
_cell_angle_beta   89.99778879
_cell_angle_gamma   90.00317141
_symmetry_Int_Tables_number   1
_chemical_formula_structural   Ca24Ti8Al207Au49
_chemical_formula_sum   'Ca24 Ti8 Al207 Au49'
_cell_volume   5195.89427860
_cell_formula_units_Z   1
loop_
 _symmetry_equiv_pos_site_id
 _symmetry_equiv_pos_as_xyz
  1  'x, y, z'
loop_
 _atom_site_type_symbol
 _atom_site_label
 _atom_site_symmetry_multiplicity
 _atom_site_fract_x
 _atom_site_fract_y
 _atom_site_fract_z
 _atom_site_occupancy
  Ca  Ca0  1  0.24655413  0.00272953  0.00337354  1
  Ca  Ca1  1  0.24802072  -0.00040746  0.49712334  1
  Ca  Ca2  1  0.24664055  0.49606165  0.00188676  1
  Ca  Ca3  1  0.25396810  0.49797826  0.49518540  1
  Ca  Ca4  1  0.75075592  0.00138801  0.00240837  1
  Ca  Ca5  1  0.74579272  -0.00179481  0.49829350  1
  Ca  Ca6  1  0.75093956  0.49250310  0.00192533  1
  Ca  Ca7  1  0.74681942  0.50235387  0.50033628  1
  Ca  Ca8  1  0.00018851  0.25060878  -0.00207177  1
  Ca  Ca9  1  0.00200981  0.25353276  0.50334791  1
  Ca  Ca10  1  0.00592539  0.75424686  0.00114958  1
  Ca  Ca11  1  -0.00177536  0.75576070  0.49990420  1
  Ca  Ca12  1  0.50107920  0.24835386  0.00378759  1
  Ca  Ca13  1  0.49749094  0.25409582  0.49171201  1
  Ca  Ca14  1  0.49773917  0.74717494  0.00327310  1
  Ca  Ca15  1  0.50125857  0.75299500  0.49863420  1
  Ca  Ca16  1  -0.00294700  -0.00187206  0.24835840  1
  Ca  Ca17  1  0.00201941  0.00228009  0.74788842  1
  Ca  Ca18  1  0.00318720  0.50030132  0.24662156  1
  Ca  Ca19  1  0.00188005  0.49665607  0.74748804  1
  Ca  Ca20  1  0.50308407  0.00111345  0.25101532  1
  Ca  Ca21  1  0.49893282  -0.00287728  0.74200833  1
  Ca  Ca22  1  0.49586400  0.49943053  0.25092831  1
  Ca  Ca23  1  0.49972397  0.49818084  0.74437843  1
  Ti  Ti24  1  0.25052184  0.24954282  0.24867205  1
  Ti  Ti25  1  0.24984997  0.25067288  0.75022630  1
  Ti  Ti26  1  0.25227433  0.75026748  0.24844287  1
  Ti  Ti27  1  0.25040698  0.74926569  0.75089293  1
  Ti  Ti28  1  0.75041291  0.24872837  0.25034242  1
  Ti  Ti29  1  0.75072120  0.25006737  0.74920673  1
  Ti  Ti30  1  0.74632261  0.75186464  0.25054622  1
  Ti  Ti31  1  0.74766807  0.75032303  0.74787432  1
  Al  Al32  1  0.09165220  0.07815376  0.08634753  1
  Al  Al33  1  0.08768419  0.09306410  0.58604878  1
  Al  Al34  1  0.08388333  0.57615926  0.08179950  1
  Al  Al35  1  0.07812055  0.57650881  0.57685213  1
  Al  Al36  1  0.58610339  0.08781080  0.09571829  1
  Al  Al37  1  0.57838813  0.07470397  0.57874748  1
  Al  Al38  1  0.58138112  0.58414004  0.09145086  1
  Al  Al39  1  0.58280592  0.58201363  0.58138021  1
  Al  Al40  1  0.41125272  0.41116562  0.08519703  1
  Al  Al41  1  0.41287051  0.40513840  0.57981184  1
  Al  Al42  1  0.41929747  0.91802358  0.08587207  1
  Al  Al43  1  0.41020513  0.91133164  0.57669964  1
  Al  Al44  1  0.91742000  0.40764894  0.09118875  1
  Al  Al45  1  0.91904375  0.41267525  0.59820934  1
  Al  Al46  1  0.92306495  0.93172985  0.08782482  1
  Al  Al47  1  0.91754396  0.91781369  0.57783962  1
  Al  Al48  1  0.41951588  0.09769137  0.41414483  1
  Al  Al49  1  0.41589674  0.08011716  0.93038320  1
  Al  Al50  1  0.41135902  0.57989504  0.40157220  1
  Al  Al51  1  0.42507397  0.58707284  0.91199226  1
  Al  Al52  1  0.90989441  0.07010482  0.41348325  1
  Al  Al53  1  0.90721780  0.09084553  0.91781586  1
  Al  Al54  1  0.92388154  0.57932105  0.42135218  1
  Al  Al55  1  0.92083288  0.57261723  0.91733273  1
  Al  Al56  1  0.09798702  0.41751411  0.41739209  1
  Al  Al57  1  0.08413573  0.40355237  0.92223112  1
  Al  Al58  1  0.08603957  0.91116482  0.42325473  1
  Al  Al59  1  0.08731199  0.91447460  0.92630764  1
  Al  Al60  1  0.56874052  0.41302733  0.41939943  1
  Al  Al61  1  0.58025264  0.42476274  0.92274871  1
  Al  Al62  1  0.59396530  0.91610141  0.41110448  1
  Al  Al63  1  0.58550980  0.92227164  0.90632404  1
  Al  Al64  1  0.09169054  0.08513850  0.42891050  1
  Al  Al65  1  0.07770862  0.08304241  0.92277131  1
  Al  Al66  1  0.09152953  0.57623323  0.40982056  1
  Al  Al67  1  0.08235414  0.58116820  0.92171697  1
  Al  Al68  1  0.58352153  0.08130879  0.40223566  1
  Al  Al69  1  0.59412010  0.07507375  0.92041469  1
  Al  Al70  1  0.57115245  0.59097785  0.41447713  1
  Al  Al71  1  0.57963417  0.58787152  0.91327186  1
  Al  Al72  1  0.40614494  0.40766592  0.41388919  1
  Al  Al73  1  0.41057459  0.41286363  0.92639991  1
  Al  Al74  1  0.41676606  0.90961590  0.42043693  1
  Al  Al75  1  0.42006864  0.91736609  0.92257555  1
  Al  Al76  1  0.92026857  0.42033992  0.42237549  1
  Al  Al77  1  0.92098136  0.41107813  0.91547617  1
  Al  Al78  1  0.90692806  0.91476958  0.40995370  1
  Al  Al79  1  0.92609730  0.93388398  0.91336686  1
  Al  Al80  1  0.08251159  0.40505568  0.08651815  1
  Al  Al81  1  0.08185552  0.40637569  0.58224123  1
  Al  Al82  1  0.09481532  0.91610216  0.08547125  1
  Al  Al83  1  0.08972328  0.91334821  0.58123143  1
  Al  Al84  1  0.57790390  0.41956367  0.08732152  1
  Al  Al85  1  0.57569292  0.41147513  0.58528652  1
  Al  Al86  1  0.58404306  0.92518597  0.09625365  1
  Al  Al87  1  0.59078077  0.91279048  0.57480430  1
  Al  Al88  1  0.42151340  0.09396197  0.09192647  1
  Al  Al89  1  0.40866839  0.08977934  0.57261741  1
  Al  Al90  1  0.42235669  0.58441521  0.09331016  1
  Al  Al91  1  0.42124644  0.57704437  0.57868033  1
  Al  Al92  1  0.90452819  0.08818917  0.08040642  1
  Al  Al93  1  0.92489818  0.08305926  0.58489111  1
  Al  Al94  1  0.91543954  0.56763081  0.09004258  1
  Al  Al95  1  0.91253829  0.57330943  0.58866758  1
  Al  Al96  1  0.25128888  0.13591418  0.12944022  1
  Al  Al97  1  0.25108899  0.14010017  0.62788288  1
  Al  Al98  1  0.25066457  0.63499787  0.13173624  1
  Al  Al99  1  0.25039155  0.63547297  0.63292459  1
  Al  Al100  1  0.74937888  0.13349440  0.13635796  1
  Al  Al101  1  0.74848194  0.13001058  0.63661772  1
  Al  Al102  1  0.74714120  0.63735148  0.14004219  1
  Al  Al103  1  0.74453678  0.63051548  0.63627105  1
  Al  Al104  1  0.25096864  0.36658236  0.13373490  1
  Al  Al105  1  0.25053104  0.36416584  0.63096639  1
  Al  Al106  1  0.25122641  0.87069933  0.13701041  1
  Al  Al107  1  0.25228227  0.86279929  0.63045876  1
  Al  Al108  1  0.75221520  0.36240626  0.13623410  1
  Al  Al109  1  0.75177446  0.36935953  0.63684590  1
  Al  Al110  1  0.74123345  0.86855317  0.13919784  1
  Al  Al111  1  0.74510795  0.87002637  0.63516117  1
  Al  Al112  1  0.25380832  0.13607285  0.36843187  1
  Al  Al113  1  0.25288393  0.13895928  0.87365482  1
  Al  Al114  1  0.25283306  0.63221253  0.36554735  1
  Al  Al115  1  0.24739211  0.63514521  0.86990902  1
  Al  Al116  1  0.74809485  0.12938107  0.36145438  1
  Al  Al117  1  0.74992219  0.13548096  0.86646115  1
  Al  Al118  1  0.74398690  0.63634929  0.36400355  1
  Al  Al119  1  0.75277917  0.63570727  0.86178130  1
  Al  Al120  1  0.25251094  0.36471697  0.36649736  1
  Al  Al121  1  0.24757136  0.36626056  0.86508798  1
  Al  Al122  1  0.25343747  0.86401749  0.36736122  1
  Al  Al123  1  0.24972414  0.86385487  0.86654476  1
  Al  Al124  1  0.75377900  0.36585377  0.36290790  1
  Al  Al125  1  0.75284678  0.36602063  0.86280968  1
  Al  Al126  1  0.74507313  0.87020624  0.36219005  1
  Al  Al127  1  0.74419077  0.86511042  0.86463483  1
  Al  Al128  1  0.13662769  0.25469360  0.12882726  1
  Al  Al129  1  0.13678266  0.24966237  0.63323847  1
  Al  Al130  1  0.13938259  0.75039332  0.13027206  1
  Al  Al131  1  0.13715463  0.75061738  0.63545713  1
  Al  Al132  1  0.63291973  0.24552526  0.13808327  1
  Al  Al133  1  0.63628530  0.25127870  0.63577957  1
  Al  Al134  1  0.62743386  0.74937104  0.14015275  1
  Al  Al135  1  0.63264457  0.74954053  0.63307089  1
  Al  Al136  1  0.13795689  0.24756084  0.36449511  1
  Al  Al137  1  0.13726052  0.25061663  0.87118987  1
  Al  Al138  1  0.13952553  0.75107904  0.36173389  1
  Al  Al139  1  0.13712208  0.74950966  0.87035865  1
  Al  Al140  1  0.63558946  0.24881765  0.36310163  1
  Al  Al141  1  0.63709109  0.25154705  0.86377405  1
  Al  Al142  1  0.63286859  0.75306435  0.36724821  1
  Al  Al143  1  0.63339173  0.74748143  0.86254641  1
  Al  Al144  1  0.36302950  0.25327417  0.13289625  1
  Al  Al145  1  0.36408613  0.25356852  0.62721026  1
  Al  Al146  1  0.36962987  0.74907340  0.13783443  1
  Al  Al147  1  0.36925263  0.75077633  0.63479317  1
  Al  Al148  1  0.86449410  0.24682385  0.13516629  1
  Al  Al149  1  0.86596844  0.25537837  0.63450291  1
  Al  Al150  1  0.85982814  0.75685417  0.13770499  1
  Al  Al151  1  0.86127644  0.74930516  0.63824929  1
  Al  Al152  1  0.36337112  0.25167870  0.36719644  1
  Al  Al153  1  0.36328497  0.25570374  0.87075087  1
  Al  Al154  1  0.37055899  0.75067890  0.36048729  1
  Al  Al155  1  0.36525418  0.74702131  0.86810111  1
  Al  Al156  1  0.86540726  0.25278293  0.36379699  1
  Al  Al157  1  0.86477100  0.24714951  0.86338215  1
  Al  Al158  1  0.86152712  0.75015089  0.36295763  1
  Al  Al159  1  0.86184029  0.75261327  0.86092412  1
  Al  Al160  1  0.13690797  0.13622904  0.24521336  1
  Al  Al161  1  0.13913974  0.13815617  0.75140762  1
  Al  Al162  1  0.13933148  0.63102052  0.25173471  1
  Al  Al163  1  0.13807036  0.62967415  0.74917164  1
  Al  Al164  1  0.63608403  0.12931927  0.24962463  1
  Al  Al165  1  0.63659118  0.12909633  0.75033932  1
  Al  Al166  1  0.62810895  0.63632860  0.25159852  1
  Al  Al167  1  0.62851428  0.63356954  0.74982301  1
  Al  Al168  1  0.36493279  0.13674714  0.24621252  1
  Al  Al169  1  0.36295193  0.13952574  0.74672583  1
  Al  Al170  1  0.36555828  0.63211202  0.25236976  1
  Al  Al171  1  0.36842529  0.63754595  0.75021148  1
  Al  Al172  1  0.86658959  0.13344275  0.25394736  1
  Al  Al173  1  0.86423977  0.13474869  0.74779362  1
  Al  Al174  1  0.86419033  0.63706881  0.24839989  1
  Al  Al175  1  0.86332155  0.62816266  0.74573201  1
  Al  Al176  1  0.14085933  0.36615454  0.24980485  1
  Al  Al177  1  0.13723234  0.36678144  0.74670263  1
  Al  Al178  1  0.13833632  0.86449555  0.24697626  1
  Al  Al179  1  0.13895291  0.86338859  0.74820886  1
  Al  Al180  1  0.63422688  0.36278209  0.25057613  1
  Al  Al181  1  0.63366888  0.36718207  0.74550427  1
  Al  Al182  1  0.62711161  0.86633657  0.25255164  1
  Al  Al183  1  0.63251679  0.86907492  0.74785952  1
  Al  Al184  1  0.36552120  0.36851608  0.25620366  1
  Al  Al185  1  0.36494148  0.36145370  0.74559806  1
  Al  Al186  1  0.36991834  0.86808562  0.24906296  1
  Al  Al187  1  0.36505096  0.86512208  0.74726270  1
  Al  Al188  1  0.86950009  0.36526909  0.24194785  1
  Al  Al189  1  0.86720146  0.36785740  0.74822427  1
  Al  Al190  1  0.86221247  0.86848589  0.25468497  1
  Al  Al191  1  0.86318883  0.86609649  0.74691484  1
  Al  Al192  1  0.00115466  0.67412092  0.17831177  1
  Al  Al193  1  0.83549916  0.83316654  -0.00194525  1
  Al  Al194  1  0.32840506  0.00175150  0.82135806  1
  Al  Al195  1  0.31846891  0.50094079  0.17719415  1
  Al  Al196  1  0.49862204  0.31373384  0.18908254  1
  Al  Al197  1  0.33199913  0.68514290  0.49738048  1
  Al  Al198  1  0.49990477  0.19091166  0.30861727  1
  Al  Al199  1  0.82820113  0.66629808  0.00326731  1
  Al  Al200  1  0.81740469  0.67122043  0.50035516  1
  Al  Al201  1  0.00117155  0.18309858  0.16821819  1
  Al  Al202  1  0.32153241  0.49900978  0.67030761  1
  Al  Al203  1  0.17058166  0.00038982  0.82822740  1
  Al  Al204  1  0.31359692  0.81960214  0.00290864  1
  Al  Al205  1  0.67543010  0.32619463  0.49883196  1
  Al  Al206  1  0.83075981  0.50000703  0.30834862  1
  Al  Al207  1  0.66913759  0.17128993  0.49801075  1
  Al  Al208  1  0.67059580  0.67468870  0.00178924  1
  Al  Al209  1  0.00037044  0.82213291  0.67153360  1
  Al  Al210  1  0.68346891  0.17669702  0.00160695  1
  Al  Al211  1  0.17212078  0.68737876  0.49858086  1
  Al  Al212  1  0.00117248  0.16917450  0.32816076  1
  Al  Al213  1  0.49931375  0.33003758  0.81856597  1
  Al  Al214  1  0.17193972  0.00016484  0.31781119  1
  Al  Al215  1  0.49878522  0.81501212  0.81976557  1
  Al  Al216  1  0.00379223  0.33090875  0.31432733  1
  Al  Al217  1  0.17848542  0.00150198  0.67308259  1
  Al  Al218  1  0.00125762  0.82969730  0.17373337  1
  Al  Al219  1  0.18594837  0.31374573  0.49873526  1
  Al  Al220  1  0.50016031  0.16895800  0.82945346  1
  Al  Al221  1  0.00206202  0.31640054  0.81174109  1
  Al  Al222  1  0.81443864  0.00094307  0.18528194  1
  Al  Al223  1  0.68453363  0.49885705  0.17417783  1
  Al  Al224  1  0.33117832  0.00040048  0.32237976  1
  Al  Al225  1  0.82707167  0.31555856  -0.00039411  1
  Al  Al226  1  0.00255651  0.83167574  0.82522291  1
  Al  Al227  1  0.67154253  0.82901380  0.00217741  1
  Al  Al228  1  0.00106610  0.18951362  0.68218893  1
  Al  Al229  1  0.66724211  0.49855742  0.33037282  1
  Al  Al230  1  0.49944955  0.18433347  0.66678084  1
  Al  Al231  1  -0.00049938  0.67359070  0.82117116  1
  Al  Al232  1  0.81330751  0.82679818  0.49951659  1
  Al  Al233  1  0.82627187  0.17658817  0.49990945  1
  Al  Al234  1  0.81312824  0.00027975  0.82101185  1
  Al  Al235  1  0.67280298  0.32918076  0.00200797  1
  Al  Al236  1  0.67789197  0.50450985  0.82275164  1
  Al  Al237  1  0.00067672  0.82192413  0.32711132  1
  Al  Al238  1  0.32156232  0.50123063  0.82533960  1
  Au  Au239  1  0.00379183  0.67262629  0.33822983  1
  Au  Au240  1  0.50011699  0.33437633  0.83509389  1
  Au  Au241  1  0.33771987  0.66235090  0.00194215  1
  Au  Au242  1  0.65793979  0.67881724  0.49788828  1
  Au  Au243  1  0.50228901  0.82405110  0.33745665  1
  Au  Au244  1  0.49883026  0.82706114  0.83193252  1
  Au  Au245  1  0.00025785  0.16788221  0.16276943  1
  Au  Au246  1  0.50501996  0.15223003  0.83067491  1
  Au  Au247  1  -0.00321508  0.67396538  0.16198379  1
  Au  Au248  1  0.50161906  0.82883430  0.65737261  1
  Au  Au249  1  0.32211262  0.00203841  0.83750209  1
  Au  Au250  1  0.49868240  0.32077844  0.17353953  1
  Au  Au251  1  -0.00018259  0.16881736  0.82907195  1
  Au  Au252  1  0.33093365  0.50051848  0.18067456  1
  Au  Au253  1  0.32400815  0.83301264  0.00320583  1
  Au  Au254  1  -0.00110117  0.67888317  0.83729977  1
  Au  Au255  1  0.67319705  0.49622783  0.66066917  1
  Au  Au256  1  0.16937711  0.17391305  0.00030090  1
  Au  Au257  1  -0.00177093  0.67104697  0.66169072  1
  Au  Au258  1  0.82494750  0.16035926  0.49749797  1
  Au  Au259  1  0.66972746  0.50208594  0.83176455  1
  Au  Au260  1  0.49947458  0.82582637  0.17101484  1
  Au  Au261  1  0.15900717  -0.00146818  0.32750207  1
  Au  Au262  1  0.49840434  0.66041746  0.67660529  1
  Au  Au263  1  0.83197729  0.50249688  0.32536720  1
  Au  Au264  1  0.49883538  0.17908888  0.65124288  1
  Au  Au265  1  0.00493097  0.33813807  0.32957006  1
  Au  Au266  1  0.32583583  0.00154139  0.65561667  1
  Au  Au267  1  0.33704939  0.18279094  0.00311207  1
  Au  Au268  1  0.83514687  0.49576745  0.82254961  1
  Au  Au269  1  0.16468278  0.67286352  0.49847097  1
  Au  Au270  1  0.00071408  0.16345061  0.33940214  1
  Au  Au271  1  0.16922962  0.67203080  0.00141489  1
  Au  Au272  1  0.16552449  0.49538024  0.17584816  1
  Au  Au273  1  0.82152212  0.65075733  0.00420990  1
  Au  Au274  1  0.34326032  0.67338363  0.49617140  1
  Au  Au275  1  0.15963864  0.49385453  0.83358808  1
  Au  Au276  1  0.83334035  0.67180755  0.50473237  1
  Au  Au277  1  0.85062798  0.83860038  -0.00192036  1
  Au  Au278  1  0.32757638  0.00527362  0.16314144  1
  Au  Au279  1  0.17074991  0.49623679  0.65940234  1
  Au  Au280  1  0.83796789  -0.00129437  0.67425840  1
  Au  Au281  1  0.67332506  0.16694581  0.00198136  1
  Au  Au282  1  0.82608722  0.34396704  0.50598932  1
  Au  Au283  1  0.66602619  -0.00064278  0.67331149  1
  Au  Au284  1  0.33760229  0.50082056  0.82807529  1
  Au  Au285  1  0.65628836  0.83391110  0.00214812  1
  Au  Au286  1  0.33643374  0.00024004  0.33370767  1
  Au  Au287  1  0.65527721  0.49815943  0.32641449  1
