# generated using pymatgen
data_Ca24Ti8Al207Au49
_symmetry_space_group_name_H-M   'P 1'
_cell_length_a   17.32281098
_cell_length_b   17.32291277
_cell_length_c   17.32291858
_cell_angle_alpha   90.00153246
_cell_angle_beta   89.99962880
_cell_angle_gamma   90.00051611
_symmetry_Int_Tables_number   1
_chemical_formula_structural   Ca24Ti8Al207Au49
_chemical_formula_sum   'Ca24 Ti8 Al207 Au49'
_cell_volume   5198.28814060
_cell_formula_units_Z   1
loop_
 _symmetry_equiv_pos_site_id
 _symmetry_equiv_pos_as_xyz
  1  'x, y, z'
loop_
 _atom_site_type_symbol
 _atom_site_label
 _atom_site_symmetry_multiplicity
 _atom_site_fract_x
 _atom_site_fract_y
 _atom_site_fract_z
 _atom_site_occupancy
  Ca  Ca0  1  0.25296327  0.00310855  -0.00062083  1
  Ca  Ca1  1  0.25069060  0.00477982  0.49906287  1
  Ca  Ca2  1  0.25327449  0.50172470  -0.00008898  1
  Ca  Ca3  1  0.24700580  0.49637519  0.49744589  1
  Ca  Ca4  1  0.74475282  -0.00295704  0.00042219  1
  Ca  Ca5  1  0.74630593  0.00049424  0.49551932  1
  Ca  Ca6  1  0.74679656  0.50265326  0.00087223  1
  Ca  Ca7  1  0.74913167  0.49699977  0.49649584  1
  Ca  Ca8  1  0.00063410  0.25156274  0.00360707  1
  Ca  Ca9  1  0.00214075  0.25290433  0.49622752  1
  Ca  Ca10  1  -0.00265638  0.74866286  -0.00199484  1
  Ca  Ca11  1  -0.00067743  0.74914200  0.50031065  1
  Ca  Ca12  1  0.49982013  0.24742648  -0.00286345  1
  Ca  Ca13  1  0.50150861  0.25041553  0.50164981  1
  Ca  Ca14  1  0.50194036  0.74632987  0.00027661  1
  Ca  Ca15  1  0.50302311  0.74983498  0.50156874  1
  Ca  Ca16  1  0.00180173  0.00356338  0.25167224  1
  Ca  Ca17  1  0.00466941  0.00045848  0.75123727  1
  Ca  Ca18  1  -0.00008832  0.49402602  0.25204254  1
  Ca  Ca19  1  0.00218800  0.49832247  0.75066346  1
  Ca  Ca20  1  0.49881524  -0.00390716  0.25048341  1
  Ca  Ca21  1  0.49912514  0.00333900  0.75274383  1
  Ca  Ca22  1  0.50138567  0.50600670  0.25090569  1
  Ca  Ca23  1  0.49728119  0.49752302  0.75063569  1
  Ti  Ti24  1  0.25011970  0.25111616  0.25014775  1
  Ti  Ti25  1  0.24880509  0.25170066  0.75048131  1
  Ti  Ti26  1  0.25194229  0.74743920  0.25015520  1
  Ti  Ti27  1  0.25018342  0.74757509  0.75001911  1
  Ti  Ti28  1  0.75060630  0.24935364  0.25014365  1
  Ti  Ti29  1  0.75099271  0.25019405  0.75031796  1
  Ti  Ti30  1  0.74832835  0.74973764  0.24799602  1
  Ti  Ti31  1  0.75015249  0.74785158  0.75205022  1
  Al  Al32  1  0.08167406  0.08864886  0.09380857  1
  Al  Al33  1  0.08809179  0.09172219  0.57354624  1
  Al  Al34  1  0.08314112  0.57634528  0.08375345  1
  Al  Al35  1  0.08024465  0.58174717  0.59105201  1
  Al  Al36  1  0.58455005  0.06991137  0.08136658  1
  Al  Al37  1  0.58367534  0.10042516  0.58522688  1
  Al  Al38  1  0.58373069  0.59067027  0.09371091  1
  Al  Al39  1  0.57657374  0.58137300  0.58194566  1
  Al  Al40  1  0.41270315  0.43185559  0.08313804  1
  Al  Al41  1  0.41379767  0.41689289  0.59184914  1
  Al  Al42  1  0.41869210  0.91998175  0.09122179  1
  Al  Al43  1  0.41686481  0.92587681  0.58625106  1
  Al  Al44  1  0.91564744  0.40289062  0.08507536  1
  Al  Al45  1  0.91885706  0.41647419  0.57564195  1
  Al  Al46  1  0.90782111  0.91130620  0.07769347  1
  Al  Al47  1  0.91555808  0.91762619  0.58292944  1
  Al  Al48  1  0.41312451  0.07900388  0.41636971  1
  Al  Al49  1  0.41417261  0.08491715  0.90009686  1
  Al  Al50  1  0.41894313  0.58065507  0.40957161  1
  Al  Al51  1  0.41571219  0.58347106  0.90566829  1
  Al  Al52  1  0.92173998  0.08557603  0.41321738  1
  Al  Al53  1  0.92057130  0.08113220  0.91861411  1
  Al  Al54  1  0.92197323  0.57723024  0.41602281  1
  Al  Al55  1  0.91952583  0.58375646  0.92023298  1
  Al  Al56  1  0.08760418  0.40903314  0.40890568  1
  Al  Al57  1  0.07686370  0.41138276  0.91205702  1
  Al  Al58  1  0.08051242  0.92625549  0.41524974  1
  Al  Al59  1  0.08143567  0.92405410  0.91602782  1
  Al  Al60  1  0.59128276  0.40969690  0.41959735  1
  Al  Al61  1  0.57470258  0.41637608  0.91657637  1
  Al  Al62  1  0.57705536  0.92217871  0.41593722  1
  Al  Al63  1  0.58317147  0.90846862  0.92413767  1
  Al  Al64  1  0.08751501  0.09324645  0.41390986  1
  Al  Al65  1  0.08545307  0.08380104  0.91526597  1
  Al  Al66  1  0.08322183  0.57223114  0.40941013  1
  Al  Al67  1  0.08211495  0.57831315  0.91799964  1
  Al  Al68  1  0.59035867  0.08997243  0.42293854  1
  Al  Al69  1  0.57267467  0.08492177  0.91722075  1
  Al  Al70  1  0.58121239  0.58165309  0.41358694  1
  Al  Al71  1  0.57586237  0.59206549  0.91722506  1
  Al  Al72  1  0.41573821  0.42032964  0.41795809  1
  Al  Al73  1  0.41538438  0.42149686  0.90570327  1
  Al  Al74  1  0.41315176  0.92281542  0.40578307  1
  Al  Al75  1  0.42023906  0.92336919  0.90871603  1
  Al  Al76  1  0.92103998  0.41076696  0.41163457  1
  Al  Al77  1  0.91485680  0.40614649  0.92218232  1
  Al  Al78  1  0.91434968  0.92215079  0.42001179  1
  Al  Al79  1  0.90821504  0.90919555  0.92090225  1
  Al  Al80  1  0.07911500  0.40951921  0.09349485  1
  Al  Al81  1  0.08809414  0.41406528  0.57799291  1
  Al  Al82  1  0.07778513  0.92529550  0.08324511  1
  Al  Al83  1  0.07652378  0.91801599  0.57977472  1
  Al  Al84  1  0.58887033  0.43059309  0.08475269  1
  Al  Al85  1  0.58526219  0.40488912  0.57968578  1
  Al  Al86  1  0.59430247  0.91049026  0.08619503  1
  Al  Al87  1  0.57483574  0.92284393  0.57887035  1
  Al  Al88  1  0.41219621  0.07504598  0.08390933  1
  Al  Al89  1  0.41970376  0.08963593  0.59000316  1
  Al  Al90  1  0.42113620  0.58821531  0.09102750  1
  Al  Al91  1  0.41238171  0.57663196  0.59539515  1
  Al  Al92  1  0.92207874  0.08913322  0.09092643  1
  Al  Al93  1  0.92035705  0.08224101  0.57913553  1
  Al  Al94  1  0.91828324  0.58171078  0.08016800  1
  Al  Al95  1  0.92309030  0.58668384  0.58572356  1
  Al  Al96  1  0.24868793  0.13719944  0.13109686  1
  Al  Al97  1  0.24979163  0.14140029  0.63512584  1
  Al  Al98  1  0.25529060  0.62887543  0.13717596  1
  Al  Al99  1  0.25310955  0.62845545  0.64116744  1
  Al  Al100  1  0.75034891  0.13477877  0.13516750  1
  Al  Al101  1  0.74770492  0.14138950  0.63644094  1
  Al  Al102  1  0.74542756  0.63481955  0.12866309  1
  Al  Al103  1  0.74594893  0.63441927  0.63771033  1
  Al  Al104  1  0.25077937  0.36472255  0.13605689  1
  Al  Al105  1  0.25064007  0.36692787  0.63781281  1
  Al  Al106  1  0.25375480  0.86555973  0.13710128  1
  Al  Al107  1  0.24987526  0.86009119  0.63572363  1
  Al  Al108  1  0.75232605  0.36081563  0.13467072  1
  Al  Al109  1  0.74659228  0.36201073  0.63498833  1
  Al  Al110  1  0.74696136  0.86662690  0.13120101  1
  Al  Al111  1  0.75018716  0.86079114  0.63836969  1
  Al  Al112  1  0.24727625  0.13903068  0.36616999  1
  Al  Al113  1  0.25057023  0.13908733  0.86774483  1
  Al  Al114  1  0.24959804  0.62495380  0.36359158  1
  Al  Al115  1  0.25304013  0.63044415  0.86102228  1
  Al  Al116  1  0.74514734  0.13765896  0.36452041  1
  Al  Al117  1  0.75289554  0.13773638  0.86294442  1
  Al  Al118  1  0.74456622  0.63313731  0.36468716  1
  Al  Al119  1  0.74901063  0.63554129  0.87131261  1
  Al  Al120  1  0.24730890  0.37230217  0.36154867  1
  Al  Al121  1  0.25466775  0.36499815  0.86204674  1
  Al  Al122  1  0.25397940  0.86667940  0.36282935  1
  Al  Al123  1  0.25103143  0.86294383  0.86122422  1
  Al  Al124  1  0.74702133  0.36310442  0.36377045  1
  Al  Al125  1  0.75362586  0.36058865  0.86580349  1
  Al  Al126  1  0.74635447  0.86367798  0.36276662  1
  Al  Al127  1  0.75137824  0.86307097  0.86822932  1
  Al  Al128  1  0.13044816  0.25065769  0.13934711  1
  Al  Al129  1  0.13076293  0.25247083  0.63599487  1
  Al  Al130  1  0.13776046  0.74718407  0.13889665  1
  Al  Al131  1  0.13244621  0.74736520  0.63518579  1
  Al  Al132  1  0.63567536  0.24829517  0.13743134  1
  Al  Al133  1  0.62926136  0.25020376  0.63821632  1
  Al  Al134  1  0.63651257  0.74958250  0.13053522  1
  Al  Al135  1  0.62685315  0.74541564  0.63927187  1
  Al  Al136  1  0.13304328  0.25271815  0.36177730  1
  Al  Al137  1  0.13116191  0.24961294  0.86490674  1
  Al  Al138  1  0.13872577  0.75129885  0.36287110  1
  Al  Al139  1  0.13109315  0.74708861  0.86173945  1
  Al  Al140  1  0.63495699  0.25059425  0.36501851  1
  Al  Al141  1  0.63396187  0.24828816  0.86354532  1
  Al  Al142  1  0.63446777  0.74624822  0.36085492  1
  Al  Al143  1  0.63669107  0.75003215  0.87142958  1
  Al  Al144  1  0.36360091  0.24561164  0.13432652  1
  Al  Al145  1  0.37199312  0.24846308  0.63870458  1
  Al  Al146  1  0.36755621  0.74486992  0.13805680  1
  Al  Al147  1  0.37211513  0.74639568  0.64087413  1
  Al  Al148  1  0.86935139  0.25250302  0.13627665  1
  Al  Al149  1  0.87134233  0.25238941  0.63374930  1
  Al  Al150  1  0.85963979  0.75189095  0.12736882  1
  Al  Al151  1  0.86866573  0.74590471  0.63601299  1
  Al  Al152  1  0.36168747  0.25068074  0.36523849  1
  Al  Al153  1  0.36733574  0.24734794  0.86588059  1
  Al  Al154  1  0.36273808  0.74519885  0.36299395  1
  Al  Al155  1  0.36767212  0.74612213  0.86287705  1
  Al  Al156  1  0.86686155  0.25241826  0.36312026  1
  Al  Al157  1  0.87186225  0.25180928  0.86581330  1
  Al  Al158  1  0.86239325  0.74820360  0.36199939  1
  Al  Al159  1  0.86731975  0.74932100  0.86972962  1
  Al  Al160  1  0.13428976  0.13603622  0.24780227  1
  Al  Al161  1  0.12962566  0.13887598  0.75138968  1
  Al  Al162  1  0.13649820  0.62949653  0.25117757  1
  Al  Al163  1  0.12998975  0.63285090  0.74857184  1
  Al  Al164  1  0.63611922  0.12919886  0.25036173  1
  Al  Al165  1  0.63019583  0.13671840  0.74925903  1
  Al  Al166  1  0.63218622  0.63216586  0.24517923  1
  Al  Al167  1  0.63053602  0.63386694  0.75588515  1
  Al  Al168  1  0.36138914  0.13073299  0.25018925  1
  Al  Al169  1  0.36623231  0.13784878  0.75290032  1
  Al  Al170  1  0.36877015  0.62813922  0.25003125  1
  Al  Al171  1  0.37013211  0.63127059  0.75404800  1
  Al  Al172  1  0.86620162  0.13685319  0.24628765  1
  Al  Al173  1  0.87293703  0.14089631  0.74872793  1
  Al  Al174  1  0.86275467  0.63598077  0.24450415  1
  Al  Al175  1  0.87065131  0.63631082  0.75209944  1
  Al  Al176  1  0.13049263  0.36545395  0.25120467  1
  Al  Al177  1  0.12936267  0.36531489  0.75158903  1
  Al  Al178  1  0.13384348  0.86637429  0.25018030  1
  Al  Al179  1  0.12800663  0.86177473  0.74961202  1
  Al  Al180  1  0.63844968  0.36968337  0.24873488  1
  Al  Al181  1  0.63609169  0.36855402  0.75134924  1
  Al  Al182  1  0.63662477  0.87146079  0.24683386  1
  Al  Al183  1  0.63779040  0.86313432  0.75165766  1
  Al  Al184  1  0.36202642  0.37156493  0.25015807  1
  Al  Al185  1  0.36602855  0.36654926  0.74748493  1
  Al  Al186  1  0.36592365  0.86661788  0.24846175  1
  Al  Al187  1  0.36617418  0.86454321  0.75056759  1
  Al  Al188  1  0.86972978  0.36274694  0.24980396  1
  Al  Al189  1  0.87106630  0.36331624  0.74933333  1
  Al  Al190  1  0.86520980  0.86362560  0.24765967  1
  Al  Al191  1  0.87262857  0.85693365  0.75135197  1
  Al  Al192  1  0.66624323  0.00029286  0.83015863  1
  Al  Al193  1  0.81797614  0.00182138  0.32499851  1
  Al  Al194  1  0.49895410  0.33292287  0.17061248  1
  Al  Al195  1  0.81420690  0.49824563  0.16829484  1
  Al  Al196  1  0.18427839  0.00089594  0.17460772  1
  Al  Al197  1  0.82991377  0.18831586  0.00112292  1
  Al  Al198  1  -0.00228803  0.82203620  0.17611317  1
  Al  Al199  1  0.68077598  0.67468870  0.50123674  1
  Al  Al200  1  0.17299821  0.32217333  0.00053609  1
  Al  Al201  1  0.67044145  0.83014484  0.50059933  1
  Al  Al202  1  0.18231348  0.30962623  0.49877878  1
  Al  Al203  1  0.81606990  0.32612575  0.49872869  1
  Al  Al204  1  -0.00010433  0.18471190  0.31461717  1
  Al  Al205  1  0.17908121  0.00033064  0.67760784  1
  Al  Al206  1  0.17491023  0.67190414  0.00007485  1
  Al  Al207  1  0.32733263  0.00279343  0.68906784  1
  Al  Al208  1  0.68318981  0.33023252  -0.00011775  1
  Al  Al209  1  0.17567149  0.82905199  0.00032808  1
  Al  Al210  1  0.32440501  0.18128496  0.50010598  1
  Al  Al211  1  0.67304625  0.17181345  -0.00075654  1
  Al  Al212  1  0.32886809  0.67065171  -0.00038876  1
  Al  Al213  1  0.50237674  0.81578333  0.82125697  1
  Al  Al214  1  0.82208836  0.00319344  0.67824018  1
  Al  Al215  1  0.49990193  0.31505650  0.81821470  1
  Al  Al216  1  0.18365820  0.00280284  0.32643277  1
  Al  Al217  1  0.67637001  0.00189955  0.66897831  1
  Al  Al218  1  0.81230150  0.17150150  0.49930227  1
  Al  Al219  1  0.82089511  0.50113041  0.67151407  1
  Al  Al220  1  0.49934503  0.16765839  0.17387392  1
  Al  Al221  1  0.18151320  0.49671662  0.18150193  1
  Al  Al222  1  0.50023253  0.82008005  0.32495281  1
  Al  Al223  1  0.82291694  0.82051484  0.49995621  1
  Al  Al224  1  0.49864218  0.17221409  0.32964903  1
  Al  Al225  1  0.32771160  0.82891367  0.49751326  1
  Al  Al226  1  0.33067255  0.32761750  0.00033568  1
  Al  Al227  1  0.82330725  -0.00098032  0.82368166  1
  Al  Al228  1  0.00032443  0.67874944  0.31892748  1
  Al  Al229  1  0.18910663  0.00156038  0.82625853  1
  Al  Al230  1  0.81992960  0.49880084  0.32471168  1
  Al  Al231  1  0.49944618  0.32581041  0.32841951  1
  Al  Al232  1  0.17133905  0.66922385  0.49789762  1
  Al  Al233  1  0.17668753  0.49702018  0.82076967  1
  Al  Al234  1  0.82177227  0.49704714  0.83273093  1
  Al  Al235  1  0.50281381  0.81756586  0.17272940  1
  Al  Al236  1  0.32919375  0.83031959  -0.00138000  1
  Al  Al237  1  0.81783244  -0.00071671  0.17268935  1
  Al  Al238  1  0.32677564  0.67198646  0.50529987  1
  Au  Au239  1  0.16321853  0.82577946  0.00031149  1
  Au  Au240  1  -0.00079359  0.82118596  0.66252155  1
  Au  Au241  1  0.66675048  0.49610975  0.66206743  1
  Au  Au242  1  0.66661141  0.00090629  0.32914042  1
  Au  Au243  1  0.83201136  0.17149250  0.00204935  1
  Au  Au244  1  0.15888238  0.67146708  0.49764145  1
  Au  Au245  1  0.83067392  0.49515388  0.16900379  1
  Au  Au246  1  -0.00261033  0.82874048  0.33986873  1
  Au  Au247  1  0.32067464  0.16933743  0.49857647  1
  Au  Au248  1  0.83391314  0.49590784  0.83039244  1
  Au  Au249  1  0.83012809  -0.00067783  0.16886845  1
  Au  Au250  1  0.50068983  0.67235528  0.32118738  1
  Au  Au251  1  0.49935832  0.66298596  0.68206970  1
  Au  Au252  1  0.32723337  0.33668494  0.50196112  1
  Au  Au253  1  0.00148998  0.66369308  0.82522415  1
  Au  Au254  1  0.16769982  0.00177078  0.66531291  1
  Au  Au255  1  0.66858751  0.49773730  0.32745799  1
  Au  Au256  1  0.00092967  0.66616513  0.17065146  1
  Au  Au257  1  0.66613700  0.33177651  0.00094948  1
  Au  Au258  1  0.16149089  0.17295404  0.00368882  1
  Au  Au259  1  0.65774574  0.50413721  0.83250100  1
  Au  Au260  1  0.33703646  0.66753215  0.49997604  1
  Au  Au261  1  0.83167054  -0.00129231  0.83390104  1
  Au  Au262  1  0.84203047  0.67208209  0.49688082  1
  Au  Au263  1  0.50028815  0.32367853  0.67087488  1
  Au  Au264  1  0.83270514  0.50344404  0.66879803  1
  Au  Au265  1  0.00133063  0.17592941  0.83377718  1
  Au  Au266  1  0.00009476  0.83280154  0.83297710  1
  Au  Au267  1  0.00079882  0.33798839  0.67111266  1
  Au  Au268  1  -0.00131285  0.82902491  0.16572153  1
  Au  Au269  1  0.50413663  0.15647254  0.17062542  1
  Au  Au270  1  0.17144730  0.49665488  0.17132042  1
  Au  Au271  1  0.50023975  0.83510319  0.67416094  1
  Au  Au272  1  0.66383652  0.00231036  0.67122152  1
  Au  Au273  1  0.00280292  0.17090699  0.66406442  1
  Au  Au274  1  0.82887183  0.17414345  0.49668854  1
  Au  Au275  1  0.66874764  0.67063570  0.50149818  1
  Au  Au276  1  0.17942018  0.49522627  0.83311983  1
  Au  Au277  1  0.32640192  0.49856958  0.32370346  1
  Au  Au278  1  0.66470498  0.67465135  0.00122448  1
  Au  Au279  1  0.33503061  0.16325772  -0.00357039  1
  Au  Au280  1  0.49886524  0.34836366  0.17735567  1
  Au  Au281  1  0.83066085  0.00084410  0.67003219  1
  Au  Au282  1  0.17907701  0.49859234  0.66455780  1
  Au  Au283  1  0.83358561  0.67755485  -0.00067148  1
  Au  Au284  1  0.34172066  0.82763836  -0.00133150  1
  Au  Au285  1  0.32718667  0.33995386  -0.00102790  1
  Au  Au286  1  0.16425782  0.83378004  0.49590161  1
  Au  Au287  1  0.33859952  0.83317550  0.50195856  1
