# generated using pymatgen
data_Ca24Ti8Al207Au49
_symmetry_space_group_name_H-M   'P 1'
_cell_length_a   17.32118571
_cell_length_b   17.32113783
_cell_length_c   17.32105923
_cell_angle_alpha   90.00028738
_cell_angle_beta   90.00496961
_cell_angle_gamma   89.99999578
_symmetry_Int_Tables_number   1
_chemical_formula_structural   Ca24Ti8Al207Au49
_chemical_formula_sum   'Ca24 Ti8 Al207 Au49'
_cell_volume   5196.70998703
_cell_formula_units_Z   1
loop_
 _symmetry_equiv_pos_site_id
 _symmetry_equiv_pos_as_xyz
  1  'x, y, z'
loop_
 _atom_site_type_symbol
 _atom_site_label
 _atom_site_symmetry_multiplicity
 _atom_site_fract_x
 _atom_site_fract_y
 _atom_site_fract_z
 _atom_site_occupancy
  Ca  Ca0  1  0.24508176  0.00321266  -0.00314548  1
  Ca  Ca1  1  0.24644604  0.00610134  0.50076687  1
  Ca  Ca2  1  0.24410668  0.49677174  0.00034753  1
  Ca  Ca3  1  0.24996741  0.49454138  0.50250710  1
  Ca  Ca4  1  0.75403433  -0.00021783  0.00083356  1
  Ca  Ca5  1  0.74855230  0.00416737  0.49918302  1
  Ca  Ca6  1  0.75473325  0.49825535  0.00228945  1
  Ca  Ca7  1  0.75338990  0.49985622  0.50004934  1
  Ca  Ca8  1  0.00048366  0.25365209  0.00139453  1
  Ca  Ca9  1  0.00399407  0.24829458  0.50019342  1
  Ca  Ca10  1  -0.00126439  0.74820369  0.00182840  1
  Ca  Ca11  1  -0.00059352  0.74723534  0.49728559  1
  Ca  Ca12  1  0.50075071  0.25134798  -0.00037520  1
  Ca  Ca13  1  0.49443145  0.24692550  0.50078855  1
  Ca  Ca14  1  0.49991463  0.74825977  -0.00140653  1
  Ca  Ca15  1  0.50144388  0.74522846  0.49939901  1
  Ca  Ca16  1  0.00029499  -0.00029263  0.25228013  1
  Ca  Ca17  1  0.00123436  0.00008400  0.75306873  1
  Ca  Ca18  1  0.00008965  0.49933515  0.24593408  1
  Ca  Ca19  1  0.00306143  0.49677905  0.74884220  1
  Ca  Ca20  1  0.50136016  0.00487202  0.25520643  1
  Ca  Ca21  1  0.49886984  0.00628959  0.74549556  1
  Ca  Ca22  1  0.49942604  0.49465279  0.25174201  1
  Ca  Ca23  1  0.49512106  0.49778421  0.74592552  1
  Ti  Ti24  1  0.24830191  0.25125756  0.25074920  1
  Ti  Ti25  1  0.24873534  0.24998917  0.74934098  1
  Ti  Ti26  1  0.24740350  0.74884246  0.24922918  1
  Ti  Ti27  1  0.24860275  0.74902176  0.75054719  1
  Ti  Ti28  1  0.74993047  0.25009545  0.24928818  1
  Ti  Ti29  1  0.75011010  0.24851105  0.75028099  1
  Ti  Ti30  1  0.75070954  0.74907182  0.25035088  1
  Ti  Ti31  1  0.75137772  0.74921309  0.75039461  1
  Al  Al32  1  0.08204223  0.08536856  0.08299747  1
  Al  Al33  1  0.08726428  0.09234380  0.58125315  1
  Al  Al34  1  0.08913560  0.57643297  0.08316688  1
  Al  Al35  1  0.07949188  0.58299800  0.58839660  1
  Al  Al36  1  0.58209981  0.09204058  0.09045872  1
  Al  Al37  1  0.58787827  0.09217470  0.58697569  1
  Al  Al38  1  0.58406851  0.57220810  0.07806813  1
  Al  Al39  1  0.57988861  0.58761351  0.58753607  1
  Al  Al40  1  0.41906231  0.40885912  0.08622139  1
  Al  Al41  1  0.40918496  0.41252139  0.58574287  1
  Al  Al42  1  0.42050905  0.92782220  0.07380887  1
  Al  Al43  1  0.41985196  0.92716883  0.57863068  1
  Al  Al44  1  0.92050980  0.41423227  0.09200603  1
  Al  Al45  1  0.92683180  0.41326496  0.59148827  1
  Al  Al46  1  0.91189156  0.91370577  0.08239732  1
  Al  Al47  1  0.92075800  0.91593227  0.57819214  1
  Al  Al48  1  0.41293799  0.09001372  0.42013832  1
  Al  Al49  1  0.41642410  0.08658491  0.90206354  1
  Al  Al50  1  0.42089125  0.56973161  0.42163445  1
  Al  Al51  1  0.41297229  0.57865721  0.91415949  1
  Al  Al52  1  0.92283493  0.07972822  0.41828032  1
  Al  Al53  1  0.92361680  0.08392392  0.91998898  1
  Al  Al54  1  0.91508335  0.58460001  0.40426739  1
  Al  Al55  1  0.92142812  0.58700851  0.92335470  1
  Al  Al56  1  0.08709063  0.41458954  0.42136536  1
  Al  Al57  1  0.08654862  0.40882072  0.91867523  1
  Al  Al58  1  0.08318648  0.92143670  0.40594479  1
  Al  Al59  1  0.08760941  0.91985766  0.91350030  1
  Al  Al60  1  0.57568262  0.41653669  0.41250979  1
  Al  Al61  1  0.57437981  0.40763261  0.91563116  1
  Al  Al62  1  0.58083736  0.93025818  0.41770555  1
  Al  Al63  1  0.58422456  0.92232717  0.92234411  1
  Al  Al64  1  0.09174544  0.08547774  0.41582648  1
  Al  Al65  1  0.08841334  0.08359426  0.90841529  1
  Al  Al66  1  0.07621908  0.58223729  0.41341798  1
  Al  Al67  1  0.08653207  0.58686231  0.92058592  1
  Al  Al68  1  0.58891584  0.09082337  0.42163014  1
  Al  Al69  1  0.57723867  0.09056933  0.91297247  1
  Al  Al70  1  0.58544433  0.57835970  0.42590060  1
  Al  Al71  1  0.57564439  0.58038765  0.91975095  1
  Al  Al72  1  0.41264474  0.40675716  0.41955798  1
  Al  Al73  1  0.41596197  0.41070671  0.91295156  1
  Al  Al74  1  0.41488569  0.92703310  0.42004862  1
  Al  Al75  1  0.40543369  0.92877511  0.91065457  1
  Al  Al76  1  0.91412286  0.42607661  0.40726850  1
  Al  Al77  1  0.92819279  0.40991406  0.91563343  1
  Al  Al78  1  0.92191860  0.91045755  0.41443202  1
  Al  Al79  1  0.91727051  0.91227117  0.92286062  1
  Al  Al80  1  0.08532176  0.41205273  0.08643660  1
  Al  Al81  1  0.08736437  0.40811313  0.58695279  1
  Al  Al82  1  0.08225092  0.91719562  0.07884140  1
  Al  Al83  1  0.07975717  0.92392321  0.58619952  1
  Al  Al84  1  0.58004273  0.40852553  0.08914900  1
  Al  Al85  1  0.57424135  0.41900972  0.58565851  1
  Al  Al86  1  0.58764621  0.92519504  0.07971260  1
  Al  Al87  1  0.58780436  0.93131961  0.59053789  1
  Al  Al88  1  0.42578837  0.09040088  0.08822663  1
  Al  Al89  1  0.41643898  0.09394453  0.58672878  1
  Al  Al90  1  0.41354138  0.57456144  0.07528169  1
  Al  Al91  1  0.41842475  0.57734450  0.59543433  1
  Al  Al92  1  0.91708868  0.07936720  0.08355185  1
  Al  Al93  1  0.92409485  0.08716451  0.58496142  1
  Al  Al94  1  0.91021113  0.57761610  0.08548643  1
  Al  Al95  1  0.92187781  0.58865023  0.58691137  1
  Al  Al96  1  0.24265495  0.13861371  0.13357761  1
  Al  Al97  1  0.24562172  0.13393982  0.63428580  1
  Al  Al98  1  0.24853191  0.63085966  0.13037786  1
  Al  Al99  1  0.25022282  0.62859845  0.64017530  1
  Al  Al100  1  0.74559930  0.13775959  0.13610101  1
  Al  Al101  1  0.74804346  0.13601044  0.63009790  1
  Al  Al102  1  0.75293122  0.63193906  0.13648555  1
  Al  Al103  1  0.75420248  0.63447097  0.63888949  1
  Al  Al104  1  0.24369594  0.36541493  0.13348791  1
  Al  Al105  1  0.24888066  0.36568531  0.63226446  1
  Al  Al106  1  0.24424351  0.86543783  0.13612520  1
  Al  Al107  1  0.25071373  0.86693862  0.63614701  1
  Al  Al108  1  0.75244247  0.36421743  0.13565684  1
  Al  Al109  1  0.75010262  0.36150246  0.63654432  1
  Al  Al110  1  0.75174226  0.86468646  0.13618246  1
  Al  Al111  1  0.74859507  0.86348039  0.63709648  1
  Al  Al112  1  0.24531604  0.13716319  0.36497397  1
  Al  Al113  1  0.24919136  0.13529620  0.86418349  1
  Al  Al114  1  0.24616022  0.63649626  0.36430067  1
  Al  Al115  1  0.24841905  0.63202895  0.86628831  1
  Al  Al116  1  0.75094253  0.13779257  0.36889650  1
  Al  Al117  1  0.74627348  0.13717056  0.86266679  1
  Al  Al118  1  0.75466423  0.62997391  0.36233440  1
  Al  Al119  1  0.75388735  0.63556400  0.86129759  1
  Al  Al120  1  0.24672099  0.36204079  0.37132502  1
  Al  Al121  1  0.24577309  0.36194099  0.86534412  1
  Al  Al122  1  0.24733058  0.86544157  0.36308211  1
  Al  Al123  1  0.24700968  0.86684189  0.86436396  1
  Al  Al124  1  0.75279159  0.36828808  0.36236164  1
  Al  Al125  1  0.75146951  0.35924801  0.86455427  1
  Al  Al126  1  0.75161212  0.86407121  0.36346022  1
  Al  Al127  1  0.75078195  0.86548995  0.86408375  1
  Al  Al128  1  0.12781972  0.25268887  0.13610409  1
  Al  Al129  1  0.13749984  0.25145256  0.63032925  1
  Al  Al130  1  0.13286338  0.74523987  0.13629143  1
  Al  Al131  1  0.13709363  0.74869042  0.63597686  1
  Al  Al132  1  0.63380921  0.25275663  0.13136690  1
  Al  Al133  1  0.62994702  0.24422902  0.63146965  1
  Al  Al134  1  0.63713509  0.74700014  0.13405430  1
  Al  Al135  1  0.63307758  0.74303645  0.63729214  1
  Al  Al136  1  0.13481508  0.25061059  0.37052281  1
  Al  Al137  1  0.13084728  0.24852839  0.86534430  1
  Al  Al138  1  0.13399368  0.75339813  0.36229661  1
  Al  Al139  1  0.13608950  0.74656234  0.86316871  1
  Al  Al140  1  0.63517086  0.24698189  0.36598551  1
  Al  Al141  1  0.63379283  0.24977847  0.86797648  1
  Al  Al142  1  0.63152493  0.74806279  0.36147717  1
  Al  Al143  1  0.63427427  0.74950302  0.86498038  1
  Al  Al144  1  0.36506658  0.25003847  0.13569483  1
  Al  Al145  1  0.36348772  0.25082778  0.63553114  1
  Al  Al146  1  0.36203018  0.74597722  0.13429969  1
  Al  Al147  1  0.36466576  0.74673819  0.64064464  1
  Al  Al148  1  0.87132596  0.25229255  0.13701576  1
  Al  Al149  1  0.86479365  0.24888397  0.63405944  1
  Al  Al150  1  0.86590396  0.75118606  0.13631423  1
  Al  Al151  1  0.86539107  0.74646267  0.63551907  1
  Al  Al152  1  0.36380656  0.25112430  0.36703071  1
  Al  Al153  1  0.36587189  0.25339541  0.86195372  1
  Al  Al154  1  0.36766058  0.75080895  0.36137306  1
  Al  Al155  1  0.36389923  0.74223948  0.86420789  1
  Al  Al156  1  0.86464677  0.24956813  0.36383472  1
  Al  Al157  1  0.87175504  0.24933598  0.86374742  1
  Al  Al158  1  0.86523026  0.74637584  0.36330835  1
  Al  Al159  1  0.86577308  0.75117833  0.86633798  1
  Al  Al160  1  0.13561909  0.13200091  0.24914075  1
  Al  Al161  1  0.13483293  0.13356546  0.75160524  1
  Al  Al162  1  0.13721929  0.62647875  0.24615289  1
  Al  Al163  1  0.12733238  0.63444659  0.74826196  1
  Al  Al164  1  0.62789235  0.14029092  0.24851946  1
  Al  Al165  1  0.63345662  0.13478753  0.74289503  1
  Al  Al166  1  0.63601717  0.63156547  0.25392271  1
  Al  Al167  1  0.62954300  0.63564190  0.75006182  1
  Al  Al168  1  0.36866078  0.14076211  0.25101280  1
  Al  Al169  1  0.36306961  0.13558015  0.74935851  1
  Al  Al170  1  0.36279144  0.63274601  0.25149368  1
  Al  Al171  1  0.36539354  0.62984739  0.75045700  1
  Al  Al172  1  0.86336496  0.13581628  0.24889300  1
  Al  Al173  1  0.86488625  0.13570586  0.74903680  1
  Al  Al174  1  0.86519893  0.63094345  0.24690798  1
  Al  Al175  1  0.87437792  0.63537653  0.75059600  1
  Al  Al176  1  0.13695842  0.37080659  0.24909508  1
  Al  Al177  1  0.13165025  0.36263753  0.74844758  1
  Al  Al178  1  0.13327781  0.86910976  0.25050381  1
  Al  Al179  1  0.13595398  0.86907084  0.75034122  1
  Al  Al180  1  0.63362570  0.36357215  0.24969984  1
  Al  Al181  1  0.63259783  0.35907141  0.74981089  1
  Al  Al182  1  0.63509069  0.86467598  0.25033345  1
  Al  Al183  1  0.63423491  0.86488537  0.74616974  1
  Al  Al184  1  0.36430138  0.36293664  0.24664841  1
  Al  Al185  1  0.36126349  0.36843932  0.74801745  1
  Al  Al186  1  0.36370764  0.86461056  0.25010837  1
  Al  Al187  1  0.36227872  0.86937433  0.75692324  1
  Al  Al188  1  0.86576609  0.36786101  0.24690117  1
  Al  Al189  1  0.86774830  0.36464494  0.75122352  1
  Al  Al190  1  0.86731082  0.86398762  0.25615638  1
  Al  Al191  1  0.86567451  0.86340881  0.74912758  1
  Al  Al192  1  0.31467541  0.00312570  0.32866649  1
  Al  Al193  1  0.32229109  0.00429623  0.17248740  1
  Al  Al194  1  0.16991297  0.81499463  -0.00081046  1
  Al  Al195  1  0.31736013  0.32684090  0.00017030  1
  Al  Al196  1  0.68867880  0.81781806  0.00007451  1
  Al  Al197  1  0.82686955  0.81787136  0.50008022  1
  Al  Al198  1  0.31043787  0.18867390  0.50108244  1
  Al  Al199  1  -0.00249531  0.82191331  0.18140493  1
  Al  Al200  1  0.68336075  0.67523822  0.50037143  1
  Al  Al201  1  0.32249439  0.17395217  -0.00099651  1
  Al  Al202  1  0.00233712  0.18864506  0.67983427  1
  Al  Al203  1  0.00200491  0.17400753  0.31957404  1
  Al  Al204  1  0.50011868  0.19130446  0.80784685  1
  Al  Al205  1  0.32146385  -0.00111988  0.68017886  1
  Al  Al206  1  0.68329838  0.00397458  0.32064175  1
  Al  Al207  1  0.82255852  0.17379209  0.00011236  1
  Al  Al208  1  0.17266352  0.82760933  0.49951976  1
  Al  Al209  1  0.82764073  0.00010634  0.82845162  1
  Al  Al210  1  0.49924010  0.82011457  0.67093812  1
  Al  Al211  1  0.66999818  0.00110585  0.81124575  1
  Al  Al212  1  0.49769764  0.31129017  0.68832812  1
  Al  Al213  1  0.32783282  0.82707408  0.50031383  1
  Al  Al214  1  0.49845228  0.31736326  0.31525054  1
  Al  Al215  1  0.31707636  0.49640451  0.32795447  1
  Al  Al216  1  0.00125755  0.82168336  0.82679877  1
  Al  Al217  1  0.32925318  0.67465204  0.50075357  1
  Al  Al218  1  0.83391186  0.49803011  0.82523178  1
  Al  Al219  1  0.82589576  0.32719236  0.00119964  1
  Al  Al220  1  0.67096390  0.49654983  0.82676608  1
  Al  Al221  1  0.32676361  0.82269931  -0.00100151  1
  Al  Al222  1  0.82099364  0.68568703  0.00126592  1
  Al  Al223  1  0.17690360  0.50026725  0.82280350  1
  Al  Al224  1  0.68592134  0.49811313  0.18302438  1
  Al  Al225  1  0.82933012  0.32321778  0.49925507  1
  Al  Al226  1  0.17059412  0.67082960  0.50037837  1
  Al  Al227  1  0.00045641  0.81611982  0.67296511  1
  Al  Al228  1  0.67038433  0.31914673  0.49991021  1
  Al  Al229  1  0.00127588  0.32978736  0.31220947  1
  Al  Al230  1  0.67867955  0.49925140  0.67071739  1
  Al  Al231  1  0.49796778  0.82152154  0.82943338  1
  Al  Al232  1  0.00168642  0.68791895  0.31498381  1
  Al  Al233  1  0.81869915  -0.00010867  0.18139680  1
  Al  Al234  1  0.31668011  0.49729421  0.17407453  1
  Al  Al235  1  0.49969805  0.66826455  0.17751280  1
  Al  Al236  1  0.81756879  0.00075840  0.66891712  1
  Al  Al237  1  0.49953100  0.82996522  0.17754378  1
  Al  Al238  1  0.66775461  0.82728975  0.50001351  1
  Au  Au239  1  0.67595389  0.84217745  0.50016538  1
  Au  Au240  1  0.83414850  -0.00263278  0.66981551  1
  Au  Au241  1  0.32949838  0.65897557  0.50600106  1
  Au  Au242  1  0.33845426  0.17174252  -0.00209189  1
  Au  Au243  1  0.17322123  0.49939142  0.66638879  1
  Au  Au244  1  -0.00297290  0.17150277  0.16910006  1
  Au  Au245  1  0.67136627  0.16606284  -0.00007536  1
  Au  Au246  1  0.49714412  0.83756544  0.83666772  1
  Au  Au247  1  -0.00174802  0.32966746  0.32877633  1
  Au  Au248  1  0.16426016  0.00370953  0.67859431  1
  Au  Au249  1  0.50045930  0.16972604  0.32810175  1
  Au  Au250  1  -0.00081434  0.17341606  0.82635080  1
  Au  Au251  1  0.66921935  0.00259065  0.82844390  1
  Au  Au252  1  0.33082696  0.00142093  0.67188129  1
  Au  Au253  1  0.83158939  0.49982472  0.66235150  1
  Au  Au254  1  0.17891636  0.32011946  0.50171671  1
  Au  Au255  1  0.67225241  0.33429079  -0.00098035  1
  Au  Au256  1  -0.00004346  0.83135724  0.17312435  1
  Au  Au257  1  0.33302105  0.49559767  0.82223428  1
  Au  Au258  1  0.49594094  0.32590735  0.68010717  1
  Au  Au259  1  0.67542912  0.65969228  -0.00279989  1
  Au  Au260  1  0.65409041  0.49507254  0.82097229  1
  Au  Au261  1  0.82920834  0.16288189  0.49864430  1
  Au  Au262  1  0.16804398  0.50131863  0.33024937  1
  Au  Au263  1  0.66881112  0.00431093  0.17339372  1
  Au  Au264  1  0.16296757  -0.00078097  0.17378850  1
  Au  Au265  1  0.50071823  0.83631063  0.16118674  1
  Au  Au266  1  0.67548889  0.49642553  0.16991311  1
  Au  Au267  1  0.17211195  0.49520343  0.83283658  1
  Au  Au268  1  0.83454959  -0.00192971  0.33171422  1
  Au  Au269  1  0.65468856  0.32531961  0.50031156  1
  Au  Au270  1  0.68007233  0.83270319  0.00043860  1
  Au  Au271  1  0.83439405  0.66641212  0.49740480  1
  Au  Au272  1  0.33788977  0.00552255  0.17947394  1
  Au  Au273  1  0.49763430  0.83659910  0.33957032  1
  Au  Au274  1  0.16191432  0.17638891  -0.00230352  1
  Au  Au275  1  0.00170014  0.67171765  0.82887010  1
  Au  Au276  1  0.16279657  0.83755099  0.49925048  1
  Au  Au277  1  0.67826843  0.49896874  0.34068472  1
  Au  Au278  1  0.32897958  0.49631879  0.17050139  1
  Au  Au279  1  0.31995578  0.66165023  -0.00185167  1
  Au  Au280  1  0.83157471  0.49637002  0.83747182  1
  Au  Au281  1  0.50104730  0.66203667  0.33850334  1
  Au  Au282  1  0.83926667  0.33602920  0.49910523  1
  Au  Au283  1  0.00127364  0.65808245  0.16938928  1
  Au  Au284  1  0.50019294  0.82817080  0.65602122  1
  Au  Au285  1  0.49995863  0.66306826  0.16107813  1
  Au  Au286  1  0.49764212  0.66303010  0.82401800  1
  Au  Au287  1  0.31964397  0.83829180  -0.00097093  1
