# generated using pymatgen
data_Ca24Ti8Al207Au49
_symmetry_space_group_name_H-M   'P 1'
_cell_length_a   17.32215566
_cell_length_b   17.32139198
_cell_length_c   17.32218933
_cell_angle_alpha   89.99945409
_cell_angle_beta   89.99537815
_cell_angle_gamma   90.00406940
_symmetry_Int_Tables_number   1
_chemical_formula_structural   Ca24Ti8Al207Au49
_chemical_formula_sum   'Ca24 Ti8 Al207 Au49'
_cell_volume   5197.41631337
_cell_formula_units_Z   1
loop_
 _symmetry_equiv_pos_site_id
 _symmetry_equiv_pos_as_xyz
  1  'x, y, z'
loop_
 _atom_site_type_symbol
 _atom_site_label
 _atom_site_symmetry_multiplicity
 _atom_site_fract_x
 _atom_site_fract_y
 _atom_site_fract_z
 _atom_site_occupancy
  Ca  Ca0  1  0.24852586  -0.00431786  0.00038800  1
  Ca  Ca1  1  0.24756765  0.00291712  0.50020509  1
  Ca  Ca2  1  0.24429843  0.50124002  0.00578333  1
  Ca  Ca3  1  0.24439194  0.49613140  0.49687491  1
  Ca  Ca4  1  0.74827694  0.00254114  -0.00315410  1
  Ca  Ca5  1  0.75274684  0.00360333  0.50198085  1
  Ca  Ca6  1  0.74925258  0.49793042  0.00202666  1
  Ca  Ca7  1  0.75128139  0.50181593  0.49652303  1
  Ca  Ca8  1  -0.00288999  0.24678758  0.00009256  1
  Ca  Ca9  1  0.00507360  0.24876539  0.50059683  1
  Ca  Ca10  1  0.00058247  0.74667822  0.00214843  1
  Ca  Ca11  1  0.00267446  0.74724791  0.49900727  1
  Ca  Ca12  1  0.50182314  0.24666921  0.00268643  1
  Ca  Ca13  1  0.49501332  0.24876409  0.49927034  1
  Ca  Ca14  1  0.49653549  0.75233826  0.00775033  1
  Ca  Ca15  1  0.50053331  0.75161917  0.49702824  1
  Ca  Ca16  1  0.00147771  0.00255502  0.24749457  1
  Ca  Ca17  1  0.00223797  0.00428420  0.74942083  1
  Ca  Ca18  1  0.00248999  0.50129655  0.25180700  1
  Ca  Ca19  1  -0.00122535  0.49602647  0.74771551  1
  Ca  Ca20  1  0.49686850  -0.00005426  0.24641980  1
  Ca  Ca21  1  0.49962937  0.00372404  0.75281085  1
  Ca  Ca22  1  0.49936277  0.50217550  0.24635977  1
  Ca  Ca23  1  0.50236082  0.49711759  0.75100868  1
  Ti  Ti24  1  0.25027377  0.24969341  0.25130546  1
  Ti  Ti25  1  0.24793999  0.24856419  0.74784237  1
  Ti  Ti26  1  0.24819907  0.75055007  0.25107913  1
  Ti  Ti27  1  0.24979460  0.75312143  0.74815332  1
  Ti  Ti28  1  0.74896033  0.25013057  0.24790975  1
  Ti  Ti29  1  0.75172425  0.24879855  0.75164083  1
  Ti  Ti30  1  0.75132271  0.74891155  0.24830449  1
  Ti  Ti31  1  0.75005222  0.75065702  0.75152275  1
  Al  Al32  1  0.08089815  0.08552780  0.08717219  1
  Al  Al33  1  0.09656822  0.08906313  0.58480266  1
  Al  Al34  1  0.07782450  0.58910717  0.09367346  1
  Al  Al35  1  0.08141569  0.58304350  0.56636879  1
  Al  Al36  1  0.58479170  0.08012891  0.07440922  1
  Al  Al37  1  0.58747333  0.08338925  0.59521110  1
  Al  Al38  1  0.58911253  0.59194733  0.09382143  1
  Al  Al39  1  0.58111530  0.57679965  0.57300535  1
  Al  Al40  1  0.42567505  0.43033899  0.08353199  1
  Al  Al41  1  0.41738507  0.40796853  0.57403000  1
  Al  Al42  1  0.40715336  0.90457959  0.08810321  1
  Al  Al43  1  0.40795659  0.92492875  0.58369228  1
  Al  Al44  1  0.91532864  0.41723866  0.08333571  1
  Al  Al45  1  0.92656574  0.41491618  0.59172367  1
  Al  Al46  1  0.92798822  0.92066426  0.07932719  1
  Al  Al47  1  0.91112011  0.91741382  0.58354999  1
  Al  Al48  1  0.41109300  0.08342819  0.42071907  1
  Al  Al49  1  0.42034836  0.07226515  0.91260945  1
  Al  Al50  1  0.42137559  0.58252681  0.41226655  1
  Al  Al51  1  0.42339036  0.58173449  0.93484241  1
  Al  Al52  1  0.93145511  0.08272876  0.40960907  1
  Al  Al53  1  0.91012049  0.08993602  0.91828265  1
  Al  Al54  1  0.92388838  0.59553674  0.41409411  1
  Al  Al55  1  0.91782567  0.57804623  0.92289399  1
  Al  Al56  1  0.09621225  0.42082498  0.41628676  1
  Al  Al57  1  0.07519876  0.41172804  0.90691176  1
  Al  Al58  1  0.08125446  0.91829868  0.41907475  1
  Al  Al59  1  0.09385227  0.92437562  0.91386537  1
  Al  Al60  1  0.58513707  0.40914018  0.41618504  1
  Al  Al61  1  0.58326974  0.41516570  0.92105915  1
  Al  Al62  1  0.57674215  0.92126243  0.41562614  1
  Al  Al63  1  0.58394029  0.92653549  0.91416548  1
  Al  Al64  1  0.09060290  0.09680764  0.41850599  1
  Al  Al65  1  0.08598521  0.08342379  0.91130275  1
  Al  Al66  1  0.08755787  0.58584220  0.40461806  1
  Al  Al67  1  0.07674378  0.57436682  0.92519998  1
  Al  Al68  1  0.57665848  0.08159091  0.41757963  1
  Al  Al69  1  0.59492719  0.08446115  0.91223281  1
  Al  Al70  1  0.58056266  0.58053392  0.41036780  1
  Al  Al71  1  0.59044485  0.59093983  0.93301787  1
  Al  Al72  1  0.41365580  0.40892416  0.41792109  1
  Al  Al73  1  0.42804449  0.41903522  0.92181865  1
  Al  Al74  1  0.41470326  0.91927778  0.41929342  1
  Al  Al75  1  0.40626600  0.91268902  0.92313971  1
  Al  Al76  1  0.92889333  0.42506290  0.42405382  1
  Al  Al77  1  0.91759631  0.40511262  0.91046699  1
  Al  Al78  1  0.91940537  0.91270616  0.42201199  1
  Al  Al79  1  0.91837018  0.92814214  0.91809016  1
  Al  Al80  1  0.07951335  0.41746763  0.08463531  1
  Al  Al81  1  0.08546323  0.39974085  0.57860469  1
  Al  Al82  1  0.08771795  0.91769597  0.08451783  1
  Al  Al83  1  0.09119525  0.92569122  0.59022324  1
  Al  Al84  1  0.59150939  0.42678267  0.08797303  1
  Al  Al85  1  0.58241977  0.40762361  0.57382867  1
  Al  Al86  1  0.56952696  0.91648119  0.08873433  1
  Al  Al87  1  0.58789737  0.92913245  0.59099860  1
  Al  Al88  1  0.41610807  0.06624731  0.08887439  1
  Al  Al89  1  0.40374208  0.08370665  0.58856627  1
  Al  Al90  1  0.42309002  0.59477541  0.09468910  1
  Al  Al91  1  0.42147992  0.57792216  0.57278861  1
  Al  Al92  1  0.91933287  0.09503645  0.08115748  1
  Al  Al93  1  0.92567685  0.07589467  0.59133227  1
  Al  Al94  1  0.91597939  0.58646054  0.09351430  1
  Al  Al95  1  0.91229908  0.58285877  0.57515894  1
  Al  Al96  1  0.25239837  0.12907578  0.13903490  1
  Al  Al97  1  0.24599465  0.13486815  0.63114703  1
  Al  Al98  1  0.24692726  0.63870737  0.13737071  1
  Al  Al99  1  0.24340080  0.63591243  0.63052042  1
  Al  Al100  1  0.75006315  0.13805522  0.13612080  1
  Al  Al101  1  0.74890469  0.13665570  0.63706999  1
  Al  Al102  1  0.74860049  0.63700303  0.13055913  1
  Al  Al103  1  0.75303215  0.63461396  0.63396030  1
  Al  Al104  1  0.24362940  0.36187528  0.13585903  1
  Al  Al105  1  0.24581317  0.36171271  0.62862357  1
  Al  Al106  1  0.25046886  0.86616955  0.13096393  1
  Al  Al107  1  0.24704186  0.87283168  0.63550797  1
  Al  Al108  1  0.74949705  0.36079991  0.12904082  1
  Al  Al109  1  0.75058482  0.35890345  0.63790605  1
  Al  Al110  1  0.74945933  0.86151774  0.13566718  1
  Al  Al111  1  0.74904995  0.86531096  0.63869004  1
  Al  Al112  1  0.24880362  0.13590071  0.37085275  1
  Al  Al113  1  0.24368029  0.13307135  0.86076915  1
  Al  Al114  1  0.24235273  0.62937990  0.36513220  1
  Al  Al115  1  0.25297409  0.63993483  0.86334120  1
  Al  Al116  1  0.74892344  0.12963973  0.35937542  1
  Al  Al117  1  0.75192548  0.13169643  0.86029088  1
  Al  Al118  1  0.75145378  0.63468649  0.36071637  1
  Al  Al119  1  0.74939081  0.63053839  0.86943275  1
  Al  Al120  1  0.24861800  0.36546201  0.36889048  1
  Al  Al121  1  0.24551939  0.36042433  0.86239558  1
  Al  Al122  1  0.24692074  0.86422685  0.36338400  1
  Al  Al123  1  0.25058872  0.86752220  0.86813868  1
  Al  Al124  1  0.74290171  0.36420447  0.36716140  1
  Al  Al125  1  0.75344900  0.36708541  0.86872814  1
  Al  Al126  1  0.74883610  0.86759886  0.36030247  1
  Al  Al127  1  0.74831046  0.87218157  0.86609810  1
  Al  Al128  1  0.13203661  0.24899554  0.13816781  1
  Al  Al129  1  0.13181012  0.24916000  0.63298140  1
  Al  Al130  1  0.13016036  0.74889551  0.13839973  1
  Al  Al131  1  0.13702611  0.75541910  0.63057854  1
  Al  Al132  1  0.62829031  0.25065622  0.13630972  1
  Al  Al133  1  0.63518354  0.24855543  0.63725515  1
  Al  Al134  1  0.63041601  0.74552685  0.13737901  1
  Al  Al135  1  0.63236969  0.74650706  0.64049315  1
  Al  Al136  1  0.13875362  0.25096586  0.36986027  1
  Al  Al137  1  0.12732748  0.24949343  0.86009880  1
  Al  Al138  1  0.13270164  0.74629055  0.36872578  1
  Al  Al139  1  0.13957711  0.75233262  0.86439448  1
  Al  Al140  1  0.63541814  0.25037223  0.36394866  1
  Al  Al141  1  0.63738635  0.24779991  0.86624779  1
  Al  Al142  1  0.63530998  0.74517617  0.35845638  1
  Al  Al143  1  0.63821782  0.74886022  0.86498671  1
  Al  Al144  1  0.37052959  0.24978296  0.13759897  1
  Al  Al145  1  0.35971528  0.24705147  0.62652674  1
  Al  Al146  1  0.36732085  0.75185696  0.13863595  1
  Al  Al147  1  0.36552364  0.75319897  0.63449172  1
  Al  Al148  1  0.86598139  0.24749585  0.12930885  1
  Al  Al149  1  0.87361608  0.25090559  0.63719735  1
  Al  Al150  1  0.86824798  0.74831562  0.13195150  1
  Al  Al151  1  0.86404111  0.74894186  0.63663790  1
  Al  Al152  1  0.35989522  0.24948326  0.37250110  1
  Al  Al153  1  0.36226167  0.24471300  0.86451405  1
  Al  Al154  1  0.36135409  0.74889132  0.36176938  1
  Al  Al155  1  0.36405018  0.75451176  0.86544510  1
  Al  Al156  1  0.86297063  0.25241590  0.36564977  1
  Al  Al157  1  0.86598697  0.24872706  0.86854844  1
  Al  Al158  1  0.87017018  0.74314080  0.36393453  1
  Al  Al159  1  0.85840499  0.74601288  0.86651912  1
  Al  Al160  1  0.13686336  0.13621443  0.24843974  1
  Al  Al161  1  0.13046069  0.13342183  0.74695127  1
  Al  Al162  1  0.13272309  0.63165013  0.25214122  1
  Al  Al163  1  0.13641157  0.63777719  0.74670824  1
  Al  Al164  1  0.62882267  0.13715387  0.24949297  1
  Al  Al165  1  0.63145856  0.13493301  0.75175834  1
  Al  Al166  1  0.63836728  0.62675386  0.24551894  1
  Al  Al167  1  0.63694181  0.63229620  0.75307097  1
  Al  Al168  1  0.36777934  0.13725083  0.25165303  1
  Al  Al169  1  0.36392434  0.13377073  0.74458579  1
  Al  Al170  1  0.36295323  0.63426520  0.24941324  1
  Al  Al171  1  0.36447426  0.63641847  0.74218884  1
  Al  Al172  1  0.86587644  0.13571837  0.24868951  1
  Al  Al173  1  0.87340963  0.13679424  0.75250259  1
  Al  Al174  1  0.86851927  0.63644696  0.24537926  1
  Al  Al175  1  0.86275400  0.63466600  0.75211627  1
  Al  Al176  1  0.13472709  0.37129768  0.25467014  1
  Al  Al177  1  0.13056028  0.36245480  0.74504667  1
  Al  Al178  1  0.13485177  0.86598794  0.24660915  1
  Al  Al179  1  0.13979052  0.87313130  0.75033045  1
  Al  Al180  1  0.63686536  0.36878083  0.24584410  1
  Al  Al181  1  0.63599109  0.36409709  0.75544528  1
  Al  Al182  1  0.63298654  0.86272537  0.24751513  1
  Al  Al183  1  0.63472573  0.86772399  0.75044492  1
  Al  Al184  1  0.36353693  0.36418281  0.25040003  1
  Al  Al185  1  0.36266821  0.35942467  0.74527304  1
  Al  Al186  1  0.36388373  0.86790172  0.24332581  1
  Al  Al187  1  0.36232102  0.86827230  0.74720835  1
  Al  Al188  1  0.86202113  0.36288821  0.24767148  1
  Al  Al189  1  0.86719808  0.36175813  0.75298622  1
  Al  Al190  1  0.86730220  0.86247355  0.25219615  1
  Al  Al191  1  0.86321896  0.86679021  0.75255042  1
  Al  Al192  1  0.32635227  0.16502298  -0.00019087  1
  Al  Al193  1  0.83102107  0.17123308  0.50008474  1
  Al  Al194  1  0.32675137  0.68549525  0.00355273  1
  Al  Al195  1  0.81880779  0.33056018  0.50151440  1
  Al  Al196  1  0.17045320  0.67920482  -0.00092641  1
  Al  Al197  1  -0.00006091  0.67110423  0.66888988  1
  Al  Al198  1  0.31577345  0.50112163  0.17147524  1
  Al  Al199  1  0.31488266  -0.00005308  0.81546923  1
  Al  Al200  1  0.49872526  0.32038234  0.82523664  1
  Al  Al201  1  0.50099683  0.67355147  0.31003863  1
  Al  Al202  1  0.68988972  0.17941038  -0.00028385  1
  Al  Al203  1  0.49893667  0.31904835  0.32117303  1
  Al  Al204  1  0.00186622  0.82150767  0.31961605  1
  Al  Al205  1  0.32178743  0.33070798  0.00333023  1
  Al  Al206  1  0.81406608  0.49878027  0.17326669  1
  Al  Al207  1  0.82632050  0.81184112  0.49916936  1
  Al  Al208  1  0.00080174  0.82748595  0.67179477  1
  Al  Al209  1  0.66558894  0.81631809  0.00174286  1
  Al  Al210  1  0.82473786  0.50032217  0.32776074  1
  Al  Al211  1  -0.00186568  0.32071481  0.18386921  1
  Al  Al212  1  0.00114469  0.67099261  0.82545209  1
  Al  Al213  1  0.32795115  0.49659857  0.67084913  1
  Al  Al214  1  0.17222065  0.17868646  0.00047917  1
  Al  Al215  1  0.82725145  0.49833568  0.67808542  1
  Al  Al216  1  0.32488069  0.00009138  0.31832414  1
  Al  Al217  1  0.49937710  0.82930035  0.82819314  1
  Al  Al218  1  0.17249837  0.00156245  0.32286872  1
  Al  Al219  1  0.17187572  0.50052506  0.82424083  1
  Al  Al220  1  0.00206185  0.18501661  0.30880125  1
  Al  Al221  1  0.31723881  0.82689970  0.49979689  1
  Al  Al222  1  0.68852883  0.67369792  0.49849790  1
  Al  Al223  1  0.82804936  0.82127900  -0.00023312  1
  Al  Al224  1  0.33090815  0.50097968  0.83104259  1
  Al  Al225  1  0.67268793  -0.00060567  0.17624946  1
  Al  Al226  1  0.16668806  0.49895526  0.67213174  1
  Al  Al227  1  0.49885379  0.82954433  0.66960481  1
  Al  Al228  1  0.49934462  0.31908495  0.67195842  1
  Al  Al229  1  0.67261847  0.18383934  0.49910599  1
  Al  Al230  1  0.49924517  0.66950614  0.82788097  1
  Al  Al231  1  0.31546359  0.66885390  0.49693813  1
  Al  Al232  1  -0.00064214  0.82290317  0.82962385  1
  Al  Al233  1  0.67103398  0.83032346  0.50078202  1
  Al  Al234  1  0.31897237  0.49824742  0.32727712  1
  Al  Al235  1  0.82951910  0.00026362  0.17380506  1
  Al  Al236  1  0.81623420  0.00191977  0.68207436  1
  Al  Al237  1  0.49634675  0.82828484  0.31356429  1
  Al  Al238  1  0.67025194  0.49649979  0.67575657  1
  Au  Au239  1  0.66140425  0.49542809  0.32202371  1
  Au  Au240  1  0.82525848  0.66053232  0.00134865  1
  Au  Au241  1  0.16571887  0.50083225  0.17432013  1
  Au  Au242  1  0.33137652  0.49729818  0.33053456  1
  Au  Au243  1  0.84518943  0.16143265  0.50081312  1
  Au  Au244  1  0.49609290  0.82203380  0.32958702  1
  Au  Au245  1  0.17398153  0.66718630  -0.00238925  1
  Au  Au246  1  0.15660591  0.32791536  -0.00579693  1
  Au  Au247  1  0.00579406  0.83798138  0.82610670  1
  Au  Au248  1  0.83394384  0.83237979  -0.00055784  1
  Au  Au249  1  0.82866838  0.34417065  0.50355861  1
  Au  Au250  1  0.83968868  0.49823669  0.82723380  1
  Au  Au251  1  0.50098305  0.17180003  0.83850358  1
  Au  Au252  1  0.66516875  0.32545365  0.00332017  1
  Au  Au253  1  0.17732323  0.83400729  0.00015781  1
  Au  Au254  1  0.66069657  0.17199634  0.50083859  1
  Au  Au255  1  0.32444830  0.50291460  0.84652021  1
  Au  Au256  1  0.16799945  0.83363113  0.50178590  1
  Au  Au257  1  0.67463689  0.66486629  0.49310645  1
  Au  Au258  1  0.82734410  0.00499572  0.15768594  1
  Au  Au259  1  0.83368704  0.32176176  -0.00058181  1
  Au  Au260  1  0.49780789  0.84211879  0.67255053  1
  Au  Au261  1  0.67287189  0.49158071  0.65967189  1
  Au  Au262  1  0.00012872  0.82120558  0.16591189  1
  Au  Au263  1  0.50180695  0.66629621  0.66236968  1
  Au  Au264  1  0.83343198  -0.00193526  0.33842009  1
  Au  Au265  1  0.82272773  0.00282916  0.82955150  1
  Au  Au266  1  0.32022780  0.17181112  0.50074538  1
  Au  Au267  1  0.16301347  0.49844697  0.66254218  1
  Au  Au268  1  0.84068779  0.50505179  0.32537359  1
  Au  Au269  1  0.50126438  0.67610662  0.84358803  1
  Au  Au270  1  0.33729889  0.33492434  0.00636293  1
  Au  Au271  1  0.49488986  0.16911497  0.66940536  1
  Au  Au272  1  0.50207477  0.34225943  0.17412177  1
  Au  Au273  1  0.33404147  0.49656781  0.65984549  1
  Au  Au274  1  -0.00000193  0.82016253  0.33200671  1
  Au  Au275  1  0.49403961  0.17164696  0.33344776  1
  Au  Au276  1  -0.00280938  0.31822754  0.17139580  1
  Au  Au277  1  0.32519257  0.14929404  0.00283712  1
  Au  Au278  1  0.33146816  0.67554496  0.49600204  1
  Au  Au279  1  0.00726989  0.32832128  0.34232049  1
  Au  Au280  1  0.66842121  0.50295801  0.84231519  1
  Au  Au281  1  -0.00141746  0.17512744  0.83543788  1
  Au  Au282  1  0.49987037  0.16297704  0.16340907  1
  Au  Au283  1  0.65878969  0.83178090  0.00263727  1
  Au  Au284  1  0.67924852  0.84541040  0.50213365  1
  Au  Au285  1  0.17331242  0.00282968  0.17261138  1
  Au  Au286  1  0.66174353  0.00180729  0.32488950  1
  Au  Au287  1  0.00488811  0.17482749  0.66661366  1
