# generated using pymatgen
data_Ca24Ti8Al207Au49
_symmetry_space_group_name_H-M   'P 1'
_cell_length_a   17.31897733
_cell_length_b   17.31807814
_cell_length_c   17.32152106
_cell_angle_alpha   89.99673929
_cell_angle_beta   90.00618766
_cell_angle_gamma   89.99924736
_symmetry_Int_Tables_number   1
_chemical_formula_structural   Ca24Ti8Al207Au49
_chemical_formula_sum   'Ca24 Ti8 Al207 Au49'
_cell_volume   5195.26806970
_cell_formula_units_Z   1
loop_
 _symmetry_equiv_pos_site_id
 _symmetry_equiv_pos_as_xyz
  1  'x, y, z'
loop_
 _atom_site_type_symbol
 _atom_site_label
 _atom_site_symmetry_multiplicity
 _atom_site_fract_x
 _atom_site_fract_y
 _atom_site_fract_z
 _atom_site_occupancy
  Ca  Ca0  1  0.24868699  0.00404428  0.00464369  1
  Ca  Ca1  1  0.24696008  0.00220161  0.49669686  1
  Ca  Ca2  1  0.25017962  0.49511972  -0.00113191  1
  Ca  Ca3  1  0.24924501  0.50231733  0.49869971  1
  Ca  Ca4  1  0.75149429  -0.00056216  0.00701973  1
  Ca  Ca5  1  0.75285667  0.00267004  0.49438779  1
  Ca  Ca6  1  0.74401449  0.49977439  0.00253241  1
  Ca  Ca7  1  0.74709996  0.50054488  0.49770819  1
  Ca  Ca8  1  0.00385431  0.25293042  0.00511469  1
  Ca  Ca9  1  0.00265447  0.24873070  0.49395961  1
  Ca  Ca10  1  0.00086432  0.74970657  0.00051283  1
  Ca  Ca11  1  0.00325815  0.75205166  0.50086887  1
  Ca  Ca12  1  0.49806126  0.25148177  0.00174882  1
  Ca  Ca13  1  0.49860938  0.24759739  0.49963879  1
  Ca  Ca14  1  0.50028828  0.74736318  -0.00452459  1
  Ca  Ca15  1  0.49891523  0.74412033  0.50473829  1
  Ca  Ca16  1  0.00014696  0.00212655  0.25343023  1
  Ca  Ca17  1  -0.00271345  -0.00008308  0.74393109  1
  Ca  Ca18  1  0.00136071  0.50029916  0.24629108  1
  Ca  Ca19  1  0.00253686  0.49860726  0.74520837  1
  Ca  Ca20  1  0.49890441  0.00451681  0.25062925  1
  Ca  Ca21  1  0.50309973  0.00848819  0.74988645  1
  Ca  Ca22  1  0.49776542  0.49724010  0.24951067  1
  Ca  Ca23  1  0.50039452  0.49477781  0.74963343  1
  Ti  Ti24  1  0.24912185  0.24911555  0.24962691  1
  Ti  Ti25  1  0.24967321  0.25149963  0.74973703  1
  Ti  Ti26  1  0.24609360  0.75122154  0.25031541  1
  Ti  Ti27  1  0.24889885  0.74875948  0.75050587  1
  Ti  Ti28  1  0.75054618  0.24657296  0.25089699  1
  Ti  Ti29  1  0.74842615  0.24924623  0.74749689  1
  Ti  Ti30  1  0.75314568  0.75184966  0.24841834  1
  Ti  Ti31  1  0.75111924  0.75070846  0.75047006  1
  Al  Al32  1  0.08712102  0.08894798  0.08478346  1
  Al  Al33  1  0.08522846  0.08586448  0.57044541  1
  Al  Al34  1  0.08625459  0.57729291  0.08938755  1
  Al  Al35  1  0.08800311  0.59668932  0.58240162  1
  Al  Al36  1  0.57892818  0.08931141  0.09828948  1
  Al  Al37  1  0.58234311  0.08827282  0.58798274  1
  Al  Al38  1  0.58147325  0.57510382  0.08293307  1
  Al  Al39  1  0.59178063  0.57920965  0.58540115  1
  Al  Al40  1  0.41597537  0.40314128  0.08440254  1
  Al  Al41  1  0.41752341  0.41636917  0.58500795  1
  Al  Al42  1  0.41523909  0.92449585  0.07887068  1
  Al  Al43  1  0.41840236  0.91730634  0.57048231  1
  Al  Al44  1  0.92250242  0.41896129  0.08247843  1
  Al  Al45  1  0.92063684  0.41244649  0.57459152  1
  Al  Al46  1  0.92167608  0.91040336  0.09425066  1
  Al  Al47  1  0.92234265  0.91106860  0.57993545  1
  Al  Al48  1  0.41310785  0.08796057  0.40562497  1
  Al  Al49  1  0.41312899  0.09880852  0.92326335  1
  Al  Al50  1  0.41421804  0.58988245  0.42514272  1
  Al  Al51  1  0.41889250  0.58086560  0.91973508  1
  Al  Al52  1  0.91508827  0.09093587  0.40644982  1
  Al  Al53  1  0.92385478  0.07696657  0.92702368  1
  Al  Al54  1  0.92081597  0.58009980  0.42044942  1
  Al  Al55  1  0.91377327  0.59103539  0.92494779  1
  Al  Al56  1  0.08751730  0.40704955  0.41518151  1
  Al  Al57  1  0.08796352  0.41044464  0.92673931  1
  Al  Al58  1  0.08598744  0.91368598  0.42175424  1
  Al  Al59  1  0.08696381  0.90709824  0.92530776  1
  Al  Al60  1  0.58008963  0.41300999  0.41571611  1
  Al  Al61  1  0.57783627  0.41309741  0.91084975  1
  Al  Al62  1  0.58745853  0.92514987  0.41958458  1
  Al  Al63  1  0.57774763  0.92399545  0.92393093  1
  Al  Al64  1  0.08074607  0.09677436  0.40967991  1
  Al  Al65  1  0.08981079  0.08858376  0.92662236  1
  Al  Al66  1  0.09089044  0.58738912  0.42144382  1
  Al  Al67  1  0.07874086  0.57667516  0.92288695  1
  Al  Al68  1  0.57797575  0.08906164  0.40885223  1
  Al  Al69  1  0.57207060  0.08750018  0.91634314  1
  Al  Al70  1  0.57919390  0.58226767  0.42520332  1
  Al  Al71  1  0.58180291  0.57751878  0.91585023  1
  Al  Al72  1  0.41951739  0.41231362  0.41951990  1
  Al  Al73  1  0.41496986  0.40472163  0.91842272  1
  Al  Al74  1  0.39923305  0.92615928  0.41180390  1
  Al  Al75  1  0.41770751  0.91825593  0.92273213  1
  Al  Al76  1  0.92192119  0.40893937  0.41585942  1
  Al  Al77  1  0.92555548  0.42086013  0.92664949  1
  Al  Al78  1  0.91409616  0.92677014  0.41614218  1
  Al  Al79  1  0.92222900  0.91517026  0.92363416  1
  Al  Al80  1  0.09527839  0.41461190  0.08691310  1
  Al  Al81  1  0.08841134  0.40879689  0.57589325  1
  Al  Al82  1  0.08403020  0.90487104  0.08791651  1
  Al  Al83  1  0.08277391  0.90255935  0.58232774  1
  Al  Al84  1  0.57870476  0.41253973  0.09022821  1
  Al  Al85  1  0.58500479  0.41639640  0.59274285  1
  Al  Al86  1  0.59136999  0.92937939  0.08729686  1
  Al  Al87  1  0.58427901  0.92456238  0.57961872  1
  Al  Al88  1  0.41470477  0.09817348  0.09024665  1
  Al  Al89  1  0.42342250  0.09091352  0.57771663  1
  Al  Al90  1  0.41813213  0.57682849  0.07863885  1
  Al  Al91  1  0.40673693  0.58257958  0.58204948  1
  Al  Al92  1  0.91983832  0.07954952  0.08841354  1
  Al  Al93  1  0.91455112  0.08500666  0.56851481  1
  Al  Al94  1  0.91338422  0.59047613  0.08145869  1
  Al  Al95  1  0.92419186  0.58668884  0.58465836  1
  Al  Al96  1  0.25067360  0.13649270  0.13707867  1
  Al  Al97  1  0.24454523  0.13745222  0.63094896  1
  Al  Al98  1  0.24396021  0.63209011  0.13843165  1
  Al  Al99  1  0.24672072  0.63557076  0.63045843  1
  Al  Al100  1  0.74841589  0.12744612  0.14168789  1
  Al  Al101  1  0.74985674  0.13770142  0.62492644  1
  Al  Al102  1  0.75595938  0.63727831  0.13174203  1
  Al  Al103  1  0.75024267  0.63399897  0.63567567  1
  Al  Al104  1  0.24499611  0.36437444  0.13227452  1
  Al  Al105  1  0.24589592  0.36372627  0.63335675  1
  Al  Al106  1  0.24830468  0.86529961  0.12939136  1
  Al  Al107  1  0.24353570  0.86104782  0.62976544  1
  Al  Al108  1  0.74725439  0.35980423  0.13695360  1
  Al  Al109  1  0.74478614  0.36311573  0.63466692  1
  Al  Al110  1  0.75710105  0.86788307  0.13077239  1
  Al  Al111  1  0.75127573  0.86464519  0.63412859  1
  Al  Al112  1  0.24862168  0.12930738  0.36134827  1
  Al  Al113  1  0.25185336  0.13619470  0.86547282  1
  Al  Al114  1  0.24604900  0.63542839  0.36716225  1
  Al  Al115  1  0.24827263  0.62807341  0.86439745  1
  Al  Al116  1  0.75208213  0.13421401  0.36960608  1
  Al  Al117  1  0.74757604  0.13972104  0.86294442  1
  Al  Al118  1  0.75303897  0.63460925  0.36236590  1
  Al  Al119  1  0.75243600  0.63763306  0.86632522  1
  Al  Al120  1  0.24845450  0.36389530  0.36418842  1
  Al  Al121  1  0.24943546  0.36945045  0.86628252  1
  Al  Al122  1  0.24338751  0.86897465  0.36634602  1
  Al  Al123  1  0.24788978  0.86500026  0.86955195  1
  Al  Al124  1  0.74675241  0.36198500  0.36370266  1
  Al  Al125  1  0.74571318  0.36140200  0.86365323  1
  Al  Al126  1  0.75214985  0.87022882  0.36139017  1
  Al  Al127  1  0.75452855  0.86226510  0.87095266  1
  Al  Al128  1  0.12878169  0.24862481  0.13804972  1
  Al  Al129  1  0.13536118  0.24970722  0.63093265  1
  Al  Al130  1  0.12768384  0.75459553  0.13655977  1
  Al  Al131  1  0.13647073  0.74837740  0.63131051  1
  Al  Al132  1  0.63044509  0.24721456  0.13575615  1
  Al  Al133  1  0.63218162  0.24690017  0.62678923  1
  Al  Al134  1  0.64153586  0.75139704  0.13233015  1
  Al  Al135  1  0.63362006  0.74987211  0.63542162  1
  Al  Al136  1  0.13881247  0.24625362  0.36796388  1
  Al  Al137  1  0.13776923  0.25348961  0.86706965  1
  Al  Al138  1  0.13455726  0.75175761  0.36640544  1
  Al  Al139  1  0.13396145  0.75012775  0.86465586  1
  Al  Al140  1  0.63384482  0.24456870  0.36993233  1
  Al  Al141  1  0.63081996  0.25338186  0.86771821  1
  Al  Al142  1  0.63837692  0.75687892  0.36176946  1
  Al  Al143  1  0.63593417  0.74944809  0.86508300  1
  Al  Al144  1  0.36611175  0.24727396  0.13685838  1
  Al  Al145  1  0.36492850  0.25074656  0.63255930  1
  Al  Al146  1  0.36048633  0.75359976  0.13846830  1
  Al  Al147  1  0.36334528  0.74349941  0.62995013  1
  Al  Al148  1  0.86952104  0.24589196  0.13947578  1
  Al  Al149  1  0.86449072  0.24713769  0.63106560  1
  Al  Al150  1  0.87110397  0.75165158  0.13578379  1
  Al  Al151  1  0.86530026  0.74980511  0.63317567  1
  Al  Al152  1  0.36533993  0.24704443  0.36459049  1
  Al  Al153  1  0.36442193  0.25039886  0.86690995  1
  Al  Al154  1  0.35943205  0.74702333  0.36770884  1
  Al  Al155  1  0.36261297  0.75074779  0.86327540  1
  Al  Al156  1  0.86734266  0.24235632  0.36447186  1
  Al  Al157  1  0.86292447  0.24948137  0.86408735  1
  Al  Al158  1  0.86722815  0.75000688  0.36130751  1
  Al  Al159  1  0.86780520  0.75122532  0.87051181  1
  Al  Al160  1  0.13070114  0.13234919  0.25138096  1
  Al  Al161  1  0.13572345  0.13453692  0.75013025  1
  Al  Al162  1  0.12948247  0.63690791  0.24922103  1
  Al  Al163  1  0.13722100  0.63048623  0.74951342  1
  Al  Al164  1  0.63152789  0.13704997  0.25084397  1
  Al  Al165  1  0.63526914  0.13858992  0.74561883  1
  Al  Al166  1  0.63733508  0.63929676  0.25068627  1
  Al  Al167  1  0.63700567  0.63533214  0.74628226  1
  Al  Al168  1  0.36803981  0.13427852  0.25295095  1
  Al  Al169  1  0.36527177  0.13919213  0.74692419  1
  Al  Al170  1  0.36112982  0.63447722  0.25148493  1
  Al  Al171  1  0.36182297  0.63491521  0.74866703  1
  Al  Al172  1  0.86758007  0.12780413  0.25213105  1
  Al  Al173  1  0.86430601  0.13324433  0.74131590  1
  Al  Al174  1  0.87180167  0.63367317  0.24704438  1
  Al  Al175  1  0.86590716  0.63746156  0.74981017  1
  Al  Al176  1  0.13557989  0.36506291  0.24811252  1
  Al  Al177  1  0.13659823  0.36820665  0.74949306  1
  Al  Al178  1  0.13293135  0.87035226  0.24866608  1
  Al  Al179  1  0.13482287  0.86510378  0.74600472  1
  Al  Al180  1  0.63219970  0.36069614  0.24997838  1
  Al  Al181  1  0.63260142  0.36225872  0.74848063  1
  Al  Al182  1  0.63981419  0.87064704  0.24164841  1
  Al  Al183  1  0.63922760  0.86565201  0.75013864  1
  Al  Al184  1  0.36431172  0.36472754  0.24492700  1
  Al  Al185  1  0.36555215  0.36413955  0.75460580  1
  Al  Al186  1  0.35781777  0.86814366  0.25684035  1
  Al  Al187  1  0.35744498  0.86506839  0.74636689  1
  Al  Al188  1  0.86485923  0.36304859  0.25031243  1
  Al  Al189  1  0.86409851  0.36174483  0.74430478  1
  Al  Al190  1  0.86672231  0.87064611  0.24793131  1
  Al  Al191  1  0.86601240  0.86506147  0.74485258  1
  Al  Al192  1  0.31664845  0.32624759  0.49986638  1
  Al  Al193  1  0.49902922  0.67223472  0.17270052  1
  Al  Al194  1  0.17065022  -0.00144042  0.67337356  1
  Al  Al195  1  -0.00028365  0.17083436  0.82397919  1
  Al  Al196  1  0.82792146  0.00107291  0.82536739  1
  Al  Al197  1  0.49950121  0.30987408  0.31270141  1
  Al  Al198  1  0.68226126  0.68234173  0.49830223  1
  Al  Al199  1  0.32574871  0.68075971  0.00098218  1
  Al  Al200  1  -0.00041784  0.32909980  0.82687646  1
  Al  Al201  1  0.82140216  0.82105753  0.49668563  1
  Al  Al202  1  0.32325123  0.49811897  0.17464869  1
  Al  Al203  1  0.82125955  0.31227205  0.49726426  1
  Al  Al204  1  -0.00295445  0.82741116  0.32210924  1
  Al  Al205  1  0.67073573  0.17477690  0.00291512  1
  Al  Al206  1  0.16851941  0.68390887  0.00171988  1
  Al  Al207  1  0.00222789  0.30957723  0.31941829  1
  Al  Al208  1  0.67356085  0.67545291  -0.00009670  1
  Al  Al209  1  0.19107971  0.19229189  0.00266473  1
  Al  Al210  1  0.00163104  0.68998105  0.68097844  1
  Al  Al211  1  0.67022610  0.00200662  0.82746835  1
  Al  Al212  1  0.31177440  0.30780461  0.00125028  1
  Al  Al213  1  0.82276197  0.32462796  0.00121889  1
  Al  Al214  1  0.49984050  0.67336734  0.82056403  1
  Al  Al215  1  0.49781416  0.82384330  0.67357535  1
  Al  Al216  1  0.67932176  0.49956743  0.18273257  1
  Al  Al217  1  0.82732279  0.17214239  0.00278378  1
  Al  Al218  1  0.68479507  0.00353691  0.31318381  1
  Al  Al219  1  0.49926590  0.19219292  0.81054738  1
  Al  Al220  1  0.50028675  0.67491795  0.32744498  1
  Al  Al221  1  0.31759759  0.49811983  0.68003738  1
  Al  Al222  1  0.32477130  0.00161544  0.18310472  1
  Al  Al223  1  0.81815428  0.49841762  0.67045106  1
  Al  Al224  1  0.32764495  0.00316577  0.66896526  1
  Al  Al225  1  0.32424875  0.00220849  0.83026445  1
  Al  Al226  1  0.50132543  0.82911323  0.17059336  1
  Al  Al227  1  0.68160252  0.00234742  0.67403941  1
  Al  Al228  1  0.67252952  0.49938490  0.81340889  1
  Al  Al229  1  0.49992493  0.82862655  0.82779308  1
  Al  Al230  1  0.17573498  0.49993577  0.31978160  1
  Al  Al231  1  0.82723302  0.49753772  0.83189313  1
  Al  Al232  1  0.31665718  0.17357820  0.49672192  1
  Al  Al233  1  0.00116447  0.32167561  0.67198428  1
  Al  Al234  1  -0.00068426  0.82045223  0.81221598  1
  Al  Al235  1  0.31178630  0.81283932  0.49823655  1
  Al  Al236  1  0.49892401  0.30993698  0.68839904  1
  Al  Al237  1  0.49715346  0.83212891  0.32970761  1
  Al  Al238  1  0.82510575  0.49558864  0.32243951  1
  Au  Au239  1  0.67288313  0.83930555  -0.00183532  1
  Au  Au240  1  0.82210740  0.00157928  0.84154664  1
  Au  Au241  1  0.33643364  0.00459730  0.83222070  1
  Au  Au242  1  0.82904665  -0.00098107  0.17261481  1
  Au  Au243  1  0.16655824  0.49531309  0.83442519  1
  Au  Au244  1  0.49964849  0.65364388  0.67155301  1
  Au  Au245  1  0.00041697  0.67366376  0.16475052  1
  Au  Au246  1  0.67493538  0.33810806  0.50144307  1
  Au  Au247  1  0.17089457  0.00234505  0.34041003  1
  Au  Au248  1  -0.00060149  0.16755284  0.17846250  1
  Au  Au249  1  0.66013946  0.50407547  0.32884575  1
  Au  Au250  1  0.33029386  0.00115571  0.17172956  1
  Au  Au251  1  0.49817585  0.32310714  0.67808428  1
  Au  Au252  1  0.32098842  0.49665115  0.16216303  1
  Au  Au253  1  0.00184636  0.83275167  0.82367847  1
  Au  Au254  1  0.66948644  0.16676682  0.49784441  1
  Au  Au255  1  0.66935601  0.00340002  0.32043306  1
  Au  Au256  1  0.83018622  -0.00104926  0.65424650  1
  Au  Au257  1  0.16981523  -0.00223049  0.84271121  1
  Au  Au258  1  0.82553182  0.49962385  0.15818620  1
  Au  Au259  1  0.32572994  0.83071374  -0.00121191  1
  Au  Au260  1  0.00279530  0.67252483  0.33776091  1
  Au  Au261  1  -0.00084210  0.17375436  0.65217141  1
  Au  Au262  1  0.34094889  0.49783026  0.82869921  1
  Au  Au263  1  0.16400455  -0.00106079  0.66270996  1
  Au  Au264  1  0.83338602  0.49742845  0.33177786  1
  Au  Au265  1  0.50473975  0.82565920  0.15431334  1
  Au  Au266  1  -0.00013759  0.17660121  0.83991903  1
  Au  Au267  1  0.00268371  0.33634324  0.17343351  1
  Au  Au268  1  0.16441388  0.49972661  0.32755232  1
  Au  Au269  1  0.67329706  0.16219156  0.00360852  1
  Au  Au270  1  0.67242519  0.83244841  0.50096678  1
  Au  Au271  1  0.50214026  0.84021706  0.67479521  1
  Au  Au272  1  0.83357766  0.67224489  0.50037035  1
  Au  Au273  1  0.82766906  0.49587102  0.65716374  1
  Au  Au274  1  0.84038003  0.82215386  0.00501086  1
  Au  Au275  1  0.31783116  0.82897833  0.49864456  1
  Au  Au276  1  0.67481224  0.66295752  0.00207539  1
  Au  Au277  1  0.16951045  0.50001610  0.65870577  1
  Au  Au278  1  0.33721384  0.50263560  0.33721668  1
  Au  Au279  1  0.82229974  0.49740488  0.84796434  1
  Au  Au280  1  0.67010564  0.33915298  0.00068867  1
  Au  Au281  1  0.16978128  -0.00268610  0.16601018  1
  Au  Au282  1  0.17457199  0.66787564  0.00218023  1
  Au  Au283  1  -0.00070185  0.83593945  0.33109832  1
  Au  Au284  1  0.49472908  0.82833890  0.34609759  1
  Au  Au285  1  0.33893501  0.00772220  0.66594374  1
  Au  Au286  1  -0.00044435  0.65796017  0.82526189  1
  Au  Au287  1  0.49749751  0.31980499  0.32654604  1
