# generated using pymatgen
data_Ca24Ti8Al207Au49
_symmetry_space_group_name_H-M   'P 1'
_cell_length_a   17.32428559
_cell_length_b   17.32247815
_cell_length_c   17.32365992
_cell_angle_alpha   90.00111304
_cell_angle_beta   90.00053877
_cell_angle_gamma   89.99875811
_symmetry_Int_Tables_number   1
_chemical_formula_structural   Ca24Ti8Al207Au49
_chemical_formula_sum   'Ca24 Ti8 Al207 Au49'
_cell_volume   5198.82269283
_cell_formula_units_Z   1
loop_
 _symmetry_equiv_pos_site_id
 _symmetry_equiv_pos_as_xyz
  1  'x, y, z'
loop_
 _atom_site_type_symbol
 _atom_site_label
 _atom_site_symmetry_multiplicity
 _atom_site_fract_x
 _atom_site_fract_y
 _atom_site_fract_z
 _atom_site_occupancy
  Ca  Ca0  1  0.25142972  0.00580093  0.00365854  1
  Ca  Ca1  1  0.25347059  0.00527052  0.49589008  1
  Ca  Ca2  1  0.24485807  0.49586091  0.00671624  1
  Ca  Ca3  1  0.25201007  0.49682827  0.49926489  1
  Ca  Ca4  1  0.75128044  0.00333881  0.00041026  1
  Ca  Ca5  1  0.74465833  -0.00153864  0.50069518  1
  Ca  Ca6  1  0.75547733  0.49872500  0.00442435  1
  Ca  Ca7  1  0.74901891  0.50236906  0.49900865  1
  Ca  Ca8  1  0.00079270  0.24964523  0.00382170  1
  Ca  Ca9  1  0.00337143  0.25001769  0.49492357  1
  Ca  Ca10  1  -0.00026193  0.74743917  0.00067954  1
  Ca  Ca11  1  -0.00492495  0.75004844  0.49717002  1
  Ca  Ca12  1  0.49618935  0.24682509  0.00304067  1
  Ca  Ca13  1  0.50057207  0.24721800  0.49829505  1
  Ca  Ca14  1  0.49845736  0.75408325  0.00207799  1
  Ca  Ca15  1  0.50763228  0.75207602  0.49542928  1
  Ca  Ca16  1  0.00043514  0.00149719  0.25166315  1
  Ca  Ca17  1  -0.00007348  0.00219393  0.75217865  1
  Ca  Ca18  1  0.00034667  0.49847759  0.24755131  1
  Ca  Ca19  1  -0.00408284  0.49804293  0.74869055  1
  Ca  Ca20  1  0.50035545  0.00204765  0.25661092  1
  Ca  Ca21  1  0.49994088  0.00702128  0.74859709  1
  Ca  Ca22  1  0.50148887  0.50013994  0.25424106  1
  Ca  Ca23  1  0.50126690  0.49866882  0.74838001  1
  Ti  Ti24  1  0.25106507  0.24960224  0.25068792  1
  Ti  Ti25  1  0.25131479  0.24719533  0.74896341  1
  Ti  Ti26  1  0.24948134  0.75063504  0.24860663  1
  Ti  Ti27  1  0.25024386  0.75167493  0.75130870  1
  Ti  Ti28  1  0.74953942  0.24939916  0.24938143  1
  Ti  Ti29  1  0.74917345  0.24909565  0.75021302  1
  Ti  Ti30  1  0.75195982  0.75120211  0.25005690  1
  Ti  Ti31  1  0.75089350  0.74912123  0.75004901  1
  Al  Al32  1  0.08730677  0.09884022  0.08372609  1
  Al  Al33  1  0.09292149  0.09099094  0.57775497  1
  Al  Al34  1  0.07520017  0.57556803  0.08028245  1
  Al  Al35  1  0.07141657  0.59262991  0.58491304  1
  Al  Al36  1  0.57500447  0.07967796  0.07974335  1
  Al  Al37  1  0.58416363  0.09255584  0.58173736  1
  Al  Al38  1  0.58886476  0.57776418  0.08215729  1
  Al  Al39  1  0.58570831  0.59124400  0.57128167  1
  Al  Al40  1  0.41473110  0.40995960  0.08086898  1
  Al  Al41  1  0.42058629  0.39866588  0.58024727  1
  Al  Al42  1  0.41490329  0.92585961  0.09643809  1
  Al  Al43  1  0.42819983  0.92261984  0.57792540  1
  Al  Al44  1  0.91584973  0.41745654  0.09535577  1
  Al  Al45  1  0.92128624  0.42095157  0.57508895  1
  Al  Al46  1  0.91676255  0.92019508  0.08272307  1
  Al  Al47  1  0.90743794  0.91098517  0.57127790  1
  Al  Al48  1  0.41670265  0.09573450  0.41361299  1
  Al  Al49  1  0.41302245  0.09679112  0.92179071  1
  Al  Al50  1  0.41314066  0.58845838  0.41159803  1
  Al  Al51  1  0.42203814  0.58428544  0.92209510  1
  Al  Al52  1  0.91431274  0.07669651  0.40756805  1
  Al  Al53  1  0.92261087  0.07873451  0.92110694  1
  Al  Al54  1  0.90765297  0.58546816  0.42528894  1
  Al  Al55  1  0.91030964  0.58980593  0.92836534  1
  Al  Al56  1  0.08674253  0.40539653  0.41592869  1
  Al  Al57  1  0.08216918  0.41295634  0.92118594  1
  Al  Al58  1  0.07273331  0.92908236  0.42025415  1
  Al  Al59  1  0.09476005  0.93153979  0.91449244  1
  Al  Al60  1  0.57786759  0.41437794  0.41958379  1
  Al  Al61  1  0.57655968  0.40584165  0.92126424  1
  Al  Al62  1  0.58489728  0.91117302  0.41443170  1
  Al  Al63  1  0.58260605  0.92337091  0.91649728  1
  Al  Al64  1  0.08837343  0.09616168  0.41767445  1
  Al  Al65  1  0.09785100  0.09047926  0.92056628  1
  Al  Al66  1  0.08122772  0.57612409  0.42264402  1
  Al  Al67  1  0.07707124  0.57501929  0.92146043  1
  Al  Al68  1  0.58189357  0.08954300  0.41685159  1
  Al  Al69  1  0.57522597  0.08831999  0.90961933  1
  Al  Al70  1  0.58421349  0.59186270  0.41581089  1
  Al  Al71  1  0.58123380  0.58869504  0.92230620  1
  Al  Al72  1  0.41372681  0.41288225  0.41673235  1
  Al  Al73  1  0.41805797  0.40317061  0.92155379  1
  Al  Al74  1  0.42514222  0.91607392  0.40981768  1
  Al  Al75  1  0.42124516  0.92302852  0.92253607  1
  Al  Al76  1  0.92102081  0.41654800  0.41589899  1
  Al  Al77  1  0.92298113  0.41632770  0.92363662  1
  Al  Al78  1  0.90244774  0.91513898  0.41255155  1
  Al  Al79  1  0.91302656  0.92278387  0.92297710  1
  Al  Al80  1  0.07817405  0.40371637  0.08896860  1
  Al  Al81  1  0.08518584  0.40810898  0.57376701  1
  Al  Al82  1  0.07907957  0.92427334  0.07797350  1
  Al  Al83  1  0.07693458  0.92578673  0.58106348  1
  Al  Al84  1  0.58575942  0.41587724  0.08419377  1
  Al  Al85  1  0.57710286  0.40358975  0.58403248  1
  Al  Al86  1  0.57718069  0.91584438  0.08356763  1
  Al  Al87  1  0.58646350  0.91505390  0.57959997  1
  Al  Al88  1  0.40493743  0.08781761  0.08638649  1
  Al  Al89  1  0.41722104  0.09675589  0.57844803  1
  Al  Al90  1  0.41816263  0.57651840  0.08226367  1
  Al  Al91  1  0.41667907  0.59245679  0.56835769  1
  Al  Al92  1  0.92422148  0.09092096  0.09312428  1
  Al  Al93  1  0.92654805  0.07576210  0.57454866  1
  Al  Al94  1  0.90476682  0.58134999  0.08933694  1
  Al  Al95  1  0.91262875  0.60089650  0.58408251  1
  Al  Al96  1  0.25321549  0.13342045  0.13341691  1
  Al  Al97  1  0.25136655  0.13407557  0.63106335  1
  Al  Al98  1  0.25024101  0.63160622  0.13095495  1
  Al  Al99  1  0.25258206  0.63549842  0.63036305  1
  Al  Al100  1  0.75283926  0.13530066  0.13002606  1
  Al  Al101  1  0.74491744  0.13625096  0.63377456  1
  Al  Al102  1  0.75402318  0.63429571  0.13009871  1
  Al  Al103  1  0.75201831  0.63518975  0.62812749  1
  Al  Al104  1  0.24899243  0.36808995  0.13613494  1
  Al  Al105  1  0.25002977  0.36083739  0.62539792  1
  Al  Al106  1  0.25293694  0.87027745  0.13301648  1
  Al  Al107  1  0.24578789  0.86781791  0.63469919  1
  Al  Al108  1  0.75421766  0.36316767  0.13602094  1
  Al  Al109  1  0.74864348  0.36521321  0.63388741  1
  Al  Al110  1  0.75466886  0.86826248  0.13396674  1
  Al  Al111  1  0.75206494  0.86271386  0.63325576  1
  Al  Al112  1  0.25094888  0.13359717  0.36665962  1
  Al  Al113  1  0.24732291  0.13715379  0.87085995  1
  Al  Al114  1  0.25071852  0.63593318  0.37121233  1
  Al  Al115  1  0.25032742  0.63656822  0.86891723  1
  Al  Al116  1  0.74844784  0.13742174  0.36497126  1
  Al  Al117  1  0.74889164  0.13829965  0.87188609  1
  Al  Al118  1  0.75164777  0.63688840  0.37104551  1
  Al  Al119  1  0.75309893  0.63280326  0.86646045  1
  Al  Al120  1  0.24846223  0.35906322  0.37175656  1
  Al  Al121  1  0.25200906  0.35845614  0.86385006  1
  Al  Al122  1  0.25076770  0.87279981  0.36385316  1
  Al  Al123  1  0.24813033  0.86635462  0.87101113  1
  Al  Al124  1  0.74832802  0.36075584  0.36460169  1
  Al  Al125  1  0.75091759  0.36218193  0.86406438  1
  Al  Al126  1  0.75418781  0.86589891  0.36805784  1
  Al  Al127  1  0.75123622  0.86340381  0.86787705  1
  Al  Al128  1  0.13962217  0.24882011  0.13050474  1
  Al  Al129  1  0.13689726  0.24699610  0.63127836  1
  Al  Al130  1  0.13885176  0.75105871  0.13046926  1
  Al  Al131  1  0.13326260  0.74585506  0.63580705  1
  Al  Al132  1  0.63516207  0.24666550  0.13649697  1
  Al  Al133  1  0.63599027  0.25008950  0.62788459  1
  Al  Al134  1  0.63991213  0.75066130  0.13665925  1
  Al  Al135  1  0.63836029  0.74703781  0.63217878  1
  Al  Al136  1  0.13597950  0.24730977  0.36567569  1
  Al  Al137  1  0.13604682  0.24866490  0.87106297  1
  Al  Al138  1  0.13868497  0.74723568  0.36412028  1
  Al  Al139  1  0.13592150  0.74995995  0.87037886  1
  Al  Al140  1  0.63042003  0.24842896  0.36896428  1
  Al  Al141  1  0.63198758  0.24810297  0.86625837  1
  Al  Al142  1  0.63946678  0.74908357  0.36665908  1
  Al  Al143  1  0.63685893  0.74566952  0.86873121  1
  Al  Al144  1  0.36373293  0.24555092  0.13630167  1
  Al  Al145  1  0.36226965  0.24652692  0.62514688  1
  Al  Al146  1  0.36185636  0.75239085  0.13305378  1
  Al  Al147  1  0.36386402  0.74925482  0.63342310  1
  Al  Al148  1  0.86935972  0.24826072  0.13349997  1
  Al  Al149  1  0.86598377  0.24883113  0.63585031  1
  Al  Al150  1  0.86418523  0.74966862  0.13152648  1
  Al  Al151  1  0.86277363  0.74767531  0.63011036  1
  Al  Al152  1  0.36864238  0.24635435  0.36914709  1
  Al  Al153  1  0.36692251  0.24404002  0.86698118  1
  Al  Al154  1  0.36223259  0.75151817  0.36235373  1
  Al  Al155  1  0.36241752  0.75199745  0.87282443  1
  Al  Al156  1  0.86583818  0.24986735  0.36142272  1
  Al  Al157  1  0.86496994  0.24937548  0.87035910  1
  Al  Al158  1  0.86186840  0.74960935  0.36826875  1
  Al  Al159  1  0.86596534  0.74643861  0.86814041  1
  Al  Al160  1  0.13548658  0.13746005  0.24578153  1
  Al  Al161  1  0.13989102  0.13074625  0.75058028  1
  Al  Al162  1  0.14249855  0.62754720  0.24909917  1
  Al  Al163  1  0.13751268  0.63789706  0.74959989  1
  Al  Al164  1  0.63339814  0.13507273  0.25416124  1
  Al  Al165  1  0.63319822  0.13817426  0.75136286  1
  Al  Al166  1  0.64203115  0.63576533  0.25082529  1
  Al  Al167  1  0.63603681  0.63595969  0.74835926  1
  Al  Al168  1  0.36257398  0.13043112  0.25316312  1
  Al  Al169  1  0.36463821  0.13495837  0.74997131  1
  Al  Al170  1  0.35948386  0.63428915  0.25053958  1
  Al  Al171  1  0.36557003  0.63798239  0.74947066  1
  Al  Al172  1  0.86220501  0.13284149  0.24833173  1
  Al  Al173  1  0.86181917  0.13713681  0.74977295  1
  Al  Al174  1  0.86042241  0.63476268  0.24618263  1
  Al  Al175  1  0.86262570  0.63288043  0.74540552  1
  Al  Al176  1  0.13623162  0.36473247  0.24805549  1
  Al  Al177  1  0.13932829  0.35885595  0.74765370  1
  Al  Al178  1  0.13718455  0.86590157  0.24855569  1
  Al  Al179  1  0.13680706  0.86958349  0.75187296  1
  Al  Al180  1  0.63517073  0.36234970  0.25224675  1
  Al  Al181  1  0.63182836  0.36189569  0.74556142  1
  Al  Al182  1  0.63687757  0.86488975  0.25488887  1
  Al  Al183  1  0.63845908  0.86249533  0.75151551  1
  Al  Al184  1  0.36354140  0.36065703  0.25386990  1
  Al  Al185  1  0.36529392  0.35858272  0.74164901  1
  Al  Al186  1  0.36248744  0.87024523  0.25160316  1
  Al  Al187  1  0.36297131  0.86629329  0.75120624  1
  Al  Al188  1  0.86753279  0.36508538  0.24425198  1
  Al  Al189  1  0.86049923  0.36921186  0.74858154  1
  Al  Al190  1  0.86389691  0.86869887  0.25195101  1
  Al  Al191  1  0.86496979  0.86106389  0.74958059  1
  Al  Al192  1  -0.00149359  0.17268846  0.31470522  1
  Al  Al193  1  0.49907337  0.82710198  0.19036853  1
  Al  Al194  1  0.68206521  0.00076114  0.33221181  1
  Al  Al195  1  0.16829196  0.82107628  0.49917907  1
  Al  Al196  1  0.81855402  0.00110187  0.82327785  1
  Al  Al197  1  0.17265460  0.49786904  0.82634992  1
  Al  Al198  1  0.67335825  0.00026621  0.67788656  1
  Al  Al199  1  0.81719927  0.16687321  0.50029826  1
  Al  Al200  1  0.50032618  0.32411172  0.17942076  1
  Al  Al201  1  0.49741929  0.17106766  0.18329989  1
  Al  Al202  1  0.49929750  0.19182347  0.68484007  1
  Al  Al203  1  -0.00016925  0.82868253  0.32682317  1
  Al  Al204  1  0.17341180  0.00220939  0.17760659  1
  Al  Al205  1  0.50031832  0.68950599  0.32743613  1
  Al  Al206  1  0.68116971  0.31974860  0.00159651  1
  Al  Al207  1  0.67468502  0.50101663  0.66799083  1
  Al  Al208  1  0.82829922  -0.00016932  0.66968024  1
  Al  Al209  1  0.31419650  0.00341445  0.82956739  1
  Al  Al210  1  0.67540391  0.49645555  0.83051214  1
  Al  Al211  1  0.82059135  0.32343835  0.49900698  1
  Al  Al212  1  0.49992529  0.67166425  0.18053740  1
  Al  Al213  1  0.00041075  0.67367133  0.17163227  1
  Al  Al214  1  0.32023124  0.49828256  0.32197254  1
  Al  Al215  1  0.00062445  0.32413702  0.31513717  1
  Al  Al216  1  0.16885616  0.49891712  0.67105471  1
  Al  Al217  1  0.33184619  0.81983983  0.49897868  1
  Al  Al218  1  0.33385169  0.49965522  0.66764425  1
  Al  Al219  1  0.67056495  0.50009712  0.32926875  1
  Al  Al220  1  0.67636893  0.82271093  -0.00134908  1
  Al  Al221  1  0.50180901  0.82232857  0.67939056  1
  Al  Al222  1  0.31656272  0.30875913  0.00199042  1
  Al  Al223  1  0.00108287  0.17907427  0.67202372  1
  Al  Al224  1  -0.00061217  0.66831012  0.32227446  1
  Al  Al225  1  0.67558406  0.00000437  0.17643441  1
  Al  Al226  1  -0.00005444  0.67117088  0.81552757  1
  Al  Al227  1  0.68686231  0.49823966  0.17665199  1
  Al  Al228  1  0.49838992  0.68025090  0.81958920  1
  Al  Al229  1  0.68501635  0.81641478  0.49972736  1
  Al  Al230  1  -0.00175002  0.81530830  0.66900887  1
  Al  Al231  1  0.00329584  0.83114050  0.83050726  1
  Al  Al232  1  0.00004032  0.32449548  0.81932126  1
  Al  Al233  1  0.32887643  0.49705900  0.83175438  1
  Al  Al234  1  0.32237231  0.00003998  0.66781855  1
  Al  Al235  1  0.00088694  0.82696006  0.17321517  1
  Al  Al236  1  0.82753188  0.49862208  0.31429347  1
  Al  Al237  1  0.49828855  0.30730181  0.80886563  1
  Al  Al238  1  0.00217398  0.17117926  0.82948016  1
  Au  Au239  1  -0.00495431  0.82406366  0.65538265  1
  Au  Au240  1  0.33084995  0.66765720  0.00294518  1
  Au  Au241  1  0.65891460  0.50014545  0.66200242  1
  Au  Au242  1  0.34838419  0.49952574  0.66070041  1
  Au  Au243  1  0.16757262  0.83497846  0.00007550  1
  Au  Au244  1  0.83841649  0.50237910  0.66288891  1
  Au  Au245  1  0.32480895  0.32140502  0.49736443  1
  Au  Au246  1  0.16761343  0.83761106  0.49453771  1
  Au  Au247  1  -0.00204311  0.67550993  0.33755602  1
  Au  Au248  1  0.66431251  0.00452311  0.17311664  1
  Au  Au249  1  0.50043114  0.67649887  0.65594261  1
  Au  Au250  1  0.49931133  0.67349201  0.83037301  1
  Au  Au251  1  0.16855250  0.00363517  0.33395394  1
  Au  Au252  1  0.49921763  0.32525099  0.32780271  1
  Au  Au253  1  0.33891151  0.00230949  0.32884960  1
  Au  Au254  1  -0.00195716  0.65887510  0.82712344  1
  Au  Au255  1  0.66757141  0.83135291  0.00074453  1
  Au  Au256  1  0.33605617  0.49482676  0.17345919  1
  Au  Au257  1  0.15299078  0.50202889  0.67149520  1
  Au  Au258  1  0.17309793  0.49547385  0.33831990  1
  Au  Au259  1  0.49770860  0.31962961  0.82089745  1
  Au  Au260  1  0.16395100  0.66541783  0.00064744  1
  Au  Au261  1  0.50458548  0.67502638  0.16474648  1
  Au  Au262  1  0.66957798  0.32697564  0.49751160  1
  Au  Au263  1  0.17003408  0.32249560  0.00059833  1
  Au  Au264  1  0.65687805  0.17344095  -0.00069540  1
  Au  Au265  1  0.83778226  0.49905715  0.83679372  1
  Au  Au266  1  0.34792356  0.82362393  0.49850104  1
  Au  Au267  1  -0.00036891  0.16695281  0.67542774  1
  Au  Au268  1  0.83066476  0.33565128  0.00463539  1
  Au  Au269  1  0.33746651  0.83661733  0.00677283  1
  Au  Au270  1  0.16292450  0.00139011  0.67460923  1
  Au  Au271  1  0.32662356  0.00470929  0.84008633  1
  Au  Au272  1  0.82316488  0.49788476  0.33043532  1
  Au  Au273  1  0.83562314  0.16574785  0.00101820  1
  Au  Au274  1  0.17615090  0.00365817  0.16510958  1
  Au  Au275  1  0.68061543  0.66593641  0.00176597  1
  Au  Au276  1  -0.00240123  0.33213836  0.66749203  1
  Au  Au277  1  0.32381898  0.49629077  0.84818534  1
  Au  Au278  1  0.83638511  0.82304382  0.00050739  1
  Au  Au279  1  0.66892743  0.00487872  0.82706955  1
  Au  Au280  1  0.16144384  0.49725214  0.16925589  1
  Au  Au281  1  0.33349914  -0.00027640  0.66200664  1
  Au  Au282  1  0.66631104  0.49588634  0.84503269  1
  Au  Au283  1  0.17406188  0.66151281  0.50259901  1
  Au  Au284  1  0.49900929  0.83649471  0.82651921  1
  Au  Au285  1  0.00336248  0.84628764  0.83468568  1
  Au  Au286  1  0.83344166  0.16833667  0.49649810  1
  Au  Au287  1  0.83929134  0.00172174  0.17829107  1
