# generated using pymatgen
data_Ca24Ti8Al207Au49
_symmetry_space_group_name_H-M   'P 1'
_cell_length_a   17.31888233
_cell_length_b   17.31983025
_cell_length_c   17.31895166
_cell_angle_alpha   89.99769080
_cell_angle_beta   89.99702525
_cell_angle_gamma   90.00020724
_symmetry_Int_Tables_number   1
_chemical_formula_structural   Ca24Ti8Al207Au49
_chemical_formula_sum   'Ca24 Ti8 Al207 Au49'
_cell_volume   5194.99449477
_cell_formula_units_Z   1
loop_
 _symmetry_equiv_pos_site_id
 _symmetry_equiv_pos_as_xyz
  1  'x, y, z'
loop_
 _atom_site_type_symbol
 _atom_site_label
 _atom_site_symmetry_multiplicity
 _atom_site_fract_x
 _atom_site_fract_y
 _atom_site_fract_z
 _atom_site_occupancy
  Ca  Ca0  1  0.24686939  -0.00693594  0.00255538  1
  Ca  Ca1  1  0.25621796  -0.00514025  0.50072302  1
  Ca  Ca2  1  0.25003691  0.50589857  0.00089206  1
  Ca  Ca3  1  0.25195703  0.50628001  0.49843754  1
  Ca  Ca4  1  0.74544390  0.00110263  -0.00360393  1
  Ca  Ca5  1  0.75000402  0.00186174  0.50231418  1
  Ca  Ca6  1  0.74572631  0.49745071  -0.00392378  1
  Ca  Ca7  1  0.75447473  0.49961283  0.50388778  1
  Ca  Ca8  1  -0.00331902  0.25506403  -0.00000261  1
  Ca  Ca9  1  -0.00224523  0.25103558  0.50139260  1
  Ca  Ca10  1  0.00032652  0.75033240  -0.00298531  1
  Ca  Ca11  1  0.00002780  0.75214183  0.50187633  1
  Ca  Ca12  1  0.50236541  0.24831932  0.00042581  1
  Ca  Ca13  1  0.50158117  0.24927070  0.50164718  1
  Ca  Ca14  1  0.49745967  0.74751147  -0.00275369  1
  Ca  Ca15  1  0.49761279  0.75251582  0.50204665  1
  Ca  Ca16  1  0.00137648  -0.00211453  0.24875126  1
  Ca  Ca17  1  -0.00051074  0.00004897  0.74437921  1
  Ca  Ca18  1  -0.00110172  0.49893376  0.25237104  1
  Ca  Ca19  1  -0.00304202  0.50177282  0.75018119  1
  Ca  Ca20  1  0.49897417  -0.00073587  0.25295736  1
  Ca  Ca21  1  0.50052538  -0.00208016  0.74652216  1
  Ca  Ca22  1  0.50041941  0.50201662  0.25395330  1
  Ca  Ca23  1  0.50428473  0.49942510  0.75005319  1
  Ti  Ti24  1  0.25040175  0.25006055  0.25120062  1
  Ti  Ti25  1  0.25117430  0.24928481  0.74898299  1
  Ti  Ti26  1  0.25050282  0.75102625  0.24982316  1
  Ti  Ti27  1  0.24752555  0.75097338  0.75022824  1
  Ti  Ti28  1  0.74932131  0.25043186  0.25149215  1
  Ti  Ti29  1  0.74914823  0.25094327  0.74866330  1
  Ti  Ti30  1  0.75033416  0.75024996  0.25193526  1
  Ti  Ti31  1  0.75213694  0.74825925  0.74968332  1
  Al  Al32  1  0.07509951  0.07248936  0.08614035  1
  Al  Al33  1  0.07411144  0.08398625  0.59366893  1
  Al  Al34  1  0.08498176  0.58660043  0.07959635  1
  Al  Al35  1  0.07784549  0.58723478  0.59304803  1
  Al  Al36  1  0.58100311  0.09216406  0.08638971  1
  Al  Al37  1  0.57967599  0.08982617  0.58903260  1
  Al  Al38  1  0.58820596  0.58665766  0.07232733  1
  Al  Al39  1  0.58892395  0.57785283  0.59013141  1
  Al  Al40  1  0.42618024  0.42168309  0.09243004  1
  Al  Al41  1  0.42366719  0.41850135  0.58055886  1
  Al  Al42  1  0.40575920  0.91690822  0.07891054  1
  Al  Al43  1  0.40905546  0.91698847  0.58474567  1
  Al  Al44  1  0.91866200  0.41272090  0.09112203  1
  Al  Al45  1  0.90957419  0.41969192  0.58596196  1
  Al  Al46  1  0.92819431  0.91640730  0.09036903  1
  Al  Al47  1  0.91217737  0.91375243  0.58417705  1
  Al  Al48  1  0.41474219  0.07575855  0.41297682  1
  Al  Al49  1  0.42622774  0.07477097  0.91058076  1
  Al  Al50  1  0.41221003  0.58600057  0.40604681  1
  Al  Al51  1  0.41568991  0.58553963  0.91840680  1
  Al  Al52  1  0.91545736  0.08877871  0.42894620  1
  Al  Al53  1  0.92178695  0.08703124  0.90840813  1
  Al  Al54  1  0.91278995  0.57677170  0.41840369  1
  Al  Al55  1  0.91416334  0.58138657  0.90823218  1
  Al  Al56  1  0.08418291  0.42255887  0.40516600  1
  Al  Al57  1  0.07979828  0.42670250  0.90420303  1
  Al  Al58  1  0.09322082  0.91333964  0.41817841  1
  Al  Al59  1  0.08702317  0.90768469  0.91994689  1
  Al  Al60  1  0.58327410  0.42304457  0.42136825  1
  Al  Al61  1  0.58959576  0.42073637  0.90210396  1
  Al  Al62  1  0.57877203  0.91679115  0.42379939  1
  Al  Al63  1  0.59160704  0.91896201  0.91259917  1
  Al  Al64  1  0.08030318  0.07110146  0.41400953  1
  Al  Al65  1  0.07388033  0.07995301  0.90562435  1
  Al  Al66  1  0.08879716  0.57932674  0.41453812  1
  Al  Al67  1  0.09060782  0.58791961  0.91196393  1
  Al  Al68  1  0.57916404  0.08432235  0.42221453  1
  Al  Al69  1  0.58928480  0.07993633  0.90986545  1
  Al  Al70  1  0.57641335  0.58627090  0.41085849  1
  Al  Al71  1  0.59062092  0.58398570  0.91176845  1
  Al  Al72  1  0.41044073  0.42529474  0.41527279  1
  Al  Al73  1  0.42979955  0.41995174  0.90464363  1
  Al  Al74  1  0.40476643  0.91379044  0.41927295  1
  Al  Al75  1  0.40924051  0.91093105  0.92095121  1
  Al  Al76  1  0.90988872  0.41512380  0.41440245  1
  Al  Al77  1  0.91524419  0.42093930  0.90903355  1
  Al  Al78  1  0.91455658  0.90907073  0.42407060  1
  Al  Al79  1  0.92801810  0.91532113  0.90966046  1
  Al  Al80  1  0.07497313  0.41637417  0.09508264  1
  Al  Al81  1  0.07603483  0.42636214  0.58483019  1
  Al  Al82  1  0.08814726  0.90259387  0.08306654  1
  Al  Al83  1  0.08558396  0.91274536  0.58129759  1
  Al  Al84  1  0.57984912  0.41330697  0.08338243  1
  Al  Al85  1  0.59118856  0.41768380  0.59215814  1
  Al  Al86  1  0.58358157  0.92218771  0.07350161  1
  Al  Al87  1  0.58076302  0.91776875  0.58313338  1
  Al  Al88  1  0.42520614  0.08115844  0.09833608  1
  Al  Al89  1  0.41694704  0.08052196  0.59267027  1
  Al  Al90  1  0.40832502  0.58558015  0.07761576  1
  Al  Al91  1  0.42131297  0.58262211  0.57656840  1
  Al  Al92  1  0.91980078  0.07725687  0.08364591  1
  Al  Al93  1  0.91335400  0.09260587  0.59020011  1
  Al  Al94  1  0.92070363  0.58057404  0.08367480  1
  Al  Al95  1  0.91579037  0.58372139  0.59441648  1
  Al  Al96  1  0.25137756  0.12965371  0.13791406  1
  Al  Al97  1  0.25449889  0.13406764  0.63829199  1
  Al  Al98  1  0.25139687  0.63470708  0.13486930  1
  Al  Al99  1  0.24515985  0.63695321  0.63483466  1
  Al  Al100  1  0.74746723  0.13652633  0.13622181  1
  Al  Al101  1  0.74755665  0.13793449  0.63065907  1
  Al  Al102  1  0.74894603  0.63546443  0.13622152  1
  Al  Al103  1  0.75800738  0.63374153  0.63221871  1
  Al  Al104  1  0.24824477  0.36611351  0.13735381  1
  Al  Al105  1  0.24867888  0.36187607  0.64078754  1
  Al  Al106  1  0.24933770  0.86943624  0.13751856  1
  Al  Al107  1  0.25141537  0.86461445  0.63671217  1
  Al  Al108  1  0.75193174  0.36355820  0.12986944  1
  Al  Al109  1  0.74875343  0.36118616  0.63595592  1
  Al  Al110  1  0.74645642  0.86346114  0.13796636  1
  Al  Al111  1  0.75284039  0.86294798  0.63693713  1
  Al  Al112  1  0.25135960  0.13514610  0.36490124  1
  Al  Al113  1  0.25665638  0.13566438  0.86090413  1
  Al  Al114  1  0.24990970  0.63404926  0.36553174  1
  Al  Al115  1  0.24677332  0.63701615  0.86299559  1
  Al  Al116  1  0.74749276  0.13639640  0.37008426  1
  Al  Al117  1  0.74681702  0.13612888  0.86076225  1
  Al  Al118  1  0.75583558  0.63628911  0.36807604  1
  Al  Al119  1  0.75116710  0.62745269  0.86104706  1
  Al  Al120  1  0.24886452  0.37075775  0.36216000  1
  Al  Al121  1  0.24550662  0.36277060  0.86152516  1
  Al  Al122  1  0.25500125  0.86491746  0.36629787  1
  Al  Al123  1  0.24541270  0.86211319  0.86662817  1
  Al  Al124  1  0.75118576  0.36552423  0.36551827  1
  Al  Al125  1  0.74994861  0.37000888  0.86319017  1
  Al  Al126  1  0.75131495  0.86421003  0.36491267  1
  Al  Al127  1  0.74899751  0.86251628  0.86201324  1
  Al  Al128  1  0.13622518  0.25155843  0.13653444  1
  Al  Al129  1  0.13092525  0.24335941  0.63871756  1
  Al  Al130  1  0.13626543  0.75420678  0.13253035  1
  Al  Al131  1  0.12708440  0.75086257  0.63788666  1
  Al  Al132  1  0.63533389  0.25081138  0.13564661  1
  Al  Al133  1  0.62959916  0.24937339  0.63408522  1
  Al  Al134  1  0.63431827  0.74721473  0.13566934  1
  Al  Al135  1  0.63786321  0.74814015  0.63836339  1
  Al  Al136  1  0.13520564  0.25418716  0.36136345  1
  Al  Al137  1  0.12980695  0.24526558  0.86097444  1
  Al  Al138  1  0.13667201  0.75177171  0.36491608  1
  Al  Al139  1  0.12667217  0.75042448  0.86545584  1
  Al  Al140  1  0.63396386  0.24816112  0.37196627  1
  Al  Al141  1  0.63366127  0.25634252  0.86200223  1
  Al  Al142  1  0.62940340  0.75137559  0.36367010  1
  Al  Al143  1  0.63787472  0.74512272  0.86382991  1
  Al  Al144  1  0.36313908  0.24880202  0.13695420  1
  Al  Al145  1  0.37169334  0.24866036  0.63810465  1
  Al  Al146  1  0.36541802  0.74872063  0.13810805  1
  Al  Al147  1  0.36128873  0.75297657  0.63106773  1
  Al  Al148  1  0.86608967  0.25543779  0.13490195  1
  Al  Al149  1  0.86649510  0.24391448  0.63504198  1
  Al  Al150  1  0.86514029  0.75179459  0.13498193  1
  Al  Al151  1  0.87079656  0.74902568  0.63526167  1
  Al  Al152  1  0.36428025  0.25018303  0.36491501  1
  Al  Al153  1  0.36857856  0.25359292  0.86183688  1
  Al  Al154  1  0.36802812  0.75252323  0.36431887  1
  Al  Al155  1  0.36350877  0.74988404  0.86371286  1
  Al  Al156  1  0.86520934  0.24983770  0.36576445  1
  Al  Al157  1  0.86574495  0.25146036  0.86203573  1
  Al  Al158  1  0.86538788  0.75212111  0.37164247  1
  Al  Al159  1  0.87050396  0.74709824  0.86216532  1
  Al  Al160  1  0.13541291  0.13394596  0.24965662  1
  Al  Al161  1  0.13357960  0.13240351  0.75015183  1
  Al  Al162  1  0.13838757  0.63454207  0.24962058  1
  Al  Al163  1  0.12777317  0.63824994  0.75230441  1
  Al  Al164  1  0.63547014  0.13160393  0.25046445  1
  Al  Al165  1  0.63580878  0.13126095  0.74677343  1
  Al  Al166  1  0.63471427  0.63747603  0.25611603  1
  Al  Al167  1  0.63682979  0.63258668  0.74974928  1
  Al  Al168  1  0.36390832  0.12974075  0.25091344  1
  Al  Al169  1  0.37079818  0.12951375  0.74589974  1
  Al  Al170  1  0.36532223  0.63369524  0.25666308  1
  Al  Al171  1  0.36321677  0.63782655  0.74791970  1
  Al  Al172  1  0.86307340  0.13801582  0.24950614  1
  Al  Al173  1  0.86644921  0.13563263  0.74947542  1
  Al  Al174  1  0.86233809  0.63255786  0.24958176  1
  Al  Al175  1  0.86945038  0.63123826  0.74900586  1
  Al  Al176  1  0.13300191  0.36874262  0.25021774  1
  Al  Al177  1  0.12937619  0.36474333  0.75120150  1
  Al  Al178  1  0.13134367  0.86247998  0.24980926  1
  Al  Al179  1  0.12715223  0.86270839  0.74952761  1
  Al  Al180  1  0.63595904  0.36285899  0.25269884  1
  Al  Al181  1  0.62889009  0.36413269  0.74918659  1
  Al  Al182  1  0.63495108  0.86889023  0.25260529  1
  Al  Al183  1  0.63727384  0.86982025  0.74964748  1
  Al  Al184  1  0.36497201  0.36679112  0.25410465  1
  Al  Al185  1  0.37266304  0.36395545  0.74964346  1
  Al  Al186  1  0.36483710  0.86992407  0.25185584  1
  Al  Al187  1  0.36279009  0.86863837  0.75010573  1
  Al  Al188  1  0.86496740  0.36754727  0.25193411  1
  Al  Al189  1  0.86497361  0.37082148  0.74728340  1
  Al  Al190  1  0.87089547  0.86142201  0.25205002  1
  Al  Al191  1  0.87189442  0.86287464  0.74921095  1
  Al  Al192  1  0.32021439  0.67825992  0.49780813  1
  Al  Al193  1  0.69665876  0.49857512  0.69467180  1
  Al  Al194  1  0.50082131  0.82960344  0.17833584  1
  Al  Al195  1  0.32608353  0.49937663  0.67037103  1
  Al  Al196  1  0.50144023  0.82852334  0.82849432  1
  Al  Al197  1  0.00032243  0.18042644  0.32917999  1
  Al  Al198  1  0.82959288  0.83030679  -0.00106455  1
  Al  Al199  1  0.19111624  0.81629736  0.50174142  1
  Al  Al200  1  -0.00099634  0.67573863  0.32511251  1
  Al  Al201  1  0.82078744  0.31643977  0.50163259  1
  Al  Al202  1  0.81847278  -0.00099059  0.82943260  1
  Al  Al203  1  0.67586553  0.67619264  0.49857140  1
  Al  Al204  1  0.49971292  0.31036220  0.18365725  1
  Al  Al205  1  0.33375302  0.33258471  -0.00144778  1
  Al  Al206  1  0.31682201  0.50039712  0.18556205  1
  Al  Al207  1  0.33201296  0.16866381  0.00139669  1
  Al  Al208  1  0.18833503  0.69200717  -0.00083567  1
  Al  Al209  1  0.17318165  0.50156053  0.68795305  1
  Al  Al210  1  0.81389093  0.67204180  -0.00112131  1
  Al  Al211  1  0.00138789  0.68445819  0.17022998  1
  Al  Al212  1  -0.00274950  0.32324607  0.67923309  1
  Al  Al213  1  0.18987243  -0.00189938  0.31910594  1
  Al  Al214  1  0.67355758  0.17962725  -0.00268661  1
  Al  Al215  1  0.16717522  0.16959006  -0.00096640  1
  Al  Al216  1  0.17934200  -0.00207687  0.82693148  1
  Al  Al217  1  0.17182474  0.33418494  0.50043939  1
  Al  Al218  1  0.31162557  0.49971240  0.82856928  1
  Al  Al219  1  0.82818266  0.17839959  0.00002645  1
  Al  Al220  1  0.82179781  -0.00148184  0.17668100  1
  Al  Al221  1  0.32939675  0.17089817  0.50146168  1
  Al  Al222  1  0.18184248  -0.00149670  0.67116274  1
  Al  Al223  1  0.49845903  0.18088686  0.31331351  1
  Al  Al224  1  0.82107941  0.00174459  0.33096509  1
  Al  Al225  1  0.81580083  0.00115112  0.67220899  1
  Al  Al226  1  0.49936798  0.66641248  0.18265236  1
  Al  Al227  1  0.30878397  0.80688650  0.00206389  1
  Al  Al228  1  0.17017253  0.16703532  0.50139924  1
  Al  Al229  1  0.49882669  0.81875565  0.67438206  1
  Al  Al230  1  -0.00074289  0.18218752  0.17293885  1
  Al  Al231  1  0.67555304  0.81363087  -0.00107239  1
  Al  Al232  1  0.50189615  0.18380695  0.81321929  1
  Al  Al233  1  0.68429607  0.82830907  0.50142465  1
  Al  Al234  1  0.50014993  0.67441175  0.82157615  1
  Al  Al235  1  0.16737651  0.33368151  -0.00038298  1
  Al  Al236  1  0.68423555  0.50190464  0.32786259  1
  Al  Al237  1  0.32806970  0.32606719  0.50149921  1
  Al  Al238  1  0.68153973  0.49959925  0.17146457  1
  Au  Au239  1  0.82990399  0.84539471  0.00440495  1
  Au  Au240  1  -0.00020643  0.67221915  0.82782272  1
  Au  Au241  1  0.17699238  0.34940522  0.49973912  1
  Au  Au242  1  -0.00223864  0.32701988  0.66696710  1
  Au  Au243  1  0.15873614  0.50229643  0.18115100  1
  Au  Au244  1  0.32780212  0.50110413  0.82351358  1
  Au  Au245  1  0.66443317  -0.00025785  0.67222081  1
  Au  Au246  1  0.83087737  0.16225687  -0.00034597  1
  Au  Au247  1  0.66492727  0.50053897  0.17463680  1
  Au  Au248  1  0.33884527  0.15394390  0.00223775  1
  Au  Au249  1  0.83417121  -0.00105595  0.82256327  1
  Au  Au250  1  0.34948976  0.33655408  -0.00176264  1
  Au  Au251  1  0.49781917  0.16713346  0.32272385  1
  Au  Au252  1  0.33273947  0.68079588  0.49620871  1
  Au  Au253  1  0.00212858  0.83748468  0.32848600  1
  Au  Au254  1  0.82004310  0.49958448  0.81446229  1
  Au  Au255  1  -0.00168683  0.65985014  0.32167413  1
  Au  Au256  1  0.50487693  0.17232145  0.82568360  1
  Au  Au257  1  0.16733413  -0.00371185  0.82382340  1
  Au  Au258  1  0.50045496  0.83848583  0.16474363  1
  Au  Au259  1  0.67274874  0.00251357  0.15893240  1
  Au  Au260  1  0.33175932  0.00002879  0.18042564  1
  Au  Au261  1  0.18305339  0.67584048  -0.00029918  1
  Au  Au262  1  0.84095648  0.49940578  0.18094847  1
  Au  Au263  1  0.17370911  0.15144545  0.50329501  1
  Au  Au264  1  0.49892589  0.34481552  0.32858391  1
  Au  Au265  1  0.66471509  0.66783810  0.49893974  1
  Au  Au266  1  0.83028896  0.34174714  -0.00157723  1
  Au  Au267  1  0.49673963  0.82605423  0.34306530  1
  Au  Au268  1  0.67375148  0.33485011  0.49961789  1
  Au  Au269  1  0.83697245  0.00140399  0.33463559  1
  Au  Au270  1  0.50018992  0.66329470  0.16614229  1
  Au  Au271  1  -0.00129614  0.83061278  0.67006366  1
  Au  Au272  1  0.16675163  0.35096576  -0.00277538  1
  Au  Au273  1  -0.00122620  0.16830158  0.32610454  1
  Au  Au274  1  0.33250595  -0.00285954  0.82515251  1
  Au  Au275  1  0.66076902  -0.00180659  0.33218849  1
  Au  Au276  1  0.33138914  0.50050316  0.17665208  1
  Au  Au277  1  0.84088618  0.67393928  0.50407282  1
  Au  Au278  1  -0.00090771  0.32081425  0.83288556  1
  Au  Au279  1  0.15910127  0.67155625  0.50373964  1
  Au  Au280  1  0.16355497  -0.00513089  0.17338773  1
  Au  Au281  1  -0.00251052  0.33552543  0.32305927  1
  Au  Au282  1  0.49975502  0.32901242  0.67119492  1
  Au  Au283  1  0.49893045  0.66630701  0.67305642  1
  Au  Au284  1  0.65850641  0.32900182  -0.00552537  1
  Au  Au285  1  0.15160749  0.16504402  -0.00126452  1
  Au  Au286  1  0.67445162  0.16614920  0.50219729  1
  Au  Au287  1  0.82075463  0.65672460  0.00022297  1
