# generated using pymatgen
data_Ca24Ti8Al207Au49
_symmetry_space_group_name_H-M   'P 1'
_cell_length_a   17.32552500
_cell_length_b   17.32501089
_cell_length_c   17.32325219
_cell_angle_alpha   90.00252969
_cell_angle_beta   89.99203503
_cell_angle_gamma   90.00198738
_symmetry_Int_Tables_number   1
_chemical_formula_structural   Ca24Ti8Al207Au49
_chemical_formula_sum   'Ca24 Ti8 Al207 Au49'
_cell_volume   5199.83236577
_cell_formula_units_Z   1
loop_
 _symmetry_equiv_pos_site_id
 _symmetry_equiv_pos_as_xyz
  1  'x, y, z'
loop_
 _atom_site_type_symbol
 _atom_site_label
 _atom_site_symmetry_multiplicity
 _atom_site_fract_x
 _atom_site_fract_y
 _atom_site_fract_z
 _atom_site_occupancy
  Ca  Ca0  1  0.25163653  0.00206826  -0.00065943  1
  Ca  Ca1  1  0.25448067  0.00145166  0.49838370  1
  Ca  Ca2  1  0.24884195  0.49660752  0.00233693  1
  Ca  Ca3  1  0.25229214  0.50061736  0.49337166  1
  Ca  Ca4  1  0.75052869  0.00416287  0.00241853  1
  Ca  Ca5  1  0.75084913  0.00132579  0.49604750  1
  Ca  Ca6  1  0.75413865  0.49547878  -0.00028414  1
  Ca  Ca7  1  0.75818075  0.49898895  0.49638183  1
  Ca  Ca8  1  0.00066649  0.24983519  0.00155061  1
  Ca  Ca9  1  0.00285060  0.24516391  0.49945599  1
  Ca  Ca10  1  0.00139095  0.75269361  0.00210618  1
  Ca  Ca11  1  0.00337585  0.75192948  0.49751420  1
  Ca  Ca12  1  0.50037415  0.24632499  0.00159831  1
  Ca  Ca13  1  0.49780040  0.24326701  0.49912322  1
  Ca  Ca14  1  0.49541951  0.75877216  0.00541208  1
  Ca  Ca15  1  0.49402768  0.75267741  0.49051561  1
  Ca  Ca16  1  -0.00114678  0.00315256  0.25359646  1
  Ca  Ca17  1  0.00381910  0.00479380  0.75182862  1
  Ca  Ca18  1  0.00314775  0.49693421  0.24921331  1
  Ca  Ca19  1  -0.00163025  0.49280635  0.75167052  1
  Ca  Ca20  1  0.49940663  0.00314336  0.25048488  1
  Ca  Ca21  1  0.49663506  0.00549897  0.74880278  1
  Ca  Ca22  1  0.49663140  0.49815206  0.25229341  1
  Ca  Ca23  1  0.50231291  0.49655958  0.74750419  1
  Ti  Ti24  1  0.25165653  0.24832561  0.24863332  1
  Ti  Ti25  1  0.25021855  0.24965476  0.75304427  1
  Ti  Ti26  1  0.25104411  0.75045794  0.24869165  1
  Ti  Ti27  1  0.25014672  0.75148904  0.75153872  1
  Ti  Ti28  1  0.74790828  0.24941001  0.24777544  1
  Ti  Ti29  1  0.74982117  0.24933411  0.75393173  1
  Ti  Ti30  1  0.75082672  0.75141804  0.25032789  1
  Ti  Ti31  1  0.75177745  0.75130302  0.75038303  1
  Al  Al32  1  0.07909776  0.08543663  0.08225314  1
  Al  Al33  1  0.08251148  0.08639718  0.58095866  1
  Al  Al34  1  0.08247839  0.58245313  0.08536506  1
  Al  Al35  1  0.07758082  0.58142886  0.57550268  1
  Al  Al36  1  0.58396397  0.08131948  0.09139421  1
  Al  Al37  1  0.57603663  0.08580872  0.58261550  1
  Al  Al38  1  0.57362437  0.57512625  0.08668267  1
  Al  Al39  1  0.58134198  0.57628518  0.56690284  1
  Al  Al40  1  0.41808539  0.41206127  0.08978719  1
  Al  Al41  1  0.42031635  0.41369146  0.57972681  1
  Al  Al42  1  0.42265347  0.92530064  0.08459678  1
  Al  Al43  1  0.40814261  0.91776462  0.57831851  1
  Al  Al44  1  0.91055700  0.41283977  0.07493731  1
  Al  Al45  1  0.91082156  0.41705357  0.59419232  1
  Al  Al46  1  0.91719829  0.91792632  0.09556338  1
  Al  Al47  1  0.91250548  0.92760329  0.57680594  1
  Al  Al48  1  0.41552277  0.08708193  0.41847009  1
  Al  Al49  1  0.40453382  0.09104923  0.91699560  1
  Al  Al50  1  0.41354253  0.59151409  0.40393940  1
  Al  Al51  1  0.41693161  0.57257077  0.92870297  1
  Al  Al52  1  0.92524468  0.09067489  0.41632035  1
  Al  Al53  1  0.91911538  0.08592953  0.91754983  1
  Al  Al54  1  0.92186732  0.58257127  0.41898548  1
  Al  Al55  1  0.92383356  0.58287817  0.90755757  1
  Al  Al56  1  0.08207568  0.41612754  0.41028321  1
  Al  Al57  1  0.07335691  0.40996846  0.91453696  1
  Al  Al58  1  0.09185431  0.92374210  0.41077336  1
  Al  Al59  1  0.08534638  0.92056530  0.90848240  1
  Al  Al60  1  0.57634565  0.41540496  0.41865698  1
  Al  Al61  1  0.57910208  0.40302327  0.91580465  1
  Al  Al62  1  0.57413324  0.91894734  0.40487744  1
  Al  Al63  1  0.58027393  0.92416642  0.92865076  1
  Al  Al64  1  0.08905701  0.08590269  0.40814347  1
  Al  Al65  1  0.08826115  0.08187698  0.91219950  1
  Al  Al66  1  0.08516952  0.58266440  0.41432367  1
  Al  Al67  1  0.07860143  0.59035576  0.91319498  1
  Al  Al68  1  0.57807920  0.08315208  0.40694843  1
  Al  Al69  1  0.57682162  0.08495041  0.91877980  1
  Al  Al70  1  0.57557051  0.59469909  0.41003388  1
  Al  Al71  1  0.57523315  0.56673340  0.92721766  1
  Al  Al72  1  0.40974671  0.42006305  0.40956421  1
  Al  Al73  1  0.42203973  0.40594354  0.91700332  1
  Al  Al74  1  0.41269705  0.90795124  0.41570714  1
  Al  Al75  1  0.40953036  0.93070057  0.91326313  1
  Al  Al76  1  0.92300180  0.41434296  0.41629047  1
  Al  Al77  1  0.91284954  0.40190165  0.91453232  1
  Al  Al78  1  0.92351729  0.91887909  0.42093833  1
  Al  Al79  1  0.92294503  0.91753897  0.91714003  1
  Al  Al80  1  0.07962238  0.42294129  0.07841939  1
  Al  Al81  1  0.07334971  0.41730634  0.58009036  1
  Al  Al82  1  0.07618914  0.91199710  0.09102826  1
  Al  Al83  1  0.08772262  0.92502066  0.57572238  1
  Al  Al84  1  0.57820643  0.41012668  0.08647820  1
  Al  Al85  1  0.58044237  0.41249838  0.58371003  1
  Al  Al86  1  0.58971643  0.92062970  0.09167829  1
  Al  Al87  1  0.57180696  0.92672227  0.57789334  1
  Al  Al88  1  0.41286543  0.08833917  0.08146466  1
  Al  Al89  1  0.41136727  0.08643177  0.58312432  1
  Al  Al90  1  0.41301882  0.57933630  0.08862606  1
  Al  Al91  1  0.41579704  0.57760433  0.56766177  1
  Al  Al92  1  0.91682172  0.08322829  0.08861542  1
  Al  Al93  1  0.91805232  0.08615841  0.58304267  1
  Al  Al94  1  0.92495566  0.57517558  0.08580228  1
  Al  Al95  1  0.90870195  0.57672740  0.59063846  1
  Al  Al96  1  0.25003935  0.13509702  0.13217139  1
  Al  Al97  1  0.25277632  0.13642787  0.63584797  1
  Al  Al98  1  0.25168795  0.63561168  0.13299758  1
  Al  Al99  1  0.25092986  0.63591241  0.63615976  1
  Al  Al100  1  0.74548221  0.13817222  0.13147849  1
  Al  Al101  1  0.74557779  0.13765853  0.63844465  1
  Al  Al102  1  0.75243124  0.63713243  0.13584588  1
  Al  Al103  1  0.75530479  0.63534672  0.63565673  1
  Al  Al104  1  0.25416710  0.36152162  0.12871417  1
  Al  Al105  1  0.25178482  0.36178178  0.63996227  1
  Al  Al106  1  0.24773935  0.86401173  0.13011423  1
  Al  Al107  1  0.25146904  0.86676175  0.63339743  1
  Al  Al108  1  0.74892460  0.36115008  0.13001777  1
  Al  Al109  1  0.75252116  0.36483947  0.63719201  1
  Al  Al110  1  0.74965265  0.86475785  0.13778639  1
  Al  Al111  1  0.75048275  0.86645198  0.63685925  1
  Al  Al112  1  0.25583862  0.12827792  0.36228332  1
  Al  Al113  1  0.25234258  0.13770181  0.87308299  1
  Al  Al114  1  0.25214671  0.62883377  0.36196403  1
  Al  Al115  1  0.24870703  0.63492297  0.87285838  1
  Al  Al116  1  0.74560578  0.13573234  0.36171729  1
  Al  Al117  1  0.75111219  0.13594425  0.87256039  1
  Al  Al118  1  0.75235113  0.63462465  0.36279534  1
  Al  Al119  1  0.75600441  0.63186863  0.86477254  1
  Al  Al120  1  0.25314831  0.36830145  0.36033732  1
  Al  Al121  1  0.24938008  0.36029676  0.87253843  1
  Al  Al122  1  0.25417756  0.87134768  0.36184302  1
  Al  Al123  1  0.24948018  0.86448709  0.87214419  1
  Al  Al124  1  0.74885779  0.36098927  0.36506785  1
  Al  Al125  1  0.75360100  0.36055696  0.87216441  1
  Al  Al126  1  0.74956088  0.86458555  0.36008300  1
  Al  Al127  1  0.75273887  0.86979840  0.86531016  1
  Al  Al128  1  0.13749400  0.24864856  0.13013317  1
  Al  Al129  1  0.13591449  0.25003678  0.63613439  1
  Al  Al130  1  0.13181833  0.74948875  0.13368360  1
  Al  Al131  1  0.13643324  0.74915619  0.63495838  1
  Al  Al132  1  0.62759432  0.25062153  0.13118692  1
  Al  Al133  1  0.63452571  0.25291537  0.63737634  1
  Al  Al134  1  0.63200771  0.75171461  0.13905654  1
  Al  Al135  1  0.63854397  0.74950522  0.63691312  1
  Al  Al136  1  0.13997552  0.24558013  0.36491442  1
  Al  Al137  1  0.13203821  0.24883308  0.87063570  1
  Al  Al138  1  0.13990983  0.75251218  0.36338260  1
  Al  Al139  1  0.13690315  0.74954155  0.87068163  1
  Al  Al140  1  0.62998326  0.24445295  0.36339547  1
  Al  Al141  1  0.63285944  0.24906134  0.87060269  1
  Al  Al142  1  0.63023011  0.75310917  0.36228837  1
  Al  Al143  1  0.63764688  0.75358284  0.86172644  1
  Al  Al144  1  0.36966653  0.24644221  0.13288953  1
  Al  Al145  1  0.36563316  0.24789620  0.63440217  1
  Al  Al146  1  0.36488437  0.75176980  0.13260213  1
  Al  Al147  1  0.36118756  0.75126575  0.62766522  1
  Al  Al148  1  0.86339390  0.24938003  0.12989196  1
  Al  Al149  1  0.86571846  0.25335883  0.63754978  1
  Al  Al150  1  0.87172713  0.75284172  0.13580297  1
  Al  Al151  1  0.86734229  0.74643927  0.63676848  1
  Al  Al152  1  0.36713137  0.24406740  0.36740513  1
  Al  Al153  1  0.36712830  0.24927499  0.87182625  1
  Al  Al154  1  0.36018197  0.75065232  0.36942616  1
  Al  Al155  1  0.36350721  0.75335289  0.87211635  1
  Al  Al156  1  0.86540110  0.24582200  0.36458446  1
  Al  Al157  1  0.87025527  0.25015436  0.87029941  1
  Al  Al158  1  0.86608215  0.75058691  0.36312820  1
  Al  Al159  1  0.86543113  0.74914784  0.86494496  1
  Al  Al160  1  0.13629249  0.13430666  0.25629776  1
  Al  Al161  1  0.13752468  0.13725482  0.75385948  1
  Al  Al162  1  0.13754211  0.63588749  0.24875067  1
  Al  Al163  1  0.13820356  0.63244431  0.75566138  1
  Al  Al164  1  0.62802116  0.13752952  0.24517383  1
  Al  Al165  1  0.63544692  0.13123865  0.75760749  1
  Al  Al166  1  0.63285227  0.63808702  0.25564732  1
  Al  Al167  1  0.63874667  0.63401367  0.75092952  1
  Al  Al168  1  0.37258499  0.13653896  0.25065219  1
  Al  Al169  1  0.36387979  0.13539786  0.75760384  1
  Al  Al170  1  0.36787032  0.63665949  0.25540535  1
  Al  Al171  1  0.36113195  0.63873177  0.75321738  1
  Al  Al172  1  0.86315203  0.13735815  0.24950564  1
  Al  Al173  1  0.86473554  0.13760592  0.75643545  1
  Al  Al174  1  0.86675915  0.63569282  0.24770208  1
  Al  Al175  1  0.86439950  0.62941310  0.75194286  1
  Al  Al176  1  0.13709511  0.36098194  0.25121583  1
  Al  Al177  1  0.13202411  0.36471933  0.75309195  1
  Al  Al178  1  0.13813394  0.86506829  0.24950171  1
  Al  Al179  1  0.13881653  0.86381300  0.75106061  1
  Al  Al180  1  0.63061434  0.36279178  0.24812126  1
  Al  Al181  1  0.63080477  0.36114641  0.75491140  1
  Al  Al182  1  0.63055529  0.86520981  0.24915224  1
  Al  Al183  1  0.63651300  0.87115459  0.75026971  1
  Al  Al184  1  0.36771474  0.35986993  0.24738985  1
  Al  Al185  1  0.37069439  0.35829554  0.75408268  1
  Al  Al186  1  0.37261364  0.86202489  0.25541388  1
  Al  Al187  1  0.36129655  0.86296209  0.75219408  1
  Al  Al188  1  0.86359446  0.36070995  0.25024920  1
  Al  Al189  1  0.86705517  0.36324035  0.75423197  1
  Al  Al190  1  0.86735010  0.86682656  0.24762072  1
  Al  Al191  1  0.86413447  0.86577545  0.75266192  1
  Al  Al192  1  0.68008791  0.82654467  0.00134787  1
  Al  Al193  1  0.67189789  0.83484516  0.49812512  1
  Al  Al194  1  0.67748840  0.31947509  0.49736017  1
  Al  Al195  1  0.32073137  0.31870611  0.49871172  1
  Al  Al196  1  0.00192283  0.30732429  0.32175803  1
  Al  Al197  1  0.49745925  0.82684888  0.67155957  1
  Al  Al198  1  0.32406417  0.49555533  0.82884212  1
  Al  Al199  1  0.32457908  -0.00013933  0.18358735  1
  Al  Al200  1  0.82555469  0.49683673  0.17704402  1
  Al  Al201  1  0.81013213  0.00305955  0.17915576  1
  Al  Al202  1  -0.00024262  0.32902564  0.16958508  1
  Al  Al203  1  0.18705853  0.17274813  0.49873163  1
  Al  Al204  1  0.16920438  0.32630155  0.49944618  1
  Al  Al205  1  0.32916589  0.49997542  0.67199951  1
  Al  Al206  1  0.00201833  0.81383130  0.82380621  1
  Al  Al207  1  0.16940438  0.00116731  0.18036574  1
  Al  Al208  1  0.68380422  0.50165134  0.66992651  1
  Al  Al209  1  0.82516819  0.81904979  0.49989664  1
  Al  Al210  1  0.32119188  0.00074859  0.68636295  1
  Al  Al211  1  0.81836799  0.00383748  0.67869722  1
  Al  Al212  1  0.17210233  0.49844300  0.67206796  1
  Al  Al213  1  0.00013293  0.18144717  0.68174476  1
  Al  Al214  1  0.49750462  0.31680983  0.32245713  1
  Al  Al215  1  0.49923511  0.83104347  0.82972603  1
  Al  Al216  1  0.00084836  0.83171735  0.66939208  1
  Al  Al217  1  0.67569703  0.00123459  0.30869304  1
  Al  Al218  1  0.67679432  0.50119440  0.32974321  1
  Al  Al219  1  0.49962577  0.66988763  0.82761022  1
  Al  Al220  1  0.68210347  0.67614664  0.49787560  1
  Al  Al221  1  0.67339442  0.49889064  0.17286949  1
  Al  Al222  1  0.32564315  0.49795211  0.18598903  1
  Al  Al223  1  0.19307922  0.00063613  0.81705714  1
  Al  Al224  1  0.83200392  0.67682702  0.00064732  1
  Al  Al225  1  0.50092430  0.67962779  0.18382329  1
  Al  Al226  1  0.17882064  0.67629907  0.49865443  1
  Al  Al227  1  0.81866815  0.17922201  0.50114728  1
  Al  Al228  1  0.66880484  0.66914401  0.00148090  1
  Al  Al229  1  0.17518609  0.49740845  0.17956217  1
  Al  Al230  1  0.49964288  0.66758198  0.66633299  1
  Al  Al231  1  0.18426230  0.82925940  0.49715629  1
  Al  Al232  1  0.68064158  0.49640878  0.82862200  1
  Al  Al233  1  0.00099157  0.66988993  0.68821437  1
  Al  Al234  1  0.00094468  0.17810551  0.18920536  1
  Al  Al235  1  0.49956068  0.18186122  0.68327243  1
  Al  Al236  1  0.82914824  0.00147212  0.33121125  1
  Al  Al237  1  0.00250603  0.83072145  0.31964798  1
  Al  Al238  1  0.00260661  0.67739468  0.32067959  1
  Au  Au239  1  0.17634087  0.49911444  0.32892715  1
  Au  Au240  1  0.17351261  0.00447023  0.67022524  1
  Au  Au241  1  0.66847596  0.32809280  0.49953736  1
  Au  Au242  1  0.00287842  0.17417972  0.83058000  1
  Au  Au243  1  0.16217158  0.83512624  0.00022358  1
  Au  Au244  1  0.17235708  -0.00049020  0.16788025  1
  Au  Au245  1  0.33369354  0.00021919  0.33284948  1
  Au  Au246  1  0.49655228  0.17321418  0.83259412  1
  Au  Au247  1  0.84140092  0.66364621  0.00060532  1
  Au  Au248  1  0.33966746  0.32103348  0.00388807  1
  Au  Au249  1  0.66854051  0.16507644  0.00241419  1
  Au  Au250  1  0.49942907  0.33114827  0.67791408  1
  Au  Au251  1  0.00019786  0.65517237  0.68070575  1
  Au  Au252  1  0.33340696  0.84073777  0.00237266  1
  Au  Au253  1  0.17470354  0.16438334  0.00042849  1
  Au  Au254  1  0.82964399  0.84396838  0.00302607  1
  Au  Au255  1  0.84042313  0.49495285  0.82563095  1
  Au  Au256  1  0.34044089  0.49441012  0.82437049  1
  Au  Au257  1  0.67259037  0.33235334  0.00271730  1
  Au  Au258  1  0.16638701  0.66707657  0.00174709  1
  Au  Au259  1  0.84079030  0.32780946  0.50075710  1
  Au  Au260  1  0.83368262  0.66814131  0.50060541  1
  Au  Au261  1  0.66438739  0.50158379  0.32606931  1
  Au  Au262  1  0.84143464  0.49869288  0.32481903  1
  Au  Au263  1  0.66802548  0.16257430  0.49640351  1
  Au  Au264  1  0.50082841  0.67400354  0.65059333  1
  Au  Au265  1  0.33015805  0.32922669  0.49877458  1
  Au  Au266  1  0.00118665  0.67389211  0.17290854  1
  Au  Au267  1  0.17519260  0.49841822  0.65939994  1
  Au  Au268  1  0.49822503  0.17183695  0.17201024  1
  Au  Au269  1  0.49509072  0.32948651  0.32219046  1
  Au  Au270  1  0.83726698  0.17506132  0.00202321  1
  Au  Au271  1  0.66935742  0.00051626  0.83692756  1
  Au  Au272  1  0.15639286  0.49747494  0.83155175  1
  Au  Au273  1  0.49990822  0.84349486  0.82690111  1
  Au  Au274  1  0.33200527  0.66725402  0.00313032  1
  Au  Au275  1  0.83945446  0.00040052  0.82607357  1
  Au  Au276  1  0.49771643  0.66764223  0.84340918  1
  Au  Au277  1  0.66865681  0.00155188  0.66460343  1
  Au  Au278  1  0.65730311  0.82750355  0.49683082  1
  Au  Au279  1  0.16666734  0.33262999  0.00014069  1
  Au  Au280  1  0.00019848  0.33020741  0.67615569  1
  Au  Au281  1  0.65310107  0.67533820  0.00217726  1
  Au  Au282  1  0.66327894  0.49396534  0.83102302  1
  Au  Au283  1  0.67833818  0.50302518  0.65375154  1
  Au  Au284  1  0.32613386  0.67258796  0.49605773  1
  Au  Au285  1  -0.00406429  0.84723915  0.67075787  1
  Au  Au286  1  0.49836392  0.67052162  0.17501087  1
  Au  Au287  1  0.50003788  0.83669758  0.17844546  1
