# generated using pymatgen
data_Ca24Ti8Al207Au49
_symmetry_space_group_name_H-M   'P 1'
_cell_length_a   17.31951369
_cell_length_b   17.32195745
_cell_length_c   17.32121123
_cell_angle_alpha   89.99627841
_cell_angle_beta   89.99900842
_cell_angle_gamma   89.99412028
_symmetry_Int_Tables_number   1
_chemical_formula_structural   Ca24Ti8Al207Au49
_chemical_formula_sum   'Ca24 Ti8 Al207 Au49'
_cell_volume   5196.49980626
_cell_formula_units_Z   1
loop_
 _symmetry_equiv_pos_site_id
 _symmetry_equiv_pos_as_xyz
  1  'x, y, z'
loop_
 _atom_site_type_symbol
 _atom_site_label
 _atom_site_symmetry_multiplicity
 _atom_site_fract_x
 _atom_site_fract_y
 _atom_site_fract_z
 _atom_site_occupancy
  Ca  Ca0  1  0.25324642  -0.00230687  0.00076615  1
  Ca  Ca1  1  0.25210250  -0.00278181  0.50068842  1
  Ca  Ca2  1  0.24980447  0.50075818  -0.00507922  1
  Ca  Ca3  1  0.24612177  0.49749235  0.50576190  1
  Ca  Ca4  1  0.74993359  -0.00071386  0.00071180  1
  Ca  Ca5  1  0.75596865  0.00065915  0.49894701  1
  Ca  Ca6  1  0.75110887  0.50352478  0.00398959  1
  Ca  Ca7  1  0.75488785  0.49999433  0.49176560  1
  Ca  Ca8  1  0.00025079  0.25368896  -0.00055167  1
  Ca  Ca9  1  -0.00092170  0.25328350  0.50427772  1
  Ca  Ca10  1  -0.00066015  0.74893253  0.00361881  1
  Ca  Ca11  1  0.00179207  0.75046188  0.49559051  1
  Ca  Ca12  1  0.49989800  0.25038438  -0.00517321  1
  Ca  Ca13  1  0.50012304  0.25110914  0.50820912  1
  Ca  Ca14  1  0.49789408  0.75074022  -0.00066465  1
  Ca  Ca15  1  0.49663940  0.75022297  0.49876431  1
  Ca  Ca16  1  -0.00143888  0.00132234  0.25524795  1
  Ca  Ca17  1  -0.00157630  0.00355211  0.74375157  1
  Ca  Ca18  1  0.00383859  0.49888597  0.25209541  1
  Ca  Ca19  1  0.00266384  0.49785673  0.74945725  1
  Ca  Ca20  1  0.50176538  -0.00192807  0.24975578  1
  Ca  Ca21  1  0.49971128  -0.00014721  0.74969880  1
  Ca  Ca22  1  0.49897212  0.50166119  0.25286239  1
  Ca  Ca23  1  0.49893041  0.50018805  0.74996638  1
  Ti  Ti24  1  0.24770137  0.25011497  0.25008241  1
  Ti  Ti25  1  0.25072000  0.25216144  0.74931544  1
  Ti  Ti26  1  0.24841968  0.74992062  0.25144972  1
  Ti  Ti27  1  0.24956660  0.74792447  0.74748749  1
  Ti  Ti28  1  0.75046713  0.24995432  0.25032228  1
  Ti  Ti29  1  0.74977096  0.24769151  0.74887146  1
  Ti  Ti30  1  0.75061815  0.75121384  0.25102784  1
  Ti  Ti31  1  0.75049786  0.75157763  0.75096200  1
  Al  Al32  1  0.07956556  0.08279786  0.08361582  1
  Al  Al33  1  0.07355241  0.08508533  0.59225931  1
  Al  Al34  1  0.09225758  0.57662909  0.08697516  1
  Al  Al35  1  0.09330265  0.57595974  0.58679180  1
  Al  Al36  1  0.58256462  0.07959833  0.07805195  1
  Al  Al37  1  0.57467637  0.09043669  0.58998428  1
  Al  Al38  1  0.58679919  0.57711447  0.07914828  1
  Al  Al39  1  0.57270815  0.57648538  0.56973227  1
  Al  Al40  1  0.41815486  0.42518772  0.07165026  1
  Al  Al41  1  0.41020413  0.41863072  0.59734507  1
  Al  Al42  1  0.41446865  0.90733863  0.07996566  1
  Al  Al43  1  0.40342029  0.91632951  0.58517799  1
  Al  Al44  1  0.92350842  0.41419891  0.09271500  1
  Al  Al45  1  0.92428784  0.41283885  0.59325196  1
  Al  Al46  1  0.90772953  0.91183032  0.08481420  1
  Al  Al47  1  0.90787276  0.92562431  0.58064377  1
  Al  Al48  1  0.41870955  0.07054158  0.42082542  1
  Al  Al49  1  0.41787894  0.08606438  0.91444696  1
  Al  Al50  1  0.40814266  0.59196681  0.42878252  1
  Al  Al51  1  0.40874073  0.58906362  0.91274417  1
  Al  Al52  1  0.91249948  0.08955672  0.42571464  1
  Al  Al53  1  0.92126521  0.07984669  0.91062268  1
  Al  Al54  1  0.91214890  0.57842139  0.40955673  1
  Al  Al55  1  0.90192252  0.58454585  0.91607411  1
  Al  Al56  1  0.08220742  0.41616143  0.40444589  1
  Al  Al57  1  0.08561187  0.42062050  0.91348611  1
  Al  Al58  1  0.07824959  0.90733874  0.41266632  1
  Al  Al59  1  0.08197370  0.92171317  0.92570859  1
  Al  Al60  1  0.59341376  0.42642331  0.41909598  1
  Al  Al61  1  0.58365971  0.40652072  0.91586820  1
  Al  Al62  1  0.58339749  0.91554139  0.41704319  1
  Al  Al63  1  0.58377346  0.91940143  0.91848272  1
  Al  Al64  1  0.07384243  0.07756135  0.42017716  1
  Al  Al65  1  0.07843883  0.08401054  0.91408074  1
  Al  Al66  1  0.08899811  0.57881337  0.41158875  1
  Al  Al67  1  0.09060632  0.57722519  0.92063665  1
  Al  Al68  1  0.58146648  0.07793701  0.42253586  1
  Al  Al69  1  0.58226573  0.08331208  0.91251636  1
  Al  Al70  1  0.59322334  0.58116675  0.40883077  1
  Al  Al71  1  0.58051794  0.58448591  0.91901645  1
  Al  Al72  1  0.42222521  0.43044277  0.43286060  1
  Al  Al73  1  0.41958394  0.41860117  0.90852458  1
  Al  Al74  1  0.40615930  0.90976526  0.42165023  1
  Al  Al75  1  0.40921823  0.91202762  0.91969189  1
  Al  Al76  1  0.91794657  0.41529664  0.40260503  1
  Al  Al77  1  0.91432775  0.42462708  0.90777450  1
  Al  Al78  1  0.91579208  0.90794730  0.41897248  1
  Al  Al79  1  0.90636558  0.91459385  0.92450428  1
  Al  Al80  1  0.08593043  0.41465029  0.09940607  1
  Al  Al81  1  0.08591986  0.41468094  0.59647890  1
  Al  Al82  1  0.08156848  0.91478881  0.08317152  1
  Al  Al83  1  0.08556267  0.92368841  0.57559708  1
  Al  Al84  1  0.59879010  0.41698163  0.07535980  1
  Al  Al85  1  0.57086225  0.41007231  0.58262870  1
  Al  Al86  1  0.57947313  0.91563091  0.08065521  1
  Al  Al87  1  0.58079775  0.91993307  0.57754828  1
  Al  Al88  1  0.41534224  0.07986193  0.07526432  1
  Al  Al89  1  0.41419260  0.07957131  0.59639467  1
  Al  Al90  1  0.40788605  0.58879899  0.07080117  1
  Al  Al91  1  0.40126413  0.58137259  0.58827621  1
  Al  Al92  1  0.92080224  0.07466582  0.09063616  1
  Al  Al93  1  0.91015932  0.09082950  0.58950134  1
  Al  Al94  1  0.91213132  0.58549314  0.07757603  1
  Al  Al95  1  0.91711097  0.57321750  0.57823292  1
  Al  Al96  1  0.24834869  0.13648587  0.13613247  1
  Al  Al97  1  0.25551061  0.13684318  0.63739385  1
  Al  Al98  1  0.24842182  0.63661231  0.13742671  1
  Al  Al99  1  0.25249276  0.63247034  0.63010601  1
  Al  Al100  1  0.74804200  0.13542272  0.13605545  1
  Al  Al101  1  0.75803365  0.13443190  0.63294998  1
  Al  Al102  1  0.75348913  0.63747924  0.13230796  1
  Al  Al103  1  0.75120481  0.63645436  0.63394589  1
  Al  Al104  1  0.24520517  0.36906605  0.13996060  1
  Al  Al105  1  0.24920225  0.36892227  0.63698026  1
  Al  Al106  1  0.25416339  0.86528577  0.13589559  1
  Al  Al107  1  0.25263999  0.86262831  0.62758804  1
  Al  Al108  1  0.74730484  0.36554590  0.13627552  1
  Al  Al109  1  0.75252428  0.35960031  0.63681636  1
  Al  Al110  1  0.75105070  0.86272463  0.13157916  1
  Al  Al111  1  0.75051932  0.86740115  0.63089568  1
  Al  Al112  1  0.24765257  0.13715534  0.36455844  1
  Al  Al113  1  0.25068342  0.13739101  0.86015187  1
  Al  Al114  1  0.24950561  0.63731022  0.37136380  1
  Al  Al115  1  0.25133296  0.62851185  0.86212150  1
  Al  Al116  1  0.75333769  0.13042451  0.36475575  1
  Al  Al117  1  0.74985370  0.13547381  0.86440892  1
  Al  Al118  1  0.74974654  0.63399106  0.36535464  1
  Al  Al119  1  0.75304732  0.63588240  0.87209310  1
  Al  Al120  1  0.24379011  0.36750092  0.36282270  1
  Al  Al121  1  0.24761539  0.37405203  0.85999227  1
  Al  Al122  1  0.24889883  0.86150761  0.37021854  1
  Al  Al123  1  0.25465414  0.86292942  0.86531870  1
  Al  Al124  1  0.75313000  0.36775677  0.36384724  1
  Al  Al125  1  0.75039840  0.36243466  0.86204081  1
  Al  Al126  1  0.75305130  0.86783213  0.36960665  1
  Al  Al127  1  0.75313279  0.86341358  0.87185490  1
  Al  Al128  1  0.13287447  0.25517254  0.13222226  1
  Al  Al129  1  0.13193001  0.25288719  0.63782439  1
  Al  Al130  1  0.13479283  0.75166250  0.13549922  1
  Al  Al131  1  0.13967348  0.74667085  0.62641627  1
  Al  Al132  1  0.63692529  0.24925215  0.13156987  1
  Al  Al133  1  0.63507850  0.24767713  0.63530719  1
  Al  Al134  1  0.63847478  0.74878124  0.12983839  1
  Al  Al135  1  0.63746879  0.75367325  0.62954858  1
  Al  Al136  1  0.13032504  0.25606287  0.36462784  1
  Al  Al137  1  0.13753870  0.25177993  0.86489686  1
  Al  Al138  1  0.13608874  0.74897513  0.37089926  1
  Al  Al139  1  0.13869110  0.74721758  0.86268393  1
  Al  Al140  1  0.63652359  0.24658998  0.36341027  1
  Al  Al141  1  0.63598328  0.24915033  0.86684413  1
  Al  Al142  1  0.63332491  0.75267966  0.36741878  1
  Al  Al143  1  0.63908215  0.75001850  0.87397184  1
  Al  Al144  1  0.36465353  0.25300770  0.13523198  1
  Al  Al145  1  0.36881931  0.25491412  0.63898660  1
  Al  Al146  1  0.36285918  0.74819815  0.13269640  1
  Al  Al147  1  0.36303978  0.74715087  0.62965499  1
  Al  Al148  1  0.86554712  0.25736253  0.13533996  1
  Al  Al149  1  0.87104746  0.24710967  0.63617395  1
  Al  Al150  1  0.86670824  0.75165613  0.13506555  1
  Al  Al151  1  0.86366845  0.75345190  0.63214389  1
  Al  Al152  1  0.36286955  0.25011905  0.36325027  1
  Al  Al153  1  0.36409227  0.25308571  0.85970441  1
  Al  Al154  1  0.36594958  0.75105988  0.36890570  1
  Al  Al155  1  0.36150822  0.74709823  0.86573993  1
  Al  Al156  1  0.86278721  0.25042998  0.36646672  1
  Al  Al157  1  0.86519388  0.24714450  0.86351579  1
  Al  Al158  1  0.86509544  0.75422696  0.36893504  1
  Al  Al159  1  0.86569788  0.75067061  0.86777676  1
  Al  Al160  1  0.13235772  0.13723375  0.25111370  1
  Al  Al161  1  0.13592943  0.13577226  0.74520340  1
  Al  Al162  1  0.13777145  0.63196312  0.25285406  1
  Al  Al163  1  0.13956666  0.62905340  0.74617403  1
  Al  Al164  1  0.63294804  0.13376364  0.25019911  1
  Al  Al165  1  0.63120658  0.13740929  0.74710072  1
  Al  Al166  1  0.63573162  0.63768637  0.25387812  1
  Al  Al167  1  0.63797835  0.63685980  0.75555053  1
  Al  Al168  1  0.36789132  0.13748187  0.24766427  1
  Al  Al169  1  0.37382821  0.13748922  0.74686259  1
  Al  Al170  1  0.36465415  0.63706739  0.25647164  1
  Al  Al171  1  0.36229060  0.62891010  0.74814159  1
  Al  Al172  1  0.86498975  0.13659861  0.25045909  1
  Al  Al173  1  0.86397028  0.12894483  0.74785928  1
  Al  Al174  1  0.86442303  0.63783073  0.25478052  1
  Al  Al175  1  0.86268224  0.63580614  0.75272071  1
  Al  Al176  1  0.12969713  0.36580831  0.25063371  1
  Al  Al177  1  0.13595748  0.37029024  0.74647365  1
  Al  Al178  1  0.12963182  0.86143678  0.25278812  1
  Al  Al179  1  0.13663778  0.86137904  0.74507350  1
  Al  Al180  1  0.63510412  0.36565259  0.25440735  1
  Al  Al181  1  0.63342599  0.36421648  0.74768138  1
  Al  Al182  1  0.64034614  0.86874683  0.25272257  1
  Al  Al183  1  0.63534176  0.86190509  0.75131138  1
  Al  Al184  1  0.36657527  0.36671737  0.25006483  1
  Al  Al185  1  0.36387641  0.37476363  0.74777325  1
  Al  Al186  1  0.36349954  0.86034093  0.25210565  1
  Al  Al187  1  0.36316866  0.86166859  0.74537374  1
  Al  Al188  1  0.86793601  0.36527221  0.25382845  1
  Al  Al189  1  0.86472130  0.36204369  0.74870645  1
  Al  Al190  1  0.86898648  0.86266575  0.25310647  1
  Al  Al191  1  0.86182255  0.87163766  0.74990897  1
  Al  Al192  1  0.17218334  0.17173874  0.50329895  1
  Al  Al193  1  0.82899968  0.50010769  0.19159468  1
  Al  Al194  1  0.18548677  0.67291192  -0.00044298  1
  Al  Al195  1  0.00158459  0.67356247  0.17703245  1
  Al  Al196  1  0.31706788  -0.00089334  0.31871657  1
  Al  Al197  1  0.49824917  0.82618549  0.67519069  1
  Al  Al198  1  0.00125384  0.67970250  0.32904036  1
  Al  Al199  1  0.17785170  0.32625328  0.00062262  1
  Al  Al200  1  0.18398362  0.82472209  0.00005402  1
  Al  Al201  1  0.68258992  0.00214109  0.66843368  1
  Al  Al202  1  0.17071704  0.33099807  0.50052849  1
  Al  Al203  1  0.17643861  -0.00066129  0.18061988  1
  Al  Al204  1  0.49941934  0.31913020  0.81166313  1
  Al  Al205  1  0.67459119  0.50194286  0.18570435  1
  Al  Al206  1  -0.00239308  0.18386929  0.32838292  1
  Al  Al207  1  0.49969545  0.32422233  0.33556996  1
  Al  Al208  1  0.32573144  0.32827814  0.50117054  1
  Al  Al209  1  0.50245717  0.82452295  0.18087146  1
  Al  Al210  1  -0.00230312  0.83060762  0.82815170  1
  Al  Al211  1  0.81877027  -0.00146818  0.18418203  1
  Al  Al212  1  0.00032452  0.17529503  0.81089967  1
  Al  Al213  1  0.67048197  0.49930860  0.66702368  1
  Al  Al214  1  0.32621524  0.17013372  0.50191914  1
  Al  Al215  1  0.50023682  0.66905578  0.17476191  1
  Al  Al216  1  0.82553426  0.49876438  0.68549023  1
  Al  Al217  1  0.50396387  0.32604808  0.16784405  1
  Al  Al218  1  0.31884470  0.50297599  0.17467238  1
  Al  Al219  1  0.68506475  0.49958705  0.82821542  1
  Al  Al220  1  0.81867002  0.33070816  -0.00147803  1
  Al  Al221  1  0.68371942  0.16862244  0.50152636  1
  Al  Al222  1  0.82337495  0.17110869  0.00254456  1
  Al  Al223  1  0.67633358  0.32653529  0.49999179  1
  Al  Al224  1  0.68162537  -0.00079007  0.82511111  1
  Al  Al225  1  -0.00105406  0.18435764  0.17495487  1
  Al  Al226  1  0.17076622  -0.00158401  0.82463979  1
  Al  Al227  1  -0.00017182  0.66897279  0.82989382  1
  Al  Al228  1  0.32815108  0.00090708  0.81056745  1
  Al  Al229  1  0.83193600  0.32045309  0.50113193  1
  Al  Al230  1  0.82387538  0.67735243  0.50188946  1
  Al  Al231  1  -0.00515661  0.82969545  0.66968296  1
  Al  Al232  1  0.18552270  -0.00052995  0.67297090  1
  Al  Al233  1  0.49978745  0.67986218  0.82475816  1
  Al  Al234  1  0.31874092  0.18032676  -0.00157826  1
  Al  Al235  1  0.31567317  0.50044893  0.32863346  1
  Al  Al236  1  0.50046983  0.66856775  0.67133321  1
  Al  Al237  1  0.00198854  0.32926148  0.80995426  1
  Al  Al238  1  -0.00147233  0.67273554  0.67272135  1
  Au  Au239  1  0.50388465  0.33876961  0.15759041  1
  Au  Au240  1  0.83958252  -0.00033513  0.33305265  1
  Au  Au241  1  0.66745704  0.17443824  0.50184616  1
  Au  Au242  1  0.00277864  0.83401681  0.83898087  1
  Au  Au243  1  0.32644095  0.50104885  0.82591393  1
  Au  Au244  1  0.32352913  0.00067285  0.82670927  1
  Au  Au245  1  0.16852530  -0.00187618  0.33772273  1
  Au  Au246  1  0.83101508  -0.00062471  0.82747091  1
  Au  Au247  1  0.67454173  0.49561139  0.65106169  1
  Au  Au248  1  0.49799496  0.66543927  0.33846401  1
  Au  Au249  1  0.32047034  0.50219665  0.15746960  1
  Au  Au250  1  0.66959888  0.00089367  0.33078563  1
  Au  Au251  1  0.32096909  0.50123910  0.34481065  1
  Au  Au252  1  0.00359007  0.65797276  0.83440320  1
  Au  Au253  1  0.33982033  -0.00223553  0.17086398  1
  Au  Au254  1  -0.00001789  0.83398048  0.65921876  1
  Au  Au255  1  0.67822905  0.66688553  0.00191989  1
  Au  Au256  1  0.50046623  0.33555102  0.34753812  1
  Au  Au257  1  0.17106048  0.16159681  -0.00269021  1
  Au  Au258  1  0.82737851  0.34549016  -0.00111033  1
  Au  Au259  1  0.00169753  0.66295541  0.16799790  1
  Au  Au260  1  0.49606732  0.83644455  0.33040367  1
  Au  Au261  1  0.49741638  0.67063962  0.15856226  1
  Au  Au262  1  0.67238206  -0.00173737  0.16331096  1
  Au  Au263  1  0.49760761  0.15928107  0.33204484  1
  Au  Au264  1  0.67632541  0.49842042  0.84214805  1
  Au  Au265  1  0.83823172  0.16318307  0.00276775  1
  Au  Au266  1  -0.00040434  0.32778089  0.82677631  1
  Au  Au267  1  0.49687206  0.82370051  0.66271266  1
  Au  Au268  1  0.17731387  0.66060440  0.49957230  1
  Au  Au269  1  0.67678225  0.83436958  0.00102469  1
  Au  Au270  1  0.82728732  0.50197733  0.17482657  1
  Au  Au271  1  0.00353359  0.66501585  0.66424356  1
  Au  Au272  1  0.15967933  0.17483268  0.50328967  1
  Au  Au273  1  0.33849486  0.17289580  0.50274753  1
  Au  Au274  1  0.17179881  0.33722008  -0.00010550  1
  Au  Au275  1  0.66150586  0.17654078  -0.00194897  1
  Au  Au276  1  0.66656825  0.00176769  0.67446053  1
  Au  Au277  1  0.49825971  0.16267018  0.16544229  1
  Au  Au278  1  0.16721109  -0.00125147  0.17214610  1
  Au  Au279  1  0.66722298  0.67079394  0.49990331  1
  Au  Au280  1  0.83281220  0.66879627  0.49955655  1
  Au  Au281  1  0.17595290  0.83145175  0.49928480  1
  Au  Au282  1  -0.00271550  0.83762614  0.17680453  1
  Au  Au283  1  0.50000018  0.82758322  0.83940168  1
  Au  Au284  1  0.67796832  0.83663821  0.49931866  1
  Au  Au285  1  0.50183816  0.17190977  0.82165368  1
  Au  Au286  1  0.33400321  0.32750361  -0.00654087  1
  Au  Au287  1  0.83591901  0.33635163  0.50111406  1
