# generated using pymatgen
data_Ca24Ti8Al207Au49
_symmetry_space_group_name_H-M   'P 1'
_cell_length_a   17.32117740
_cell_length_b   17.32133722
_cell_length_c   17.32243214
_cell_angle_alpha   90.00322495
_cell_angle_beta   90.00062378
_cell_angle_gamma   90.00149909
_symmetry_Int_Tables_number   1
_chemical_formula_structural   Ca24Ti8Al207Au49
_chemical_formula_sum   'Ca24 Ti8 Al207 Au49'
_cell_volume   5197.17923459
_cell_formula_units_Z   1
loop_
 _symmetry_equiv_pos_site_id
 _symmetry_equiv_pos_as_xyz
  1  'x, y, z'
loop_
 _atom_site_type_symbol
 _atom_site_label
 _atom_site_symmetry_multiplicity
 _atom_site_fract_x
 _atom_site_fract_y
 _atom_site_fract_z
 _atom_site_occupancy
  Ca  Ca0  1  0.25755101  0.00242432  0.00014313  1
  Ca  Ca1  1  0.25604249  0.00059645  0.50238282  1
  Ca  Ca2  1  0.25599246  0.49545048  0.00019486  1
  Ca  Ca3  1  0.25367277  0.49936998  0.49920222  1
  Ca  Ca4  1  0.74714718  -0.00315119  -0.00214523  1
  Ca  Ca5  1  0.74821013  -0.00459275  0.50353973  1
  Ca  Ca6  1  0.74571865  0.50384933  0.00773624  1
  Ca  Ca7  1  0.75480438  0.50331901  0.49400603  1
  Ca  Ca8  1  0.00334535  0.25528052  0.00321764  1
  Ca  Ca9  1  0.00473053  0.25452309  0.49574480  1
  Ca  Ca10  1  -0.00050596  0.74515354  0.00276284  1
  Ca  Ca11  1  0.00075227  0.74659778  0.49818490  1
  Ca  Ca12  1  0.49864934  0.25148731  0.00693655  1
  Ca  Ca13  1  0.49260159  0.24957045  0.49590949  1
  Ca  Ca14  1  0.49886928  0.74811215  0.00270545  1
  Ca  Ca15  1  0.49721218  0.74810841  0.49596011  1
  Ca  Ca16  1  0.00219861  -0.00214790  0.24764680  1
  Ca  Ca17  1  -0.00088210  -0.00301818  0.74984035  1
  Ca  Ca18  1  -0.00489807  0.49833486  0.25231218  1
  Ca  Ca19  1  0.00420936  0.50078465  0.75017515  1
  Ca  Ca20  1  0.49588280  -0.00310633  0.25144515  1
  Ca  Ca21  1  0.50123272  -0.00322158  0.74955182  1
  Ca  Ca22  1  0.50225919  0.50283319  0.24814427  1
  Ca  Ca23  1  0.49516171  0.50362316  0.75457354  1
  Ti  Ti24  1  0.25060178  0.25163529  0.24992298  1
  Ti  Ti25  1  0.25077963  0.25184311  0.74953629  1
  Ti  Ti26  1  0.25055923  0.74896621  0.25088644  1
  Ti  Ti27  1  0.25114746  0.74840889  0.75004686  1
  Ti  Ti28  1  0.74876917  0.25261362  0.24712049  1
  Ti  Ti29  1  0.74820047  0.24771756  0.75196728  1
  Ti  Ti30  1  0.74951576  0.74974947  0.24964098  1
  Ti  Ti31  1  0.74997540  0.75073822  0.75084113  1
  Al  Al32  1  0.08592308  0.09716737  0.07783303  1
  Al  Al33  1  0.09787665  0.07856341  0.58409275  1
  Al  Al34  1  0.07639371  0.57970775  0.07831629  1
  Al  Al35  1  0.08105304  0.58875442  0.59079737  1
  Al  Al36  1  0.57279044  0.08912301  0.08494744  1
  Al  Al37  1  0.58156032  0.07898019  0.58259161  1
  Al  Al38  1  0.58880076  0.59446627  0.08997811  1
  Al  Al39  1  0.57554197  0.59605323  0.57621538  1
  Al  Al40  1  0.42200262  0.40684675  0.08511645  1
  Al  Al41  1  0.40785028  0.41397176  0.57802779  1
  Al  Al42  1  0.41730833  0.89725484  0.08870925  1
  Al  Al43  1  0.41410624  0.92409366  0.58219849  1
  Al  Al44  1  0.90215693  0.41698268  0.09038510  1
  Al  Al45  1  0.93064406  0.42336204  0.56831189  1
  Al  Al46  1  0.91219894  0.90415604  0.07276719  1
  Al  Al47  1  0.90550007  0.91454514  0.58696188  1
  Al  Al48  1  0.40652916  0.08511358  0.41166646  1
  Al  Al49  1  0.41715633  0.08782940  0.92043817  1
  Al  Al50  1  0.41502396  0.58004397  0.40717049  1
  Al  Al51  1  0.41385159  0.59436190  0.91662774  1
  Al  Al52  1  0.92663033  0.08061313  0.42615812  1
  Al  Al53  1  0.90851300  0.07562818  0.91713725  1
  Al  Al54  1  0.91009829  0.58351545  0.41167098  1
  Al  Al55  1  0.92325442  0.58863541  0.92823021  1
  Al  Al56  1  0.07912365  0.41031680  0.41274807  1
  Al  Al57  1  0.09670956  0.41571620  0.91656905  1
  Al  Al58  1  0.08234065  0.91658166  0.42145628  1
  Al  Al59  1  0.08441581  0.92413843  0.91893674  1
  Al  Al60  1  0.57836673  0.42175807  0.41184525  1
  Al  Al61  1  0.57118314  0.42048483  0.93191965  1
  Al  Al62  1  0.57033693  0.90707393  0.41380571  1
  Al  Al63  1  0.58768705  0.90719739  0.92302910  1
  Al  Al64  1  0.08501435  0.08416195  0.42394603  1
  Al  Al65  1  0.09669707  0.08467599  0.92302770  1
  Al  Al66  1  0.07735546  0.58056804  0.41836991  1
  Al  Al67  1  0.08826036  0.57530433  0.91045567  1
  Al  Al68  1  0.56895731  0.08173372  0.42183085  1
  Al  Al69  1  0.57843446  0.08128578  0.91641905  1
  Al  Al70  1  0.58295576  0.58878035  0.41358248  1
  Al  Al71  1  0.57640979  0.59767935  0.92778761  1
  Al  Al72  1  0.40677829  0.41361077  0.41206878  1
  Al  Al73  1  0.40934161  0.41695883  0.92437326  1
  Al  Al74  1  0.41134244  0.91788811  0.40419306  1
  Al  Al75  1  0.41430826  0.90688630  0.92496188  1
  Al  Al76  1  0.91570644  0.41915708  0.40317100  1
  Al  Al77  1  0.91998200  0.41112545  0.93393114  1
  Al  Al78  1  0.92188110  0.90808212  0.42640717  1
  Al  Al79  1  0.89686378  0.91479778  0.91695985  1
  Al  Al80  1  0.08289481  0.41122626  0.07615785  1
  Al  Al81  1  0.08909184  0.42321873  0.57727374  1
  Al  Al82  1  0.07679208  0.91986478  0.07870284  1
  Al  Al83  1  0.09089266  0.92149961  0.58649699  1
  Al  Al84  1  0.58519851  0.41738882  0.09604423  1
  Al  Al85  1  0.57050598  0.41988697  0.57078371  1
  Al  Al86  1  0.57982958  0.89479557  0.08453935  1
  Al  Al87  1  0.58369119  0.91742174  0.58105665  1
  Al  Al88  1  0.41481147  0.09284302  0.08807716  1
  Al  Al89  1  0.40594963  0.08579712  0.57836023  1
  Al  Al90  1  0.42370516  0.59569521  0.08070849  1
  Al  Al91  1  0.41736105  0.58253027  0.58649218  1
  Al  Al92  1  0.92698361  0.08864393  0.07573479  1
  Al  Al93  1  0.90830582  0.07138195  0.58741242  1
  Al  Al94  1  0.90229911  0.58014831  0.09057713  1
  Al  Al95  1  0.92146143  0.59797772  0.57384749  1
  Al  Al96  1  0.24989460  0.13640566  0.13426591  1
  Al  Al97  1  0.25476753  0.13609033  0.63246200  1
  Al  Al98  1  0.25824536  0.63759436  0.13215391  1
  Al  Al99  1  0.24664511  0.63288384  0.63532401  1
  Al  Al100  1  0.75096887  0.14023482  0.12821207  1
  Al  Al101  1  0.74998714  0.12867401  0.63841027  1
  Al  Al102  1  0.74727562  0.63886876  0.12918441  1
  Al  Al103  1  0.75135825  0.63728807  0.63637063  1
  Al  Al104  1  0.25387116  0.36526744  0.13427930  1
  Al  Al105  1  0.25215889  0.36661560  0.63442340  1
  Al  Al106  1  0.25912290  0.86221626  0.13491421  1
  Al  Al107  1  0.24749943  0.86320776  0.63478112  1
  Al  Al108  1  0.75131128  0.37174806  0.13587291  1
  Al  Al109  1  0.74752624  0.36660211  0.63741554  1
  Al  Al110  1  0.74781386  0.86084003  0.13144659  1
  Al  Al111  1  0.75079347  0.86632367  0.63156643  1
  Al  Al112  1  0.25770189  0.13409293  0.36480251  1
  Al  Al113  1  0.24792123  0.13353826  0.86711637  1
  Al  Al114  1  0.25040647  0.62926706  0.36102348  1
  Al  Al115  1  0.25187772  0.62962365  0.86319139  1
  Al  Al116  1  0.74960866  0.13794788  0.35963755  1
  Al  Al117  1  0.74907233  0.13504559  0.87112816  1
  Al  Al118  1  0.75270778  0.63306710  0.36185931  1
  Al  Al119  1  0.74961956  0.63640430  0.87265299  1
  Al  Al120  1  0.25362384  0.37164968  0.36222811  1
  Al  Al121  1  0.25051057  0.37184684  0.86423658  1
  Al  Al122  1  0.25436300  0.86654630  0.36077261  1
  Al  Al123  1  0.25489945  0.86297540  0.86585733  1
  Al  Al124  1  0.75268062  0.36858589  0.35985255  1
  Al  Al125  1  0.75403350  0.36358449  0.86973898  1
  Al  Al126  1  0.74741344  0.86302370  0.36640764  1
  Al  Al127  1  0.74821348  0.86221884  0.86905761  1
  Al  Al128  1  0.13635384  0.25328545  0.13502931  1
  Al  Al129  1  0.13840522  0.25172801  0.63409745  1
  Al  Al130  1  0.13159693  0.75059701  0.13469059  1
  Al  Al131  1  0.13537790  0.74504286  0.63238195  1
  Al  Al132  1  0.63065321  0.25361103  0.13644726  1
  Al  Al133  1  0.63248824  0.24798902  0.63692727  1
  Al  Al134  1  0.63213906  0.74834922  0.13346199  1
  Al  Al135  1  0.63565354  0.75339579  0.63479251  1
  Al  Al136  1  0.14050735  0.25255575  0.36508398  1
  Al  Al137  1  0.13899787  0.25064675  0.86287855  1
  Al  Al138  1  0.13978878  0.75041812  0.37056731  1
  Al  Al139  1  0.13463804  0.74689718  0.86282868  1
  Al  Al140  1  0.63445766  0.25358001  0.35991287  1
  Al  Al141  1  0.63502054  0.25290578  0.87087290  1
  Al  Al142  1  0.63438093  0.74841695  0.36096860  1
  Al  Al143  1  0.63483313  0.74936625  0.86955803  1
  Al  Al144  1  0.36924345  0.25017335  0.13807872  1
  Al  Al145  1  0.36471030  0.25133928  0.63032204  1
  Al  Al146  1  0.37390353  0.74924584  0.14140898  1
  Al  Al147  1  0.36230277  0.74865922  0.63484014  1
  Al  Al148  1  0.86336741  0.25653664  0.12874664  1
  Al  Al149  1  0.86321895  0.25145016  0.63791626  1
  Al  Al150  1  0.86586064  0.74746861  0.12997473  1
  Al  Al151  1  0.86420841  0.74987457  0.63053481  1
  Al  Al152  1  0.36337269  0.25182711  0.36642594  1
  Al  Al153  1  0.36266668  0.25418703  0.86732879  1
  Al  Al154  1  0.36720038  0.75166367  0.36242307  1
  Al  Al155  1  0.36669464  0.74487140  0.87011381  1
  Al  Al156  1  0.86853620  0.25880468  0.35943742  1
  Al  Al157  1  0.86357602  0.24773798  0.87082209  1
  Al  Al158  1  0.86317778  0.74765127  0.36986155  1
  Al  Al159  1  0.86151521  0.74887020  0.87265228  1
  Al  Al160  1  0.13684848  0.13761961  0.25114711  1
  Al  Al161  1  0.13967106  0.13221716  0.74278827  1
  Al  Al162  1  0.13648496  0.63355167  0.24770609  1
  Al  Al163  1  0.13487467  0.63229621  0.75029824  1
  Al  Al164  1  0.63483185  0.13370715  0.24429659  1
  Al  Al165  1  0.63683143  0.12770236  0.75041587  1
  Al  Al166  1  0.63383914  0.63317579  0.24294504  1
  Al  Al167  1  0.63662275  0.63780398  0.75338810  1
  Al  Al168  1  0.36326232  0.13209123  0.24735695  1
  Al  Al169  1  0.36339173  0.13770354  0.75032283  1
  Al  Al170  1  0.36791128  0.63507355  0.25077334  1
  Al  Al171  1  0.36651967  0.63515443  0.75555744  1
  Al  Al172  1  0.86396992  0.13899803  0.24687308  1
  Al  Al173  1  0.86654994  0.13550629  0.74901361  1
  Al  Al174  1  0.86063923  0.63227798  0.24673649  1
  Al  Al175  1  0.86982136  0.63953285  0.74903854  1
  Al  Al176  1  0.13036732  0.36495845  0.25047830  1
  Al  Al177  1  0.13693367  0.36990195  0.74976957  1
  Al  Al178  1  0.13183551  0.86277513  0.24941500  1
  Al  Al179  1  0.13711631  0.86656877  0.74689090  1
  Al  Al180  1  0.63413750  0.37007224  0.24384145  1
  Al  Al181  1  0.63134604  0.36395521  0.75351836  1
  Al  Al182  1  0.62985728  0.86226718  0.24795800  1
  Al  Al183  1  0.63590296  0.86866116  0.75145784  1
  Al  Al184  1  0.36592720  0.36645648  0.24913045  1
  Al  Al185  1  0.36607445  0.36573791  0.75231882  1
  Al  Al186  1  0.37017686  0.86556318  0.25057135  1
  Al  Al187  1  0.36786865  0.86164528  0.75263759  1
  Al  Al188  1  0.86735094  0.36780275  0.24690457  1
  Al  Al189  1  0.86332291  0.36254512  0.75253139  1
  Al  Al190  1  0.86849246  0.85824394  0.24871994  1
  Al  Al191  1  0.86378672  0.86244661  0.74864892  1
  Al  Al192  1  0.68057240  0.32511192  0.00168302  1
  Al  Al193  1  0.00015969  0.18499304  0.17536384  1
  Al  Al194  1  0.32524955  0.82675351  0.49829791  1
  Al  Al195  1  0.18558559  0.82407098  0.00065850  1
  Al  Al196  1  0.19161361  0.31042217  -0.00081418  1
  Al  Al197  1  0.83532628  0.50388607  0.66947536  1
  Al  Al198  1  0.18367746  0.00075905  0.32625804  1
  Al  Al199  1  0.00211599  0.18557921  0.33250493  1
  Al  Al200  1  -0.00089158  0.67768893  0.32043078  1
  Al  Al201  1  0.50048230  0.81777216  0.82358527  1
  Al  Al202  1  0.17927560  -0.00023569  0.16936637  1
  Al  Al203  1  0.00079947  0.32746954  0.67314787  1
  Al  Al204  1  0.66618816  0.50183669  0.66874101  1
  Al  Al205  1  0.66686809  -0.00325484  0.16769521  1
  Al  Al206  1  0.00020763  0.17032752  0.66669223  1
  Al  Al207  1  0.50079968  0.68429801  0.31379235  1
  Al  Al208  1  0.31208242  0.19242614  0.00174990  1
  Al  Al209  1  0.50156977  0.32344534  0.67638976  1
  Al  Al210  1  0.66821757  0.50341547  0.83488126  1
  Al  Al211  1  0.49962904  0.68341587  0.68908707  1
  Al  Al212  1  0.00174984  0.17383969  0.82995304  1
  Al  Al213  1  0.18480231  0.67309419  -0.00190949  1
  Al  Al214  1  0.82589243  0.33059197  0.49790687  1
  Al  Al215  1  0.17192851  0.49778692  0.17928757  1
  Al  Al216  1  0.49965089  0.32686770  0.31632716  1
  Al  Al217  1  0.67143310  0.32929737  0.49674837  1
  Al  Al218  1  0.66912234  0.17631181  0.49820825  1
  Al  Al219  1  0.83329400  0.49833945  0.83145378  1
  Al  Al220  1  0.30970467  -0.00117059  0.68411928  1
  Al  Al221  1  0.31925763  0.50081943  0.68292501  1
  Al  Al222  1  0.82748315  0.00070143  0.16753300  1
  Al  Al223  1  0.81596264  -0.00031398  0.81109064  1
  Al  Al224  1  0.33400494  0.50182484  0.17945418  1
  Al  Al225  1  0.82871720  0.17945909  0.49910594  1
  Al  Al226  1  0.18285737  -0.00022031  0.81941126  1
  Al  Al227  1  0.50060302  0.18079679  0.81895804  1
  Al  Al228  1  0.82952726  -0.00169450  0.32813523  1
  Al  Al229  1  0.68409686  0.50040098  0.31393021  1
  Al  Al230  1  0.32186668  0.67103950  0.49738099  1
  Al  Al231  1  0.18588058  0.32725197  0.49821914  1
  Al  Al232  1  0.00127295  0.32956371  0.83000297  1
  Al  Al233  1  0.49794164  0.17427157  0.31489079  1
  Al  Al234  1  0.18829154  0.17558201  0.49905663  1
  Al  Al235  1  0.00131198  0.81523058  0.67055578  1
  Al  Al236  1  0.68668121  0.67987749  0.49785411  1
  Al  Al237  1  -0.00310692  0.82034030  0.83212989  1
  Al  Al238  1  0.66599663  -0.00175412  0.32864192  1
  Au  Au239  1  0.83427409  0.17669966  0.00116089  1
  Au  Au240  1  -0.00282793  0.33417786  0.16873210  1
  Au  Au241  1  -0.00428686  0.82934739  0.84617859  1
  Au  Au242  1  0.18039817  0.84054592  0.00110878  1
  Au  Au243  1  0.00125907  0.83007550  0.66256339  1
  Au  Au244  1  0.65294529  0.50588418  0.83947483  1
  Au  Au245  1  0.82450279  0.67479568  0.00179282  1
  Au  Au246  1  0.83937111  0.00142790  0.15697877  1
  Au  Au247  1  0.17203561  0.49835076  0.33821387  1
  Au  Au248  1  0.00287375  0.65912126  0.82297216  1
  Au  Au249  1  0.66128352  0.50279389  0.65350241  1
  Au  Au250  1  0.49604822  0.15870115  0.67084276  1
  Au  Au251  1  0.67232640  0.33452862  0.00422887  1
  Au  Au252  1  0.67057162  -0.00267184  0.83602318  1
  Au  Au253  1  0.83937395  0.50557993  0.65407116  1
  Au  Au254  1  0.50019570  0.81449504  0.83600671  1
  Au  Au255  1  0.83607663  -0.00338873  0.34271075  1
  Au  Au256  1  0.66224173  0.82418060  0.49617063  1
  Au  Au257  1  0.00463952  0.15949382  0.66242434  1
  Au  Au258  1  0.16685602  0.49779106  0.16780066  1
  Au  Au259  1  0.16393884  0.00771144  0.16545843  1
  Au  Au260  1  0.17871118  0.65708748  -0.00224322  1
  Au  Au261  1  0.17010315  0.00098998  0.81750252  1
  Au  Au262  1  0.34282728  -0.00490641  0.17092886  1
  Au  Au263  1  0.34129218  -0.00188836  0.82964317  1
  Au  Au264  1  0.49599377  0.82824638  0.66051108  1
  Au  Au265  1  0.67241360  0.50301212  0.32571855  1
  Au  Au266  1  0.67884354  -0.00165266  0.66587186  1
  Au  Au267  1  0.66185911  0.00190369  0.33976977  1
  Au  Au268  1  0.32993350  0.50196194  0.83442716  1
  Au  Au269  1  0.49944950  0.33224345  0.66758296  1
  Au  Au270  1  0.66372052  0.16945713  0.00098884  1
  Au  Au271  1  -0.00132318  0.82822887  0.16414099  1
  Au  Au272  1  0.82793654  0.81897785  0.50047640  1
  Au  Au273  1  0.32375804  0.18027735  0.00141886  1
  Au  Au274  1  0.49607896  0.32658785  0.84258258  1
  Au  Au275  1  0.17009338  0.66475321  0.49901461  1
  Au  Au276  1  0.00318275  0.82547816  0.33417201  1
  Au  Au277  1  0.00217695  0.16927111  0.32645492  1
  Au  Au278  1  0.65557581  -0.00800631  0.16481867  1
  Au  Au279  1  0.16996927  0.50173838  0.67427927  1
  Au  Au280  1  0.17667929  0.83493066  0.50190931  1
  Au  Au281  1  -0.00237666  0.33630568  0.66400233  1
  Au  Au282  1  0.00161529  0.17036842  0.84568143  1
  Au  Au283  1  0.83627855  0.49696164  0.84725260  1
  Au  Au284  1  0.82070665  0.16514195  0.50412521  1
  Au  Au285  1  0.17888458  0.00185709  0.34259340  1
  Au  Au286  1  -0.00385679  0.66027960  0.17275400  1
  Au  Au287  1  0.34300341  0.50258223  0.16617792  1
