# generated using pymatgen
data_Ca24Ti8Al207Au49
_symmetry_space_group_name_H-M   'P 1'
_cell_length_a   17.32362159
_cell_length_b   17.32488713
_cell_length_c   17.32356329
_cell_angle_alpha   90.00141897
_cell_angle_beta   90.00005842
_cell_angle_gamma   89.99889048
_symmetry_Int_Tables_number   1
_chemical_formula_structural   Ca24Ti8Al207Au49
_chemical_formula_sum   'Ca24 Ti8 Al207 Au49'
_cell_volume   5199.31739038
_cell_formula_units_Z   1
loop_
 _symmetry_equiv_pos_site_id
 _symmetry_equiv_pos_as_xyz
  1  'x, y, z'
loop_
 _atom_site_type_symbol
 _atom_site_label
 _atom_site_symmetry_multiplicity
 _atom_site_fract_x
 _atom_site_fract_y
 _atom_site_fract_z
 _atom_site_occupancy
  Ca  Ca0  1  0.24817889  0.00362551  0.00047071  1
  Ca  Ca1  1  0.24117118  0.00049835  0.50272428  1
  Ca  Ca2  1  0.25002644  0.49649742  -0.00099393  1
  Ca  Ca3  1  0.24646471  0.50270907  0.50036074  1
  Ca  Ca4  1  0.75733391  0.00030853  -0.00313917  1
  Ca  Ca5  1  0.75319513  0.00077586  0.50449499  1
  Ca  Ca6  1  0.75514270  0.49793393  0.00523245  1
  Ca  Ca7  1  0.74909758  0.50054002  0.49599272  1
  Ca  Ca8  1  -0.00333435  0.24398425  0.00241123  1
  Ca  Ca9  1  0.00044334  0.24252771  0.49837441  1
  Ca  Ca10  1  -0.00600653  0.75075464  -0.00167065  1
  Ca  Ca11  1  0.00139937  0.75487579  0.50323116  1
  Ca  Ca12  1  0.49968241  0.25238685  -0.00252171  1
  Ca  Ca13  1  0.50085186  0.25192226  0.50333175  1
  Ca  Ca14  1  0.50182456  0.75007770  -0.00385359  1
  Ca  Ca15  1  0.50379963  0.75308677  0.50397554  1
  Ca  Ca16  1  0.00257768  0.00209282  0.25164852  1
  Ca  Ca17  1  -0.00201082  0.00026180  0.74533427  1
  Ca  Ca18  1  -0.00104061  0.49792756  0.24688527  1
  Ca  Ca19  1  0.00072569  0.50119116  0.74776669  1
  Ca  Ca20  1  0.50192776  0.00197727  0.24957089  1
  Ca  Ca21  1  0.50480691  -0.00065819  0.74681533  1
  Ca  Ca22  1  0.50227463  0.49737555  0.24964959  1
  Ca  Ca23  1  0.49739478  0.50003584  0.74732666  1
  Ti  Ti24  1  0.24610640  0.24809345  0.25062311  1
  Ti  Ti25  1  0.24773544  0.25013609  0.74910033  1
  Ti  Ti26  1  0.24736455  0.75145972  0.25135978  1
  Ti  Ti27  1  0.24970972  0.75068930  0.74922944  1
  Ti  Ti28  1  0.75299927  0.24899387  0.25095221  1
  Ti  Ti29  1  0.75137432  0.24915231  0.74879409  1
  Ti  Ti30  1  0.75161005  0.75024633  0.25108891  1
  Ti  Ti31  1  0.74979042  0.75045828  0.74810127  1
  Al  Al32  1  0.08323093  0.07976664  0.09486894  1
  Al  Al33  1  0.08657772  0.08363346  0.58438776  1
  Al  Al34  1  0.08154693  0.57370358  0.09096142  1
  Al  Al35  1  0.08843239  0.58998922  0.58135350  1
  Al  Al36  1  0.58257902  0.08435251  0.07957958  1
  Al  Al37  1  0.58880195  0.07714905  0.59167873  1
  Al  Al38  1  0.58740640  0.57912430  0.08295193  1
  Al  Al39  1  0.58620517  0.58869333  0.57927182  1
  Al  Al40  1  0.41805975  0.41781429  0.08269156  1
  Al  Al41  1  0.41530636  0.41621073  0.59512674  1
  Al  Al42  1  0.42172399  0.92517124  0.08475590  1
  Al  Al43  1  0.41959878  0.91896180  0.59043194  1
  Al  Al44  1  0.91495984  0.41348685  0.09086236  1
  Al  Al45  1  0.92091146  0.41498630  0.57951057  1
  Al  Al46  1  0.91881424  0.91427981  0.08741097  1
  Al  Al47  1  0.91203304  0.91609207  0.59494886  1
  Al  Al48  1  0.41165512  0.08227664  0.42154132  1
  Al  Al49  1  0.42175000  0.08070778  0.91950243  1
  Al  Al50  1  0.41964811  0.57871921  0.42560131  1
  Al  Al51  1  0.41636050  0.57452054  0.90069275  1
  Al  Al52  1  0.92646372  0.08606398  0.41450092  1
  Al  Al53  1  0.90699674  0.08461142  0.90888766  1
  Al  Al54  1  0.91619243  0.58066826  0.41794978  1
  Al  Al55  1  0.91323305  0.59054378  0.92329138  1
  Al  Al56  1  0.08203562  0.41154271  0.41079855  1
  Al  Al57  1  0.08042081  0.41942556  0.91624162  1
  Al  Al58  1  0.09009955  0.92085786  0.41469647  1
  Al  Al59  1  0.07362410  0.92273852  0.91397770  1
  Al  Al60  1  0.58421777  0.41848722  0.42104985  1
  Al  Al61  1  0.57432812  0.41428461  0.91691306  1
  Al  Al62  1  0.58934297  0.91192378  0.42881749  1
  Al  Al63  1  0.58842013  0.91733369  0.89970262  1
  Al  Al64  1  0.08927960  0.08671602  0.41194484  1
  Al  Al65  1  0.07578670  0.08136107  0.91504623  1
  Al  Al66  1  0.08968792  0.58558944  0.42040880  1
  Al  Al67  1  0.07444065  0.57869623  0.91496355  1
  Al  Al68  1  0.58338700  0.07923026  0.42379532  1
  Al  Al69  1  0.59153762  0.07864328  0.91019084  1
  Al  Al70  1  0.59065839  0.58557580  0.42154374  1
  Al  Al71  1  0.57945350  0.58280979  0.91821525  1
  Al  Al72  1  0.42449657  0.42038983  0.42157020  1
  Al  Al73  1  0.41376268  0.41594822  0.90358384  1
  Al  Al74  1  0.41523320  0.92217553  0.41963504  1
  Al  Al75  1  0.42956614  0.91555076  0.90599736  1
  Al  Al76  1  0.92082682  0.41359702  0.40994389  1
  Al  Al77  1  0.91808397  0.41707057  0.92425836  1
  Al  Al78  1  0.92004419  0.91951027  0.42056809  1
  Al  Al79  1  0.90995044  0.92059362  0.90885637  1
  Al  Al80  1  0.07917245  0.41226841  0.09513438  1
  Al  Al81  1  0.08246886  0.41853910  0.58276174  1
  Al  Al82  1  0.07977102  0.91805540  0.10062115  1
  Al  Al83  1  0.08622141  0.91486534  0.58814396  1
  Al  Al84  1  0.58459459  0.41966142  0.08293932  1
  Al  Al85  1  0.57706884  0.41164689  0.58426212  1
  Al  Al86  1  0.58267492  0.92282476  0.07923675  1
  Al  Al87  1  0.59375718  0.91208558  0.59135827  1
  Al  Al88  1  0.41866622  0.08374116  0.08277199  1
  Al  Al89  1  0.41345662  0.08196962  0.58489440  1
  Al  Al90  1  0.42186122  0.57471876  0.08443831  1
  Al  Al91  1  0.41003170  0.57994685  0.58990595  1
  Al  Al92  1  0.91505467  0.08630545  0.08255544  1
  Al  Al93  1  0.91636675  0.08081554  0.59534236  1
  Al  Al94  1  0.90819605  0.58191254  0.08466495  1
  Al  Al95  1  0.91994769  0.58774762  0.58012898  1
  Al  Al96  1  0.24181065  0.13247240  0.13935480  1
  Al  Al97  1  0.24356685  0.13460018  0.63433833  1
  Al  Al98  1  0.24505439  0.63866536  0.13685845  1
  Al  Al99  1  0.25043770  0.63524271  0.63548867  1
  Al  Al100  1  0.75635215  0.13690089  0.13550461  1
  Al  Al101  1  0.75183887  0.13216955  0.63274325  1
  Al  Al102  1  0.75621190  0.63048523  0.13556270  1
  Al  Al103  1  0.74702934  0.63851655  0.62878023  1
  Al  Al104  1  0.24354473  0.36304341  0.13857562  1
  Al  Al105  1  0.25373146  0.36761258  0.63860189  1
  Al  Al106  1  0.24094333  0.86869801  0.13992843  1
  Al  Al107  1  0.24784608  0.86501362  0.63596367  1
  Al  Al108  1  0.75487760  0.36909170  0.13656158  1
  Al  Al109  1  0.75407528  0.36284453  0.63340327  1
  Al  Al110  1  0.75375654  0.86396496  0.13662883  1
  Al  Al111  1  0.74817562  0.86947590  0.63412258  1
  Al  Al112  1  0.24171997  0.12784560  0.36380023  1
  Al  Al113  1  0.24676969  0.13338321  0.86276855  1
  Al  Al114  1  0.24483314  0.63603738  0.36591717  1
  Al  Al115  1  0.25380750  0.63160056  0.85967323  1
  Al  Al116  1  0.75290823  0.13040699  0.36839855  1
  Al  Al117  1  0.75348383  0.12851407  0.86156569  1
  Al  Al118  1  0.75141891  0.63587889  0.36672064  1
  Al  Al119  1  0.75106067  0.63807310  0.86309592  1
  Al  Al120  1  0.24627033  0.36474556  0.35845928  1
  Al  Al121  1  0.25086494  0.37117199  0.86076277  1
  Al  Al122  1  0.24633491  0.87127747  0.36298726  1
  Al  Al123  1  0.24650463  0.86641163  0.86109009  1
  Al  Al124  1  0.75459831  0.36346533  0.36311460  1
  Al  Al125  1  0.75104376  0.36271016  0.86363399  1
  Al  Al126  1  0.75040624  0.86888108  0.36727018  1
  Al  Al127  1  0.75043128  0.87080770  0.86061302  1
  Al  Al128  1  0.12342345  0.24903872  0.13922376  1
  Al  Al129  1  0.13034291  0.24666839  0.63120485  1
  Al  Al130  1  0.12594546  0.75176343  0.13795728  1
  Al  Al131  1  0.13080974  0.75125527  0.63590202  1
  Al  Al132  1  0.63952552  0.24961995  0.13688075  1
  Al  Al133  1  0.63584413  0.24816802  0.63689717  1
  Al  Al134  1  0.63468208  0.75036014  0.13458232  1
  Al  Al135  1  0.63716219  0.75301823  0.63285903  1
  Al  Al136  1  0.13217447  0.24336413  0.36803874  1
  Al  Al137  1  0.13624100  0.25075455  0.86250593  1
  Al  Al138  1  0.13417408  0.75173295  0.36533355  1
  Al  Al139  1  0.13579004  0.75031703  0.86342882  1
  Al  Al140  1  0.63870608  0.24699290  0.36411801  1
  Al  Al141  1  0.63740737  0.24553323  0.86065713  1
  Al  Al142  1  0.63801223  0.75005610  0.36873069  1
  Al  Al143  1  0.62758721  0.75356170  0.85809178  1
  Al  Al144  1  0.36025740  0.24998964  0.13617660  1
  Al  Al145  1  0.36729090  0.25133800  0.63792006  1
  Al  Al146  1  0.36486372  0.75357157  0.13682913  1
  Al  Al147  1  0.36551422  0.74934491  0.63397956  1
  Al  Al148  1  0.87231779  0.24855704  0.13807980  1
  Al  Al149  1  0.87062027  0.24355637  0.63315948  1
  Al  Al150  1  0.86820187  0.74926470  0.13713398  1
  Al  Al151  1  0.87109777  0.75458484  0.63625048  1
  Al  Al152  1  0.35989752  0.24705002  0.36381833  1
  Al  Al153  1  0.36265227  0.25020866  0.86192886  1
  Al  Al154  1  0.36187314  0.74844956  0.36675673  1
  Al  Al155  1  0.37127732  0.75105218  0.85989598  1
  Al  Al156  1  0.86567785  0.24694150  0.36998411  1
  Al  Al157  1  0.86465302  0.24554955  0.86493223  1
  Al  Al158  1  0.86568319  0.75226853  0.36817522  1
  Al  Al159  1  0.86338325  0.75282970  0.86096636  1
  Al  Al160  1  0.12634480  0.13442951  0.25248461  1
  Al  Al161  1  0.13082295  0.13141968  0.74151348  1
  Al  Al162  1  0.13025621  0.63486132  0.24796050  1
  Al  Al163  1  0.13344290  0.63522534  0.74569229  1
  Al  Al164  1  0.63925826  0.12964746  0.25114050  1
  Al  Al165  1  0.63920621  0.12839666  0.74810160  1
  Al  Al166  1  0.63792075  0.63637431  0.24729895  1
  Al  Al167  1  0.63088048  0.63521934  0.74784688  1
  Al  Al168  1  0.36166064  0.13375376  0.25118953  1
  Al  Al169  1  0.36277159  0.13432472  0.74856643  1
  Al  Al170  1  0.36415000  0.63676092  0.24767471  1
  Al  Al171  1  0.36934797  0.63484089  0.74816386  1
  Al  Al172  1  0.87327444  0.13681474  0.25321861  1
  Al  Al173  1  0.86192234  0.12833967  0.74747518  1
  Al  Al174  1  0.86812217  0.63439361  0.24733661  1
  Al  Al175  1  0.86227374  0.63394202  0.74401997  1
  Al  Al176  1  0.13007153  0.36379828  0.24770717  1
  Al  Al177  1  0.13118369  0.36634480  0.74537831  1
  Al  Al178  1  0.13012932  0.86716875  0.25255662  1
  Al  Al179  1  0.13064977  0.86932879  0.74134066  1
  Al  Al180  1  0.63810968  0.36393367  0.24647349  1
  Al  Al181  1  0.63623422  0.36701845  0.74634150  1
  Al  Al182  1  0.63998828  0.87020692  0.25026851  1
  Al  Al183  1  0.63892983  0.87104617  0.74919121  1
  Al  Al184  1  0.36478017  0.36281295  0.24677926  1
  Al  Al185  1  0.36513784  0.36840781  0.74983878  1
  Al  Al186  1  0.36579571  0.86610275  0.25248531  1
  Al  Al187  1  0.36599003  0.86540817  0.74985842  1
  Al  Al188  1  0.86844440  0.36390127  0.24544001  1
  Al  Al189  1  0.86542022  0.36601508  0.74938253  1
  Al  Al190  1  0.87101715  0.86394322  0.25127048  1
  Al  Al191  1  0.86070520  0.87148881  0.74670070  1
  Al  Al192  1  0.31091527  0.17328391  0.50071530  1
  Al  Al193  1  0.31083340  0.00033746  0.67946476  1
  Al  Al194  1  0.17857542  0.50040412  0.68111160  1
  Al  Al195  1  0.67427712  0.32741800  -0.00113831  1
  Al  Al196  1  0.82285560  0.50137297  0.82936028  1
  Al  Al197  1  0.00224521  0.67804338  0.32633279  1
  Al  Al198  1  0.32819838  0.32746795  -0.00205499  1
  Al  Al199  1  0.67319059  0.82519038  -0.00424135  1
  Al  Al200  1  -0.00217647  0.67580224  0.81831921  1
  Al  Al201  1  0.82255304  0.00025464  0.17903696  1
  Al  Al202  1  0.49986148  0.17445628  0.32690290  1
  Al  Al203  1  0.82741714  0.49950541  0.31472270  1
  Al  Al204  1  0.50167875  0.32892679  0.31916322  1
  Al  Al205  1  0.32560975  0.83182897  -0.00267837  1
  Al  Al206  1  0.50223138  0.82094812  0.68653860  1
  Al  Al207  1  0.67656572  0.49831596  0.67229635  1
  Al  Al208  1  -0.00434644  0.31848430  0.82122762  1
  Al  Al209  1  0.17853165  0.00029182  0.81848043  1
  Al  Al210  1  0.81918852  0.82284722  0.49945174  1
  Al  Al211  1  0.32666367  0.50030569  0.32831206  1
  Al  Al212  1  0.33022085  0.67041415  -0.00123824  1
  Al  Al213  1  0.32101350  0.00098391  0.18020628  1
  Al  Al214  1  0.50087757  0.18136850  0.67794918  1
  Al  Al215  1  0.18015163  0.81534832  0.50025310  1
  Al  Al216  1  0.17861660  0.31735683  0.49729998  1
  Al  Al217  1  0.50052620  0.18056397  0.17214210  1
  Al  Al218  1  0.67873602  0.31880817  0.49960912  1
  Al  Al219  1  0.82942955  0.81707434  -0.00028440  1
  Al  Al220  1  0.32158852  0.33081369  0.49801491  1
  Al  Al221  1  -0.00178323  0.17172899  0.81443667  1
  Al  Al222  1  0.49968221  0.67280404  0.32549480  1
  Al  Al223  1  0.16932000  0.66976757  0.00201765  1
  Al  Al224  1  0.82665570  0.31348879  0.00230912  1
  Al  Al225  1  0.50242474  0.83076980  0.32335017  1
  Al  Al226  1  0.67505962  0.49960710  0.32142776  1
  Al  Al227  1  0.17232479  0.50003650  0.31488208  1
  Al  Al228  1  -0.00241437  0.82814378  0.81419451  1
  Al  Al229  1  0.32485484  0.17396322  0.00024500  1
  Al  Al230  1  0.16510216  0.83052403  0.00380553  1
  Al  Al231  1  -0.00080156  0.30879723  0.31147480  1
  Al  Al232  1  0.30717869  0.49969977  0.17173186  1
  Al  Al233  1  0.16977786  0.16921136  0.00103906  1
  Al  Al234  1  0.17359090  0.32232167  0.00199562  1
  Al  Al235  1  0.69217020  0.17303629  -0.00155247  1
  Al  Al236  1  0.68612607  0.67181997  0.00078891  1
  Al  Al237  1  0.32015477  0.67890699  0.49988479  1
  Al  Al238  1  0.50118093  0.31806905  0.80964350  1
  Au  Au239  1  0.00009856  0.66935778  0.33502156  1
  Au  Au240  1  0.67608641  0.83731239  -0.00454818  1
  Au  Au241  1  0.32710171  0.83933208  0.50378768  1
  Au  Au242  1  0.16825557  0.32218256  0.50249193  1
  Au  Au243  1  0.50003765  0.67507590  0.83074462  1
  Au  Au244  1  0.82769065  0.83173780  0.50239941  1
  Au  Au245  1  0.16659103  0.00018743  0.82309807  1
  Au  Au246  1  0.82750287  0.33653289  0.49694085  1
  Au  Au247  1  0.31855783  0.00082324  0.33438151  1
  Au  Au248  1  0.66685048  0.49652450  0.83639154  1
  Au  Au249  1  0.50180930  0.17063219  0.83295226  1
  Au  Au250  1  0.67809691  0.49862034  0.17249773  1
  Au  Au251  1  0.16121990  0.84160619  -0.00054062  1
  Au  Au252  1  -0.00373853  0.67224262  0.16175700  1
  Au  Au253  1  0.17663024  0.50004240  0.66863589  1
  Au  Au254  1  0.66788048  0.50039857  0.66349306  1
  Au  Au255  1  0.32026500  0.00330682  0.16764384  1
  Au  Au256  1  0.50054094  0.66697802  0.16550963  1
  Au  Au257  1  0.16366743  0.33270023  0.00247481  1
  Au  Au258  1  0.67561407  0.17233323  -0.00195906  1
  Au  Au259  1  0.00283113  0.83601496  0.32658595  1
  Au  Au260  1  0.33368028  0.32768077  0.49841810  1
  Au  Au261  1  0.32366490  0.49894425  0.17683294  1
  Au  Au262  1  0.34119447  -0.00012891  0.82403219  1
  Au  Au263  1  0.83804775  0.16440013  0.50270549  1
  Au  Au264  1  -0.00139784  0.17330156  0.17601521  1
  Au  Au265  1  -0.00079878  0.32122975  0.66496981  1
  Au  Au266  1  0.17712313  0.50235876  0.83346973  1
  Au  Au267  1  0.67234621  0.00261881  0.16689075  1
  Au  Au268  1  0.83997649  0.00336301  0.32697044  1
  Au  Au269  1  0.31910520  0.66636178  0.49780135  1
  Au  Au270  1  0.00103825  0.67723061  0.66792660  1
  Au  Au271  1  0.82087815  0.66672837  0.49927846  1
  Au  Au272  1  0.49997925  0.67359172  0.66330588  1
  Au  Au273  1  0.50079619  0.16965694  0.67299080  1
  Au  Au274  1  0.83468169  0.50067475  0.66532860  1
  Au  Au275  1  0.34262501  0.83564497  -0.00381652  1
  Au  Au276  1  0.67168534  -0.00356430  0.33961858  1
  Au  Au277  1  0.66882643  0.16936618  0.50460635  1
  Au  Au278  1  0.49976573  0.16418929  0.33636860  1
  Au  Au279  1  0.33254804  0.65400151  -0.00676591  1
  Au  Au280  1  0.83275753  0.50137018  0.83654090  1
  Au  Au281  1  0.50148347  0.32918366  0.16612621  1
  Au  Au282  1  -0.00114898  0.32621386  0.83026827  1
  Au  Au283  1  0.15769161  0.66659142  -0.00175759  1
  Au  Au284  1  0.50115782  0.82829492  0.33538975  1
  Au  Au285  1  0.67359707  0.67278958  -0.00091104  1
  Au  Au286  1  0.50281385  0.83488007  0.16869980  1
  Au  Au287  1  0.50406810  0.66868029  0.33620192  1
