# generated using pymatgen
data_Ca24Ti8Al207Au49
_symmetry_space_group_name_H-M   'P 1'
_cell_length_a   17.31886824
_cell_length_b   17.31676009
_cell_length_c   17.31734733
_cell_angle_alpha   89.99724203
_cell_angle_beta   89.99966921
_cell_angle_gamma   89.99894500
_symmetry_Int_Tables_number   1
_chemical_formula_structural   Ca24Ti8Al207Au49
_chemical_formula_sum   'Ca24 Ti8 Al207 Au49'
_cell_volume   5193.58824577
_cell_formula_units_Z   1
loop_
 _symmetry_equiv_pos_site_id
 _symmetry_equiv_pos_as_xyz
  1  'x, y, z'
loop_
 _atom_site_type_symbol
 _atom_site_label
 _atom_site_symmetry_multiplicity
 _atom_site_fract_x
 _atom_site_fract_y
 _atom_site_fract_z
 _atom_site_occupancy
  Ca  Ca0  1  0.24884807  -0.00680763  0.00048098  1
  Ca  Ca1  1  0.25307127  0.00162191  0.49716850  1
  Ca  Ca2  1  0.25275874  0.50437264  -0.00374406  1
  Ca  Ca3  1  0.24885131  0.50042043  0.50296654  1
  Ca  Ca4  1  0.75373332  -0.00425983  -0.00025135  1
  Ca  Ca5  1  0.75326911  0.00820461  0.50067046  1
  Ca  Ca6  1  0.74849485  0.50083134  -0.00584171  1
  Ca  Ca7  1  0.74794667  0.49737224  0.50405578  1
  Ca  Ca8  1  -0.00368732  0.25237610  -0.00341274  1
  Ca  Ca9  1  0.00075842  0.25224194  0.50297912  1
  Ca  Ca10  1  -0.00305740  0.75273755  -0.00368088  1
  Ca  Ca11  1  0.00569670  0.74912338  0.50028193  1
  Ca  Ca12  1  0.50136250  0.25130655  0.00027340  1
  Ca  Ca13  1  0.50136475  0.24733542  0.50096904  1
  Ca  Ca14  1  0.50213670  0.74371036  -0.00268763  1
  Ca  Ca15  1  0.49538629  0.75306165  0.50108463  1
  Ca  Ca16  1  -0.00450578  -0.00168123  0.25473951  1
  Ca  Ca17  1  -0.00414618  0.00268899  0.74857615  1
  Ca  Ca18  1  0.00740269  0.49995454  0.25252317  1
  Ca  Ca19  1  0.00220693  0.49978611  0.74875221  1
  Ca  Ca20  1  0.50479927  0.00420557  0.25538934  1
  Ca  Ca21  1  0.50527380  -0.00110570  0.74443952  1
  Ca  Ca22  1  0.49423346  0.49843051  0.24433485  1
  Ca  Ca23  1  0.49912741  0.50401212  0.74974012  1
  Ti  Ti24  1  0.25204106  0.25221453  0.25301206  1
  Ti  Ti25  1  0.24817528  0.25143359  0.74802032  1
  Ti  Ti26  1  0.25116213  0.74711134  0.25087656  1
  Ti  Ti27  1  0.25123033  0.74772553  0.74886503  1
  Ti  Ti28  1  0.75040445  0.25081849  0.24937316  1
  Ti  Ti29  1  0.75122077  0.24939750  0.74977040  1
  Ti  Ti30  1  0.74983007  0.75154171  0.24992719  1
  Ti  Ti31  1  0.74783547  0.75032134  0.75045437  1
  Al  Al32  1  0.07717099  0.08385489  0.07695831  1
  Al  Al33  1  0.07325144  0.09978843  0.58730522  1
  Al  Al34  1  0.08686258  0.57842535  0.07916349  1
  Al  Al35  1  0.08959125  0.59101142  0.58408153  1
  Al  Al36  1  0.58011237  0.08115921  0.08130750  1
  Al  Al37  1  0.59095401  0.08886176  0.57571972  1
  Al  Al38  1  0.57203078  0.58526120  0.08345645  1
  Al  Al39  1  0.57746255  0.58340383  0.59596098  1
  Al  Al40  1  0.41368710  0.43209117  0.08594997  1
  Al  Al41  1  0.41978813  0.41970770  0.58290106  1
  Al  Al42  1  0.41008516  0.90399741  0.07816544  1
  Al  Al43  1  0.41180817  0.91095417  0.58229858  1
  Al  Al44  1  0.92050039  0.41335400  0.08750187  1
  Al  Al45  1  0.91922841  0.40908130  0.59039672  1
  Al  Al46  1  0.91381219  0.91318639  0.07886045  1
  Al  Al47  1  0.91724865  0.92177145  0.58409919  1
  Al  Al48  1  0.42136113  0.09300271  0.41382853  1
  Al  Al49  1  0.42411193  0.07858300  0.92245847  1
  Al  Al50  1  0.40958372  0.57988334  0.41790946  1
  Al  Al51  1  0.41513025  0.59378302  0.90567120  1
  Al  Al52  1  0.90836544  0.09105014  0.42399781  1
  Al  Al53  1  0.91169027  0.08136224  0.89987882  1
  Al  Al54  1  0.93512464  0.57626934  0.42502807  1
  Al  Al55  1  0.91153787  0.58208468  0.90709244  1
  Al  Al56  1  0.09090791  0.42181796  0.41669780  1
  Al  Al57  1  0.08330086  0.42167514  0.90220429  1
  Al  Al58  1  0.08044068  0.90746765  0.41057957  1
  Al  Al59  1  0.07799779  0.91008533  0.92836908  1
  Al  Al60  1  0.58622378  0.40411437  0.42780644  1
  Al  Al61  1  0.59118816  0.42903125  0.90962659  1
  Al  Al62  1  0.58068391  0.93284690  0.42523524  1
  Al  Al63  1  0.58513738  0.91248877  0.91572371  1
  Al  Al64  1  0.08012339  0.08334109  0.42365284  1
  Al  Al65  1  0.06964653  0.09601072  0.91586582  1
  Al  Al66  1  0.10031687  0.58469567  0.41992037  1
  Al  Al67  1  0.09110953  0.58336886  0.90591148  1
  Al  Al68  1  0.58629168  0.09645474  0.41253975  1
  Al  Al69  1  0.58595135  0.07591808  0.91742750  1
  Al  Al70  1  0.57201890  0.57683883  0.42623947  1
  Al  Al71  1  0.57860791  0.58788606  0.90356294  1
  Al  Al72  1  0.41332234  0.41710029  0.41666880  1
  Al  Al73  1  0.41500670  0.43548733  0.91436586  1
  Al  Al74  1  0.41217799  0.92189697  0.42803417  1
  Al  Al75  1  0.41433970  0.90104186  0.92096295  1
  Al  Al76  1  0.92357904  0.41163426  0.42517076  1
  Al  Al77  1  0.91417925  0.41970992  0.90431920  1
  Al  Al78  1  0.92006515  0.91258714  0.41381723  1
  Al  Al79  1  0.90680649  0.91830255  0.91555817  1
  Al  Al80  1  0.07749445  0.41412629  0.09515930  1
  Al  Al81  1  0.08242518  0.41304342  0.58499156  1
  Al  Al82  1  0.08308860  0.90477313  0.08095378  1
  Al  Al83  1  0.07816849  0.91292559  0.57546812  1
  Al  Al84  1  0.57646916  0.42561271  0.07364352  1
  Al  Al85  1  0.58779133  0.41335373  0.58621141  1
  Al  Al86  1  0.58259814  0.91442920  0.07690608  1
  Al  Al87  1  0.57853351  0.92154222  0.58514088  1
  Al  Al88  1  0.42133663  0.08434220  0.08221582  1
  Al  Al89  1  0.41576986  0.08309017  0.57276686  1
  Al  Al90  1  0.41249737  0.59140578  0.08769264  1
  Al  Al91  1  0.41692286  0.59056312  0.59336662  1
  Al  Al92  1  0.91988553  0.07713582  0.08260351  1
  Al  Al93  1  0.91127905  0.09796233  0.58775665  1
  Al  Al94  1  0.92081737  0.57746051  0.07215584  1
  Al  Al95  1  0.92821094  0.58313021  0.59400497  1
  Al  Al96  1  0.25461989  0.14199836  0.13672244  1
  Al  Al97  1  0.24824537  0.13989095  0.62949513  1
  Al  Al98  1  0.25170571  0.63353941  0.13314330  1
  Al  Al99  1  0.25091771  0.62596230  0.63617229  1
  Al  Al100  1  0.75010647  0.13793289  0.13553663  1
  Al  Al101  1  0.75254385  0.13865451  0.63137470  1
  Al  Al102  1  0.75177603  0.63699718  0.13653473  1
  Al  Al103  1  0.74304125  0.63310692  0.63999191  1
  Al  Al104  1  0.25620316  0.36619709  0.13779732  1
  Al  Al105  1  0.24922308  0.37330625  0.63794529  1
  Al  Al106  1  0.25179696  0.85885864  0.13001886  1
  Al  Al107  1  0.25317923  0.86042319  0.63270566  1
  Al  Al108  1  0.75108829  0.36284483  0.13052508  1
  Al  Al109  1  0.74847466  0.36422421  0.63464946  1
  Al  Al110  1  0.75258763  0.86453227  0.13603797  1
  Al  Al111  1  0.74732749  0.86319822  0.63635074  1
  Al  Al112  1  0.25076761  0.13780822  0.36977995  1
  Al  Al113  1  0.24616971  0.13598033  0.86017409  1
  Al  Al114  1  0.25052196  0.62799716  0.36869626  1
  Al  Al115  1  0.25125740  0.63174586  0.86308882  1
  Al  Al116  1  0.75031558  0.13944188  0.36828794  1
  Al  Al117  1  0.75501987  0.13398247  0.86231639  1
  Al  Al118  1  0.74637274  0.64075278  0.36537929  1
  Al  Al119  1  0.74946476  0.63042446  0.86168334  1
  Al  Al120  1  0.25203430  0.37142879  0.36566095  1
  Al  Al121  1  0.24556922  0.36580500  0.86275079  1
  Al  Al122  1  0.25200135  0.86388105  0.36570491  1
  Al  Al123  1  0.25357205  0.86228322  0.86535006  1
  Al  Al124  1  0.74443508  0.35986110  0.36871871  1
  Al  Al125  1  0.75433237  0.36436160  0.86533801  1
  Al  Al126  1  0.75033978  0.86389670  0.36570627  1
  Al  Al127  1  0.75418911  0.86488956  0.86365121  1
  Al  Al128  1  0.13300323  0.25395501  0.13742356  1
  Al  Al129  1  0.13125577  0.25106810  0.63601596  1
  Al  Al130  1  0.13605455  0.74914361  0.13533840  1
  Al  Al131  1  0.13660940  0.74148829  0.63134606  1
  Al  Al132  1  0.63256868  0.24969499  0.13082636  1
  Al  Al133  1  0.63761914  0.24803850  0.63082961  1
  Al  Al134  1  0.63264196  0.74957893  0.13465146  1
  Al  Al135  1  0.62645795  0.74667880  0.63803155  1
  Al  Al136  1  0.13563458  0.25215980  0.36751601  1
  Al  Al137  1  0.12669059  0.25295289  0.85977585  1
  Al  Al138  1  0.13770741  0.74648132  0.36726287  1
  Al  Al139  1  0.13636653  0.75010876  0.86229381  1
  Al  Al140  1  0.63402188  0.24621742  0.36958056  1
  Al  Al141  1  0.63969754  0.24879777  0.87053387  1
  Al  Al142  1  0.63362576  0.75292586  0.36941554  1
  Al  Al143  1  0.63293273  0.74955989  0.86396926  1
  Al  Al144  1  0.37327664  0.25056502  0.13951237  1
  Al  Al145  1  0.36143032  0.25218268  0.63016057  1
  Al  Al146  1  0.37079949  0.74487894  0.13860433  1
  Al  Al147  1  0.36942806  0.74452763  0.63829768  1
  Al  Al148  1  0.86959938  0.25298380  0.13293110  1
  Al  Al149  1  0.86824068  0.24846380  0.63504669  1
  Al  Al150  1  0.86299710  0.75293484  0.13036556  1
  Al  Al151  1  0.86304236  0.74719518  0.64013077  1
  Al  Al152  1  0.36258800  0.25084067  0.37400376  1
  Al  Al153  1  0.36431986  0.24511994  0.86346952  1
  Al  Al154  1  0.36408440  0.74742224  0.36634766  1
  Al  Al155  1  0.37077075  0.74702666  0.85976263  1
  Al  Al156  1  0.86752722  0.24988945  0.36874525  1
  Al  Al157  1  0.87329785  0.24968258  0.86199672  1
  Al  Al158  1  0.87257815  0.74911664  0.36525485  1
  Al  Al159  1  0.86373272  0.75188033  0.86188079  1
  Al  Al160  1  0.13720797  0.13804248  0.25022677  1
  Al  Al161  1  0.13112319  0.13526432  0.74795025  1
  Al  Al162  1  0.13762336  0.63145676  0.25624403  1
  Al  Al163  1  0.13826416  0.62978010  0.74863937  1
  Al  Al164  1  0.63137924  0.13961012  0.25167723  1
  Al  Al165  1  0.63257081  0.13907199  0.74876409  1
  Al  Al166  1  0.63235330  0.63736810  0.24728509  1
  Al  Al167  1  0.62978556  0.63461421  0.75524179  1
  Al  Al168  1  0.37137688  0.13985317  0.25548096  1
  Al  Al169  1  0.36841288  0.13814387  0.74439293  1
  Al  Al170  1  0.36152052  0.62789066  0.25009453  1
  Al  Al171  1  0.36432027  0.62945543  0.75208997  1
  Al  Al172  1  0.86527011  0.13749369  0.25106761  1
  Al  Al173  1  0.86582081  0.13273473  0.74808980  1
  Al  Al174  1  0.86598833  0.63817352  0.25245366  1
  Al  Al175  1  0.86383757  0.63348589  0.75146054  1
  Al  Al176  1  0.13496176  0.36584460  0.25313912  1
  Al  Al177  1  0.13002114  0.36682523  0.74621740  1
  Al  Al178  1  0.13791963  0.86009688  0.25205953  1
  Al  Al179  1  0.13934962  0.86333010  0.74746418  1
  Al  Al180  1  0.63307216  0.35982785  0.24753204  1
  Al  Al181  1  0.63748753  0.36142270  0.75277466  1
  Al  Al182  1  0.63338947  0.86408143  0.24720641  1
  Al  Al183  1  0.62928667  0.86403884  0.75066910  1
  Al  Al184  1  0.36700694  0.36851233  0.25483599  1
  Al  Al185  1  0.36197398  0.36864807  0.75094561  1
  Al  Al186  1  0.36529269  0.86013539  0.24732905  1
  Al  Al187  1  0.37242537  0.86007718  0.74734756  1
  Al  Al188  1  0.86925825  0.36223484  0.25218650  1
  Al  Al189  1  0.86943699  0.36183605  0.74905673  1
  Al  Al190  1  0.86588274  0.86368138  0.25590085  1
  Al  Al191  1  0.86253498  0.87515139  0.74739813  1
  Al  Al192  1  0.33048094  -0.00150454  0.82465695  1
  Al  Al193  1  0.82404483  0.82510808  0.50148190  1
  Al  Al194  1  0.32846757  0.68839391  -0.00157904  1
  Al  Al195  1  0.18619698  0.81499509  0.49967657  1
  Al  Al196  1  0.18188808  0.32187764  0.50171244  1
  Al  Al197  1  0.50020077  0.31853443  0.67338629  1
  Al  Al198  1  0.67232002  0.00011047  0.17125593  1
  Al  Al199  1  0.82810150  0.66601268  0.50181313  1
  Al  Al200  1  0.49790774  0.67425849  0.31613143  1
  Al  Al201  1  -0.00186191  0.17801216  0.32220655  1
  Al  Al202  1  0.32731283  0.00256349  0.32963861  1
  Al  Al203  1  0.49976021  0.31268673  0.32379551  1
  Al  Al204  1  0.17026415  0.00032997  0.66940310  1
  Al  Al205  1  0.67296997  0.49852252  0.68902712  1
  Al  Al206  1  0.33110144  0.32528497  -0.00164300  1
  Al  Al207  1  0.17756709  0.17507394  -0.00072874  1
  Al  Al208  1  0.16995218  -0.00227757  0.16974087  1
  Al  Al209  1  0.00055686  0.67072461  0.17990226  1
  Al  Al210  1  0.49890929  0.83437005  0.32369776  1
  Al  Al211  1  0.32528995  0.00105414  0.67015270  1
  Al  Al212  1  0.68980437  0.82156276  -0.00063162  1
  Al  Al213  1  0.18708804  0.49950246  0.18607694  1
  Al  Al214  1  0.00114810  0.67435520  0.81224263  1
  Al  Al215  1  0.81373853  0.31259624  0.50176486  1
  Al  Al216  1  0.17287472  0.00007635  0.32737511  1
  Al  Al217  1  0.82535826  -0.00039283  0.18233439  1
  Al  Al218  1  0.83037961  0.50020819  0.33130857  1
  Al  Al219  1  0.17707333  0.68315173  -0.00250565  1
  Al  Al220  1  0.16618654  -0.00014202  0.83551268  1
  Al  Al221  1  0.32794487  -0.00117742  0.17406345  1
  Al  Al222  1  0.82696513  0.49972123  0.17285243  1
  Al  Al223  1  -0.00163167  0.82539685  0.18270109  1
  Al  Al224  1  0.68382207  -0.00153288  0.82561867  1
  Al  Al225  1  0.00025770  0.80884244  0.67087912  1
  Al  Al226  1  0.16769312  0.33148968  -0.00151836  1
  Al  Al227  1  -0.00168189  0.82856009  0.82682629  1
  Al  Al228  1  0.82524913  0.49881849  0.68413068  1
  Al  Al229  1  0.68012464  0.00288639  0.67392848  1
  Al  Al230  1  0.82564775  0.17269638  -0.00386190  1
  Al  Al231  1  0.31442265  0.68309123  0.50229577  1
  Al  Al232  1  0.66722562  0.67946110  0.50310093  1
  Al  Al233  1  0.82447098  0.68154544  -0.00334234  1
  Al  Al234  1  0.66862715  0.66919116  -0.00072753  1
  Al  Al235  1  0.67227837  0.50091430  0.17176101  1
  Al  Al236  1  0.68089556  0.00322896  0.32474465  1
  Al  Al237  1  0.49928675  0.32753070  0.82948147  1
  Al  Al238  1  0.67198434  0.49947486  0.32901152  1
  Au  Au239  1  0.49966259  0.32058627  0.33856142  1
  Au  Au240  1  0.17464987  0.49690970  0.17420463  1
  Au  Au241  1  0.50401803  0.16488617  0.83226500  1
  Au  Au242  1  0.17354123  0.82602461  0.49708634  1
  Au  Au243  1  0.16857159  0.67161551  -0.00303704  1
  Au  Au244  1  0.00139767  0.16869149  0.32965645  1
  Au  Au245  1  0.32463510  0.15879635  -0.00206488  1
  Au  Au246  1  0.50175247  0.82071561  0.15675384  1
  Au  Au247  1  0.49845323  0.16879296  0.65881484  1
  Au  Au248  1  0.00009307  0.17800643  0.16469474  1
  Au  Au249  1  0.49677129  0.65885718  0.32353331  1
  Au  Au250  1  0.50246025  0.81879225  0.83523118  1
  Au  Au251  1  0.82894325  0.00447490  0.67085090  1
  Au  Au252  1  0.32953579  0.67496306  0.50270158  1
  Au  Au253  1  0.00605656  0.33460017  0.32739410  1
  Au  Au254  1  0.67493290  0.84407064  0.50136197  1
  Au  Au255  1  0.84405273  0.67339907  0.50310950  1
  Au  Au256  1  0.16297601  0.49925275  0.67457044  1
  Au  Au257  1  0.15525790  0.32883953  -0.00244419  1
  Au  Au258  1  0.83111732  0.16248612  0.00073335  1
  Au  Au259  1  0.82724173  0.32337156  0.50316604  1
  Au  Au260  1  -0.00013807  0.82546066  0.67582153  1
  Au  Au261  1  0.33674485  0.49915645  0.67899682  1
  Au  Au262  1  0.66982217  0.16593539  0.00014453  1
  Au  Au263  1  0.66800205  0.33892039  -0.00177930  1
  Au  Au264  1  0.15363122  -0.00331432  0.17391913  1
  Au  Au265  1  0.65621481  0.49336903  0.32877074  1
  Au  Au266  1  0.34474688  -0.00386982  0.17809129  1
  Au  Au267  1  0.83512531  0.33711236  -0.00296069  1
  Au  Au268  1  0.83019626  0.00016688  0.33470306  1
  Au  Au269  1  0.66180989  0.66809387  0.50264203  1
  Au  Au270  1  0.33163335  0.34157665  -0.00135704  1
  Au  Au271  1  0.32353593  0.49904026  0.32531278  1
  Au  Au272  1  0.17202624  0.17271844  0.49977806  1
  Au  Au273  1  0.34588608  -0.00648256  0.82493563  1
  Au  Au274  1  0.49835209  0.82318969  0.66397111  1
  Au  Au275  1  0.49898310  0.83841303  0.34003765  1
  Au  Au276  1  0.50301797  0.16721440  0.17537087  1
  Au  Au277  1  0.83440766  0.49862637  0.67270628  1
  Au  Au278  1  0.84614550  0.50069300  0.32393731  1
  Au  Au279  1  -0.00373027  0.67297297  0.16346531  1
  Au  Au280  1  0.82150013  0.66894056  -0.00193764  1
  Au  Au281  1  0.00933538  0.67429281  0.34022370  1
  Au  Au282  1  0.16930663  0.00527997  0.65400732  1
  Au  Au283  1  0.49631986  0.34350429  0.82685721  1
  Au  Au284  1  0.15163317  -0.00023890  0.84125266  1
  Au  Au285  1  0.49958883  0.33778755  0.16432834  1
  Au  Au286  1  -0.00033611  0.33003364  0.81902789  1
  Au  Au287  1  0.32974769  0.32985033  0.50366247  1
