# generated using pymatgen
data_Ca24Ti8Al207Au49
_symmetry_space_group_name_H-M   'P 1'
_cell_length_a   17.32400421
_cell_length_b   17.32397602
_cell_length_c   17.32222130
_cell_angle_alpha   89.99608178
_cell_angle_beta   89.99936310
_cell_angle_gamma   89.99851118
_symmetry_Int_Tables_number   1
_chemical_formula_structural   Ca24Ti8Al207Au49
_chemical_formula_sum   'Ca24 Ti8 Al207 Au49'
_cell_volume   5198.75601489
_cell_formula_units_Z   1
loop_
 _symmetry_equiv_pos_site_id
 _symmetry_equiv_pos_as_xyz
  1  'x, y, z'
loop_
 _atom_site_type_symbol
 _atom_site_label
 _atom_site_symmetry_multiplicity
 _atom_site_fract_x
 _atom_site_fract_y
 _atom_site_fract_z
 _atom_site_occupancy
  Ca  Ca0  1  0.25288578  0.00051949  -0.00301929  1
  Ca  Ca1  1  0.25130957  0.00062660  0.50325145  1
  Ca  Ca2  1  0.24688316  0.50107503  -0.00461609  1
  Ca  Ca3  1  0.24578032  0.49979528  0.50376518  1
  Ca  Ca4  1  0.75183628  -0.00240918  0.00130397  1
  Ca  Ca5  1  0.75414388  0.00098387  0.50076019  1
  Ca  Ca6  1  0.75262059  0.50222392  0.00161831  1
  Ca  Ca7  1  0.75099645  0.49750345  0.50175003  1
  Ca  Ca8  1  0.00052208  0.24970184  -0.00087272  1
  Ca  Ca9  1  0.00002170  0.25250321  0.50062756  1
  Ca  Ca10  1  -0.00053008  0.75133195  -0.00250901  1
  Ca  Ca11  1  0.00040795  0.75127865  0.50266297  1
  Ca  Ca12  1  0.49754630  0.24915357  0.00225629  1
  Ca  Ca13  1  0.49836929  0.25040727  0.49759724  1
  Ca  Ca14  1  0.50097252  0.75393531  -0.00016096  1
  Ca  Ca15  1  0.49544359  0.75002030  0.49952215  1
  Ca  Ca16  1  -0.00560690  -0.00179139  0.25230108  1
  Ca  Ca17  1  -0.00229066  -0.00216539  0.74849205  1
  Ca  Ca18  1  0.00265573  0.49836737  0.25606020  1
  Ca  Ca19  1  0.00349612  0.50139249  0.74354522  1
  Ca  Ca20  1  0.50502462  -0.00278287  0.24967075  1
  Ca  Ca21  1  0.50185975  0.00003376  0.74546737  1
  Ca  Ca22  1  0.49956971  0.49935331  0.25377620  1
  Ca  Ca23  1  0.49354349  0.49895516  0.74657021  1
  Ti  Ti24  1  0.25058736  0.25034560  0.25371561  1
  Ti  Ti25  1  0.24729447  0.25199615  0.74674814  1
  Ti  Ti26  1  0.24995188  0.75058704  0.25382874  1
  Ti  Ti27  1  0.24712240  0.74836227  0.74829547  1
  Ti  Ti28  1  0.74858541  0.24793528  0.25047088  1
  Ti  Ti29  1  0.75352478  0.25001323  0.75067035  1
  Ti  Ti30  1  0.74911750  0.75308052  0.24831895  1
  Ti  Ti31  1  0.75267666  0.75028446  0.75067432  1
  Al  Al32  1  0.07538383  0.08334343  0.07726842  1
  Al  Al33  1  0.07952060  0.08480942  0.57906730  1
  Al  Al34  1  0.07855397  0.57786592  0.07889517  1
  Al  Al35  1  0.08870553  0.58029663  0.59205648  1
  Al  Al36  1  0.59180397  0.07607990  0.09258394  1
  Al  Al37  1  0.58308285  0.08644728  0.59101214  1
  Al  Al38  1  0.58259861  0.57993962  0.08127290  1
  Al  Al39  1  0.57337501  0.58138258  0.58245502  1
  Al  Al40  1  0.41873525  0.40750937  0.08323408  1
  Al  Al41  1  0.40881992  0.42411897  0.58804809  1
  Al  Al42  1  0.43061507  0.91021718  0.08523616  1
  Al  Al43  1  0.40931198  0.91422154  0.57891841  1
  Al  Al44  1  0.91971438  0.41754309  0.08590132  1
  Al  Al45  1  0.92591110  0.41085436  0.58288300  1
  Al  Al46  1  0.90961640  0.92181459  0.09072338  1
  Al  Al47  1  0.91560012  0.91490307  0.59258295  1
  Al  Al48  1  0.42417007  0.08000135  0.42081718  1
  Al  Al49  1  0.42036435  0.07939571  0.91795090  1
  Al  Al50  1  0.41200042  0.59149078  0.42495220  1
  Al  Al51  1  0.40531820  0.58088326  0.91271343  1
  Al  Al52  1  0.91850685  0.08236251  0.40918091  1
  Al  Al53  1  0.90911969  0.08571102  0.92223893  1
  Al  Al54  1  0.92690009  0.58636613  0.42080022  1
  Al  Al55  1  0.92414828  0.58831378  0.91155402  1
  Al  Al56  1  0.08660070  0.40365797  0.42107872  1
  Al  Al57  1  0.08811159  0.41958788  0.90834999  1
  Al  Al58  1  0.07682028  0.90959968  0.41717757  1
  Al  Al59  1  0.07735815  0.90847732  0.91357194  1
  Al  Al60  1  0.58920921  0.41124737  0.41797883  1
  Al  Al61  1  0.57504333  0.42437638  0.92477510  1
  Al  Al62  1  0.58357900  0.91864673  0.41439377  1
  Al  Al63  1  0.59198651  0.91226530  0.92679172  1
  Al  Al64  1  0.07637122  0.09451586  0.41345553  1
  Al  Al65  1  0.07907800  0.08028401  0.92050772  1
  Al  Al66  1  0.08131228  0.58672604  0.42032047  1
  Al  Al67  1  0.08411544  0.58309191  0.90245272  1
  Al  Al68  1  0.58419080  0.08064614  0.41614111  1
  Al  Al69  1  0.58338314  0.07682532  0.91804060  1
  Al  Al70  1  0.57503271  0.57652490  0.41885607  1
  Al  Al71  1  0.58275451  0.58527076  0.91750313  1
  Al  Al72  1  0.42187119  0.41892325  0.42228602  1
  Al  Al73  1  0.40416252  0.42413275  0.91931400  1
  Al  Al74  1  0.41223178  0.90924176  0.42131027  1
  Al  Al75  1  0.41923473  0.91791543  0.92183898  1
  Al  Al76  1  0.92500144  0.40653521  0.41823012  1
  Al  Al77  1  0.92276340  0.41800822  0.91428675  1
  Al  Al78  1  0.91719007  0.91530302  0.41152736  1
  Al  Al79  1  0.91738436  0.91299499  0.91025384  1
  Al  Al80  1  0.07879687  0.41541674  0.08173108  1
  Al  Al81  1  0.09013019  0.41285307  0.58622609  1
  Al  Al82  1  0.07581671  0.91554804  0.07625194  1
  Al  Al83  1  0.07695511  0.91006295  0.58527291  1
  Al  Al84  1  0.57598611  0.41354873  0.09243346  1
  Al  Al85  1  0.59027026  0.40918973  0.57629804  1
  Al  Al86  1  0.59415591  0.91311000  0.09011445  1
  Al  Al87  1  0.58303221  0.92370110  0.58368947  1
  Al  Al88  1  0.42814572  0.08235807  0.08036238  1
  Al  Al89  1  0.42263672  0.08497750  0.58868311  1
  Al  Al90  1  0.41962899  0.58209587  0.07512350  1
  Al  Al91  1  0.40483214  0.58792796  0.58736936  1
  Al  Al92  1  0.90371358  0.08587362  0.08674776  1
  Al  Al93  1  0.91444791  0.07888285  0.58800650  1
  Al  Al94  1  0.91803764  0.57824879  0.08127503  1
  Al  Al95  1  0.92753921  0.58750555  0.58529839  1
  Al  Al96  1  0.24706610  0.13913471  0.13738593  1
  Al  Al97  1  0.24752367  0.13891443  0.62906384  1
  Al  Al98  1  0.25109863  0.63757530  0.13655436  1
  Al  Al99  1  0.24808447  0.63477262  0.63031427  1
  Al  Al100  1  0.75261147  0.12975262  0.13540153  1
  Al  Al101  1  0.75292799  0.13608392  0.63779959  1
  Al  Al102  1  0.74750184  0.63877946  0.13478121  1
  Al  Al103  1  0.75229472  0.62999497  0.63774363  1
  Al  Al104  1  0.24845721  0.36248902  0.13840408  1
  Al  Al105  1  0.24508884  0.36442238  0.62813460  1
  Al  Al106  1  0.24924886  0.86275735  0.13994559  1
  Al  Al107  1  0.24868826  0.86168559  0.62997144  1
  Al  Al108  1  0.75174781  0.36142126  0.13659016  1
  Al  Al109  1  0.75257223  0.36784397  0.63871635  1
  Al  Al110  1  0.74898393  0.87004962  0.13271456  1
  Al  Al111  1  0.75318182  0.86556634  0.63724396  1
  Al  Al112  1  0.24695771  0.13727701  0.37297092  1
  Al  Al113  1  0.24889510  0.13699370  0.85927528  1
  Al  Al114  1  0.25157273  0.63766439  0.37411838  1
  Al  Al115  1  0.24646459  0.62963326  0.86003870  1
  Al  Al116  1  0.74411265  0.13335866  0.36125167  1
  Al  Al117  1  0.75443003  0.13081087  0.86508658  1
  Al  Al118  1  0.74813780  0.64086272  0.36174533  1
  Al  Al119  1  0.75510278  0.63556057  0.86328869  1
  Al  Al120  1  0.24901944  0.36361464  0.37230224  1
  Al  Al121  1  0.24688424  0.37196726  0.85816578  1
  Al  Al122  1  0.24958778  0.86412374  0.37308624  1
  Al  Al123  1  0.25100381  0.86454079  0.86154214  1
  Al  Al124  1  0.74801039  0.36150095  0.36583887  1
  Al  Al125  1  0.75759474  0.36755649  0.86108299  1
  Al  Al126  1  0.74605426  0.86726153  0.36289877  1
  Al  Al127  1  0.75456018  0.86774443  0.86899786  1
  Al  Al128  1  0.13326122  0.25210075  0.13712822  1
  Al  Al129  1  0.12988544  0.25336671  0.63058911  1
  Al  Al130  1  0.13154685  0.75098646  0.13590936  1
  Al  Al131  1  0.13337756  0.74589464  0.62876215  1
  Al  Al132  1  0.63115839  0.24487355  0.13638683  1
  Al  Al133  1  0.63814164  0.25205119  0.63628748  1
  Al  Al134  1  0.63427631  0.76026400  0.12954866  1
  Al  Al135  1  0.63683269  0.75272599  0.63532782  1
  Al  Al136  1  0.13304058  0.25367541  0.37279601  1
  Al  Al137  1  0.12985144  0.25705464  0.85887987  1
  Al  Al138  1  0.13712722  0.74976070  0.37599080  1
  Al  Al139  1  0.12993571  0.74687425  0.86038265  1
  Al  Al140  1  0.63458310  0.25241894  0.36701687  1
  Al  Al141  1  0.63732537  0.24610537  0.86339850  1
  Al  Al142  1  0.63241066  0.75596233  0.36391046  1
  Al  Al143  1  0.63825625  0.75431571  0.86758992  1
  Al  Al144  1  0.37114097  0.25076133  0.13695504  1
  Al  Al145  1  0.36197411  0.25143336  0.62844739  1
  Al  Al146  1  0.36528400  0.75402041  0.13599495  1
  Al  Al147  1  0.36088600  0.74832254  0.63073162  1
  Al  Al148  1  0.86250265  0.24442164  0.13301334  1
  Al  Al149  1  0.87237829  0.25025143  0.63896033  1
  Al  Al150  1  0.86347804  0.75632595  0.12708167  1
  Al  Al151  1  0.86555398  0.74912269  0.63660073  1
  Al  Al152  1  0.36420687  0.25069347  0.37264026  1
  Al  Al153  1  0.36452440  0.25251292  0.86213546  1
  Al  Al154  1  0.36344096  0.75230118  0.37123527  1
  Al  Al155  1  0.36507536  0.74914089  0.86248768  1
  Al  Al156  1  0.86926787  0.24728402  0.36235234  1
  Al  Al157  1  0.87035301  0.24812686  0.86238477  1
  Al  Al158  1  0.86489163  0.75526088  0.36411603  1
  Al  Al159  1  0.87183034  0.75348961  0.86449075  1
  Al  Al160  1  0.13087086  0.14097437  0.25906420  1
  Al  Al161  1  0.12777468  0.13992480  0.74719456  1
  Al  Al162  1  0.13875581  0.63769782  0.25380108  1
  Al  Al163  1  0.13094352  0.63072034  0.74457566  1
  Al  Al164  1  0.63610479  0.12771021  0.24498408  1
  Al  Al165  1  0.63582162  0.13490204  0.74928579  1
  Al  Al166  1  0.63420303  0.63964001  0.24580862  1
  Al  Al167  1  0.63598150  0.63541537  0.75068427  1
  Al  Al168  1  0.36342456  0.13587865  0.24870607  1
  Al  Al169  1  0.36564709  0.13954432  0.74537705  1
  Al  Al170  1  0.36279706  0.63723364  0.25211640  1
  Al  Al171  1  0.36151269  0.63434226  0.74934285  1
  Al  Al172  1  0.86494001  0.13386485  0.25111085  1
  Al  Al173  1  0.86996940  0.13125465  0.75031785  1
  Al  Al174  1  0.86502033  0.63912007  0.24845610  1
  Al  Al175  1  0.87350828  0.63455420  0.74839537  1
  Al  Al176  1  0.13458042  0.36262891  0.25797659  1
  Al  Al177  1  0.13247525  0.37194630  0.74219740  1
  Al  Al178  1  0.13114113  0.85973256  0.25838645  1
  Al  Al179  1  0.13544919  0.86209448  0.74897520  1
  Al  Al180  1  0.63469121  0.36340744  0.24675920  1
  Al  Al181  1  0.63332289  0.36605587  0.74952728  1
  Al  Al182  1  0.63244822  0.87060930  0.24619612  1
  Al  Al183  1  0.63627597  0.86589564  0.75190363  1
  Al  Al184  1  0.36314386  0.36338745  0.25075999  1
  Al  Al185  1  0.36366776  0.36427804  0.74676486  1
  Al  Al186  1  0.37052416  0.86241905  0.25276304  1
  Al  Al187  1  0.36651133  0.86148346  0.74633006  1
  Al  Al188  1  0.86452506  0.36223441  0.25447622  1
  Al  Al189  1  0.87177729  0.36788743  0.74650001  1
  Al  Al190  1  0.86344714  0.86569354  0.24781621  1
  Al  Al191  1  0.86436692  0.87012130  0.75134165  1
  Al  Al192  1  0.16936775  0.67016936  -0.00177712  1
  Al  Al193  1  -0.00185472  0.81989386  0.17855473  1
  Al  Al194  1  0.00164626  0.69228462  0.32025311  1
  Al  Al195  1  0.67170812  0.32479880  0.00095829  1
  Al  Al196  1  0.67788099  0.49641917  0.82308117  1
  Al  Al197  1  0.81805561  0.50022568  0.17619148  1
  Al  Al198  1  0.17161284  0.49977502  0.33117055  1
  Al  Al199  1  0.49936289  0.32794900  0.31949305  1
  Al  Al200  1  0.33258382  -0.00170361  0.17425917  1
  Al  Al201  1  0.82400825  0.82790553  0.50029938  1
  Al  Al202  1  0.82857217  0.31852742  0.00013349  1
  Al  Al203  1  -0.00073130  0.32726889  0.18856932  1
  Al  Al204  1  0.32478493  0.00080079  0.67722876  1
  Al  Al205  1  0.50048999  0.17946447  0.81635573  1
  Al  Al206  1  0.31503816  0.32312071  -0.00136903  1
  Al  Al207  1  0.32166906  0.68164000  -0.00150668  1
  Al  Al208  1  -0.00146407  0.17536808  0.18171495  1
  Al  Al209  1  0.32810196  0.17078872  -0.00000048  1
  Al  Al210  1  0.17520160  -0.00174443  0.82692462  1
  Al  Al211  1  0.49835487  0.68110908  0.67905215  1
  Al  Al212  1  0.18092198  0.82288004  -0.00189807  1
  Al  Al213  1  0.50499577  0.82304669  0.82456085  1
  Al  Al214  1  0.32602554  0.00060159  0.33015543  1
  Al  Al215  1  0.49944548  0.31637895  0.67368546  1
  Al  Al216  1  0.32611611  0.50100186  0.33141674  1
  Al  Al217  1  0.49861004  0.68066958  0.32530577  1
  Al  Al218  1  -0.00047805  0.80922034  0.69112240  1
  Al  Al219  1  0.82877665  0.67379244  0.50022787  1
  Al  Al220  1  0.49954596  0.68749217  0.16703140  1
  Al  Al221  1  0.68006840  0.67899014  0.00003739  1
  Al  Al222  1  0.17152568  0.00021462  0.67080454  1
  Al  Al223  1  0.67279675  0.67611181  0.49913176  1
  Al  Al224  1  0.30386663  0.49947506  0.69049474  1
  Al  Al225  1  0.82136176  0.17014640  0.49717470  1
  Al  Al226  1  0.50031525  0.17473727  0.31943039  1
  Al  Al227  1  0.17598609  0.18286029  -0.00282009  1
  Al  Al228  1  0.67380060  0.50136513  0.32059117  1
  Al  Al229  1  0.32555038  0.49987493  0.17429907  1
  Al  Al230  1  0.82000018  -0.00028496  0.31538321  1
  Al  Al231  1  0.67435016  0.18342725  0.50114959  1
  Al  Al232  1  0.82574925  0.50115781  0.33301986  1
  Al  Al233  1  0.68615332  0.16875665  0.00024665  1
  Al  Al234  1  0.81782123  0.32451910  0.50200999  1
  Al  Al235  1  0.16984852  0.00165812  0.32767602  1
  Al  Al236  1  0.17033320  0.49925203  0.17589460  1
  Al  Al237  1  0.17504233  0.00098567  0.17073713  1
  Al  Al238  1  0.68648793  0.00084661  0.68064041  1
  Au  Au239  1  0.16343266  0.17763067  0.50078584  1
  Au  Au240  1  0.33602740  0.16706242  0.50144457  1
  Au  Au241  1  0.00234501  0.33733442  0.81859756  1
  Au  Au242  1  0.50192779  0.17409906  0.17109662  1
  Au  Au243  1  0.83907777  0.17446853  0.49674013  1
  Au  Au244  1  -0.00042665  0.17181943  0.66819949  1
  Au  Au245  1  0.33527817  0.49962743  0.16440799  1
  Au  Au246  1  0.66957873  -0.00378323  0.82817383  1
  Au  Au247  1  0.16258193  -0.00139891  0.82414296  1
  Au  Au248  1  0.66748088  0.67958621  0.00196284  1
  Au  Au249  1  0.34355268  -0.00655368  0.17114152  1
  Au  Au250  1  0.16605338  -0.00271703  0.33874556  1
  Au  Au251  1  0.67228879  0.00054741  0.32210961  1
  Au  Au252  1  -0.00240292  0.16712970  0.17004314  1
  Au  Au253  1  0.17454278  0.66413561  0.50327201  1
  Au  Au254  1  0.16517970  0.00082977  0.16317092  1
  Au  Au255  1  0.83605977  0.00127049  0.82383524  1
  Au  Au256  1  0.67466209  0.16319758  0.00021302  1
  Au  Au257  1  -0.00027293  0.83233557  0.18098766  1
  Au  Au258  1  0.83348951  0.50291349  0.83179577  1
  Au  Au259  1  0.49857659  0.83133616  0.33060874  1
  Au  Au260  1  0.00146192  0.68133651  0.81694333  1
  Au  Au261  1  0.50071833  0.16586628  0.82624124  1
  Au  Au262  1  0.84182924  0.49830522  0.33237364  1
  Au  Au263  1  0.83591515  0.66995279  -0.00037068  1
  Au  Au264  1  0.49429761  0.65879755  0.82601345  1
  Au  Au265  1  0.32363740  0.33899118  0.50003768  1
  Au  Au266  1  0.18047251  0.50125345  0.81478824  1
  Au  Au267  1  0.00083777  0.65773627  0.17614994  1
  Au  Au268  1  0.66876817  0.17234367  0.50122622  1
  Au  Au269  1  0.82716417  0.83834014  -0.00008683  1
  Au  Au270  1  0.49155459  0.34194964  0.83538907  1
  Au  Au271  1  0.66879501  0.66394290  0.49936914  1
  Au  Au272  1  0.50229918  0.83185149  0.83304762  1
  Au  Au273  1  0.49772961  0.82824898  0.65895401  1
  Au  Au274  1  0.33637710  0.00012972  0.82580190  1
  Au  Au275  1  0.33041352  0.83003836  0.00288716  1
  Au  Au276  1  0.66126095  0.33154121  0.00035349  1
  Au  Au277  1  0.66751692  0.49821551  0.17098970  1
  Au  Au278  1  0.49872964  0.67131481  0.17276245  1
  Au  Au279  1  0.49932243  0.32588188  0.65985052  1
  Au  Au280  1  0.66486628  0.49922998  0.66561756  1
  Au  Au281  1  0.67505086  0.84004479  0.50229169  1
  Au  Au282  1  0.66951107  0.49856375  0.83219233  1
  Au  Au283  1  0.83709932  0.32791339  -0.00134208  1
  Au  Au284  1  -0.00193909  0.17029362  0.83798358  1
  Au  Au285  1  0.17307784  0.83262265  0.50234055  1
  Au  Au286  1  0.16726580  0.33128471  -0.00052863  1
  Au  Au287  1  0.84005432  0.49940969  0.66268524  1
