# generated using pymatgen
data_Ca24Ti8Al207Au49
_symmetry_space_group_name_H-M   'P 1'
_cell_length_a   17.32456382
_cell_length_b   17.32291933
_cell_length_c   17.32186201
_cell_angle_alpha   89.99745060
_cell_angle_beta   89.99885631
_cell_angle_gamma   90.00248610
_symmetry_Int_Tables_number   1
_chemical_formula_structural   Ca24Ti8Al207Au49
_chemical_formula_sum   'Ca24 Ti8 Al207 Au49'
_cell_volume   5198.49901268
_cell_formula_units_Z   1
loop_
 _symmetry_equiv_pos_site_id
 _symmetry_equiv_pos_as_xyz
  1  'x, y, z'
loop_
 _atom_site_type_symbol
 _atom_site_label
 _atom_site_symmetry_multiplicity
 _atom_site_fract_x
 _atom_site_fract_y
 _atom_site_fract_z
 _atom_site_occupancy
  Ca  Ca0  1  0.24943824  -0.00084482  0.00099298  1
  Ca  Ca1  1  0.25455195  -0.00377830  0.49837879  1
  Ca  Ca2  1  0.24833980  0.50330428  -0.00221199  1
  Ca  Ca3  1  0.24832887  0.50398810  0.50208604  1
  Ca  Ca4  1  0.74779933  0.00285742  0.00267181  1
  Ca  Ca5  1  0.74853370  0.00214546  0.49755264  1
  Ca  Ca6  1  0.75372190  0.49926826  -0.00137299  1
  Ca  Ca7  1  0.74919692  0.50035991  0.50112329  1
  Ca  Ca8  1  -0.00748189  0.24940764  0.00121656  1
  Ca  Ca9  1  0.00003443  0.25673893  0.49825290  1
  Ca  Ca10  1  -0.00366813  0.74949604  0.00244185  1
  Ca  Ca11  1  0.00280051  0.74451278  0.49578607  1
  Ca  Ca12  1  0.50184721  0.24950631  0.00109682  1
  Ca  Ca13  1  0.50253542  0.25105015  0.49984263  1
  Ca  Ca14  1  0.50187817  0.75113048  -0.00240939  1
  Ca  Ca15  1  0.49685021  0.74867684  0.50395466  1
  Ca  Ca16  1  -0.00105962  -0.00029106  0.24568258  1
  Ca  Ca17  1  -0.00101532  0.00033979  0.75110591  1
  Ca  Ca18  1  -0.00161158  0.50043423  0.25333065  1
  Ca  Ca19  1  -0.00373862  0.49981652  0.75166757  1
  Ca  Ca20  1  0.50017723  0.00160958  0.24985358  1
  Ca  Ca21  1  0.50089623  -0.00285525  0.74711267  1
  Ca  Ca22  1  0.50220848  0.49745454  0.25302918  1
  Ca  Ca23  1  0.50211251  0.50375595  0.74430503  1
  Ti  Ti24  1  0.25219555  0.24976271  0.25137161  1
  Ti  Ti25  1  0.25102790  0.24876179  0.74903439  1
  Ti  Ti26  1  0.24978394  0.75000012  0.25169157  1
  Ti  Ti27  1  0.25231711  0.74999444  0.74933646  1
  Ti  Ti28  1  0.74848415  0.25141121  0.24840075  1
  Ti  Ti29  1  0.74833401  0.25106085  0.74958162  1
  Ti  Ti30  1  0.75164572  0.74835327  0.24949421  1
  Ti  Ti31  1  0.74929423  0.74887600  0.74966322  1
  Al  Al32  1  0.08549319  0.08436579  0.07971736  1
  Al  Al33  1  0.07752511  0.08381349  0.58150967  1
  Al  Al34  1  0.07775846  0.58537942  0.08390876  1
  Al  Al35  1  0.09041346  0.58319479  0.58181295  1
  Al  Al36  1  0.58233880  0.08940874  0.08936078  1
  Al  Al37  1  0.58833250  0.07948836  0.58864470  1
  Al  Al38  1  0.58016964  0.57371877  0.07793232  1
  Al  Al39  1  0.58417336  0.58080462  0.59959121  1
  Al  Al40  1  0.42872771  0.42151101  0.08747167  1
  Al  Al41  1  0.42282540  0.43012961  0.58536256  1
  Al  Al42  1  0.42184058  0.91853321  0.08335336  1
  Al  Al43  1  0.41419590  0.90576518  0.58172405  1
  Al  Al44  1  0.90987294  0.41243851  0.07672675  1
  Al  Al45  1  0.90688278  0.42567981  0.58576353  1
  Al  Al46  1  0.91384095  0.91886523  0.09539723  1
  Al  Al47  1  0.91869276  0.91760429  0.57584987  1
  Al  Al48  1  0.42430976  0.08881936  0.40936917  1
  Al  Al49  1  0.42139031  0.07419744  0.92181672  1
  Al  Al50  1  0.41204910  0.59404596  0.42533159  1
  Al  Al51  1  0.42817465  0.59455510  0.90594261  1
  Al  Al52  1  0.92120984  0.07724937  0.41906037  1
  Al  Al53  1  0.92109781  0.08389315  0.92305294  1
  Al  Al54  1  0.92208550  0.58591183  0.40484729  1
  Al  Al55  1  0.91223861  0.57789135  0.89944923  1
  Al  Al56  1  0.08664963  0.42820379  0.41623705  1
  Al  Al57  1  0.07389392  0.42444767  0.91746973  1
  Al  Al58  1  0.07897130  0.90289101  0.41246754  1
  Al  Al59  1  0.07942268  0.91907713  0.92232854  1
  Al  Al60  1  0.59285220  0.41239259  0.42191558  1
  Al  Al61  1  0.59839317  0.42477340  0.91257932  1
  Al  Al62  1  0.57428893  0.91790687  0.41128289  1
  Al  Al63  1  0.58122730  0.90764207  0.91142321  1
  Al  Al64  1  0.07731737  0.08087169  0.42123097  1
  Al  Al65  1  0.08819889  0.09338553  0.92360522  1
  Al  Al66  1  0.08698297  0.58949820  0.40875203  1
  Al  Al67  1  0.07413867  0.58805145  0.90742772  1
  Al  Al68  1  0.58076070  0.08482149  0.40991530  1
  Al  Al69  1  0.58451102  0.07778314  0.92444103  1
  Al  Al70  1  0.57827994  0.57563777  0.41587573  1
  Al  Al71  1  0.58755532  0.58450807  0.89506348  1
  Al  Al72  1  0.42751341  0.42104563  0.41914236  1
  Al  Al73  1  0.42732811  0.43342429  0.92072329  1
  Al  Al74  1  0.41558075  0.90046667  0.41869210  1
  Al  Al75  1  0.42281187  0.90839336  0.91131152  1
  Al  Al76  1  0.91082258  0.42592583  0.41628335  1
  Al  Al77  1  0.90203862  0.41473054  0.91162686  1
  Al  Al78  1  0.92063300  0.90694442  0.41160416  1
  Al  Al79  1  0.91878819  0.91794435  0.92325006  1
  Al  Al80  1  0.07365132  0.42239769  0.08027427  1
  Al  Al81  1  0.08895467  0.42635330  0.58171136  1
  Al  Al82  1  0.07534875  0.91970225  0.08632801  1
  Al  Al83  1  0.08039311  0.91485479  0.57337416  1
  Al  Al84  1  0.58847641  0.41150863  0.08152815  1
  Al  Al85  1  0.59560489  0.41747596  0.58626389  1
  Al  Al86  1  0.58141926  0.91678132  0.08384518  1
  Al  Al87  1  0.57727485  0.91995460  0.59401761  1
  Al  Al88  1  0.42318432  0.08883443  0.09420393  1
  Al  Al89  1  0.42415192  0.07357776  0.57942564  1
  Al  Al90  1  0.42232981  0.57696275  0.07834592  1
  Al  Al91  1  0.41183212  0.59376679  0.58953669  1
  Al  Al92  1  0.91095080  0.07858302  0.08557004  1
  Al  Al93  1  0.91981428  0.08033819  0.58641066  1
  Al  Al94  1  0.91818235  0.58079314  0.08674315  1
  Al  Al95  1  0.90904865  0.58054485  0.58833007  1
  Al  Al96  1  0.25131008  0.13714652  0.13660460  1
  Al  Al97  1  0.25126478  0.13466234  0.63004561  1
  Al  Al98  1  0.24660488  0.63604578  0.13510379  1
  Al  Al99  1  0.25403511  0.63806367  0.63349849  1
  Al  Al100  1  0.74774435  0.13102334  0.13679520  1
  Al  Al101  1  0.74662065  0.12928416  0.63569261  1
  Al  Al102  1  0.75583087  0.62730729  0.13585008  1
  Al  Al103  1  0.74762270  0.62876210  0.63570737  1
  Al  Al104  1  0.25207305  0.36178968  0.13826441  1
  Al  Al105  1  0.24893057  0.36536486  0.63638190  1
  Al  Al106  1  0.25201320  0.86361919  0.13801294  1
  Al  Al107  1  0.25399943  0.85921447  0.62743988  1
  Al  Al108  1  0.74815927  0.36879171  0.13094469  1
  Al  Al109  1  0.74605116  0.37003536  0.63264819  1
  Al  Al110  1  0.75269320  0.87098590  0.13892635  1
  Al  Al111  1  0.74597451  0.86733889  0.63879595  1
  Al  Al112  1  0.25635265  0.13621436  0.37039072  1
  Al  Al113  1  0.25067578  0.13003048  0.86327351  1
  Al  Al114  1  0.24859823  0.63645696  0.36440091  1
  Al  Al115  1  0.25525816  0.63473629  0.86408529  1
  Al  Al116  1  0.74857407  0.13449442  0.36275209  1
  Al  Al117  1  0.74573759  0.13397844  0.86489862  1
  Al  Al118  1  0.75559467  0.63407430  0.36612010  1
  Al  Al119  1  0.74944166  0.62824007  0.86229233  1
  Al  Al120  1  0.25128115  0.36403123  0.36388908  1
  Al  Al121  1  0.24711803  0.36671335  0.86378710  1
  Al  Al122  1  0.25334887  0.86153938  0.37371697  1
  Al  Al123  1  0.25028448  0.86638286  0.86407022  1
  Al  Al124  1  0.74642647  0.36298479  0.36699200  1
  Al  Al125  1  0.75119702  0.36759010  0.86752548  1
  Al  Al126  1  0.75185862  0.86240903  0.36379853  1
  Al  Al127  1  0.75064770  0.86308532  0.86496195  1
  Al  Al128  1  0.13650365  0.24899597  0.13471123  1
  Al  Al129  1  0.13780044  0.24647744  0.63513310  1
  Al  Al130  1  0.13255162  0.74658185  0.13772851  1
  Al  Al131  1  0.13598542  0.75015011  0.63379224  1
  Al  Al132  1  0.63115631  0.25256215  0.13595444  1
  Al  Al133  1  0.63748905  0.25196198  0.63464845  1
  Al  Al134  1  0.63930485  0.74946006  0.13648620  1
  Al  Al135  1  0.63233191  0.74730086  0.63838148  1
  Al  Al136  1  0.13748914  0.24777418  0.36424512  1
  Al  Al137  1  0.13683420  0.24631701  0.86506350  1
  Al  Al138  1  0.13218263  0.74989942  0.36617603  1
  Al  Al139  1  0.13545744  0.74671378  0.86158345  1
  Al  Al140  1  0.63137065  0.24885455  0.36361380  1
  Al  Al141  1  0.63638626  0.25270730  0.86226564  1
  Al  Al142  1  0.63569264  0.75019770  0.36591087  1
  Al  Al143  1  0.63111743  0.74652117  0.85976347  1
  Al  Al144  1  0.37291075  0.24466406  0.13908942  1
  Al  Al145  1  0.36615282  0.24575365  0.63598197  1
  Al  Al146  1  0.36435734  0.75113203  0.13455878  1
  Al  Al147  1  0.36757711  0.74817643  0.63187843  1
  Al  Al148  1  0.86116215  0.25371472  0.13657438  1
  Al  Al149  1  0.85592313  0.25148739  0.63370505  1
  Al  Al150  1  0.86256871  0.74798265  0.13098651  1
  Al  Al151  1  0.86145401  0.74370280  0.63692998  1
  Al  Al152  1  0.37385442  0.24676693  0.36331626  1
  Al  Al153  1  0.36528667  0.24464620  0.86411470  1
  Al  Al154  1  0.36637280  0.75165333  0.36930125  1
  Al  Al155  1  0.37132221  0.74944298  0.86335368  1
  Al  Al156  1  0.86152924  0.25114108  0.36374868  1
  Al  Al157  1  0.86118234  0.25226543  0.86423824  1
  Al  Al158  1  0.87139112  0.74558690  0.36077959  1
  Al  Al159  1  0.86282313  0.74472676  0.86672920  1
  Al  Al160  1  0.13759811  0.13662777  0.25012933  1
  Al  Al161  1  0.13597838  0.13422251  0.75319667  1
  Al  Al162  1  0.12868199  0.63451224  0.25580619  1
  Al  Al163  1  0.13905136  0.63246583  0.74669134  1
  Al  Al164  1  0.63055501  0.13719542  0.24687080  1
  Al  Al165  1  0.63183209  0.13435433  0.74875247  1
  Al  Al166  1  0.63724238  0.63442761  0.25184555  1
  Al  Al167  1  0.63612555  0.63102803  0.74840433  1
  Al  Al168  1  0.36429041  0.12939382  0.25161111  1
  Al  Al169  1  0.36849157  0.13323213  0.75064362  1
  Al  Al170  1  0.36357761  0.63744420  0.25349142  1
  Al  Al171  1  0.37471078  0.64015801  0.74749429  1
  Al  Al172  1  0.86275174  0.13291546  0.24673221  1
  Al  Al173  1  0.86222385  0.13586652  0.75023057  1
  Al  Al174  1  0.87057900  0.63126936  0.24939641  1
  Al  Al175  1  0.86326652  0.63014580  0.75163749  1
  Al  Al176  1  0.13585604  0.36457346  0.25276268  1
  Al  Al177  1  0.13578063  0.36494327  0.74761291  1
  Al  Al178  1  0.13532907  0.86213933  0.25461515  1
  Al  Al179  1  0.13674962  0.86387377  0.75053083  1
  Al  Al180  1  0.62866095  0.36458025  0.25017046  1
  Al  Al181  1  0.64066240  0.37372389  0.74976050  1
  Al  Al182  1  0.63618660  0.86508426  0.24860789  1
  Al  Al183  1  0.63368404  0.86561155  0.75377889  1
  Al  Al184  1  0.37241767  0.36275508  0.25314774  1
  Al  Al185  1  0.36451506  0.36528316  0.74963126  1
  Al  Al186  1  0.36419057  0.86674673  0.25560875  1
  Al  Al187  1  0.36571977  0.86148076  0.75135897  1
  Al  Al188  1  0.85998625  0.37128674  0.25101819  1
  Al  Al189  1  0.85853132  0.37070929  0.74909911  1
  Al  Al190  1  0.86684750  0.86411014  0.25241776  1
  Al  Al191  1  0.86398421  0.86451333  0.74949975  1
  Al  Al192  1  0.17405207  0.32508129  0.49896356  1
  Al  Al193  1  0.16932304  -0.00063124  0.67836522  1
  Al  Al194  1  0.32954109  0.33072505  0.00030309  1
  Al  Al195  1  0.67244304  0.00022385  0.31735794  1
  Al  Al196  1  0.32613430  -0.00312609  0.67594885  1
  Al  Al197  1  0.82838938  -0.00149628  0.31829632  1
  Al  Al198  1  0.17259884  0.67609742  -0.00313878  1
  Al  Al199  1  -0.00049403  0.17212835  0.17068413  1
  Al  Al200  1  0.67351980  0.18211686  0.00134344  1
  Al  Al201  1  -0.00064067  0.81956003  0.18669801  1
  Al  Al202  1  0.49981369  0.82368569  0.18732623  1
  Al  Al203  1  0.82512170  0.18155394  0.00142820  1
  Al  Al204  1  0.66719746  0.82927413  0.50311393  1
  Al  Al205  1  0.31713445  0.50091453  0.33510035  1
  Al  Al206  1  0.67905787  0.82559429  0.00035618  1
  Al  Al207  1  0.31658020  0.17247450  -0.00058034  1
  Al  Al208  1  -0.00107711  0.81339169  0.83190461  1
  Al  Al209  1  -0.00181278  0.32545667  0.17620329  1
  Al  Al210  1  0.32437263  0.82139668  0.00086225  1
  Al  Al211  1  0.17496191  -0.00049052  0.33023038  1
  Al  Al212  1  0.67580045  0.66999475  -0.00101686  1
  Al  Al213  1  0.00043588  0.66908572  0.68555861  1
  Al  Al214  1  0.18018504  -0.00015731  0.17243567  1
  Al  Al215  1  0.50080982  0.67177565  0.17165935  1
  Al  Al216  1  0.68636321  0.49874856  0.32208851  1
  Al  Al217  1  0.82548684  0.81728470  0.50008597  1
  Al  Al218  1  -0.00086800  0.33181089  0.32998650  1
  Al  Al219  1  -0.00083854  0.32659474  0.66479746  1
  Al  Al220  1  0.32619371  0.49989033  0.17699974  1
  Al  Al221  1  -0.00118689  0.82451799  0.67205334  1
  Al  Al222  1  0.50006279  0.68482977  0.32495093  1
  Al  Al223  1  0.82159618  0.32511507  0.50012638  1
  Al  Al224  1  0.16767602  0.31864488  -0.00063609  1
  Al  Al225  1  0.16893281  0.50027867  0.18525774  1
  Al  Al226  1  0.18518147  0.67728879  0.49943650  1
  Al  Al227  1  -0.00114511  0.17732292  0.32346213  1
  Al  Al228  1  0.31267057  0.50189952  0.68009298  1
  Al  Al229  1  0.67812608  0.18098813  0.49864924  1
  Al  Al230  1  0.50202428  0.32343811  0.67086464  1
  Al  Al231  1  0.33132986  0.32392074  0.50171009  1
  Al  Al232  1  -0.00285175  0.32133284  0.82498127  1
  Al  Al233  1  0.50071611  0.32709058  0.82761795  1
  Al  Al234  1  0.67606831  0.66922330  0.50295661  1
  Al  Al235  1  0.82124418  0.00101518  0.82067254  1
  Al  Al236  1  0.17694949  0.49964074  0.82171443  1
  Al  Al237  1  -0.00122391  0.17656892  0.68321543  1
  Al  Al238  1  0.49941979  0.81446909  0.68667621  1
  Au  Au239  1  0.82258652  -0.00327374  0.65848539  1
  Au  Au240  1  0.32944416  0.16162977  0.00190624  1
  Au  Au241  1  0.83958398  0.66827683  0.49458719  1
  Au  Au242  1  0.82022353  0.33779040  0.50213245  1
  Au  Au243  1  0.32929410  0.33994374  0.50646577  1
  Au  Au244  1  0.16719006  0.83215861  0.00678246  1
  Au  Au245  1  0.67963984  0.33035450  -0.00236923  1
  Au  Au246  1  0.17342040  0.82400613  0.49930855  1
  Au  Au247  1  0.34124511  -0.00492579  0.33494380  1
  Au  Au248  1  0.66028193  0.67016183  -0.00545143  1
  Au  Au249  1  0.00040093  0.17120793  0.83397458  1
  Au  Au250  1  0.50000901  0.67277588  0.32964217  1
  Au  Au251  1  0.17089802  0.49741265  0.16839443  1
  Au  Au252  1  0.16472125  0.49805180  0.81848142  1
  Au  Au253  1  0.50470836  0.32375929  0.33697029  1
  Au  Au254  1  0.84390713  0.17305282  0.50098766  1
  Au  Au255  1  0.33098080  -0.00087114  0.16705139  1
  Au  Au256  1  0.17096621  -0.00428511  0.66193250  1
  Au  Au257  1  0.49894400  0.17007845  0.66493025  1
  Au  Au258  1  0.15162523  0.32369117  -0.00271935  1
  Au  Au259  1  0.83326785  0.49685193  0.17450023  1
  Au  Au260  1  0.33187441  0.34809769  0.00145401  1
  Au  Au261  1  0.50269408  0.16444545  0.83563333  1
  Au  Au262  1  0.16297853  0.66811433  -0.00317845  1
  Au  Au263  1  0.67124529  0.00057293  0.16722916  1
  Au  Au264  1  0.15926710  -0.00093908  0.32522213  1
  Au  Au265  1  0.34180839  -0.00372970  0.82431149  1
  Au  Au266  1  0.49986802  0.32157946  0.16808541  1
  Au  Au267  1  0.82719464  0.83921542  0.00712500  1
  Au  Au268  1  -0.00140299  0.67296877  0.17830717  1
  Au  Au269  1  0.84048277  0.66418280  -0.00606274  1
  Au  Au270  1  0.66501628  0.17060883  0.49854237  1
  Au  Au271  1  0.33304782  0.83019548  -0.00142400  1
  Au  Au272  1  0.00056803  0.34185693  0.67206334  1
  Au  Au273  1  0.33346501  0.50183844  0.33002713  1
  Au  Au274  1  0.50538840  0.34283675  0.82578506  1
  Au  Au275  1  0.65836206  -0.00146758  0.82387292  1
  Au  Au276  1  0.15888371  0.17591647  0.49930874  1
  Au  Au277  1  0.33972160  0.50700199  0.82371109  1
  Au  Au278  1  0.66469614  0.66394519  0.50295023  1
  Au  Au279  1  0.66979779  0.84174085  0.50305104  1
  Au  Au280  1  0.83068581  0.00119961  0.83430321  1
  Au  Au281  1  0.00090527  0.66466058  0.66968368  1
  Au  Au282  1  0.33709963  0.66443213  0.00057037  1
  Au  Au283  1  0.66453297  0.50047272  0.17585063  1
  Au  Au284  1  0.17066632  0.00180135  0.84247951  1
  Au  Au285  1  0.33320690  0.15909713  0.50036776  1
  Au  Au286  1  0.83222353  -0.00136062  0.33052423  1
  Au  Au287  1  -0.00047975  0.82987916  0.82650191  1
