# generated using pymatgen
data_Ca24Ti8Al207Au49
_symmetry_space_group_name_H-M   'P 1'
_cell_length_a   17.32067277
_cell_length_b   17.32131490
_cell_length_c   17.32202574
_cell_angle_alpha   89.99793490
_cell_angle_beta   89.99635502
_cell_angle_gamma   89.99704505
_symmetry_Int_Tables_number   1
_chemical_formula_structural   Ca24Ti8Al207Au49
_chemical_formula_sum   'Ca24 Ti8 Al207 Au49'
_cell_volume   5196.89918374
_cell_formula_units_Z   1
loop_
 _symmetry_equiv_pos_site_id
 _symmetry_equiv_pos_as_xyz
  1  'x, y, z'
loop_
 _atom_site_type_symbol
 _atom_site_label
 _atom_site_symmetry_multiplicity
 _atom_site_fract_x
 _atom_site_fract_y
 _atom_site_fract_z
 _atom_site_occupancy
  Ca  Ca0  1  0.25059629  0.00164788  0.00287603  1
  Ca  Ca1  1  0.25401437  0.00105525  0.49827926  1
  Ca  Ca2  1  0.24541302  0.49905758  -0.00146644  1
  Ca  Ca3  1  0.24546302  0.50354198  0.50281323  1
  Ca  Ca4  1  0.74217185  0.00000365  -0.00323954  1
  Ca  Ca5  1  0.75025088  -0.00209940  0.50425648  1
  Ca  Ca6  1  0.74838255  0.50155767  -0.00311294  1
  Ca  Ca7  1  0.75540683  0.49950350  0.50172835  1
  Ca  Ca8  1  -0.00219590  0.25646935  -0.00101173  1
  Ca  Ca9  1  0.00003831  0.25524343  0.49830278  1
  Ca  Ca10  1  0.00555593  0.74765795  -0.00066991  1
  Ca  Ca11  1  -0.00301232  0.74963152  0.50189769  1
  Ca  Ca12  1  0.50391855  0.24778081  -0.00247013  1
  Ca  Ca13  1  0.49852286  0.24393202  0.50103917  1
  Ca  Ca14  1  0.49833155  0.75626920  -0.00460952  1
  Ca  Ca15  1  0.50363739  0.75530854  0.50145509  1
  Ca  Ca16  1  -0.00016529  -0.00060250  0.25320344  1
  Ca  Ca17  1  -0.00023171  0.00120071  0.74244146  1
  Ca  Ca18  1  0.00207754  0.49920872  0.25397422  1
  Ca  Ca19  1  -0.00254297  0.49969556  0.74429229  1
  Ca  Ca20  1  0.50317099  0.00146174  0.25129131  1
  Ca  Ca21  1  0.49972507  0.00182868  0.74560693  1
  Ca  Ca22  1  0.49888482  0.49882206  0.25332924  1
  Ca  Ca23  1  0.50057660  0.49679225  0.75029242  1
  Ti  Ti24  1  0.25082591  0.24931136  0.25143460  1
  Ti  Ti25  1  0.25220563  0.24797199  0.74830124  1
  Ti  Ti26  1  0.24805365  0.75142077  0.24966208  1
  Ti  Ti27  1  0.24798226  0.75112156  0.74960463  1
  Ti  Ti28  1  0.74954741  0.24906340  0.25167338  1
  Ti  Ti29  1  0.74795853  0.24994626  0.74780562  1
  Ti  Ti30  1  0.75103246  0.75137314  0.25157093  1
  Ti  Ti31  1  0.75240560  0.75035475  0.74827617  1
  Al  Al32  1  0.08513996  0.07479057  0.09299493  1
  Al  Al33  1  0.08369940  0.08159020  0.58030396  1
  Al  Al34  1  0.08667966  0.58544654  0.07491892  1
  Al  Al35  1  0.08976839  0.58883765  0.58040693  1
  Al  Al36  1  0.59534970  0.08428216  0.08440878  1
  Al  Al37  1  0.57459739  0.08075310  0.58722099  1
  Al  Al38  1  0.58065171  0.57827354  0.07282654  1
  Al  Al39  1  0.58440670  0.58302713  0.58456969  1
  Al  Al40  1  0.40839263  0.41149410  0.07230034  1
  Al  Al41  1  0.41595360  0.41526120  0.58220004  1
  Al  Al42  1  0.41136660  0.91989690  0.09041095  1
  Al  Al43  1  0.41385958  0.92631403  0.58818965  1
  Al  Al44  1  0.92361095  0.41364541  0.09241032  1
  Al  Al45  1  0.90921695  0.41296397  0.58710873  1
  Al  Al46  1  0.92036836  0.92288046  0.08299535  1
  Al  Al47  1  0.90793315  0.91071181  0.59013437  1
  Al  Al48  1  0.41577455  0.09131391  0.41625939  1
  Al  Al49  1  0.42079702  0.08235374  0.91453655  1
  Al  Al50  1  0.40600760  0.59001725  0.42831846  1
  Al  Al51  1  0.41083327  0.57890934  0.91774553  1
  Al  Al52  1  0.91852572  0.07986079  0.42414479  1
  Al  Al53  1  0.91641925  0.08078992  0.91510663  1
  Al  Al54  1  0.91490585  0.57753368  0.41291628  1
  Al  Al55  1  0.91074178  0.57717710  0.90912915  1
  Al  Al56  1  0.07608530  0.42033938  0.41961697  1
  Al  Al57  1  0.08932493  0.42226854  0.91620495  1
  Al  Al58  1  0.08160555  0.92085206  0.41880080  1
  Al  Al59  1  0.09126642  0.91103505  0.92475819  1
  Al  Al60  1  0.58525446  0.41848532  0.41871483  1
  Al  Al61  1  0.59328446  0.41529345  0.91242599  1
  Al  Al62  1  0.60057134  0.91819242  0.41485070  1
  Al  Al63  1  0.57851306  0.92239208  0.92101093  1
  Al  Al64  1  0.08580901  0.08185564  0.41943869  1
  Al  Al65  1  0.07777375  0.07566878  0.91808490  1
  Al  Al66  1  0.08565640  0.59044148  0.41868342  1
  Al  Al67  1  0.09744253  0.58349539  0.91419950  1
  Al  Al68  1  0.57957293  0.07984492  0.40831788  1
  Al  Al69  1  0.58727062  0.08830645  0.92072769  1
  Al  Al70  1  0.59055271  0.57700044  0.42469776  1
  Al  Al71  1  0.59519233  0.57413737  0.90983891  1
  Al  Al72  1  0.41525598  0.41478321  0.42302804  1
  Al  Al73  1  0.40949885  0.41032254  0.91651624  1
  Al  Al74  1  0.42261189  0.92723389  0.42019352  1
  Al  Al75  1  0.41731324  0.91841452  0.91773002  1
  Al  Al76  1  0.90686583  0.41242564  0.41494752  1
  Al  Al77  1  0.91264387  0.42257140  0.90608279  1
  Al  Al78  1  0.90673575  0.91088356  0.42787593  1
  Al  Al79  1  0.92000696  0.92501816  0.91789395  1
  Al  Al80  1  0.08138635  0.41206404  0.08168063  1
  Al  Al81  1  0.07695210  0.41921271  0.58284926  1
  Al  Al82  1  0.10072157  0.91331711  0.08629047  1
  Al  Al83  1  0.07315728  0.91276894  0.59030531  1
  Al  Al84  1  0.58361001  0.41763486  0.07294444  1
  Al  Al85  1  0.58446860  0.41706677  0.58541214  1
  Al  Al86  1  0.58625505  0.92296390  0.08841073  1
  Al  Al87  1  0.59370724  0.91243707  0.57911865  1
  Al  Al88  1  0.41226016  0.07808333  0.08962052  1
  Al  Al89  1  0.40992770  0.09000006  0.58630998  1
  Al  Al90  1  0.41513490  0.57901771  0.07179524  1
  Al  Al91  1  0.41305845  0.59069283  0.58338857  1
  Al  Al92  1  0.91863454  0.08233901  0.08354509  1
  Al  Al93  1  0.90902121  0.07501579  0.58533493  1
  Al  Al94  1  0.92255712  0.57673678  0.08238656  1
  Al  Al95  1  0.91333292  0.57750558  0.58726333  1
  Al  Al96  1  0.25445077  0.13276063  0.13647732  1
  Al  Al97  1  0.25605758  0.12741747  0.63622671  1
  Al  Al98  1  0.24656305  0.63631933  0.13372107  1
  Al  Al99  1  0.24804098  0.63776665  0.62954212  1
  Al  Al100  1  0.74368848  0.13341887  0.13452612  1
  Al  Al101  1  0.74735173  0.12980407  0.63657811  1
  Al  Al102  1  0.75223754  0.63598835  0.13028187  1
  Al  Al103  1  0.75298969  0.63442716  0.63494177  1
  Al  Al104  1  0.25269336  0.36278828  0.13393579  1
  Al  Al105  1  0.25343168  0.36208988  0.63523356  1
  Al  Al106  1  0.24861473  0.86983563  0.13582286  1
  Al  Al107  1  0.24914049  0.87087479  0.63335733  1
  Al  Al108  1  0.75061580  0.36485305  0.13712517  1
  Al  Al109  1  0.75007083  0.36641350  0.63201415  1
  Al  Al110  1  0.74707745  0.86688161  0.13594673  1
  Al  Al111  1  0.75362079  0.86815893  0.63192876  1
  Al  Al112  1  0.25310158  0.13439657  0.36472144  1
  Al  Al113  1  0.25709968  0.12818458  0.85997065  1
  Al  Al114  1  0.24756676  0.63839420  0.36994547  1
  Al  Al115  1  0.24545333  0.63109942  0.86382365  1
  Al  Al116  1  0.74810905  0.12910107  0.36392175  1
  Al  Al117  1  0.74758588  0.13686223  0.86167944  1
  Al  Al118  1  0.75275483  0.63581705  0.36479509  1
  Al  Al119  1  0.75230167  0.63230848  0.86466820  1
  Al  Al120  1  0.25465815  0.36306307  0.36536402  1
  Al  Al121  1  0.25375844  0.36471335  0.86171430  1
  Al  Al122  1  0.25063206  0.86659364  0.36693151  1
  Al  Al123  1  0.24692509  0.87049852  0.86391083  1
  Al  Al124  1  0.75168731  0.36245511  0.37030836  1
  Al  Al125  1  0.74835069  0.36718390  0.86082078  1
  Al  Al126  1  0.74937735  0.87084077  0.36622533  1
  Al  Al127  1  0.75280660  0.86555498  0.86052034  1
  Al  Al128  1  0.13656810  0.25393756  0.13586824  1
  Al  Al129  1  0.13811160  0.24610860  0.63727604  1
  Al  Al130  1  0.13619919  0.75265457  0.12910014  1
  Al  Al131  1  0.13038646  0.74893071  0.63939284  1
  Al  Al132  1  0.63451328  0.24808188  0.13653501  1
  Al  Al133  1  0.63197110  0.25384271  0.63449885  1
  Al  Al134  1  0.63712464  0.74928391  0.13811379  1
  Al  Al135  1  0.63924762  0.75444987  0.63462916  1
  Al  Al136  1  0.13609087  0.24972673  0.36391210  1
  Al  Al137  1  0.13684132  0.25128475  0.86064003  1
  Al  Al138  1  0.13514627  0.74999243  0.36572882  1
  Al  Al139  1  0.13649892  0.75034280  0.86615773  1
  Al  Al140  1  0.63449574  0.24681507  0.36485753  1
  Al  Al141  1  0.63134327  0.24862390  0.86205561  1
  Al  Al142  1  0.63602837  0.75812410  0.36704402  1
  Al  Al143  1  0.64029921  0.74952122  0.86309636  1
  Al  Al144  1  0.36760175  0.25230994  0.13639439  1
  Al  Al145  1  0.36854863  0.24556454  0.63137103  1
  Al  Al146  1  0.36008282  0.75046521  0.13664812  1
  Al  Al147  1  0.36215173  0.75008718  0.63646436  1
  Al  Al148  1  0.86287575  0.25034578  0.13813662  1
  Al  Al149  1  0.86224180  0.25311132  0.63444614  1
  Al  Al150  1  0.86582439  0.74780531  0.13680751  1
  Al  Al151  1  0.87009076  0.75228728  0.63411045  1
  Al  Al152  1  0.36719276  0.24496298  0.37278370  1
  Al  Al153  1  0.37030887  0.25007712  0.86107824  1
  Al  Al154  1  0.36486314  0.74977343  0.36436371  1
  Al  Al155  1  0.35750178  0.75329729  0.86277357  1
  Al  Al156  1  0.86332082  0.25252793  0.36530569  1
  Al  Al157  1  0.86731106  0.25136970  0.85666226  1
  Al  Al158  1  0.86136941  0.75691974  0.36812143  1
  Al  Al159  1  0.86631555  0.74545921  0.86264036  1
  Al  Al160  1  0.13729384  0.13483646  0.24560070  1
  Al  Al161  1  0.13741642  0.12773825  0.74978182  1
  Al  Al162  1  0.13653717  0.63701532  0.24985716  1
  Al  Al163  1  0.13722233  0.62925035  0.74726892  1
  Al  Al164  1  0.63601670  0.13134984  0.25245483  1
  Al  Al165  1  0.62934007  0.13661806  0.74532548  1
  Al  Al166  1  0.63725217  0.63729749  0.25472873  1
  Al  Al167  1  0.63834752  0.63489925  0.75044967  1
  Al  Al168  1  0.36852655  0.13787697  0.25151629  1
  Al  Al169  1  0.37213197  0.13327061  0.74714968  1
  Al  Al170  1  0.36070605  0.63365190  0.25598840  1
  Al  Al171  1  0.36017634  0.63424374  0.75116831  1
  Al  Al172  1  0.86232056  0.13356181  0.25129754  1
  Al  Al173  1  0.86501372  0.13443975  0.74338266  1
  Al  Al174  1  0.86256521  0.63125693  0.25060117  1
  Al  Al175  1  0.86517244  0.63171505  0.74675350  1
  Al  Al176  1  0.13697727  0.36460344  0.24967011  1
  Al  Al177  1  0.13883352  0.36968644  0.75034620  1
  Al  Al178  1  0.13476668  0.86601577  0.24848034  1
  Al  Al179  1  0.13642328  0.87022075  0.74635504  1
  Al  Al180  1  0.63456059  0.36225779  0.25177818  1
  Al  Al181  1  0.63038020  0.36576679  0.75060017  1
  Al  Al182  1  0.63800167  0.87035216  0.25218524  1
  Al  Al183  1  0.63695096  0.86641634  0.74354809  1
  Al  Al184  1  0.36685745  0.36279187  0.25324494  1
  Al  Al185  1  0.37230019  0.36391844  0.74796278  1
  Al  Al186  1  0.36319223  0.86540360  0.24947880  1
  Al  Al187  1  0.36227924  0.86922622  0.74733165  1
  Al  Al188  1  0.86134196  0.36908962  0.25331586  1
  Al  Al189  1  0.86122067  0.37105900  0.74784865  1
  Al  Al190  1  0.86692597  0.86731805  0.25075718  1
  Al  Al191  1  0.86702312  0.86663050  0.74351221  1
  Al  Al192  1  0.17018912  0.49907455  0.17256892  1
  Al  Al193  1  0.68744296  0.49982872  0.68654807  1
  Al  Al194  1  0.00133184  0.82872571  0.81384048  1
  Al  Al195  1  0.50075341  0.82642638  0.81789109  1
  Al  Al196  1  0.50130019  0.82803706  0.17991779  1
  Al  Al197  1  0.68668348  0.49878992  0.32768125  1
  Al  Al198  1  0.67612042  0.31242775  -0.00118262  1
  Al  Al199  1  0.81181929  0.00089076  0.18282373  1
  Al  Al200  1  0.00032579  0.31924804  0.67987540  1
  Al  Al201  1  0.00012620  0.17758571  0.82132121  1
  Al  Al202  1  0.50164387  0.67556286  0.33179718  1
  Al  Al203  1  0.67193824  0.00059014  0.82071909  1
  Al  Al204  1  0.67172423  0.82245164  0.00019313  1
  Al  Al205  1  0.32797033  0.00181730  0.31680173  1
  Al  Al206  1  0.32802148  0.18753602  -0.00071545  1
  Al  Al207  1  0.82952296  0.32822970  -0.00096978  1
  Al  Al208  1  0.66949881  0.17703922  0.50112481  1
  Al  Al209  1  0.17109943  0.81425530  0.50373115  1
  Al  Al210  1  0.00395665  0.66851639  0.82160283  1
  Al  Al211  1  0.67422801  0.68526155  0.50091561  1
  Al  Al212  1  0.82518887  0.18171509  0.50023349  1
  Al  Al213  1  0.32917161  0.81565662  0.50021658  1
  Al  Al214  1  0.32183656  0.50169944  0.67834172  1
  Al  Al215  1  0.17487888  0.00078343  0.31737274  1
  Al  Al216  1  0.50309672  0.17365229  0.18119754  1
  Al  Al217  1  0.17346311  0.16967021  0.00135064  1
  Al  Al218  1  0.18524531  0.32593889  -0.00243108  1
  Al  Al219  1  0.81167676  0.17346782  0.00040560  1
  Al  Al220  1  0.00021608  0.18773224  0.17227669  1
  Al  Al221  1  0.49904022  0.67570933  0.83171059  1
  Al  Al222  1  0.17608999  0.50013309  0.32827878  1
  Al  Al223  1  0.31189905  0.67469476  -0.00210951  1
  Al  Al224  1  -0.00049395  0.32767988  0.31630386  1
  Al  Al225  1  0.32895944  0.49946950  0.17742723  1
  Al  Al226  1  0.50128340  0.68330126  0.67375747  1
  Al  Al227  1  -0.00070919  0.17378939  0.32973568  1
  Al  Al228  1  0.00437994  0.82265133  0.17476259  1
  Al  Al229  1  0.82456212  0.00078178  0.81428186  1
  Al  Al230  1  -0.00260582  0.68000814  0.32085734  1
  Al  Al231  1  0.83047667  0.82311339  -0.00121957  1
  Al  Al232  1  0.31696809  0.82558793  0.00087300  1
  Al  Al233  1  0.82449837  0.67908070  0.49931830  1
  Al  Al234  1  0.18585710  0.17440922  0.50045174  1
  Al  Al235  1  0.49952095  0.31581416  0.32307690  1
  Al  Al236  1  0.17623309  0.32775278  0.50013301  1
  Al  Al237  1  0.67954711  0.50104474  0.17168709  1
  Al  Al238  1  0.49685137  0.67121732  0.16880470  1
  Au  Au239  1  0.50414007  0.84497871  0.32912720  1
  Au  Au240  1  0.50069038  0.32710929  0.33604062  1
  Au  Au241  1  0.82439014  0.83911598  -0.00237716  1
  Au  Au242  1  0.66319321  0.49895207  0.17645723  1
  Au  Au243  1  0.50205263  0.66365547  0.34296039  1
  Au  Au244  1  0.17270090  -0.00083125  0.66304730  1
  Au  Au245  1  0.00029933  0.16706831  0.82824513  1
  Au  Au246  1  0.67026059  0.16122039  0.49743132  1
  Au  Au247  1  0.31873586  0.49734417  0.83761555  1
  Au  Au248  1  0.82496542  0.34525453  0.00039568  1
  Au  Au249  1  0.82156980  0.15985955  -0.00194226  1
  Au  Au250  1  0.50185635  0.65998137  0.82571634  1
  Au  Au251  1  0.66599157  0.67173944  -0.00403944  1
  Au  Au252  1  0.67861016  0.33743905  0.50039837  1
  Au  Au253  1  0.33830103  0.82962028  0.50011761  1
  Au  Au254  1  0.33887036  0.17428560  0.00084079  1
  Au  Au255  1  -0.00003352  0.67298938  0.66175915  1
  Au  Au256  1  -0.00031449  0.66434343  0.83265682  1
  Au  Au257  1  0.50401901  0.15861257  0.17501186  1
  Au  Au258  1  0.83287564  0.66748274  0.49939104  1
  Au  Au259  1  -0.00338201  0.17122985  0.65762052  1
  Au  Au260  1  0.00450339  0.66478941  0.17088247  1
  Au  Au261  1  0.33814696  -0.00043148  0.82152155  1
  Au  Au262  1  0.50132369  0.33375052  0.83191554  1
  Au  Au263  1  0.17259910  -0.00118162  0.83617941  1
  Au  Au264  1  0.49935461  0.32188104  0.66196271  1
  Au  Au265  1  0.00476131  0.34164660  0.82685156  1
  Au  Au266  1  0.32516268  0.32147576  0.50177104  1
  Au  Au267  1  0.00179734  0.83956965  0.82686283  1
  Au  Au268  1  0.32279677  0.49922556  0.16145602  1
  Au  Au269  1  0.32830746  0.83390237  0.00123880  1
  Au  Au270  1  0.16571582  0.49872461  0.67193168  1
  Au  Au271  1  0.32825652  0.50134342  0.66755356  1
  Au  Au272  1  0.84049618  0.49911919  0.18125898  1
  Au  Au273  1  0.49586690  0.67732830  0.15289372  1
  Au  Au274  1  0.83233900  0.65958610  0.00041796  1
  Au  Au275  1  0.50384715  0.16502231  0.82368265  1
  Au  Au276  1  0.15731168  0.82320260  0.50402716  1
  Au  Au277  1  0.82270997  0.00058064  0.16942719  1
  Au  Au278  1  0.67326360  0.50208187  0.67698457  1
  Au  Au279  1  0.00111586  0.83131427  0.16640917  1
  Au  Au280  1  0.82396941  0.00031647  0.34254255  1
  Au  Au281  1  0.32425195  0.50259316  0.34449183  1
  Au  Au282  1  0.67347911  0.00028478  0.67082917  1
  Au  Au283  1  0.49884032  0.33292887  0.15723572  1
  Au  Au284  1  0.50008708  0.83541964  0.66726547  1
  Au  Au285  1  -0.00388878  0.82973557  0.33962774  1
  Au  Au286  1  0.15713966  0.17572891  0.00218781  1
  Au  Au287  1  -0.00015504  0.17131356  0.17788572  1
