# generated using pymatgen
data_Ca24Ti8Al207Au49
_symmetry_space_group_name_H-M   'P 1'
_cell_length_a   17.32191602
_cell_length_b   17.32326052
_cell_length_c   17.32161529
_cell_angle_alpha   89.99844199
_cell_angle_beta   89.99904878
_cell_angle_gamma   89.99772250
_symmetry_Int_Tables_number   1
_chemical_formula_structural   Ca24Ti8Al207Au49
_chemical_formula_sum   'Ca24 Ti8 Al207 Au49'
_cell_volume   5197.73284192
_cell_formula_units_Z   1
loop_
 _symmetry_equiv_pos_site_id
 _symmetry_equiv_pos_as_xyz
  1  'x, y, z'
loop_
 _atom_site_type_symbol
 _atom_site_label
 _atom_site_symmetry_multiplicity
 _atom_site_fract_x
 _atom_site_fract_y
 _atom_site_fract_z
 _atom_site_occupancy
  Ca  Ca0  1  0.25799404  -0.00063773  0.00245652  1
  Ca  Ca1  1  0.25176458  0.00440539  0.49869450  1
  Ca  Ca2  1  0.25718444  0.49802454  0.00002006  1
  Ca  Ca3  1  0.24760895  0.49267874  0.50188875  1
  Ca  Ca4  1  0.74745637  -0.00386867  0.00184468  1
  Ca  Ca5  1  0.74873667  0.00395582  0.49934289  1
  Ca  Ca6  1  0.74683053  0.50416389  0.00145456  1
  Ca  Ca7  1  0.75320863  0.49241414  0.49979085  1
  Ca  Ca8  1  -0.00052731  0.24520818  -0.00203127  1
  Ca  Ca9  1  -0.00207861  0.25020566  0.49958920  1
  Ca  Ca10  1  -0.00265130  0.75552738  -0.00180010  1
  Ca  Ca11  1  0.00282057  0.74960155  0.49981863  1
  Ca  Ca12  1  0.50002152  0.24307698  0.00044521  1
  Ca  Ca13  1  0.50138332  0.24514135  0.49864165  1
  Ca  Ca14  1  0.50092246  0.75334512  -0.00035354  1
  Ca  Ca15  1  0.49422122  0.75405340  0.49984040  1
  Ca  Ca16  1  0.00166346  -0.00094215  0.25138861  1
  Ca  Ca17  1  0.00042801  0.00506021  0.75001671  1
  Ca  Ca18  1  0.00075426  0.49830732  0.25513792  1
  Ca  Ca19  1  0.00066423  0.49361489  0.74609588  1
  Ca  Ca20  1  0.49766676  0.00027898  0.24499359  1
  Ca  Ca21  1  0.50019592  -0.00554389  0.75283914  1
  Ca  Ca22  1  0.49944389  0.50225406  0.24966931  1
  Ca  Ca23  1  0.49939056  0.50579873  0.75232876  1
  Ti  Ti24  1  0.25128710  0.24834207  0.25281527  1
  Ti  Ti25  1  0.24914141  0.24705058  0.74724792  1
  Ti  Ti26  1  0.25195822  0.75181684  0.25025264  1
  Ti  Ti27  1  0.25101906  0.75459772  0.74921437  1
  Ti  Ti28  1  0.74925046  0.24735672  0.25130007  1
  Ti  Ti29  1  0.75074355  0.24781544  0.74994486  1
  Ti  Ti30  1  0.74766178  0.75152554  0.24899544  1
  Ti  Ti31  1  0.74989707  0.75182026  0.75252457  1
  Al  Al32  1  0.08892596  0.07330242  0.08991358  1
  Al  Al33  1  0.08154805  0.09419757  0.58899525  1
  Al  Al34  1  0.07666338  0.57820224  0.08172397  1
  Al  Al35  1  0.07944916  0.56992077  0.58481477  1
  Al  Al36  1  0.58793386  0.08674641  0.08085221  1
  Al  Al37  1  0.58939358  0.08297251  0.57233979  1
  Al  Al38  1  0.58142804  0.60335567  0.08415196  1
  Al  Al39  1  0.57764079  0.58633184  0.58402093  1
  Al  Al40  1  0.41789102  0.42170560  0.08457458  1
  Al  Al41  1  0.41592435  0.41764132  0.57620625  1
  Al  Al42  1  0.41053147  0.91290363  0.08775829  1
  Al  Al43  1  0.40639059  0.91166261  0.58695790  1
  Al  Al44  1  0.92068412  0.42181676  0.07899788  1
  Al  Al45  1  0.92172871  0.40904641  0.58622491  1
  Al  Al46  1  0.91474666  0.90982870  0.07727109  1
  Al  Al47  1  0.92397937  0.93020337  0.58756821  1
  Al  Al48  1  0.41507737  0.08344539  0.41833438  1
  Al  Al49  1  0.41460410  0.08418128  0.92771167  1
  Al  Al50  1  0.41661258  0.58788719  0.41889513  1
  Al  Al51  1  0.41740462  0.58344584  0.91858733  1
  Al  Al52  1  0.91979908  0.09385452  0.41023821  1
  Al  Al53  1  0.91140742  0.08229553  0.90267162  1
  Al  Al54  1  0.91368481  0.56733656  0.40838908  1
  Al  Al55  1  0.91094025  0.58442027  0.92190100  1
  Al  Al56  1  0.08345551  0.39871949  0.41552930  1
  Al  Al57  1  0.08358920  0.41404745  0.89738117  1
  Al  Al58  1  0.08730351  0.92551203  0.41636623  1
  Al  Al59  1  0.07803981  0.92623609  0.92347992  1
  Al  Al60  1  0.59471844  0.41147780  0.42220846  1
  Al  Al61  1  0.58188202  0.41766601  0.92089744  1
  Al  Al62  1  0.58056220  0.92873450  0.40711555  1
  Al  Al63  1  0.58779105  0.90739254  0.91799665  1
  Al  Al64  1  0.08286386  0.09193795  0.41026871  1
  Al  Al65  1  0.07326581  0.08910213  0.91060338  1
  Al  Al66  1  0.07577423  0.57509443  0.41870941  1
  Al  Al67  1  0.08685040  0.56834719  0.91091013  1
  Al  Al68  1  0.59101005  0.08819919  0.41206714  1
  Al  Al69  1  0.58877871  0.08658813  0.92098413  1
  Al  Al70  1  0.58002184  0.57980863  0.41887180  1
  Al  Al71  1  0.58713276  0.59272336  0.92351104  1
  Al  Al72  1  0.41235454  0.41851058  0.41993556  1
  Al  Al73  1  0.41712799  0.42105813  0.91680296  1
  Al  Al74  1  0.41093100  0.91770155  0.42158826  1
  Al  Al75  1  0.41753328  0.91001200  0.92400719  1
  Al  Al76  1  0.91778129  0.40632261  0.40926443  1
  Al  Al77  1  0.92328386  0.41371381  0.91256533  1
  Al  Al78  1  0.92660711  0.92914838  0.41605305  1
  Al  Al79  1  0.89861314  0.92009645  0.91588590  1
  Al  Al80  1  0.08024657  0.42152478  0.08273244  1
  Al  Al81  1  0.08614106  0.40322811  0.58669108  1
  Al  Al82  1  0.08132388  0.91890842  0.09174318  1
  Al  Al83  1  0.08438340  0.92207380  0.58260374  1
  Al  Al84  1  0.57614620  0.41330640  0.07656593  1
  Al  Al85  1  0.59314059  0.41266974  0.57749197  1
  Al  Al86  1  0.58603115  0.90803613  0.08112530  1
  Al  Al87  1  0.56732322  0.91768766  0.59014978  1
  Al  Al88  1  0.40513313  0.07943941  0.08849178  1
  Al  Al89  1  0.40740429  0.07542291  0.57999588  1
  Al  Al90  1  0.42001106  0.58959749  0.08861218  1
  Al  Al91  1  0.41993104  0.59358244  0.58130857  1
  Al  Al92  1  0.91884167  0.07707591  0.07726908  1
  Al  Al93  1  0.91910240  0.09488270  0.59127073  1
  Al  Al94  1  0.91258170  0.59023049  0.07885362  1
  Al  Al95  1  0.92232167  0.57134547  0.58400810  1
  Al  Al96  1  0.25134663  0.12942158  0.13698692  1
  Al  Al97  1  0.24477183  0.13400120  0.62760145  1
  Al  Al98  1  0.25203970  0.63812855  0.13740733  1
  Al  Al99  1  0.25159535  0.64128917  0.63860909  1
  Al  Al100  1  0.75129577  0.12966601  0.13212531  1
  Al  Al101  1  0.75180360  0.13498292  0.63560732  1
  Al  Al102  1  0.74562876  0.63539642  0.13253290  1
  Al  Al103  1  0.74917289  0.63838172  0.63801521  1
  Al  Al104  1  0.25069906  0.36278209  0.13477532  1
  Al  Al105  1  0.24628766  0.35882795  0.62659063  1
  Al  Al106  1  0.25627641  0.87008994  0.13574963  1
  Al  Al107  1  0.25301024  0.87589995  0.63577450  1
  Al  Al108  1  0.75212279  0.36481844  0.13824863  1
  Al  Al109  1  0.74806046  0.36076909  0.63454468  1
  Al  Al110  1  0.74650079  0.86608275  0.13048755  1
  Al  Al111  1  0.75557431  0.86772748  0.63853298  1
  Al  Al112  1  0.24784767  0.13611975  0.37353896  1
  Al  Al113  1  0.25156043  0.13393405  0.86412811  1
  Al  Al114  1  0.25270129  0.63523510  0.36157697  1
  Al  Al115  1  0.24963185  0.63873357  0.86061919  1
  Al  Al116  1  0.74372079  0.13284707  0.36785613  1
  Al  Al117  1  0.75125665  0.12998786  0.86638641  1
  Al  Al118  1  0.74849059  0.63324343  0.36104455  1
  Al  Al119  1  0.74795743  0.63540759  0.86765479  1
  Al  Al120  1  0.24654202  0.36193462  0.37485524  1
  Al  Al121  1  0.24637651  0.36293681  0.86166643  1
  Al  Al122  1  0.25414970  0.86725082  0.36443981  1
  Al  Al123  1  0.25372654  0.86728689  0.86492525  1
  Al  Al124  1  0.74981525  0.36643911  0.36522907  1
  Al  Al125  1  0.75277397  0.36286673  0.86318867  1
  Al  Al126  1  0.74204709  0.87014362  0.36280631  1
  Al  Al127  1  0.74903256  0.86901647  0.86799016  1
  Al  Al128  1  0.13641853  0.24708155  0.13575022  1
  Al  Al129  1  0.13094639  0.24882959  0.63041474  1
  Al  Al130  1  0.13720738  0.75470357  0.13685109  1
  Al  Al131  1  0.13645285  0.75781758  0.63801977  1
  Al  Al132  1  0.63645630  0.24283657  0.13707083  1
  Al  Al133  1  0.63435094  0.24582492  0.63050744  1
  Al  Al134  1  0.63644683  0.75068147  0.12998526  1
  Al  Al135  1  0.63638683  0.75437525  0.63756266  1
  Al  Al136  1  0.13348153  0.24815145  0.36964353  1
  Al  Al137  1  0.13177669  0.24325457  0.86405840  1
  Al  Al138  1  0.13391432  0.75553186  0.36026615  1
  Al  Al139  1  0.13305578  0.75998507  0.86258912  1
  Al  Al140  1  0.63810254  0.24859759  0.36981709  1
  Al  Al141  1  0.63686058  0.24525325  0.86560048  1
  Al  Al142  1  0.62945643  0.74970934  0.36044880  1
  Al  Al143  1  0.63863475  0.75220687  0.87178375  1
  Al  Al144  1  0.36065487  0.24540419  0.12942569  1
  Al  Al145  1  0.36140925  0.24323745  0.62438192  1
  Al  Al146  1  0.36508993  0.75336286  0.13368200  1
  Al  Al147  1  0.36507204  0.75872779  0.63353811  1
  Al  Al148  1  0.86542953  0.24548278  0.13589662  1
  Al  Al149  1  0.87127121  0.24851833  0.63712732  1
  Al  Al150  1  0.86105207  0.75323897  0.13331721  1
  Al  Al151  1  0.86684601  0.75525431  0.64049263  1
  Al  Al152  1  0.36215859  0.24612897  0.37268593  1
  Al  Al153  1  0.36164749  0.24976493  0.86884757  1
  Al  Al154  1  0.37078643  0.75445246  0.36243283  1
  Al  Al155  1  0.36441946  0.75385872  0.86523804  1
  Al  Al156  1  0.86505537  0.24962062  0.36595407  1
  Al  Al157  1  0.86849862  0.24055157  0.86515285  1
  Al  Al158  1  0.86427718  0.75481852  0.36157966  1
  Al  Al159  1  0.86389033  0.75888278  0.86843843  1
  Al  Al160  1  0.13982598  0.13357121  0.25342961  1
  Al  Al161  1  0.13424750  0.13383318  0.74600187  1
  Al  Al162  1  0.13330524  0.63333359  0.25209258  1
  Al  Al163  1  0.13671085  0.63593781  0.75126434  1
  Al  Al164  1  0.63763726  0.12724055  0.24867435  1
  Al  Al165  1  0.63573027  0.13365585  0.75163900  1
  Al  Al166  1  0.62859801  0.63777340  0.24766358  1
  Al  Al167  1  0.63490703  0.63420799  0.75338319  1
  Al  Al168  1  0.36362504  0.13502692  0.24687533  1
  Al  Al169  1  0.35900488  0.13117732  0.74303962  1
  Al  Al170  1  0.37385792  0.64096138  0.24821554  1
  Al  Al171  1  0.36684574  0.64110633  0.75194142  1
  Al  Al172  1  0.86378941  0.13570989  0.25405427  1
  Al  Al173  1  0.86722376  0.13293781  0.75088558  1
  Al  Al174  1  0.86414616  0.63820465  0.24940612  1
  Al  Al175  1  0.86284356  0.63734517  0.75380558  1
  Al  Al176  1  0.13493837  0.35951707  0.25545368  1
  Al  Al177  1  0.13275123  0.35802537  0.74562123  1
  Al  Al178  1  0.14172051  0.87432955  0.24803729  1
  Al  Al179  1  0.13387420  0.87333764  0.74832530  1
  Al  Al180  1  0.63773068  0.36425902  0.25091012  1
  Al  Al181  1  0.63919549  0.36423189  0.75105664  1
  Al  Al182  1  0.63404901  0.86920446  0.24647776  1
  Al  Al183  1  0.63604558  0.86804325  0.75260014  1
  Al  Al184  1  0.36162461  0.36068473  0.25286306  1
  Al  Al185  1  0.36012992  0.35704480  0.74856571  1
  Al  Al186  1  0.36627463  0.86931871  0.24790548  1
  Al  Al187  1  0.36733351  0.87073023  0.74468241  1
  Al  Al188  1  0.86520364  0.36469320  0.25755770  1
  Al  Al189  1  0.86659401  0.36039915  0.74764282  1
  Al  Al190  1  0.86089094  0.86909606  0.24837906  1
  Al  Al191  1  0.86714465  0.87224395  0.75510244  1
  Al  Al192  1  0.17149397  0.66925358  -0.00333818  1
  Al  Al193  1  0.32408478  0.68890217  0.49867728  1
  Al  Al194  1  0.31370233  0.50031227  0.82723417  1
  Al  Al195  1  0.81895159  -0.00018352  0.32268109  1
  Al  Al196  1  0.17288161  0.49665500  0.68693739  1
  Al  Al197  1  0.49882970  0.16629950  0.67101777  1
  Al  Al198  1  0.67312228  0.67612656  0.49903432  1
  Al  Al199  1  0.32034568  0.00308986  0.31774148  1
  Al  Al200  1  0.82180800  0.49773972  0.67941277  1
  Al  Al201  1  0.17681061  0.32780042  -0.00277758  1
  Al  Al202  1  0.66631998  0.50130228  0.17618356  1
  Al  Al203  1  0.50062648  0.32595740  0.67215556  1
  Al  Al204  1  0.32670284  0.49699563  0.67657865  1
  Al  Al205  1  -0.00158582  0.32685723  0.18923553  1
  Al  Al206  1  0.00044187  0.67668831  0.82958751  1
  Al  Al207  1  0.83130909  0.66607287  0.49929886  1
  Al  Al208  1  0.49869639  0.31753350  0.17344151  1
  Al  Al209  1  0.67718537  -0.00257570  0.67545310  1
  Al  Al210  1  0.50071065  0.81464127  0.17732834  1
  Al  Al211  1  0.82696053  0.49989200  0.18722104  1
  Al  Al212  1  0.49994951  0.16998970  0.31758207  1
  Al  Al213  1  0.81981091  0.17461923  0.50010113  1
  Al  Al214  1  0.50010739  0.32009539  0.32809971  1
  Al  Al215  1  0.32826805  0.68394730  0.00015964  1
  Al  Al216  1  -0.00097377  0.31136182  0.81240261  1
  Al  Al217  1  0.67177340  0.31432085  0.00132100  1
  Al  Al218  1  -0.00068428  0.82287508  0.18109562  1
  Al  Al219  1  0.49701078  0.17111534  0.82719110  1
  Al  Al220  1  0.82874443  0.31929036  0.00007064  1
  Al  Al221  1  0.18412472  0.83068021  0.00288713  1
  Al  Al222  1  0.00232799  0.17082500  0.18764727  1
  Al  Al223  1  0.81291256  0.68828044  -0.00050003  1
  Al  Al224  1  0.81970468  0.32565072  0.50070208  1
  Al  Al225  1  0.82866521  0.83081114  0.49950998  1
  Al  Al226  1  0.66655405  0.83092545  0.50096533  1
  Al  Al227  1  0.00075072  0.67698169  0.67263041  1
  Al  Al228  1  0.32278893  0.50122501  0.18082055  1
  Al  Al229  1  0.16921214  0.66888063  0.50243253  1
  Al  Al230  1  0.17716222  0.49269103  0.32474444  1
  Al  Al231  1  0.18259753  0.16874254  0.00204963  1
  Al  Al232  1  0.32633989  0.00062030  0.82898222  1
  Al  Al233  1  0.50055269  0.81884572  0.81583680  1
  Al  Al234  1  0.67692218  0.50262486  0.82635289  1
  Al  Al235  1  -0.00498951  0.67763100  0.32483451  1
  Al  Al236  1  0.50049890  0.69243843  0.68181364  1
  Al  Al237  1  0.49992313  0.32453636  0.82868726  1
  Al  Al238  1  0.19051663  0.82487939  0.49988861  1
  Au  Au239  1  0.17394984  0.50063495  0.16803600  1
  Au  Au240  1  0.84370418  0.83796576  0.50149033  1
  Au  Au241  1  0.00024644  0.33193107  0.17255177  1
  Au  Au242  1  0.49438253  0.15497702  0.66758763  1
  Au  Au243  1  0.16759819  0.17503955  0.49945920  1
  Au  Au244  1  0.49632090  0.16704657  0.16400961  1
  Au  Au245  1  0.17642863  0.84528397  0.00423539  1
  Au  Au246  1  0.17814808  0.65446235  -0.00430430  1
  Au  Au247  1  0.34205884  0.32517166  0.00070272  1
  Au  Au248  1  0.50051857  0.67179608  0.83086137  1
  Au  Au249  1  0.82233346  0.33530842  -0.00057222  1
  Au  Au250  1  0.00156510  0.15774594  0.17665197  1
  Au  Au251  1  0.00325810  0.66018514  0.82716068  1
  Au  Au252  1  0.83460811  0.00460486  0.67851367  1
  Au  Au253  1  0.50238796  0.33552863  0.33265148  1
  Au  Au254  1  0.67442520  0.50367627  0.65934201  1
  Au  Au255  1  -0.00485023  0.84219670  0.83538897  1
  Au  Au256  1  0.32623228  0.51078954  0.66699914  1
  Au  Au257  1  0.49653141  0.83949977  0.32495219  1
  Au  Au258  1  0.33327193  0.50353944  0.32950175  1
  Au  Au259  1  0.67859639  0.50088590  0.34080240  1
  Au  Au260  1  0.32678710  0.32427179  0.49994828  1
  Au  Au261  1  0.16788292  0.49636023  0.33216118  1
  Au  Au262  1  0.00381262  0.83488915  0.32854586  1
  Au  Au263  1  0.50210910  0.66742654  0.32620897  1
  Au  Au264  1  0.83611515  0.49845635  0.82697995  1
  Au  Au265  1  0.66814826  0.50017119  0.83499161  1
  Au  Au266  1  0.66253108  -0.00209057  0.17041219  1
  Au  Au267  1  0.17916850  0.83771519  0.49939496  1
  Au  Au268  1  -0.00306516  0.66901471  0.33385531  1
  Au  Au269  1  0.83875480  0.50233971  0.17514221  1
  Au  Au270  1  0.82480498  0.65049982  0.49967274  1
  Au  Au271  1  0.17249665  0.00417243  0.32275064  1
  Au  Au272  1  0.83010776  -0.00441961  0.16569953  1
  Au  Au273  1  0.17373852  0.15440720  0.00138279  1
  Au  Au274  1  0.00169566  0.82852762  0.66448821  1
  Au  Au275  1  0.66866293  -0.00063997  0.66648981  1
  Au  Au276  1  0.67462596  -0.00042411  0.83996384  1
  Au  Au277  1  0.17649839  0.65356969  0.50498956  1
  Au  Au278  1  0.82468528  0.15815900  -0.00290402  1
  Au  Au279  1  0.65632646  0.50127909  0.16334098  1
  Au  Au280  1  0.33854787  -0.00131799  0.82652820  1
  Au  Au281  1  0.50356187  0.34213532  0.67624163  1
  Au  Au282  1  0.17370196  0.00472171  0.66462214  1
  Au  Au283  1  0.82757592  0.00210842  0.33185154  1
  Au  Au284  1  0.65089713  0.83163893  0.49679602  1
  Au  Au285  1  0.00033483  0.67724457  0.15978798  1
  Au  Au286  1  0.16317427  0.00361417  0.82815195  1
  Au  Au287  1  0.16705518  0.34065702  -0.00476688  1
