# generated using pymatgen
data_Ca24Ti8Al207Au49
_symmetry_space_group_name_H-M   'P 1'
_cell_length_a   17.32090062
_cell_length_b   17.32071345
_cell_length_c   17.32071618
_cell_angle_alpha   89.99642089
_cell_angle_beta   89.99606352
_cell_angle_gamma   89.99991170
_symmetry_Int_Tables_number   1
_chemical_formula_structural   Ca24Ti8Al207Au49
_chemical_formula_sum   'Ca24 Ti8 Al207 Au49'
_cell_volume   5196.39421125
_cell_formula_units_Z   1
loop_
 _symmetry_equiv_pos_site_id
 _symmetry_equiv_pos_as_xyz
  1  'x, y, z'
loop_
 _atom_site_type_symbol
 _atom_site_label
 _atom_site_symmetry_multiplicity
 _atom_site_fract_x
 _atom_site_fract_y
 _atom_site_fract_z
 _atom_site_occupancy
  Ca  Ca0  1  0.25478269  -0.00231388  0.00293474  1
  Ca  Ca1  1  0.24955192  -0.00386776  0.49767845  1
  Ca  Ca2  1  0.25778609  0.50115498  -0.00348693  1
  Ca  Ca3  1  0.25401692  0.50174556  0.50279533  1
  Ca  Ca4  1  0.74371294  -0.00086712  0.00127735  1
  Ca  Ca5  1  0.74978890  -0.00758844  0.49836785  1
  Ca  Ca6  1  0.74586804  0.50243023  0.00173870  1
  Ca  Ca7  1  0.74558571  0.50379969  0.50118467  1
  Ca  Ca8  1  -0.00006800  0.25557632  -0.00012157  1
  Ca  Ca9  1  0.00030215  0.25845921  0.49861880  1
  Ca  Ca10  1  0.00301578  0.75039627  -0.00220007  1
  Ca  Ca11  1  0.00242059  0.75090378  0.50098141  1
  Ca  Ca12  1  0.49995459  0.25520069  0.00166090  1
  Ca  Ca13  1  0.49855531  0.25823285  0.50172519  1
  Ca  Ca14  1  0.49946511  0.74734157  -0.00193092  1
  Ca  Ca15  1  0.49675169  0.74774919  0.50218854  1
  Ca  Ca16  1  0.00343817  -0.00907606  0.25172856  1
  Ca  Ca17  1  0.00263239  -0.00298803  0.74661956  1
  Ca  Ca18  1  -0.00003329  0.50428603  0.25079986  1
  Ca  Ca19  1  -0.00144068  0.50462714  0.74674164  1
  Ca  Ca20  1  0.49554193  -0.00461949  0.24459457  1
  Ca  Ca21  1  0.49574482  -0.00248458  0.75111260  1
  Ca  Ca22  1  0.49913991  0.50148149  0.24485365  1
  Ca  Ca23  1  0.50127267  0.49686943  0.74980686  1
  Ti  Ti24  1  0.25169292  0.25156948  0.24868008  1
  Ti  Ti25  1  0.25145718  0.25174619  0.74884068  1
  Ti  Ti26  1  0.25232770  0.74767759  0.24979747  1
  Ti  Ti27  1  0.25146736  0.74929739  0.74916704  1
  Ti  Ti28  1  0.74728545  0.25193351  0.24860013  1
  Ti  Ti29  1  0.74886185  0.25332994  0.75051773  1
  Ti  Ti30  1  0.74712401  0.74985026  0.25221040  1
  Ti  Ti31  1  0.74796008  0.74805972  0.74802006  1
  Al  Al32  1  0.09228366  0.06972013  0.08696382  1
  Al  Al33  1  0.08092541  0.07691433  0.58237088  1
  Al  Al34  1  0.08562619  0.58196106  0.08068726  1
  Al  Al35  1  0.09139573  0.58785312  0.58036409  1
  Al  Al36  1  0.57548992  0.09053767  0.08852053  1
  Al  Al37  1  0.57692646  0.08617763  0.57640594  1
  Al  Al38  1  0.58439022  0.57593296  0.08999892  1
  Al  Al39  1  0.57860491  0.58324392  0.58577892  1
  Al  Al40  1  0.41517695  0.41545154  0.07521595  1
  Al  Al41  1  0.41460562  0.41334643  0.59445614  1
  Al  Al42  1  0.41498354  0.90781083  0.08785309  1
  Al  Al43  1  0.41890588  0.91449742  0.58242914  1
  Al  Al44  1  0.90363419  0.42196347  0.09120899  1
  Al  Al45  1  0.91647503  0.41759467  0.59770091  1
  Al  Al46  1  0.92759808  0.90542617  0.08665294  1
  Al  Al47  1  0.91695495  0.90295698  0.58090005  1
  Al  Al48  1  0.41991672  0.08182627  0.41621148  1
  Al  Al49  1  0.41675922  0.08029583  0.92520237  1
  Al  Al50  1  0.41980552  0.58570941  0.42188932  1
  Al  Al51  1  0.41461606  0.59377548  0.91261700  1
  Al  Al52  1  0.92877756  0.08111672  0.41858498  1
  Al  Al53  1  0.91640294  0.08148566  0.91815029  1
  Al  Al54  1  0.91691064  0.57745865  0.42163143  1
  Al  Al55  1  0.91281921  0.57995816  0.91869105  1
  Al  Al56  1  0.07872620  0.41965340  0.41067648  1
  Al  Al57  1  0.08547261  0.42150652  0.91856630  1
  Al  Al58  1  0.08427649  0.90926323  0.41030265  1
  Al  Al59  1  0.08633489  0.91810040  0.91929513  1
  Al  Al60  1  0.58727052  0.41646177  0.42725162  1
  Al  Al61  1  0.58173097  0.40910277  0.91576170  1
  Al  Al62  1  0.58278068  0.89888364  0.41458228  1
  Al  Al63  1  0.57472441  0.90580012  0.91795326  1
  Al  Al64  1  0.08309918  0.07453306  0.40842290  1
  Al  Al65  1  0.08594872  0.07505236  0.91922130  1
  Al  Al66  1  0.09149409  0.58454594  0.42188827  1
  Al  Al67  1  0.08463375  0.58029298  0.91827568  1
  Al  Al68  1  0.57646968  0.08565398  0.41802380  1
  Al  Al69  1  0.57971319  0.08315334  0.92597485  1
  Al  Al70  1  0.58234343  0.58502396  0.41840085  1
  Al  Al71  1  0.57486096  0.58326049  0.91017486  1
  Al  Al72  1  0.41461555  0.41489879  0.43050732  1
  Al  Al73  1  0.41806488  0.40837976  0.91134617  1
  Al  Al74  1  0.42279137  0.90961394  0.41028127  1
  Al  Al75  1  0.41644730  0.90318992  0.91472804  1
  Al  Al76  1  0.92026553  0.41627194  0.40766041  1
  Al  Al77  1  0.91014194  0.42174823  0.91679718  1
  Al  Al78  1  0.92058330  0.90124072  0.41867492  1
  Al  Al79  1  0.92063303  0.91639207  0.92307904  1
  Al  Al80  1  0.08550694  0.41888513  0.08319868  1
  Al  Al81  1  0.07840810  0.41789904  0.59160217  1
  Al  Al82  1  0.08860876  0.91100921  0.09928252  1
  Al  Al83  1  0.07998489  0.90810516  0.58236366  1
  Al  Al84  1  0.59439509  0.41391384  0.08038930  1
  Al  Al85  1  0.58022947  0.40765165  0.59129051  1
  Al  Al86  1  0.57563227  0.90968254  0.08346381  1
  Al  Al87  1  0.58313409  0.90235575  0.57608617  1
  Al  Al88  1  0.41588428  0.08877098  0.08892957  1
  Al  Al89  1  0.41700688  0.08148766  0.58144453  1
  Al  Al90  1  0.41441234  0.58768210  0.07598783  1
  Al  Al91  1  0.41364572  0.57878763  0.59301396  1
  Al  Al92  1  0.92490650  0.07753099  0.07404473  1
  Al  Al93  1  0.92464413  0.07830773  0.57876497  1
  Al  Al94  1  0.90620503  0.57999436  0.08715923  1
  Al  Al95  1  0.90985288  0.57839820  0.58805683  1
  Al  Al96  1  0.24999349  0.13610757  0.13528188  1
  Al  Al97  1  0.25412591  0.13379207  0.63316643  1
  Al  Al98  1  0.25256304  0.64022564  0.12707778  1
  Al  Al99  1  0.25206557  0.63142748  0.63453645  1
  Al  Al100  1  0.74859896  0.13883020  0.13306502  1
  Al  Al101  1  0.74539413  0.14094778  0.63352559  1
  Al  Al102  1  0.74639758  0.63510510  0.13828867  1
  Al  Al103  1  0.74815442  0.62987536  0.63516311  1
  Al  Al104  1  0.25258077  0.36452108  0.12866708  1
  Al  Al105  1  0.25554240  0.37275198  0.63518809  1
  Al  Al106  1  0.24872795  0.86330922  0.13782885  1
  Al  Al107  1  0.25474712  0.86954512  0.63600320  1
  Al  Al108  1  0.74525423  0.36899690  0.13091902  1
  Al  Al109  1  0.74679500  0.37133803  0.63650516  1
  Al  Al110  1  0.74675878  0.86087199  0.14050239  1
  Al  Al111  1  0.75014827  0.86307019  0.63129945  1
  Al  Al112  1  0.25257519  0.13509855  0.36277570  1
  Al  Al113  1  0.25394973  0.13756289  0.86417267  1
  Al  Al114  1  0.25177273  0.63869745  0.37159598  1
  Al  Al115  1  0.25476579  0.63661342  0.86967206  1
  Al  Al116  1  0.74449283  0.13708413  0.36322944  1
  Al  Al117  1  0.74735696  0.13693265  0.86601033  1
  Al  Al118  1  0.74628939  0.63866965  0.36551193  1
  Al  Al119  1  0.74686976  0.63508272  0.86392942  1
  Al  Al120  1  0.25283259  0.36556569  0.36616555  1
  Al  Al121  1  0.25275370  0.36657966  0.86555161  1
  Al  Al122  1  0.25148758  0.86218515  0.36171245  1
  Al  Al123  1  0.25403743  0.86240672  0.86402193  1
  Al  Al124  1  0.74582818  0.36501638  0.36542899  1
  Al  Al125  1  0.74635258  0.36750848  0.86789537  1
  Al  Al126  1  0.74744391  0.86212884  0.36805858  1
  Al  Al127  1  0.74888220  0.86414144  0.86032711  1
  Al  Al128  1  0.13677286  0.25469102  0.13005170  1
  Al  Al129  1  0.13374061  0.25444524  0.63399661  1
  Al  Al130  1  0.13530481  0.75170747  0.12932538  1
  Al  Al131  1  0.13635207  0.74771819  0.63306749  1
  Al  Al132  1  0.63207642  0.25319962  0.13050222  1
  Al  Al133  1  0.63484867  0.25777460  0.63128375  1
  Al  Al134  1  0.62715765  0.74994334  0.13633500  1
  Al  Al135  1  0.63526245  0.75060088  0.63204741  1
  Al  Al136  1  0.13615425  0.25412451  0.36542049  1
  Al  Al137  1  0.13556102  0.25439441  0.86434432  1
  Al  Al138  1  0.13505239  0.75057349  0.36361908  1
  Al  Al139  1  0.13893124  0.74994932  0.86992542  1
  Al  Al140  1  0.63424185  0.25407011  0.36632613  1
  Al  Al141  1  0.63378568  0.25742462  0.87036634  1
  Al  Al142  1  0.62860730  0.74954963  0.36760662  1
  Al  Al143  1  0.63045772  0.74593253  0.86352529  1
  Al  Al144  1  0.37053754  0.25305819  0.13585219  1
  Al  Al145  1  0.36275624  0.25476066  0.62990419  1
  Al  Al146  1  0.37124545  0.74934440  0.13619993  1
  Al  Al147  1  0.36331575  0.74885900  0.62935895  1
  Al  Al148  1  0.86137968  0.25891947  0.13188656  1
  Al  Al149  1  0.86959734  0.25547830  0.63572624  1
  Al  Al150  1  0.86265643  0.75358610  0.13659502  1
  Al  Al151  1  0.86743648  0.75309124  0.62972784  1
  Al  Al152  1  0.36320231  0.25174381  0.36907376  1
  Al  Al153  1  0.36713672  0.25878873  0.86386413  1
  Al  Al154  1  0.36981467  0.75052504  0.36827257  1
  Al  Al155  1  0.37073801  0.74668114  0.86340552  1
  Al  Al156  1  0.86480117  0.25621379  0.36546483  1
  Al  Al157  1  0.86399581  0.25722095  0.86541005  1
  Al  Al158  1  0.86630464  0.75372426  0.36958872  1
  Al  Al159  1  0.86412897  0.75067710  0.86309267  1
  Al  Al160  1  0.13883499  0.13603817  0.24995360  1
  Al  Al161  1  0.13708599  0.13575688  0.74451331  1
  Al  Al162  1  0.13600763  0.63760539  0.24656185  1
  Al  Al163  1  0.13714003  0.63681300  0.74689297  1
  Al  Al164  1  0.63311809  0.13786931  0.24551944  1
  Al  Al165  1  0.63349600  0.13963350  0.75425035  1
  Al  Al166  1  0.62661901  0.63753935  0.24856200  1
  Al  Al167  1  0.63373090  0.62881067  0.75021689  1
  Al  Al168  1  0.36550455  0.13678858  0.24540216  1
  Al  Al169  1  0.36561362  0.13271397  0.74836661  1
  Al  Al170  1  0.37076737  0.63764365  0.25076396  1
  Al  Al171  1  0.36540655  0.63472704  0.75025077  1
  Al  Al172  1  0.86285295  0.13658169  0.25391284  1
  Al  Al173  1  0.86367427  0.13495871  0.74690445  1
  Al  Al174  1  0.86543194  0.63782167  0.24869700  1
  Al  Al175  1  0.86370457  0.63666020  0.74493846  1
  Al  Al176  1  0.13819305  0.36585719  0.24900353  1
  Al  Al177  1  0.13725641  0.36712510  0.74486245  1
  Al  Al178  1  0.13240784  0.86027256  0.24885308  1
  Al  Al179  1  0.13756169  0.86193361  0.74532330  1
  Al  Al180  1  0.63143802  0.36714069  0.24102043  1
  Al  Al181  1  0.63255054  0.36848918  0.75045725  1
  Al  Al182  1  0.62948772  0.86159380  0.25266443  1
  Al  Al183  1  0.62642649  0.85959101  0.75328791  1
  Al  Al184  1  0.36723484  0.36536793  0.24780376  1
  Al  Al185  1  0.36986269  0.36534692  0.74646539  1
  Al  Al186  1  0.36870730  0.86178722  0.24833334  1
  Al  Al187  1  0.37095243  0.86346536  0.75088867  1
  Al  Al188  1  0.85821103  0.36772568  0.24810956  1
  Al  Al189  1  0.86377554  0.36933564  0.74535800  1
  Al  Al190  1  0.86822938  0.86254563  0.25424400  1
  Al  Al191  1  0.86501618  0.86227249  0.74590734  1
  Al  Al192  1  0.67147242  -0.00122676  0.67151831  1
  Al  Al193  1  0.17845487  0.50227778  0.81901663  1
  Al  Al194  1  0.82549370  0.50258827  0.31576271  1
  Al  Al195  1  0.32766907  0.18763341  0.00043970  1
  Al  Al196  1  0.66965888  -0.00189319  0.32968368  1
  Al  Al197  1  0.18220966  0.33339125  0.50085108  1
  Al  Al198  1  0.00119039  0.18620605  0.32703134  1
  Al  Al199  1  0.33094528  0.50105344  0.32920557  1
  Al  Al200  1  0.33186378  0.49952377  0.81942111  1
  Al  Al201  1  0.00235805  0.82908847  0.81174419  1
  Al  Al202  1  0.82098469  0.33444459  0.50178924  1
  Al  Al203  1  0.82737094  -0.00028669  0.17122992  1
  Al  Al204  1  0.81932773  0.17423927  0.49916569  1
  Al  Al205  1  0.18003145  0.81590030  0.49970973  1
  Al  Al206  1  0.66912442  -0.00098653  0.17162963  1
  Al  Al207  1  0.32934056  -0.00112052  0.32569887  1
  Al  Al208  1  0.82302855  0.18084561  0.00227161  1
  Al  Al209  1  0.17887489  0.17077993  0.49773005  1
  Al  Al210  1  0.00226991  0.17273905  0.81819824  1
  Al  Al211  1  0.00013648  0.68206853  0.67140509  1
  Al  Al212  1  0.83190167  -0.00136633  0.67746784  1
  Al  Al213  1  0.17790496  0.50253914  0.32111332  1
  Al  Al214  1  0.67197176  -0.00287422  0.83052194  1
  Al  Al215  1  0.00271337  0.16877522  0.17216941  1
  Al  Al216  1  0.66753935  0.66891587  0.00079538  1
  Al  Al217  1  0.81904996  0.67834719  0.49783565  1
  Al  Al218  1  0.32137949  0.80964236  0.00100355  1
  Al  Al219  1  0.49906100  0.33081843  0.32584366  1
  Al  Al220  1  0.83020095  -0.00217062  0.33099984  1
  Al  Al221  1  0.00066783  0.68365766  0.32995217  1
  Al  Al222  1  -0.00161692  0.32932770  0.18976889  1
  Al  Al223  1  0.49849715  0.17481799  0.31352685  1
  Al  Al224  1  0.32214547  0.50250687  0.17282748  1
  Al  Al225  1  0.00017464  0.67235198  0.82723843  1
  Al  Al226  1  0.81728982  0.50231257  0.81366105  1
  Al  Al227  1  0.17352146  0.17605429  0.00010837  1
  Al  Al228  1  0.49936613  0.18896130  0.82884737  1
  Al  Al229  1  0.68019645  0.82213657  0.00003817  1
  Al  Al230  1  -0.00127460  0.68512975  0.17059465  1
  Al  Al231  1  0.49940618  0.67913311  0.68697915  1
  Al  Al232  1  0.18341381  -0.00056790  0.81945213  1
  Al  Al233  1  -0.00034764  0.33119463  0.81530334  1
  Al  Al234  1  0.17756418  -0.00326110  0.31025748  1
  Al  Al235  1  0.67006923  0.49992049  0.31342912  1
  Al  Al236  1  0.49984855  0.19312965  0.67254637  1
  Al  Al237  1  0.82119486  0.67827453  0.00012442  1
  Al  Al238  1  0.31567750  -0.00096903  0.17416048  1
  Au  Au239  1  0.00287496  0.82966287  0.82883003  1
  Au  Au240  1  0.82680540  -0.00234450  0.84017688  1
  Au  Au241  1  0.67182290  0.49899705  0.66405291  1
  Au  Au242  1  0.17367187  0.50253320  0.17223764  1
  Au  Au243  1  0.66300248  0.67994717  0.50218792  1
  Au  Au244  1  0.66474807  0.17641664  0.00366045  1
  Au  Au245  1  0.82756434  0.66932138  0.50037340  1
  Au  Au246  1  0.82729829  0.34973372  0.50177636  1
  Au  Au247  1  0.83781438  -0.00126784  0.66649809  1
  Au  Au248  1  0.00353575  0.15772535  0.82630805  1
  Au  Au249  1  0.66018985  -0.00526554  0.83347843  1
  Au  Au250  1  0.17502485  0.83695636  0.00351973  1
  Au  Au251  1  0.34091808  0.17708669  0.49755542  1
  Au  Au252  1  0.49845911  0.67279370  0.16345065  1
  Au  Au253  1  0.82746750  -0.00582675  0.15603264  1
  Au  Au254  1  0.16176633  -0.00567642  0.67271800  1
  Au  Au255  1  -0.00303657  0.34073084  0.17731951  1
  Au  Au256  1  0.32445143  0.66342358  0.50411590  1
  Au  Au257  1  0.33055417  -0.00237862  0.83940811  1
  Au  Au258  1  0.17127900  0.15678000  0.49578014  1
  Au  Au259  1  0.67563112  0.49976044  0.32972026  1
  Au  Au260  1  0.49991166  0.82593933  0.67415186  1
  Au  Au261  1  0.49752971  0.17595615  0.83961462  1
  Au  Au262  1  0.83215078  0.17236576  0.00022138  1
  Au  Au263  1  0.65888121  0.18125743  0.49702656  1
  Au  Au264  1  -0.00257223  0.67507628  0.15776481  1
  Au  Au265  1  0.82083615  0.33838146  0.00013647  1
  Au  Au266  1  0.17362889  0.50202950  0.67106257  1
  Au  Au267  1  0.49848063  0.67717786  0.33308335  1
  Au  Au268  1  0.00413785  0.15377305  0.17982023  1
  Au  Au269  1  0.17945575  0.33826922  -0.00312329  1
  Au  Au270  1  0.49900975  0.32671247  0.33801656  1
  Au  Au271  1  0.65694855  -0.00174365  0.32719762  1
  Au  Au272  1  0.00121223  0.67116037  0.34045941  1
  Au  Au273  1  -0.00063793  0.34598984  0.82346411  1
  Au  Au274  1  0.66731038  -0.00202664  0.65434653  1
  Au  Au275  1  0.66952048  0.49807763  0.83564705  1
  Au  Au276  1  0.83087240  0.82615702  0.00119600  1
  Au  Au277  1  0.16855120  0.34217735  0.50042962  1
  Au  Au278  1  0.32745201  0.83368045  0.49582962  1
  Au  Au279  1  0.82820647  0.16016993  0.49654442  1
  Au  Au280  1  0.49922759  0.17649211  0.66754477  1
  Au  Au281  1  0.17445042  0.16345443  0.00265710  1
  Au  Au282  1  0.33157966  -0.00041448  0.66844506  1
  Au  Au283  1  -0.00016726  0.66994028  0.66684194  1
  Au  Au284  1  0.84122787  -0.00704677  0.33430582  1
  Au  Au285  1  0.50066953  0.33026633  0.16132388  1
  Au  Au286  1  0.17900250  0.66520026  -0.00349972  1
  Au  Au287  1  0.00115354  0.18056816  0.65739080  1
