# generated using pymatgen
data_Ca24Ti8Al207Au49
_symmetry_space_group_name_H-M   'P 1'
_cell_length_a   17.32055891
_cell_length_b   17.31922595
_cell_length_c   17.32053347
_cell_angle_alpha   90.00102075
_cell_angle_beta   90.00042789
_cell_angle_gamma   90.00499358
_symmetry_Int_Tables_number   1
_chemical_formula_structural   Ca24Ti8Al207Au49
_chemical_formula_sum   'Ca24 Ti8 Al207 Au49'
_cell_volume   5195.79062937
_cell_formula_units_Z   1
loop_
 _symmetry_equiv_pos_site_id
 _symmetry_equiv_pos_as_xyz
  1  'x, y, z'
loop_
 _atom_site_type_symbol
 _atom_site_label
 _atom_site_symmetry_multiplicity
 _atom_site_fract_x
 _atom_site_fract_y
 _atom_site_fract_z
 _atom_site_occupancy
  Ca  Ca0  1  0.24838988  0.00160717  0.00437285  1
  Ca  Ca1  1  0.24194210  -0.00223474  0.49940476  1
  Ca  Ca2  1  0.24571866  0.50002269  -0.00755633  1
  Ca  Ca3  1  0.24496200  0.50342985  0.50638767  1
  Ca  Ca4  1  0.75591337  -0.00528106  -0.00003097  1
  Ca  Ca5  1  0.75461131  0.00074783  0.49880405  1
  Ca  Ca6  1  0.75344911  0.50317661  -0.00330904  1
  Ca  Ca7  1  0.75559462  0.49429974  0.50482632  1
  Ca  Ca8  1  0.00381366  0.25124979  -0.00209552  1
  Ca  Ca9  1  0.00078443  0.24768117  0.50171238  1
  Ca  Ca10  1  -0.00289084  0.75260368  -0.00221688  1
  Ca  Ca11  1  0.00218989  0.75271110  0.50106844  1
  Ca  Ca12  1  0.49423211  0.25409710  -0.00259228  1
  Ca  Ca13  1  0.50300437  0.25060789  0.50105479  1
  Ca  Ca14  1  0.50511703  0.75288337  -0.00438792  1
  Ca  Ca15  1  0.49847138  0.75322606  0.50278771  1
  Ca  Ca16  1  -0.00004145  -0.00042010  0.25536646  1
  Ca  Ca17  1  0.00210961  0.00040745  0.74754943  1
  Ca  Ca18  1  -0.00518755  0.50231860  0.25139553  1
  Ca  Ca19  1  -0.00174499  0.50097526  0.74366335  1
  Ca  Ca20  1  0.49887662  0.00167445  0.25033959  1
  Ca  Ca21  1  0.49775105  -0.00110597  0.74477683  1
  Ca  Ca22  1  0.49996406  0.49826328  0.25297656  1
  Ca  Ca23  1  0.50010406  0.49920271  0.74432849  1
  Ti  Ti24  1  0.24873640  0.24600491  0.25044789  1
  Ti  Ti25  1  0.24836726  0.25041869  0.74773546  1
  Ti  Ti26  1  0.24790950  0.75472608  0.25224019  1
  Ti  Ti27  1  0.24886264  0.74969639  0.74631031  1
  Ti  Ti28  1  0.75272054  0.24863055  0.25091518  1
  Ti  Ti29  1  0.75200222  0.25118555  0.74897058  1
  Ti  Ti30  1  0.75292649  0.75223254  0.25037160  1
  Ti  Ti31  1  0.75115160  0.75010631  0.74862704  1
  Al  Al32  1  0.07951271  0.08477974  0.08220317  1
  Al  Al33  1  0.08622329  0.08120335  0.59119395  1
  Al  Al34  1  0.07062249  0.58068219  0.09167576  1
  Al  Al35  1  0.09091896  0.59534317  0.59115847  1
  Al  Al36  1  0.58147970  0.07214506  0.08200581  1
  Al  Al37  1  0.59122826  0.08322270  0.57322381  1
  Al  Al38  1  0.59019894  0.58932491  0.07233281  1
  Al  Al39  1  0.57650204  0.57960752  0.58467026  1
  Al  Al40  1  0.40914515  0.40492514  0.07395799  1
  Al  Al41  1  0.39820109  0.41690352  0.58821243  1
  Al  Al42  1  0.40998543  0.91267015  0.08068010  1
  Al  Al43  1  0.41548096  0.90509431  0.58175556  1
  Al  Al44  1  0.92318288  0.42082160  0.07956094  1
  Al  Al45  1  0.91514566  0.40759617  0.58321236  1
  Al  Al46  1  0.91603786  0.91815565  0.09134165  1
  Al  Al47  1  0.92805463  0.91002857  0.58968773  1
  Al  Al48  1  0.40504373  0.07544551  0.41480829  1
  Al  Al49  1  0.41011248  0.08970858  0.92777948  1
  Al  Al50  1  0.42027511  0.58148539  0.43255472  1
  Al  Al51  1  0.42590677  0.57874498  0.91489892  1
  Al  Al52  1  0.91712076  0.08893325  0.41297981  1
  Al  Al53  1  0.91837843  0.07843920  0.90378967  1
  Al  Al54  1  0.92543253  0.58765312  0.41376801  1
  Al  Al55  1  0.91365418  0.59211690  0.91192847  1
  Al  Al56  1  0.07050444  0.41319672  0.42192685  1
  Al  Al57  1  0.08121968  0.40964727  0.91374901  1
  Al  Al58  1  0.08138164  0.91123999  0.41458861  1
  Al  Al59  1  0.07707599  0.90994299  0.90031042  1
  Al  Al60  1  0.59689214  0.40926126  0.42266738  1
  Al  Al61  1  0.57859846  0.42862691  0.91851438  1
  Al  Al62  1  0.58498674  0.92956693  0.42020468  1
  Al  Al63  1  0.58177353  0.91213947  0.91988474  1
  Al  Al64  1  0.07922335  0.08582227  0.41835318  1
  Al  Al65  1  0.08183822  0.08567872  0.91100915  1
  Al  Al66  1  0.08380270  0.60066406  0.42708056  1
  Al  Al67  1  0.07005219  0.58642475  0.90489028  1
  Al  Al68  1  0.60498015  0.08591849  0.41746926  1
  Al  Al69  1  0.57625058  0.07463338  0.91979318  1
  Al  Al70  1  0.58229628  0.57012709  0.42338177  1
  Al  Al71  1  0.58999143  0.59120323  0.91461153  1
  Al  Al72  1  0.41726162  0.40647581  0.43222267  1
  Al  Al73  1  0.40669524  0.40906932  0.91791597  1
  Al  Al74  1  0.39938413  0.91599858  0.42086838  1
  Al  Al75  1  0.41690793  0.90797684  0.92368338  1
  Al  Al76  1  0.91199967  0.40238037  0.41986456  1
  Al  Al77  1  0.92311069  0.41712948  0.90788730  1
  Al  Al78  1  0.92065846  0.91361401  0.40961759  1
  Al  Al79  1  0.91635613  0.91468013  0.90108182  1
  Al  Al80  1  0.08425985  0.41819084  0.07734599  1
  Al  Al81  1  0.08544508  0.42066955  0.59313503  1
  Al  Al82  1  0.07702421  0.91767307  0.08714504  1
  Al  Al83  1  0.08830614  0.91415546  0.59591587  1
  Al  Al84  1  0.57389835  0.42408171  0.07701520  1
  Al  Al85  1  0.59084302  0.40877684  0.57977429  1
  Al  Al86  1  0.58693371  0.91340461  0.08044864  1
  Al  Al87  1  0.57540337  0.91732942  0.58440841  1
  Al  Al88  1  0.40283391  0.08195052  0.08023266  1
  Al  Al89  1  0.41911236  0.07988502  0.57579846  1
  Al  Al90  1  0.42499012  0.57739756  0.07219157  1
  Al  Al91  1  0.40583623  0.58052976  0.59299055  1
  Al  Al92  1  0.91602838  0.07749945  0.09404798  1
  Al  Al93  1  0.92342617  0.09098735  0.58455266  1
  Al  Al94  1  0.91659982  0.59530309  0.08078446  1
  Al  Al95  1  0.92882968  0.59021411  0.58994950  1
  Al  Al96  1  0.24907432  0.13044794  0.13407049  1
  Al  Al97  1  0.24790552  0.13441493  0.63473785  1
  Al  Al98  1  0.25042283  0.63948130  0.13744491  1
  Al  Al99  1  0.24457159  0.63538682  0.63339320  1
  Al  Al100  1  0.75551534  0.13180299  0.13618246  1
  Al  Al101  1  0.74908389  0.13705477  0.63288139  1
  Al  Al102  1  0.75037675  0.63576873  0.13541368  1
  Al  Al103  1  0.75472389  0.63156514  0.63877614  1
  Al  Al104  1  0.25153535  0.36144890  0.13783400  1
  Al  Al105  1  0.24971264  0.36698127  0.63707348  1
  Al  Al106  1  0.24917644  0.86966635  0.13589548  1
  Al  Al107  1  0.24610752  0.86029610  0.62790584  1
  Al  Al108  1  0.75557444  0.36107810  0.13012941  1
  Al  Al109  1  0.75209328  0.36551223  0.63562443  1
  Al  Al110  1  0.75349534  0.86596738  0.13528422  1
  Al  Al111  1  0.75395953  0.86218770  0.63794777  1
  Al  Al112  1  0.24952730  0.12919193  0.36446089  1
  Al  Al113  1  0.25026166  0.13791100  0.86266224  1
  Al  Al114  1  0.24369870  0.63868977  0.36838101  1
  Al  Al115  1  0.24997794  0.63786232  0.86125164  1
  Al  Al116  1  0.75254311  0.12846662  0.36656428  1
  Al  Al117  1  0.75603385  0.13509844  0.86250162  1
  Al  Al118  1  0.75746478  0.63572259  0.36356694  1
  Al  Al119  1  0.75075674  0.63677094  0.86096823  1
  Al  Al120  1  0.25519533  0.36064634  0.36540857  1
  Al  Al121  1  0.25081038  0.36652496  0.86023256  1
  Al  Al122  1  0.24766130  0.86931060  0.37172866  1
  Al  Al123  1  0.24790823  0.86019852  0.85895982  1
  Al  Al124  1  0.75342222  0.36101920  0.36999676  1
  Al  Al125  1  0.75239704  0.36449754  0.86553772  1
  Al  Al126  1  0.75323457  0.87263479  0.36374548  1
  Al  Al127  1  0.75550947  0.86390155  0.86178469  1
  Al  Al128  1  0.12898336  0.24463808  0.13626525  1
  Al  Al129  1  0.12753193  0.25069810  0.63563996  1
  Al  Al130  1  0.13416991  0.75308597  0.13471326  1
  Al  Al131  1  0.13124242  0.74970961  0.63026465  1
  Al  Al132  1  0.63685213  0.25137791  0.13699517  1
  Al  Al133  1  0.63514838  0.25003255  0.63146835  1
  Al  Al134  1  0.63817637  0.75022723  0.13795146  1
  Al  Al135  1  0.62650656  0.75314314  0.63751475  1
  Al  Al136  1  0.13486380  0.24689961  0.36547102  1
  Al  Al137  1  0.13416245  0.25027156  0.86312085  1
  Al  Al138  1  0.13549952  0.75539465  0.37043215  1
  Al  Al139  1  0.12777271  0.75004978  0.86114425  1
  Al  Al140  1  0.63946320  0.24871284  0.37144460  1
  Al  Al141  1  0.63596272  0.25209963  0.86339337  1
  Al  Al142  1  0.63710292  0.75109834  0.36408262  1
  Al  Al143  1  0.63633839  0.74880312  0.86245661  1
  Al  Al144  1  0.36139919  0.24772558  0.13212742  1
  Al  Al145  1  0.36367216  0.25207902  0.62628284  1
  Al  Al146  1  0.36188526  0.75459116  0.13447821  1
  Al  Al147  1  0.36762732  0.75126323  0.63194991  1
  Al  Al148  1  0.87351693  0.24790920  0.13797994  1
  Al  Al149  1  0.87017329  0.25162492  0.63448683  1
  Al  Al150  1  0.86749301  0.74862877  0.13604584  1
  Al  Al151  1  0.87268441  0.75155209  0.63840651  1
  Al  Al152  1  0.36546612  0.24528013  0.37037502  1
  Al  Al153  1  0.36371250  0.25216969  0.86458526  1
  Al  Al154  1  0.36277091  0.75668862  0.36990733  1
  Al  Al155  1  0.36491423  0.75289681  0.86077271  1
  Al  Al156  1  0.86476754  0.24823631  0.36592917  1
  Al  Al157  1  0.86816919  0.25420181  0.86533481  1
  Al  Al158  1  0.86603278  0.75562997  0.36367189  1
  Al  Al159  1  0.87224463  0.75010730  0.86130456  1
  Al  Al160  1  0.13193123  0.13032703  0.25192365  1
  Al  Al161  1  0.13380278  0.13423794  0.74440272  1
  Al  Al162  1  0.13375704  0.64051534  0.25011955  1
  Al  Al163  1  0.12976188  0.63728849  0.74590625  1
  Al  Al164  1  0.63778781  0.13307296  0.25502644  1
  Al  Al165  1  0.63425390  0.13643063  0.74888632  1
  Al  Al166  1  0.63684608  0.63620970  0.25454550  1
  Al  Al167  1  0.63474094  0.63434106  0.74352131  1
  Al  Al168  1  0.36406442  0.12973371  0.25087849  1
  Al  Al169  1  0.36662855  0.13918302  0.74214209  1
  Al  Al170  1  0.36407975  0.64251276  0.25738157  1
  Al  Al171  1  0.36260182  0.63734969  0.74269531  1
  Al  Al172  1  0.86709502  0.13159818  0.25375751  1
  Al  Al173  1  0.86552345  0.13601679  0.74641693  1
  Al  Al174  1  0.86679890  0.63310691  0.24873545  1
  Al  Al175  1  0.87385802  0.63885584  0.74861940  1
  Al  Al176  1  0.13730341  0.36248947  0.25180788  1
  Al  Al177  1  0.13004049  0.36358640  0.74659770  1
  Al  Al178  1  0.13550258  0.87102342  0.25445133  1
  Al  Al179  1  0.13077536  0.86092352  0.74492626  1
  Al  Al180  1  0.63514290  0.36087360  0.25441054  1
  Al  Al181  1  0.63097374  0.36192390  0.74379428  1
  Al  Al182  1  0.63720827  0.86669177  0.25280394  1
  Al  Al183  1  0.63519421  0.86514575  0.74916728  1
  Al  Al184  1  0.37113292  0.35593256  0.25311571  1
  Al  Al185  1  0.36891199  0.36138502  0.74517948  1
  Al  Al186  1  0.36004852  0.87147550  0.25460888  1
  Al  Al187  1  0.36502822  0.86467994  0.74165721  1
  Al  Al188  1  0.86242941  0.37041507  0.25093506  1
  Al  Al189  1  0.87145133  0.36410895  0.74619266  1
  Al  Al190  1  0.86539244  0.87275277  0.25045313  1
  Al  Al191  1  0.87308784  0.86465478  0.75143645  1
  Al  Al192  1  0.81226835  0.67932764  -0.00227471  1
  Al  Al193  1  0.16513302  0.50265537  0.33358727  1
  Al  Al194  1  0.33036070  0.49733086  0.32922847  1
  Al  Al195  1  0.67514966  0.83118472  0.50060329  1
  Al  Al196  1  0.32781855  -0.00152716  0.83245251  1
  Al  Al197  1  0.49795616  0.17836945  0.82256206  1
  Al  Al198  1  0.32863511  0.50047546  0.16828873  1
  Al  Al199  1  0.81490139  0.18520360  0.50066288  1
  Al  Al200  1  0.18610208  0.32713059  -0.00045506  1
  Al  Al201  1  0.82858276  0.50083884  0.81754098  1
  Al  Al202  1  0.50029070  0.67000051  0.17594778  1
  Al  Al203  1  0.83237070  0.67535904  0.50202339  1
  Al  Al204  1  0.00071825  0.69356542  0.31382931  1
  Al  Al205  1  0.83056439  0.82888013  0.50104691  1
  Al  Al206  1  0.67553732  0.49957450  0.82018308  1
  Al  Al207  1  0.17988073  0.83036540  -0.00322936  1
  Al  Al208  1  0.67430424  0.67872449  0.50274699  1
  Al  Al209  1  0.32809183  0.68419390  -0.00208062  1
  Al  Al210  1  0.18619348  0.33240773  0.50108309  1
  Al  Al211  1  0.68588373  -0.00013987  0.83118789  1
  Al  Al212  1  0.67641255  -0.00060653  0.67230443  1
  Al  Al213  1  0.67406866  0.18094757  -0.00054924  1
  Al  Al214  1  0.68341657  0.49767595  0.32763815  1
  Al  Al215  1  0.67965630  0.81163755  -0.00060880  1
  Al  Al216  1  0.49789143  0.17747009  0.16834397  1
  Al  Al217  1  0.31213345  0.68535052  0.50078115  1
  Al  Al218  1  -0.00019334  0.18546217  0.80957384  1
  Al  Al219  1  0.50226529  0.17260819  0.33348140  1
  Al  Al220  1  0.50013499  0.67589050  0.81835703  1
  Al  Al221  1  0.83334362  0.17170741  -0.00157159  1
  Al  Al222  1  0.49905654  0.82806607  0.17515440  1
  Al  Al223  1  0.17001632  0.66796183  0.00120845  1
  Al  Al224  1  0.83195848  0.82991007  -0.00131783  1
  Al  Al225  1  0.16919696  0.50045535  0.81345443  1
  Al  Al226  1  0.17190649  0.50052372  0.17644614  1
  Al  Al227  1  0.32814470  0.50133879  0.80886818  1
  Al  Al228  1  0.17832078  0.17487148  0.50114302  1
  Al  Al229  1  0.49935833  0.82809510  0.81722475  1
  Al  Al230  1  0.67839075  0.49763444  0.17167546  1
  Al  Al231  1  0.17283315  -0.00127499  0.81189613  1
  Al  Al232  1  0.68570708  -0.00047875  0.18535258  1
  Al  Al233  1  0.18442255  0.17506706  -0.00079825  1
  Al  Al234  1  0.31603900  -0.00344926  0.66996555  1
  Al  Al235  1  0.83213714  -0.00114550  0.68324089  1
  Al  Al236  1  0.00017674  0.81150393  0.19181925  1
  Al  Al237  1  0.50077589  0.82817952  0.33321195  1
  Al  Al238  1  -0.00103105  0.31178223  0.31832454  1
  Au  Au239  1  0.66575874  0.16530710  0.00000918  1
  Au  Au240  1  0.83693521  0.33582182  -0.00435786  1
  Au  Au241  1  0.83672723  0.16041378  0.00272179  1
  Au  Au242  1  0.83986431  0.50444419  0.16687686  1
  Au  Au243  1  0.83265817  0.00064906  0.32786867  1
  Au  Au244  1  0.17008780  0.00128295  0.33746159  1
  Au  Au245  1  0.32380893  0.67313303  0.50352177  1
  Au  Au246  1  0.67246874  -0.00375051  0.17445647  1
  Au  Au247  1  0.32216769  -0.00289237  0.84757720  1
  Au  Au248  1  0.33563634  0.49407365  0.34521281  1
  Au  Au249  1  0.66620745  0.49632537  0.67157597  1
  Au  Au250  1  -0.00002401  0.32338549  0.67593218  1
  Au  Au251  1  -0.00155851  0.16414566  0.18385054  1
  Au  Au252  1  0.49546756  0.33370539  0.66011104  1
  Au  Au253  1  0.33303212  -0.00332425  0.17542354  1
  Au  Au254  1  0.66912528  -0.00289332  0.82781649  1
  Au  Au255  1  0.49619493  0.16954254  0.15423579  1
  Au  Au256  1  0.67674806  0.66295293  0.49774271  1
  Au  Au257  1  0.50581444  0.16562399  0.65910133  1
  Au  Au258  1  0.50290859  0.33773828  0.83295913  1
  Au  Au259  1  0.49729317  0.84477275  0.33217037  1
  Au  Au260  1  0.34306451  0.67878567  -0.00833767  1
  Au  Au261  1  0.83706717  -0.00025856  0.66753171  1
  Au  Au262  1  0.50166853  0.67641632  0.16014514  1
  Au  Au263  1  0.66712844  0.33984995  -0.00228171  1
  Au  Au264  1  0.33507937  0.50188254  0.82443041  1
  Au  Au265  1  0.83224221  0.49871690  0.34332730  1
  Au  Au266  1  0.32201943  0.49936137  0.15250732  1
  Au  Au267  1  0.50384719  0.33596434  0.33721358  1
  Au  Au268  1  0.16940559  0.33129660  0.50047929  1
  Au  Au269  1  0.50287676  0.15845115  0.34065306  1
  Au  Au270  1  0.50293736  0.66002242  0.33671304  1
  Au  Au271  1  0.16629199  0.82839911  0.50178706  1
  Au  Au272  1  0.66261212  0.50235572  0.17324290  1
  Au  Au273  1  0.49915368  0.33680726  0.16849190  1
  Au  Au274  1  0.49574157  0.16614995  0.83416782  1
  Au  Au275  1  0.32843159  0.17122024  0.49873510  1
  Au  Au276  1  0.15379075  0.66168100  0.00175575  1
  Au  Au277  1  0.17206860  0.17178748  -0.00101258  1
  Au  Au278  1  0.16996438  0.84413546  -0.00389982  1
  Au  Au279  1  0.83746198  0.50194502  0.66685942  1
  Au  Au280  1  0.14914567  0.50649760  0.32965292  1
  Au  Au281  1  0.49734129  0.67345120  0.67048125  1
  Au  Au282  1  0.15383139  0.49914903  0.81897518  1
  Au  Au283  1  0.16604200  0.00152170  0.17131383  1
  Au  Au284  1  0.32306326  -0.00442404  0.65534320  1
  Au  Au285  1  0.00399571  0.33418936  0.17227182  1
  Au  Au286  1  0.83063363  0.17860006  0.50060293  1
  Au  Au287  1  -0.00182562  0.82318340  0.17962611  1
