# generated using pymatgen
data_Ca24Ti8Al207Au49
_symmetry_space_group_name_H-M   'P 1'
_cell_length_a   17.32424396
_cell_length_b   17.32490861
_cell_length_c   17.32199140
_cell_angle_alpha   89.99371605
_cell_angle_beta   89.99604361
_cell_angle_gamma   90.00130782
_symmetry_Int_Tables_number   1
_chemical_formula_structural   Ca24Ti8Al207Au49
_chemical_formula_sum   'Ca24 Ti8 Al207 Au49'
_cell_volume   5199.03879726
_cell_formula_units_Z   1
loop_
 _symmetry_equiv_pos_site_id
 _symmetry_equiv_pos_as_xyz
  1  'x, y, z'
loop_
 _atom_site_type_symbol
 _atom_site_label
 _atom_site_symmetry_multiplicity
 _atom_site_fract_x
 _atom_site_fract_y
 _atom_site_fract_z
 _atom_site_occupancy
  Ca  Ca0  1  0.25178849  -0.00346185  0.00015304  1
  Ca  Ca1  1  0.25168903  -0.00268482  0.49860808  1
  Ca  Ca2  1  0.25168987  0.50271877  0.00246565  1
  Ca  Ca3  1  0.25322078  0.50423344  0.49842392  1
  Ca  Ca4  1  0.75070991  0.00108577  -0.00098794  1
  Ca  Ca5  1  0.75153940  -0.00180111  0.49881062  1
  Ca  Ca6  1  0.74449674  0.49898201  -0.00072460  1
  Ca  Ca7  1  0.74566649  0.49834564  0.49969570  1
  Ca  Ca8  1  0.00231080  0.25391626  -0.00311432  1
  Ca  Ca9  1  0.00156354  0.25231983  0.50110695  1
  Ca  Ca10  1  0.00334970  0.74285321  -0.00007156  1
  Ca  Ca11  1  0.00486681  0.74669185  0.49969946  1
  Ca  Ca12  1  0.50001277  0.25246315  0.00041723  1
  Ca  Ca13  1  0.49467543  0.25801377  0.49939083  1
  Ca  Ca14  1  0.49476729  0.74069135  -0.00031989  1
  Ca  Ca15  1  0.49447204  0.74449734  0.49625441  1
  Ca  Ca16  1  0.00274762  -0.00244018  0.25051448  1
  Ca  Ca17  1  0.00258754  -0.00449442  0.75109541  1
  Ca  Ca18  1  0.00532535  0.50362767  0.25289018  1
  Ca  Ca19  1  0.00376162  0.50301122  0.75130631  1
  Ca  Ca20  1  0.49650924  -0.00255816  0.25238734  1
  Ca  Ca21  1  0.49854674  -0.00021739  0.75168637  1
  Ca  Ca22  1  0.49531304  0.50768035  0.24828807  1
  Ca  Ca23  1  0.49333289  0.50174742  0.74658354  1
  Ti  Ti24  1  0.25145756  0.24898801  0.25179214  1
  Ti  Ti25  1  0.25121880  0.25105248  0.74825435  1
  Ti  Ti26  1  0.25106999  0.75163511  0.25009641  1
  Ti  Ti27  1  0.25061993  0.74962101  0.74843209  1
  Ti  Ti28  1  0.74803934  0.24938460  0.25178037  1
  Ti  Ti29  1  0.74889658  0.25204165  0.74906580  1
  Ti  Ti30  1  0.74946133  0.74921210  0.25154503  1
  Ti  Ti31  1  0.75058966  0.74753775  0.74735304  1
  Al  Al32  1  0.08031542  0.07804648  0.08032419  1
  Al  Al33  1  0.08300790  0.07561827  0.57836919  1
  Al  Al34  1  0.08590732  0.58747599  0.09573324  1
  Al  Al35  1  0.09440970  0.59016730  0.57907946  1
  Al  Al36  1  0.58134534  0.08058878  0.08511027  1
  Al  Al37  1  0.58552116  0.09499807  0.57703669  1
  Al  Al38  1  0.57510156  0.58612459  0.08372712  1
  Al  Al39  1  0.56932777  0.58535241  0.58930932  1
  Al  Al40  1  0.41469635  0.42149948  0.09474373  1
  Al  Al41  1  0.40770478  0.41679046  0.58928213  1
  Al  Al42  1  0.41889976  0.91528627  0.08804346  1
  Al  Al43  1  0.41550763  0.91237002  0.57919627  1
  Al  Al44  1  0.91715680  0.42734567  0.07999806  1
  Al  Al45  1  0.91875349  0.42233532  0.58099359  1
  Al  Al46  1  0.92527058  0.91799803  0.08908758  1
  Al  Al47  1  0.92294876  0.91300428  0.59298864  1
  Al  Al48  1  0.40767221  0.07648713  0.41758811  1
  Al  Al49  1  0.41628691  0.07521502  0.91232637  1
  Al  Al50  1  0.40808384  0.58891016  0.41167238  1
  Al  Al51  1  0.41369073  0.58299360  0.91228861  1
  Al  Al52  1  0.91910146  0.08412946  0.42043774  1
  Al  Al53  1  0.92204754  0.08459611  0.91386000  1
  Al  Al54  1  0.92366298  0.58399398  0.41607469  1
  Al  Al55  1  0.92073081  0.57853173  0.91747829  1
  Al  Al56  1  0.09358950  0.42539584  0.41294791  1
  Al  Al57  1  0.08203828  0.41799359  0.90407047  1
  Al  Al58  1  0.08809685  0.91492934  0.42417989  1
  Al  Al59  1  0.08548945  0.91329655  0.91713069  1
  Al  Al60  1  0.58355238  0.42417615  0.42016979  1
  Al  Al61  1  0.58441506  0.42452631  0.91099935  1
  Al  Al62  1  0.56989144  0.91029136  0.41236072  1
  Al  Al63  1  0.57356540  0.92570448  0.91789277  1
  Al  Al64  1  0.08438831  0.08102476  0.41711596  1
  Al  Al65  1  0.08238885  0.08361944  0.91220367  1
  Al  Al66  1  0.09636935  0.58851063  0.41333571  1
  Al  Al67  1  0.08572051  0.57864973  0.91644570  1
  Al  Al68  1  0.58352589  0.08553936  0.42457447  1
  Al  Al69  1  0.57919529  0.07964291  0.91804809  1
  Al  Al70  1  0.57473420  0.58395755  0.40620468  1
  Al  Al71  1  0.58343890  0.58295281  0.91089278  1
  Al  Al72  1  0.40534582  0.42112979  0.42202833  1
  Al  Al73  1  0.41341725  0.42472051  0.91323679  1
  Al  Al74  1  0.41000818  0.91206263  0.40619996  1
  Al  Al75  1  0.41128453  0.92014656  0.91156725  1
  Al  Al76  1  0.92112089  0.42198330  0.41947396  1
  Al  Al77  1  0.92230562  0.41254930  0.90776441  1
  Al  Al78  1  0.92346752  0.91931264  0.42468953  1
  Al  Al79  1  0.92475493  0.92111017  0.91351615  1
  Al  Al80  1  0.08876133  0.42827959  0.08592958  1
  Al  Al81  1  0.08818343  0.42217846  0.58168202  1
  Al  Al82  1  0.08288880  0.91032820  0.08207299  1
  Al  Al83  1  0.08259333  0.90372633  0.58522473  1
  Al  Al84  1  0.57465716  0.41558535  0.08969039  1
  Al  Al85  1  0.57157939  0.41144433  0.58966525  1
  Al  Al86  1  0.57572942  0.91778204  0.09135709  1
  Al  Al87  1  0.57505725  0.91458977  0.57816350  1
  Al  Al88  1  0.41810188  0.08138527  0.08363115  1
  Al  Al89  1  0.41441408  0.08608531  0.57885547  1
  Al  Al90  1  0.41314790  0.58386305  0.09002967  1
  Al  Al91  1  0.40653152  0.58448941  0.59034602  1
  Al  Al92  1  0.92081963  0.08059163  0.08009109  1
  Al  Al93  1  0.91509028  0.07472093  0.57942983  1
  Al  Al94  1  0.92171473  0.58555421  0.09482273  1
  Al  Al95  1  0.92321274  0.58143698  0.58547160  1
  Al  Al96  1  0.25416790  0.13015322  0.13538074  1
  Al  Al97  1  0.24906231  0.13598067  0.63462717  1
  Al  Al98  1  0.25287468  0.63194755  0.13668648  1
  Al  Al99  1  0.25200967  0.63248353  0.63023023  1
  Al  Al100  1  0.74747840  0.13686995  0.13154385  1
  Al  Al101  1  0.74843921  0.13832051  0.63067021  1
  Al  Al102  1  0.74918181  0.63626974  0.13625067  1
  Al  Al103  1  0.74768690  0.63431167  0.63212947  1
  Al  Al104  1  0.25288770  0.36648203  0.13529168  1
  Al  Al105  1  0.25341596  0.37332386  0.63021520  1
  Al  Al106  1  0.25329720  0.86857575  0.13800147  1
  Al  Al107  1  0.25331572  0.86175951  0.63242361  1
  Al  Al108  1  0.74514830  0.36383240  0.13327090  1
  Al  Al109  1  0.74607245  0.36631249  0.62828664  1
  Al  Al110  1  0.75279161  0.86188252  0.13722155  1
  Al  Al111  1  0.74908950  0.85926327  0.62963891  1
  Al  Al112  1  0.25012983  0.12875022  0.36439528  1
  Al  Al113  1  0.24962938  0.13001310  0.86430435  1
  Al  Al114  1  0.25053570  0.63552207  0.36872982  1
  Al  Al115  1  0.25256774  0.63200354  0.86200814  1
  Al  Al116  1  0.74943543  0.13547624  0.37020652  1
  Al  Al117  1  0.74998788  0.13910431  0.86925546  1
  Al  Al118  1  0.74662085  0.63668607  0.36626792  1
  Al  Al119  1  0.75115376  0.62785468  0.86114769  1
  Al  Al120  1  0.25103097  0.36602109  0.37023142  1
  Al  Al121  1  0.25458054  0.36766377  0.86405837  1
  Al  Al122  1  0.25205697  0.86923354  0.36553597  1
  Al  Al123  1  0.24959186  0.86918698  0.86302924  1
  Al  Al124  1  0.74721003  0.36164459  0.37173133  1
  Al  Al125  1  0.74712940  0.37266289  0.86441160  1
  Al  Al126  1  0.75124042  0.86261269  0.37073037  1
  Al  Al127  1  0.75493384  0.86365839  0.86282891  1
  Al  Al128  1  0.14153788  0.24989057  0.13590822  1
  Al  Al129  1  0.14109349  0.25681458  0.62716250  1
  Al  Al130  1  0.13746193  0.74431035  0.13832959  1
  Al  Al131  1  0.13328726  0.74725511  0.63550550  1
  Al  Al132  1  0.63131616  0.25026262  0.13155595  1
  Al  Al133  1  0.63436391  0.25190177  0.63001546  1
  Al  Al134  1  0.63269205  0.74757597  0.13480913  1
  Al  Al135  1  0.63229283  0.74643975  0.62932429  1
  Al  Al136  1  0.14005434  0.24983334  0.37026511  1
  Al  Al137  1  0.13945609  0.25327903  0.86351666  1
  Al  Al138  1  0.13883572  0.74738439  0.36545865  1
  Al  Al139  1  0.13861278  0.74797192  0.86170241  1
  Al  Al140  1  0.63338377  0.24842999  0.37158325  1
  Al  Al141  1  0.63698850  0.25411435  0.87022565  1
  Al  Al142  1  0.63351317  0.75008924  0.36828915  1
  Al  Al143  1  0.63748936  0.74510821  0.86178567  1
  Al  Al144  1  0.36983264  0.25080044  0.13779757  1
  Al  Al145  1  0.36645538  0.25861064  0.63327436  1
  Al  Al146  1  0.36639799  0.74831966  0.13720204  1
  Al  Al147  1  0.36654403  0.74373560  0.62906571  1
  Al  Al148  1  0.85992210  0.24836247  0.13526030  1
  Al  Al149  1  0.86137614  0.25283601  0.62805912  1
  Al  Al150  1  0.86610594  0.74447444  0.13590771  1
  Al  Al151  1  0.87417709  0.75008112  0.63555692  1
  Al  Al152  1  0.36484813  0.25420059  0.36437318  1
  Al  Al153  1  0.36215015  0.25103605  0.86521259  1
  Al  Al154  1  0.36126343  0.74976507  0.36806919  1
  Al  Al155  1  0.36253535  0.74765535  0.86199387  1
  Al  Al156  1  0.86347597  0.24936918  0.37036157  1
  Al  Al157  1  0.86364114  0.25390222  0.86478316  1
  Al  Al158  1  0.86572237  0.74952928  0.36505874  1
  Al  Al159  1  0.86460164  0.74528467  0.86505972  1
  Al  Al160  1  0.13821784  0.12959894  0.25031340  1
  Al  Al161  1  0.13811664  0.13159688  0.75070026  1
  Al  Al162  1  0.13970755  0.63201759  0.25382637  1
  Al  Al163  1  0.13705157  0.63196423  0.74239243  1
  Al  Al164  1  0.63179202  0.13915825  0.24915197  1
  Al  Al165  1  0.63558343  0.14154676  0.74903383  1
  Al  Al166  1  0.63198726  0.63580258  0.24784659  1
  Al  Al167  1  0.63394203  0.63264394  0.74906799  1
  Al  Al168  1  0.36504632  0.12973647  0.25232593  1
  Al  Al169  1  0.36510877  0.13670538  0.74810339  1
  Al  Al170  1  0.36365986  0.63404853  0.24941209  1
  Al  Al171  1  0.36267846  0.63044405  0.74488403  1
  Al  Al172  1  0.86077879  0.13153326  0.25175176  1
  Al  Al173  1  0.86105607  0.13826856  0.75064737  1
  Al  Al174  1  0.86519289  0.63391765  0.25115234  1
  Al  Al175  1  0.86580547  0.63443596  0.74808030  1
  Al  Al176  1  0.13998135  0.36593821  0.25476941  1
  Al  Al177  1  0.13865931  0.36585769  0.74703138  1
  Al  Al178  1  0.13824969  0.86856892  0.25060218  1
  Al  Al179  1  0.13714793  0.86725563  0.74632885  1
  Al  Al180  1  0.63254117  0.36284904  0.24666222  1
  Al  Al181  1  0.63438475  0.36396670  0.74709240  1
  Al  Al182  1  0.63435308  0.86226012  0.25290258  1
  Al  Al183  1  0.63596939  0.86014556  0.74794567  1
  Al  Al184  1  0.36374083  0.36839463  0.24711192  1
  Al  Al185  1  0.36365958  0.36999206  0.74562154  1
  Al  Al186  1  0.36665814  0.86924241  0.25437218  1
  Al  Al187  1  0.36442311  0.86614003  0.75007489  1
  Al  Al188  1  0.86137036  0.36351621  0.25375583  1
  Al  Al189  1  0.86364222  0.36444147  0.75292844  1
  Al  Al190  1  0.86410020  0.86760813  0.25106368  1
  Al  Al191  1  0.86570985  0.86244811  0.74813083  1
  Al  Al192  1  0.32710817  0.32766488  0.00374248  1
  Al  Al193  1  0.68292422  0.49917724  0.31752817  1
  Al  Al194  1  0.81541864  0.49897742  0.18186495  1
  Al  Al195  1  0.17625072  0.17735916  0.00222947  1
  Al  Al196  1  0.49870829  0.32949679  0.81070589  1
  Al  Al197  1  0.66817564  0.83159041  -0.00199046  1
  Al  Al198  1  0.00040081  0.32487742  0.16994045  1
  Al  Al199  1  0.49780355  0.17160886  0.32290118  1
  Al  Al200  1  0.66579458  0.00106852  0.67490329  1
  Al  Al201  1  0.82542759  0.32681537  -0.00258743  1
  Al  Al202  1  0.31881870  0.18666302  0.49862805  1
  Al  Al203  1  0.00220713  0.82395404  0.81627010  1
  Al  Al204  1  0.18698599  0.49998640  0.81709350  1
  Al  Al205  1  0.32495954  -0.00126153  0.67813311  1
  Al  Al206  1  0.17781952  0.81628527  0.00078262  1
  Al  Al207  1  0.49726050  0.69070418  0.31091099  1
  Al  Al208  1  0.49997973  0.17446574  0.82691818  1
  Al  Al209  1  0.82430627  -0.00128463  0.68160453  1
  Al  Al210  1  0.00059237  0.17360579  0.17562310  1
  Al  Al211  1  0.18221627  0.80973500  0.50033388  1
  Al  Al212  1  0.30914792  0.50052354  0.31361552  1
  Al  Al213  1  -0.00052632  0.32694974  0.68481117  1
  Al  Al214  1  0.83136903  0.82198117  0.00092307  1
  Al  Al215  1  0.67891509  -0.00091136  0.17481598  1
  Al  Al216  1  0.49803987  0.67300339  0.81229991  1
  Al  Al217  1  0.82469082  0.67544827  0.50272576  1
  Al  Al218  1  0.00142392  0.18868618  0.82438494  1
  Al  Al219  1  0.50019650  0.80725024  0.19221571  1
  Al  Al220  1  0.49867642  0.81166405  0.67649578  1
  Al  Al221  1  0.67620040  0.00050374  0.33020760  1
  Al  Al222  1  0.31930684  0.67410641  0.00007749  1
  Al  Al223  1  0.68078851  0.00050157  0.82542871  1
  Al  Al224  1  0.00178999  0.80985149  0.17874737  1
  Al  Al225  1  0.00251062  0.67242895  0.82013122  1
  Al  Al226  1  0.00100630  0.17412447  0.32743149  1
  Al  Al227  1  0.32975954  0.82732591  -0.00021360  1
  Al  Al228  1  0.82360568  0.49944272  0.67938433  1
  Al  Al229  1  0.19128902  0.49953780  0.19124413  1
  Al  Al230  1  0.00262217  0.32711152  0.32952374  1
  Al  Al231  1  0.49977040  0.82479643  0.82872821  1
  Al  Al232  1  0.49885579  0.33342151  0.31847769  1
  Al  Al233  1  -0.00041764  0.17178396  0.67023134  1
  Al  Al234  1  0.00263429  0.67593636  0.31351831  1
  Al  Al235  1  0.67821122  0.67259742  -0.00164197  1
  Al  Al236  1  0.49910771  0.18603298  0.67126623  1
  Al  Al237  1  0.66774296  0.49942520  0.68097492  1
  Al  Al238  1  0.00281285  0.82739110  0.32954501  1
  Au  Au239  1  0.33205344  0.16266232  -0.00503246  1
  Au  Au240  1  0.16849215  0.66727485  0.00045626  1
  Au  Au241  1  0.18005311  0.50249276  0.66893624  1
  Au  Au242  1  0.17829258  0.33722982  0.49813175  1
  Au  Au243  1  0.65878714  0.32589487  0.50099323  1
  Au  Au244  1  0.32905894  0.82359718  0.49621682  1
  Au  Au245  1  0.65866822  0.66254632  0.49860417  1
  Au  Au246  1  0.49861582  0.17401325  0.66647354  1
  Au  Au247  1  0.83324718  0.66658265  0.50054575  1
  Au  Au248  1  -0.00087066  0.34271884  0.67882000  1
  Au  Au249  1  0.82756103  0.00134976  0.16251454  1
  Au  Au250  1  0.49642481  0.34726915  0.32659723  1
  Au  Au251  1  0.65962072  -0.00243307  0.32790681  1
  Au  Au252  1  0.83361822  0.49956983  0.32899373  1
  Au  Au253  1  0.83567303  0.33202242  0.00223688  1
  Au  Au254  1  0.82305324  0.16283726  0.50120501  1
  Au  Au255  1  0.83088873  0.49912532  0.82826540  1
  Au  Au256  1  0.49989570  0.17693302  0.16320357  1
  Au  Au257  1  0.66679543  0.16377660  -0.00137579  1
  Au  Au258  1  0.66145213  0.33651492  0.00056031  1
  Au  Au259  1  0.16727724  0.16874853  0.00032120  1
  Au  Au260  1  0.83283735  0.33285000  0.49920713  1
  Au  Au261  1  0.66374531  0.49989897  0.66876444  1
  Au  Au262  1  0.83614856  0.83212407  0.50445386  1
  Au  Au263  1  0.66314479  0.50315801  0.16943697  1
  Au  Au264  1  0.49859287  0.82378093  0.67199575  1
  Au  Au265  1  0.16969429  -0.00570726  0.66491883  1
  Au  Au266  1  0.49768589  0.33422341  0.82693103  1
  Au  Au267  1  0.17249566  0.16829001  0.50024967  1
  Au  Au268  1  0.49818963  0.16610443  0.33418349  1
  Au  Au269  1  0.49833847  0.82220305  0.18412096  1
  Au  Au270  1  0.66183359  0.83007321  0.49552294  1
  Au  Au271  1  0.33594359  0.33620723  0.00180549  1
  Au  Au272  1  0.16643479  -0.00273825  0.16824511  1
  Au  Au273  1  0.84091123  -0.00247945  0.33032271  1
  Au  Au274  1  0.83819863  0.17158857  -0.00051168  1
  Au  Au275  1  0.00182524  0.33994785  0.17711858  1
  Au  Au276  1  0.17486883  -0.00132226  0.83524255  1
  Au  Au277  1  0.16396131  0.34033772  -0.00407225  1
  Au  Au278  1  0.67356756  0.00189444  0.65984033  1
  Au  Au279  1  0.82886097  0.65454623  0.00255839  1
  Au  Au280  1  0.33361335  0.00092776  0.66931549  1
  Au  Au281  1  0.83197934  0.00176396  0.83083151  1
  Au  Au282  1  0.33485951  -0.00044803  0.17659763  1
  Au  Au283  1  -0.00202307  0.15634040  0.67821906  1
  Au  Au284  1  0.84545186  0.83007502  -0.00006945  1
  Au  Au285  1  0.65239678  0.82586684  -0.00315103  1
  Au  Au286  1  0.17591368  -0.00251441  0.33653451  1
  Au  Au287  1  0.00351057  0.67351206  0.67007472  1
