# generated using pymatgen
data_Ca24Ti8Al207Au49
_symmetry_space_group_name_H-M   'P 1'
_cell_length_a   17.32175053
_cell_length_b   17.32298301
_cell_length_c   17.32094391
_cell_angle_alpha   89.99912570
_cell_angle_beta   90.00251470
_cell_angle_gamma   90.00318915
_symmetry_Int_Tables_number   1
_chemical_formula_structural   Ca24Ti8Al207Au49
_chemical_formula_sum   'Ca24 Ti8 Al207 Au49'
_cell_volume   5197.39845626
_cell_formula_units_Z   1
loop_
 _symmetry_equiv_pos_site_id
 _symmetry_equiv_pos_as_xyz
  1  'x, y, z'
loop_
 _atom_site_type_symbol
 _atom_site_label
 _atom_site_symmetry_multiplicity
 _atom_site_fract_x
 _atom_site_fract_y
 _atom_site_fract_z
 _atom_site_occupancy
  Ca  Ca0  1  0.25838188  0.00638984  -0.00154657  1
  Ca  Ca1  1  0.25167084  -0.00035182  0.50317019  1
  Ca  Ca2  1  0.25591813  0.49532422  0.00065885  1
  Ca  Ca3  1  0.25659242  0.49958939  0.50117448  1
  Ca  Ca4  1  0.74904018  -0.00027146  0.00153730  1
  Ca  Ca5  1  0.75185286  -0.00391519  0.49866503  1
  Ca  Ca6  1  0.74694453  0.50036052  0.00164443  1
  Ca  Ca7  1  0.74572383  0.50053557  0.49792366  1
  Ca  Ca8  1  -0.00071989  0.25291544  -0.00028275  1
  Ca  Ca9  1  0.00305250  0.25291849  0.49662154  1
  Ca  Ca10  1  -0.00388752  0.75016798  0.00419183  1
  Ca  Ca11  1  -0.00014163  0.75282961  0.49735290  1
  Ca  Ca12  1  0.49873440  0.25103565  0.00013519  1
  Ca  Ca13  1  0.49519162  0.25552844  0.50004270  1
  Ca  Ca14  1  0.50544025  0.75332455  -0.00421247  1
  Ca  Ca15  1  0.50015965  0.74555625  0.50246240  1
  Ca  Ca16  1  -0.00141144  -0.00048381  0.25335028  1
  Ca  Ca17  1  0.00182603  0.00133274  0.74987382  1
  Ca  Ca18  1  -0.00341889  0.50075676  0.24766752  1
  Ca  Ca19  1  0.00149250  0.49780502  0.74539479  1
  Ca  Ca20  1  0.49890852  0.00305145  0.25124615  1
  Ca  Ca21  1  0.49850089  -0.00337139  0.75538088  1
  Ca  Ca22  1  0.49911671  0.49391931  0.25143160  1
  Ca  Ca23  1  0.49816755  0.50523952  0.74749872  1
  Ti  Ti24  1  0.25095913  0.25078978  0.25113996  1
  Ti  Ti25  1  0.25010838  0.25093055  0.75024390  1
  Ti  Ti26  1  0.25019174  0.74909948  0.25228524  1
  Ti  Ti27  1  0.25239430  0.75004043  0.74620051  1
  Ti  Ti28  1  0.74921191  0.25052877  0.25034085  1
  Ti  Ti29  1  0.74963428  0.25143567  0.75155557  1
  Ti  Ti30  1  0.75066126  0.74932679  0.25040029  1
  Ti  Ti31  1  0.74937005  0.74985020  0.75029471  1
  Al  Al32  1  0.08749221  0.08447478  0.07634879  1
  Al  Al33  1  0.09716049  0.07759188  0.58705509  1
  Al  Al34  1  0.07027565  0.57925075  0.09610390  1
  Al  Al35  1  0.08845616  0.57760978  0.58125213  1
  Al  Al36  1  0.57763814  0.08710480  0.08033470  1
  Al  Al37  1  0.57480215  0.07521135  0.57453154  1
  Al  Al38  1  0.58764008  0.57655609  0.08465966  1
  Al  Al39  1  0.58119982  0.58931146  0.58580239  1
  Al  Al40  1  0.41645835  0.40181088  0.08905684  1
  Al  Al41  1  0.40907601  0.41762597  0.57576060  1
  Al  Al42  1  0.41764924  0.92827413  0.08236295  1
  Al  Al43  1  0.41472355  0.91985587  0.59523791  1
  Al  Al44  1  0.91605357  0.41764327  0.07968026  1
  Al  Al45  1  0.92336662  0.41254470  0.58826805  1
  Al  Al46  1  0.91336998  0.91838443  0.08509448  1
  Al  Al47  1  0.91383668  0.91223098  0.57204977  1
  Al  Al48  1  0.40661457  0.08904499  0.41718396  1
  Al  Al49  1  0.41254038  0.08998567  0.91937444  1
  Al  Al50  1  0.41852614  0.57039836  0.41519940  1
  Al  Al51  1  0.42560936  0.57975567  0.90953437  1
  Al  Al52  1  0.90930465  0.07435997  0.41147179  1
  Al  Al53  1  0.89716209  0.08357112  0.91703763  1
  Al  Al54  1  0.91227090  0.58338569  0.41612194  1
  Al  Al55  1  0.90985441  0.58814779  0.92480688  1
  Al  Al56  1  0.08193159  0.41873907  0.42139709  1
  Al  Al57  1  0.08400875  0.41375487  0.91948124  1
  Al  Al58  1  0.08650328  0.91333059  0.42186250  1
  Al  Al59  1  0.07789915  0.92586821  0.91588177  1
  Al  Al60  1  0.57747602  0.41649582  0.40281992  1
  Al  Al61  1  0.57489950  0.41059295  0.91506481  1
  Al  Al62  1  0.58688035  0.91978079  0.41753185  1
  Al  Al63  1  0.58435275  0.91148535  0.91160880  1
  Al  Al64  1  0.08480363  0.07945483  0.42465591  1
  Al  Al65  1  0.09170494  0.08411303  0.92097867  1
  Al  Al66  1  0.08212532  0.58341168  0.41931165  1
  Al  Al67  1  0.07087881  0.57134695  0.92008409  1
  Al  Al68  1  0.58176528  0.07944991  0.41360934  1
  Al  Al69  1  0.58246197  0.08367635  0.91589175  1
  Al  Al70  1  0.58720881  0.57803006  0.41676144  1
  Al  Al71  1  0.58252703  0.58898886  0.91349032  1
  Al  Al72  1  0.41319139  0.40804589  0.40963599  1
  Al  Al73  1  0.41309700  0.40281817  0.91490447  1
  Al  Al74  1  0.41241177  0.92560200  0.41504364  1
  Al  Al75  1  0.42335673  0.91683997  0.90992274  1
  Al  Al76  1  0.91564725  0.42139396  0.41759622  1
  Al  Al77  1  0.91536554  0.41476726  0.92066819  1
  Al  Al78  1  0.90682012  0.91324771  0.41131843  1
  Al  Al79  1  0.90519033  0.92304685  0.91438543  1
  Al  Al80  1  0.08214858  0.41864053  0.08207057  1
  Al  Al81  1  0.08514706  0.41299893  0.58894614  1
  Al  Al82  1  0.07650954  0.92190487  0.08688582  1
  Al  Al83  1  0.09665251  0.91639982  0.58284465  1
  Al  Al84  1  0.57980189  0.41336823  0.09381910  1
  Al  Al85  1  0.57824995  0.42777946  0.57763695  1
  Al  Al86  1  0.58346282  0.91661735  0.07278575  1
  Al  Al87  1  0.57457362  0.90594557  0.58472579  1
  Al  Al88  1  0.41004443  0.09167739  0.08359087  1
  Al  Al89  1  0.40122200  0.08369004  0.58153849  1
  Al  Al90  1  0.42366627  0.57391550  0.08495587  1
  Al  Al91  1  0.41861195  0.57993251  0.58971186  1
  Al  Al92  1  0.90649085  0.08246703  0.07741947  1
  Al  Al93  1  0.92346710  0.07570448  0.57649272  1
  Al  Al94  1  0.91229564  0.59491099  0.08542721  1
  Al  Al95  1  0.91599127  0.58027166  0.57796183  1
  Al  Al96  1  0.25371383  0.13902328  0.13341165  1
  Al  Al97  1  0.25395255  0.13307970  0.63473480  1
  Al  Al98  1  0.25135123  0.63488384  0.13714492  1
  Al  Al99  1  0.25426522  0.63501818  0.63031030  1
  Al  Al100  1  0.74939891  0.13770685  0.13003930  1
  Al  Al101  1  0.75152118  0.13775889  0.63469611  1
  Al  Al102  1  0.75358800  0.63678996  0.12846402  1
  Al  Al103  1  0.75091038  0.63642380  0.63491638  1
  Al  Al104  1  0.25534440  0.36326940  0.13050543  1
  Al  Al105  1  0.25546101  0.36597872  0.63346077  1
  Al  Al106  1  0.24971627  0.86164345  0.13740817  1
  Al  Al107  1  0.25116238  0.86768469  0.63304130  1
  Al  Al108  1  0.74893729  0.36582641  0.13671265  1
  Al  Al109  1  0.75062985  0.36427985  0.63186047  1
  Al  Al110  1  0.75371233  0.86345337  0.13447403  1
  Al  Al111  1  0.75212236  0.86251795  0.62992888  1
  Al  Al112  1  0.25830733  0.13301196  0.36630380  1
  Al  Al113  1  0.25106904  0.13590721  0.86598287  1
  Al  Al114  1  0.25218625  0.63613722  0.37064121  1
  Al  Al115  1  0.25336413  0.63955385  0.86132450  1
  Al  Al116  1  0.74851988  0.13755954  0.36471543  1
  Al  Al117  1  0.75076502  0.13780239  0.87159037  1
  Al  Al118  1  0.75181290  0.63004115  0.36419242  1
  Al  Al119  1  0.74639873  0.63711582  0.86921195  1
  Al  Al120  1  0.25927724  0.36659803  0.36827047  1
  Al  Al121  1  0.25246480  0.36088409  0.87345777  1
  Al  Al122  1  0.24853583  0.86493251  0.36845952  1
  Al  Al123  1  0.25176260  0.86452642  0.86078808  1
  Al  Al124  1  0.74540085  0.36959901  0.36661519  1
  Al  Al125  1  0.74791123  0.36573785  0.86619275  1
  Al  Al126  1  0.75426644  0.86368672  0.37134254  1
  Al  Al127  1  0.75179789  0.86502782  0.86492344  1
  Al  Al128  1  0.13684410  0.25281965  0.13522864  1
  Al  Al129  1  0.13794258  0.25392993  0.63549239  1
  Al  Al130  1  0.12835199  0.74817412  0.13820003  1
  Al  Al131  1  0.13881908  0.75233459  0.62736005  1
  Al  Al132  1  0.63515993  0.25366356  0.13052158  1
  Al  Al133  1  0.63641198  0.25371723  0.62878702  1
  Al  Al134  1  0.63433240  0.74529421  0.13499026  1
  Al  Al135  1  0.63425626  0.75042164  0.63402358  1
  Al  Al136  1  0.13404001  0.25123304  0.36484146  1
  Al  Al137  1  0.13325006  0.25238405  0.86365486  1
  Al  Al138  1  0.13631595  0.74797131  0.36973713  1
  Al  Al139  1  0.13358957  0.75276747  0.85826167  1
  Al  Al140  1  0.63351345  0.25579634  0.36959123  1
  Al  Al141  1  0.63584438  0.25039279  0.87244315  1
  Al  Al142  1  0.63714939  0.75068456  0.36500948  1
  Al  Al143  1  0.62899969  0.74880587  0.86367726  1
  Al  Al144  1  0.36587836  0.25246505  0.13366060  1
  Al  Al145  1  0.36388542  0.25103953  0.62759122  1
  Al  Al146  1  0.36713848  0.74686781  0.14071493  1
  Al  Al147  1  0.36681851  0.74771175  0.62969601  1
  Al  Al148  1  0.86196879  0.24869029  0.13679502  1
  Al  Al149  1  0.86653628  0.25186790  0.63519884  1
  Al  Al150  1  0.86917981  0.74936709  0.13443209  1
  Al  Al151  1  0.86524625  0.75111550  0.62970125  1
  Al  Al152  1  0.36816623  0.25460899  0.36642198  1
  Al  Al153  1  0.36397283  0.24936784  0.87012113  1
  Al  Al154  1  0.36494415  0.74821857  0.36630946  1
  Al  Al155  1  0.37330637  0.75170961  0.85890739  1
  Al  Al156  1  0.86730224  0.25348294  0.36481849  1
  Al  Al157  1  0.86464005  0.25128223  0.86627961  1
  Al  Al158  1  0.86368515  0.74776452  0.37004142  1
  Al  Al159  1  0.86257988  0.74875777  0.87189832  1
  Al  Al160  1  0.13866978  0.13407897  0.25558621  1
  Al  Al161  1  0.13745772  0.13435761  0.74355310  1
  Al  Al162  1  0.13654914  0.63432998  0.25096633  1
  Al  Al163  1  0.13531237  0.63693369  0.74527902  1
  Al  Al164  1  0.63598633  0.13893083  0.24936793  1
  Al  Al165  1  0.63743257  0.14015636  0.75274176  1
  Al  Al166  1  0.63774498  0.63334648  0.25259181  1
  Al  Al167  1  0.63015885  0.63752886  0.74935559  1
  Al  Al168  1  0.36528283  0.13805986  0.25079940  1
  Al  Al169  1  0.36223456  0.13828784  0.74972106  1
  Al  Al170  1  0.36284581  0.62594226  0.25133764  1
  Al  Al171  1  0.37171029  0.63672350  0.74544028  1
  Al  Al172  1  0.86563300  0.13613427  0.25475586  1
  Al  Al173  1  0.86242544  0.13370318  0.75452568  1
  Al  Al174  1  0.86299904  0.63096202  0.24601068  1
  Al  Al175  1  0.86438349  0.63725907  0.74917687  1
  Al  Al176  1  0.13801819  0.36444374  0.25404066  1
  Al  Al177  1  0.13497873  0.36455994  0.74989116  1
  Al  Al178  1  0.13564666  0.86621928  0.24944763  1
  Al  Al179  1  0.13636330  0.86767258  0.74408923  1
  Al  Al180  1  0.62964458  0.36182876  0.25081674  1
  Al  Al181  1  0.63367194  0.36204307  0.75442792  1
  Al  Al182  1  0.63746704  0.86318635  0.24918892  1
  Al  Al183  1  0.63585006  0.86275755  0.75229166  1
  Al  Al184  1  0.36761787  0.36589252  0.24943118  1
  Al  Al185  1  0.36504639  0.36020970  0.75299430  1
  Al  Al186  1  0.36385194  0.86595874  0.25276249  1
  Al  Al187  1  0.36474211  0.86601254  0.74633056  1
  Al  Al188  1  0.86122407  0.37086753  0.25303453  1
  Al  Al189  1  0.86837748  0.36475986  0.75062569  1
  Al  Al190  1  0.86411051  0.86358053  0.25215361  1
  Al  Al191  1  0.86659520  0.86141295  0.75206709  1
  Al  Al192  1  0.49973700  0.33001934  0.68105285  1
  Al  Al193  1  0.17949317  -0.00066029  0.32325863  1
  Al  Al194  1  0.18847809  0.50037519  0.33234951  1
  Al  Al195  1  0.49733409  0.17090372  0.67102243  1
  Al  Al196  1  0.00042486  0.17103536  0.17411430  1
  Al  Al197  1  0.67843986  0.50104766  0.67912862  1
  Al  Al198  1  0.00131174  0.82424237  0.67128234  1
  Al  Al199  1  0.49979145  0.82685838  0.32918717  1
  Al  Al200  1  0.32763975  0.49949235  0.81090806  1
  Al  Al201  1  0.49868564  0.82486632  0.17287874  1
  Al  Al202  1  -0.00104286  0.66964190  0.31153072  1
  Al  Al203  1  0.66975267  0.00075823  0.17002288  1
  Al  Al204  1  0.17036895  0.82877447  -0.00010189  1
  Al  Al205  1  0.81769147  0.31391038  0.00155455  1
  Al  Al206  1  0.31944757  0.00144082  0.18799867  1
  Al  Al207  1  0.17361124  0.50054541  0.82714245  1
  Al  Al208  1  0.49961595  0.18252655  0.32485594  1
  Al  Al209  1  0.68134166  0.81608456  -0.00144565  1
  Al  Al210  1  0.68036486  0.67983188  0.49911298  1
  Al  Al211  1  0.49913808  0.80717353  0.69302922  1
  Al  Al212  1  0.67311548  -0.00199945  0.67175853  1
  Al  Al213  1  0.16694744  0.66702640  0.00343563  1
  Al  Al214  1  0.00043624  0.17953448  0.66976531  1
  Al  Al215  1  0.49996251  0.67022130  0.32481669  1
  Al  Al216  1  0.82698396  -0.00137127  0.68551937  1
  Al  Al217  1  0.18870258  0.17345734  0.49975726  1
  Al  Al218  1  0.68400088  0.00138081  0.82724660  1
  Al  Al219  1  0.50041333  0.18771450  0.17286026  1
  Al  Al220  1  0.32988834  0.00088010  0.81551626  1
  Al  Al221  1  0.82184546  0.00185637  0.18766350  1
  Al  Al222  1  0.00095446  0.67759405  0.82530022  1
  Al  Al223  1  0.18174752  0.49777725  0.17513509  1
  Al  Al224  1  -0.00270107  0.17430832  0.82975460  1
  Al  Al225  1  0.82250667  0.50180852  0.82432975  1
  Al  Al226  1  0.82257698  0.17454137  0.50078725  1
  Al  Al227  1  0.00119476  0.82654619  0.32152122  1
  Al  Al228  1  -0.00095971  0.32784694  0.17922223  1
  Al  Al229  1  0.32726678  0.82587818  0.50070636  1
  Al  Al230  1  0.68913644  -0.00065717  0.32132730  1
  Al  Al231  1  0.18778390  0.18468887  -0.00055723  1
  Al  Al232  1  0.18738237  0.49948874  0.67507257  1
  Al  Al233  1  0.32949807  0.82846879  -0.00162049  1
  Al  Al234  1  0.49994370  0.18434004  0.82699398  1
  Al  Al235  1  0.33177207  0.67063283  -0.00166608  1
  Al  Al236  1  0.18608822  0.32491479  0.49981236  1
  Al  Al237  1  0.68124344  0.49857529  0.19030505  1
  Al  Al238  1  0.17774224  0.00109628  0.81375194  1
  Au  Au239  1  0.17487248  0.00164235  0.82638960  1
  Au  Au240  1  -0.00508630  0.83485729  0.83570642  1
  Au  Au241  1  0.49901147  0.17155201  0.33326839  1
  Au  Au242  1  0.49588654  0.15868760  0.67473524  1
  Au  Au243  1  0.82802646  0.50180440  0.16287087  1
  Au  Au244  1  0.82891647  0.82901851  0.00061594  1
  Au  Au245  1  0.16203736  0.65124973  0.00609475  1
  Au  Au246  1  0.18231912  0.00061388  0.33565544  1
  Au  Au247  1  0.67269597  0.66715316  0.00130048  1
  Au  Au248  1  -0.00405635  0.16697760  0.84427851  1
  Au  Au249  1  0.67558444  0.16639803  0.00048198  1
  Au  Au250  1  0.17213811  0.50036256  0.32683498  1
  Au  Au251  1  0.00162042  0.16466643  0.33978657  1
  Au  Au252  1  0.65668563  -0.00395619  0.67747396  1
  Au  Au253  1  0.67158493  0.82957637  0.49912162  1
  Au  Au254  1  0.49641334  0.83676368  0.16968604  1
  Au  Au255  1  -0.00073748  0.66872353  0.83428118  1
  Au  Au256  1  0.32671936  0.49675123  0.82770063  1
  Au  Au257  1  0.83917090  -0.00362974  0.67354793  1
  Au  Au258  1  -0.00406201  0.17245787  0.15838294  1
  Au  Au259  1  -0.00229754  0.82830070  0.17066793  1
  Au  Au260  1  0.66135434  0.33904809  0.49597508  1
  Au  Au261  1  0.66956556  0.33677009  0.00198039  1
  Au  Au262  1  0.16549688  0.67604644  0.50112237  1
  Au  Au263  1  0.34831465  0.67649084  -0.00128498  1
  Au  Au264  1  0.17489860  0.00395619  0.16469944  1
  Au  Au265  1  0.32646740  0.83818203  0.50315585  1
  Au  Au266  1  0.00052280  0.34002818  0.82317584  1
  Au  Au267  1  0.66683711  0.16546230  0.50044932  1
  Au  Au268  1  0.65650321  0.49698325  0.82605293  1
  Au  Au269  1  0.00679162  0.17617999  0.65433347  1
  Au  Au270  1  0.82798804  0.50268535  0.83576409  1
  Au  Au271  1  0.33572591  0.66144389  0.49874812  1
  Au  Au272  1  0.83129579  0.16573008  0.49870076  1
  Au  Au273  1  0.00198945  0.83268826  0.66024958  1
  Au  Au274  1  0.50074258  0.68165897  0.81626210  1
  Au  Au275  1  0.17379034  0.32856250  0.50010648  1
  Au  Au276  1  0.17631745  0.84465673  0.00058775  1
  Au  Au277  1  0.49694732  0.34500894  0.67502628  1
  Au  Au278  1  0.17561746  0.33117560  0.00287699  1
  Au  Au279  1  0.81858724  0.49915281  0.33232842  1
  Au  Au280  1  -0.00104051  0.67448688  0.32807744  1
  Au  Au281  1  -0.00079942  0.33870050  0.32722601  1
  Au  Au282  1  0.83636983  0.32994235  0.50177141  1
  Au  Au283  1  0.50422015  0.66065748  0.17685290  1
  Au  Au284  1  0.33243513  0.49476822  0.16992299  1
  Au  Au285  1  0.82690862  0.49679525  0.66215806  1
  Au  Au286  1  0.00130480  0.66009197  0.66904533  1
  Au  Au287  1  0.82970081  0.67529513  0.50087722  1
