# generated using pymatgen
data_Ca24Ti8Al207Au49
_symmetry_space_group_name_H-M   'P 1'
_cell_length_a   17.31877200
_cell_length_b   17.32162310
_cell_length_c   17.32069940
_cell_angle_alpha   90.00181536
_cell_angle_beta   90.00310694
_cell_angle_gamma   90.00399982
_symmetry_Int_Tables_number   1
_chemical_formula_structural   Ca24Ti8Al207Au49
_chemical_formula_sum   'Ca24 Ti8 Al207 Au49'
_cell_volume   5196.02344528
_cell_formula_units_Z   1
loop_
 _symmetry_equiv_pos_site_id
 _symmetry_equiv_pos_as_xyz
  1  'x, y, z'
loop_
 _atom_site_type_symbol
 _atom_site_label
 _atom_site_symmetry_multiplicity
 _atom_site_fract_x
 _atom_site_fract_y
 _atom_site_fract_z
 _atom_site_occupancy
  Ca  Ca0  1  0.24532067  -0.00115410  0.00363654  1
  Ca  Ca1  1  0.24839416  -0.00048186  0.49611728  1
  Ca  Ca2  1  0.24878650  0.50198268  0.00313610  1
  Ca  Ca3  1  0.24628451  0.50205901  0.49885000  1
  Ca  Ca4  1  0.74712753  0.00074849  0.00337873  1
  Ca  Ca5  1  0.74675813  -0.00005774  0.49656091  1
  Ca  Ca6  1  0.75000301  0.50133793  0.00165927  1
  Ca  Ca7  1  0.74889998  0.50418889  0.50016085  1
  Ca  Ca8  1  0.00131599  0.25136747  0.00275205  1
  Ca  Ca9  1  0.00047693  0.24881581  0.49583016  1
  Ca  Ca10  1  0.00473889  0.74472655  0.00164546  1
  Ca  Ca11  1  0.00358768  0.74675290  0.49908579  1
  Ca  Ca12  1  0.50062470  0.24964144  0.00250162  1
  Ca  Ca13  1  0.49793347  0.25169525  0.49501049  1
  Ca  Ca14  1  0.49827984  0.74762487  0.00118586  1
  Ca  Ca15  1  0.49743863  0.74767706  0.49750295  1
  Ca  Ca16  1  0.00572131  0.00154731  0.24816025  1
  Ca  Ca17  1  0.00237798  -0.00153883  0.74731062  1
  Ca  Ca18  1  -0.00013615  0.49914863  0.24738001  1
  Ca  Ca19  1  -0.00042205  0.50036575  0.74958939  1
  Ca  Ca20  1  0.49906295  0.00045854  0.25040978  1
  Ca  Ca21  1  0.49753066  -0.00124953  0.75262106  1
  Ca  Ca22  1  0.50115648  0.49965561  0.25172511  1
  Ca  Ca23  1  0.49849618  0.49976607  0.75090851  1
  Ti  Ti24  1  0.25054127  0.25060670  0.24785470  1
  Ti  Ti25  1  0.24836888  0.25022385  0.75157384  1
  Ti  Ti26  1  0.24873769  0.74835633  0.24890227  1
  Ti  Ti27  1  0.25088391  0.75062900  0.75066661  1
  Ti  Ti28  1  0.74970313  0.25166485  0.24899806  1
  Ti  Ti29  1  0.75033612  0.25288841  0.75143281  1
  Ti  Ti30  1  0.74939503  0.74800611  0.25000029  1
  Ti  Ti31  1  0.74787338  0.74826330  0.74973613  1
  Al  Al32  1  0.09138771  0.09272471  0.09321436  1
  Al  Al33  1  0.09169379  0.07751836  0.58375426  1
  Al  Al34  1  0.09253391  0.58707913  0.08867898  1
  Al  Al35  1  0.08776155  0.58522284  0.57902139  1
  Al  Al36  1  0.58347728  0.08190732  0.08661806  1
  Al  Al37  1  0.57392951  0.08413756  0.57744589  1
  Al  Al38  1  0.58124215  0.57714144  0.07959234  1
  Al  Al39  1  0.59277769  0.58870963  0.57921661  1
  Al  Al40  1  0.42101672  0.41729838  0.09550415  1
  Al  Al41  1  0.42452510  0.42149188  0.57807038  1
  Al  Al42  1  0.41427788  0.91807304  0.08357078  1
  Al  Al43  1  0.41413811  0.91986084  0.57639970  1
  Al  Al44  1  0.91178645  0.41279464  0.08418228  1
  Al  Al45  1  0.91002196  0.42818874  0.58616800  1
  Al  Al46  1  0.92082090  0.91871460  0.07866773  1
  Al  Al47  1  0.92542520  0.92210815  0.57844155  1
  Al  Al48  1  0.42016793  0.08496863  0.40532309  1
  Al  Al49  1  0.42112031  0.07944074  0.92014475  1
  Al  Al50  1  0.41235696  0.57690268  0.41008230  1
  Al  Al51  1  0.41040666  0.59329932  0.91443522  1
  Al  Al52  1  0.91968337  0.08169461  0.41438259  1
  Al  Al53  1  0.92232839  0.08430095  0.92595097  1
  Al  Al54  1  0.90105568  0.58702750  0.41827369  1
  Al  Al55  1  0.92487852  0.57326492  0.92691197  1
  Al  Al56  1  0.07868710  0.42312715  0.41676105  1
  Al  Al57  1  0.08968555  0.42358310  0.91497490  1
  Al  Al58  1  0.09353635  0.92228387  0.41411454  1
  Al  Al59  1  0.08103780  0.92061125  0.92337101  1
  Al  Al60  1  0.58699109  0.41238215  0.41668574  1
  Al  Al61  1  0.58263765  0.42409975  0.92111768  1
  Al  Al62  1  0.58869475  0.92544096  0.40950971  1
  Al  Al63  1  0.58868673  0.90807428  0.92377558  1
  Al  Al64  1  0.09116578  0.08211487  0.40809157  1
  Al  Al65  1  0.08963173  0.08852486  0.92963404  1
  Al  Al66  1  0.09040635  0.58608687  0.41910073  1
  Al  Al67  1  0.09943185  0.58397856  0.92412986  1
  Al  Al68  1  0.58310478  0.08723896  0.40044764  1
  Al  Al69  1  0.58222777  0.08053186  0.92503039  1
  Al  Al70  1  0.59062959  0.58574595  0.41911113  1
  Al  Al71  1  0.57456666  0.58640170  0.90944969  1
  Al  Al72  1  0.41622588  0.41984919  0.40514755  1
  Al  Al73  1  0.41950282  0.42949733  0.91793308  1
  Al  Al74  1  0.41372953  0.92239347  0.41614411  1
  Al  Al75  1  0.41978308  0.91307808  0.92154951  1
  Al  Al76  1  0.91063396  0.42581359  0.41102798  1
  Al  Al77  1  0.91097424  0.41071344  0.92496357  1
  Al  Al78  1  0.91528817  0.92334806  0.41796956  1
  Al  Al79  1  0.92161219  0.91204953  0.92354808  1
  Al  Al80  1  0.08633669  0.42388327  0.08838423  1
  Al  Al81  1  0.07917249  0.42277603  0.57966850  1
  Al  Al82  1  0.09125413  0.92715147  0.08875732  1
  Al  Al83  1  0.09061667  0.91908148  0.58645094  1
  Al  Al84  1  0.57920779  0.41447654  0.09090866  1
  Al  Al85  1  0.59179134  0.41271387  0.57738042  1
  Al  Al86  1  0.59112037  0.91423341  0.08297995  1
  Al  Al87  1  0.57590819  0.91882551  0.57366889  1
  Al  Al88  1  0.41767308  0.08087886  0.09052117  1
  Al  Al89  1  0.41614009  0.08625944  0.58449744  1
  Al  Al90  1  0.40460431  0.58672681  0.07860673  1
  Al  Al91  1  0.42293238  0.57899885  0.57630760  1
  Al  Al92  1  0.92732464  0.09414334  0.08929339  1
  Al  Al93  1  0.92208045  0.08006828  0.57483742  1
  Al  Al94  1  0.92793159  0.58339462  0.09223261  1
  Al  Al95  1  0.90243957  0.58880330  0.58239160  1
  Al  Al96  1  0.24605765  0.13056930  0.13794579  1
  Al  Al97  1  0.25075842  0.13231925  0.63711035  1
  Al  Al98  1  0.24815028  0.62677475  0.13560320  1
  Al  Al99  1  0.24510162  0.63597915  0.63324996  1
  Al  Al100  1  0.75106782  0.13992065  0.13905614  1
  Al  Al101  1  0.74947602  0.13948674  0.63531148  1
  Al  Al102  1  0.75042438  0.63329893  0.13477203  1
  Al  Al103  1  0.74866663  0.63049137  0.63395613  1
  Al  Al104  1  0.24828693  0.37060517  0.13826393  1
  Al  Al105  1  0.24884607  0.36301085  0.63884341  1
  Al  Al106  1  0.24639116  0.86957806  0.13783259  1
  Al  Al107  1  0.24833783  0.87013028  0.63730081  1
  Al  Al108  1  0.75557014  0.36324073  0.13419023  1
  Al  Al109  1  0.75011873  0.37164138  0.63848641  1
  Al  Al110  1  0.74685692  0.86132697  0.13615867  1
  Al  Al111  1  0.75001610  0.86214242  0.63521245  1
  Al  Al112  1  0.25021056  0.13806045  0.35853654  1
  Al  Al113  1  0.24347660  0.13413884  0.86651715  1
  Al  Al114  1  0.24668516  0.63353494  0.36279861  1
  Al  Al115  1  0.25338722  0.63779651  0.87214603  1
  Al  Al116  1  0.74516360  0.13867735  0.35988961  1
  Al  Al117  1  0.75399034  0.13809305  0.86561570  1
  Al  Al118  1  0.75201478  0.63357749  0.36776759  1
  Al  Al119  1  0.74504794  0.63459722  0.86647344  1
  Al  Al120  1  0.25250230  0.36405506  0.35807131  1
  Al  Al121  1  0.24589218  0.36403913  0.86702710  1
  Al  Al122  1  0.24372204  0.86567229  0.36339557  1
  Al  Al123  1  0.25023970  0.86389347  0.86797937  1
  Al  Al124  1  0.74963594  0.36231682  0.36321491  1
  Al  Al125  1  0.75196702  0.36341213  0.86706415  1
  Al  Al126  1  0.74748170  0.86489407  0.36551668  1
  Al  Al127  1  0.74419570  0.86052086  0.86546382  1
  Al  Al128  1  0.13436337  0.24943205  0.13181788  1
  Al  Al129  1  0.13398682  0.24959202  0.63633911  1
  Al  Al130  1  0.13608472  0.74122589  0.13039583  1
  Al  Al131  1  0.13808228  0.75313221  0.63141732  1
  Al  Al132  1  0.62822475  0.25394927  0.13670140  1
  Al  Al133  1  0.63720026  0.25539048  0.63235047  1
  Al  Al134  1  0.63665692  0.74785003  0.12920693  1
  Al  Al135  1  0.63489597  0.74508159  0.63243562  1
  Al  Al136  1  0.13061748  0.24881624  0.36036753  1
  Al  Al137  1  0.13256052  0.25150976  0.86906266  1
  Al  Al138  1  0.13362211  0.74770921  0.36602954  1
  Al  Al139  1  0.14009073  0.74609474  0.87091646  1
  Al  Al140  1  0.62856543  0.25322730  0.36204888  1
  Al  Al141  1  0.62923793  0.25486612  0.86556268  1
  Al  Al142  1  0.63744985  0.74357008  0.36502141  1
  Al  Al143  1  0.62993912  0.74718589  0.86698456  1
  Al  Al144  1  0.36888519  0.25173656  0.13669902  1
  Al  Al145  1  0.36369416  0.24843115  0.63434356  1
  Al  Al146  1  0.35788096  0.74508006  0.13161523  1
  Al  Al147  1  0.36383831  0.74937943  0.63428649  1
  Al  Al148  1  0.87020681  0.25114984  0.13406543  1
  Al  Al149  1  0.86686426  0.25292448  0.63508797  1
  Al  Al150  1  0.86730888  0.74758301  0.14108780  1
  Al  Al151  1  0.86279127  0.74319336  0.63236149  1
  Al  Al152  1  0.37298304  0.24844530  0.35872909  1
  Al  Al153  1  0.36850055  0.24906137  0.86542147  1
  Al  Al154  1  0.36082575  0.74897299  0.36208161  1
  Al  Al155  1  0.36902039  0.74877024  0.86933847  1
  Al  Al156  1  0.86984283  0.25277576  0.36200507  1
  Al  Al157  1  0.86886317  0.25223071  0.87012570  1
  Al  Al158  1  0.86409619  0.74502541  0.36693161  1
  Al  Al159  1  0.86131501  0.74802981  0.86303406  1
  Al  Al160  1  0.13065300  0.13570661  0.24727255  1
  Al  Al161  1  0.13373590  0.13209480  0.74936724  1
  Al  Al162  1  0.13129827  0.63030690  0.24475820  1
  Al  Al163  1  0.14132034  0.63360500  0.75574429  1
  Al  Al164  1  0.62744293  0.13890798  0.25023570  1
  Al  Al165  1  0.63743523  0.13916179  0.75202639  1
  Al  Al166  1  0.63677983  0.63401752  0.24996544  1
  Al  Al167  1  0.63366981  0.63469932  0.74977709  1
  Al  Al168  1  0.36979328  0.13459968  0.24527120  1
  Al  Al169  1  0.36381451  0.13375312  0.75241075  1
  Al  Al170  1  0.36112033  0.62817446  0.24885694  1
  Al  Al171  1  0.36580379  0.63659487  0.75527674  1
  Al  Al172  1  0.87133135  0.13933380  0.25011521  1
  Al  Al173  1  0.86764464  0.13963799  0.75281533  1
  Al  Al174  1  0.86276976  0.62746419  0.25087722  1
  Al  Al175  1  0.85972515  0.63100409  0.74439694  1
  Al  Al176  1  0.12835289  0.36400674  0.24676763  1
  Al  Al177  1  0.12953958  0.36590222  0.75302259  1
  Al  Al178  1  0.13324873  0.86202822  0.24910343  1
  Al  Al179  1  0.13764819  0.86723129  0.75052223  1
  Al  Al180  1  0.62968549  0.36536033  0.25149299  1
  Al  Al181  1  0.62964151  0.36477366  0.74682997  1
  Al  Al182  1  0.63564144  0.86196270  0.25166021  1
  Al  Al183  1  0.62848079  0.85909915  0.74975809  1
  Al  Al184  1  0.36874898  0.36834966  0.24853829  1
  Al  Al185  1  0.36828104  0.36323293  0.75212700  1
  Al  Al186  1  0.36271229  0.86361328  0.24735940  1
  Al  Al187  1  0.36987794  0.86158980  0.75271908  1
  Al  Al188  1  0.86831660  0.36891442  0.24868033  1
  Al  Al189  1  0.86890688  0.36367968  0.74997164  1
  Al  Al190  1  0.86700170  0.86228774  0.25424458  1
  Al  Al191  1  0.86279079  0.85987593  0.74897148  1
  Al  Al192  1  0.81649587  0.82722112  0.00132522  1
  Al  Al193  1  0.31205367  0.50046719  0.82598421  1
  Al  Al194  1  -0.00188604  0.67314524  0.31880617  1
  Al  Al195  1  0.18059199  0.17311348  0.49861367  1
  Al  Al196  1  0.50067878  0.18041294  0.68130252  1
  Al  Al197  1  0.49792848  0.67121814  0.17203474  1
  Al  Al198  1  0.18093247  0.82546342  0.00246566  1
  Al  Al199  1  0.67360242  0.81562896  0.49834694  1
  Al  Al200  1  0.67321067  0.00107456  0.18898502  1
  Al  Al201  1  0.50030856  0.82497317  0.17309537  1
  Al  Al202  1  0.68048338  0.32869258  0.00176815  1
  Al  Al203  1  0.00128772  0.67319847  0.67060377  1
  Al  Al204  1  0.00325757  0.17291987  0.67385081  1
  Al  Al205  1  0.81216185  0.33173731  0.50110443  1
  Al  Al206  1  0.17554389  0.49878170  0.68503062  1
  Al  Al207  1  0.82425346  -0.00292439  0.82847303  1
  Al  Al208  1  0.82375579  0.67325897  0.00194034  1
  Al  Al209  1  0.00015177  0.82701455  0.67256221  1
  Al  Al210  1  0.49876231  0.67241737  0.32545902  1
  Al  Al211  1  0.67152159  -0.00112533  0.82820371  1
  Al  Al212  1  0.00231940  0.81728597  0.17440024  1
  Al  Al213  1  0.82491599  0.17535727  0.49745306  1
  Al  Al214  1  0.31880092  -0.00142129  0.82045405  1
  Al  Al215  1  0.31296681  0.17155726  0.00116586  1
  Al  Al216  1  0.18282912  0.49782242  0.31353308  1
  Al  Al217  1  0.16948071  0.32586983  0.49755158  1
  Al  Al218  1  0.68079836  0.49807158  0.17639377  1
  Al  Al219  1  0.68344053  0.17423960  0.00161616  1
  Al  Al220  1  0.31403736  0.00023160  0.31894320  1
  Al  Al221  1  0.67355776  0.49931598  0.81646842  1
  Al  Al222  1  0.32634135  0.32657257  0.49747010  1
  Al  Al223  1  0.31858298  0.66946237  0.49847170  1
  Al  Al224  1  0.83123949  0.49916478  0.81848183  1
  Al  Al225  1  -0.00353321  0.66810565  0.82446100  1
  Al  Al226  1  0.32318620  0.33083299  0.00150482  1
  Al  Al227  1  0.82853648  0.00090904  0.67206826  1
  Al  Al228  1  0.82331504  -0.00061539  0.17061801  1
  Al  Al229  1  0.33020809  0.50052083  0.67418421  1
  Al  Al230  1  0.49898067  0.67792068  0.68111014  1
  Al  Al231  1  0.49900882  0.82716279  0.32748074  1
  Al  Al232  1  0.81301601  0.00248515  0.32683230  1
  Al  Al233  1  0.68344493  0.49901107  0.32903944  1
  Al  Al234  1  0.82593019  0.81550322  0.49974518  1
  Al  Al235  1  0.31669012  0.82570812  0.49852965  1
  Al  Al236  1  0.67698068  0.00050287  0.66990682  1
  Al  Al237  1  0.00192373  0.82361477  0.82541623  1
  Al  Al238  1  0.66911223  0.18578332  0.49728517  1
  Au  Au239  1  0.32848188  0.50007823  0.17395294  1
  Au  Au240  1  0.50069036  0.32938531  0.32624578  1
  Au  Au241  1  0.49890278  0.33810436  0.83156095  1
  Au  Au242  1  0.01106422  0.66820065  0.83350973  1
  Au  Au243  1  0.00119426  0.16434982  0.66491898  1
  Au  Au244  1  0.49514321  0.83720503  0.66886788  1
  Au  Au245  1  0.50272451  0.82352494  0.83847107  1
  Au  Au246  1  0.83161194  0.49995857  0.17362455  1
  Au  Au247  1  0.66818459  0.33202333  0.00260919  1
  Au  Au248  1  0.00483944  0.17033577  0.83843987  1
  Au  Au249  1  0.33817518  0.33612061  0.00142601  1
  Au  Au250  1  0.17123025  0.49899089  0.67290797  1
  Au  Au251  1  0.33349215  0.81959365  0.00317827  1
  Au  Au252  1  -0.00234352  0.66327126  0.33235475  1
  Au  Au253  1  0.84009203  0.67628302  0.00603469  1
  Au  Au254  1  0.33128673  -0.00311592  0.83183163  1
  Au  Au255  1  0.00115446  0.32703405  0.16374828  1
  Au  Au256  1  0.00147702  0.84307440  0.33191168  1
  Au  Au257  1  0.33084383  0.66394091  0.49775130  1
  Au  Au258  1  0.50418749  0.16429058  0.82984026  1
  Au  Au259  1  0.15786010  0.00175778  0.82738441  1
  Au  Au260  1  0.65840759  0.67267534  -0.00284268  1
  Au  Au261  1  0.17635409  0.49801640  0.32959135  1
  Au  Au262  1  0.66551416  0.16941442  0.49576270  1
  Au  Au263  1  0.00079214  0.33711666  0.83597677  1
  Au  Au264  1  0.50143869  0.32711484  0.65994264  1
  Au  Au265  1  0.65755555  0.82087489  0.49558805  1
  Au  Au266  1  0.00161036  0.16297873  0.32390045  1
  Au  Au267  1  0.50135685  0.17392890  0.17067542  1
  Au  Au268  1  0.16755601  0.82764550  0.49965687  1
  Au  Au269  1  -0.00293119  0.33753135  0.66613676  1
  Au  Au270  1  0.84051917  -0.00257208  0.83153605  1
  Au  Au271  1  0.49948275  0.66343335  0.67215265  1
  Au  Au272  1  0.82477386  0.49848554  0.83443085  1
  Au  Au273  1  0.82821605  0.33623427  0.49980610  1
  Au  Au274  1  0.16273787  0.33018124  0.00285905  1
  Au  Au275  1  0.83363615  0.17606740  0.00388443  1
  Au  Au276  1  0.00298200  0.82550946  0.15956867  1
  Au  Au277  1  0.32161579  -0.00036988  0.65950699  1
  Au  Au278  1  0.67350183  0.49944250  0.66501667  1
  Au  Au279  1  0.32434525  0.15885989  0.00215084  1
  Au  Au280  1  0.83798049  0.00278341  0.17754948  1
  Au  Au281  1  0.32091224  0.34280745  0.49698021  1
  Au  Au282  1  0.33000788  0.16192478  0.49287229  1
  Au  Au283  1  0.83976690  0.82522778  0.50306967  1
  Au  Au284  1  -0.00244322  0.33530767  0.33112421  1
  Au  Au285  1  0.65991385  -0.00043637  0.67149238  1
  Au  Au286  1  0.16841074  0.82458687  0.00103614  1
  Au  Au287  1  0.32319248  -0.00223114  0.17307432  1
