# generated using pymatgen
data_Ca24Ti8Al207Au49
_symmetry_space_group_name_H-M   'P 1'
_cell_length_a   17.31660475
_cell_length_b   17.31636547
_cell_length_c   17.31901260
_cell_angle_alpha   89.99690682
_cell_angle_beta   89.99668225
_cell_angle_gamma   90.00424396
_symmetry_Int_Tables_number   1
_chemical_formula_structural   Ca24Ti8Al207Au49
_chemical_formula_sum   'Ca24 Ti8 Al207 Au49'
_cell_volume   5193.29045835
_cell_formula_units_Z   1
loop_
 _symmetry_equiv_pos_site_id
 _symmetry_equiv_pos_as_xyz
  1  'x, y, z'
loop_
 _atom_site_type_symbol
 _atom_site_label
 _atom_site_symmetry_multiplicity
 _atom_site_fract_x
 _atom_site_fract_y
 _atom_site_fract_z
 _atom_site_occupancy
  Ca  Ca0  1  0.25087431  0.00568774  -0.00202980  1
  Ca  Ca1  1  0.24712611  0.00041732  0.50321481  1
  Ca  Ca2  1  0.24420583  0.49592204  0.00333308  1
  Ca  Ca3  1  0.24742555  0.50317826  0.49921664  1
  Ca  Ca4  1  0.75105122  -0.00798295  -0.00519951  1
  Ca  Ca5  1  0.75720080  -0.00496974  0.50675832  1
  Ca  Ca6  1  0.75606057  0.50593001  -0.00254015  1
  Ca  Ca7  1  0.75056719  0.50307762  0.50052668  1
  Ca  Ca8  1  0.00648728  0.25386470  0.00071133  1
  Ca  Ca9  1  0.00132863  0.25072401  0.50065420  1
  Ca  Ca10  1  -0.00003880  0.74762495  -0.00165956  1
  Ca  Ca11  1  0.00321204  0.75149363  0.50490316  1
  Ca  Ca12  1  0.49218822  0.24698555  -0.00493391  1
  Ca  Ca13  1  0.49796500  0.24654145  0.50342565  1
  Ca  Ca14  1  0.49999463  0.74791830  0.00027713  1
  Ca  Ca15  1  0.49851709  0.74868092  0.50038493  1
  Ca  Ca16  1  0.00223946  -0.00342298  0.25406054  1
  Ca  Ca17  1  -0.00164503  -0.00608702  0.74523791  1
  Ca  Ca18  1  0.00599432  0.50423564  0.24840441  1
  Ca  Ca19  1  0.00244154  0.50431759  0.75243804  1
  Ca  Ca20  1  0.49846560  -0.00036515  0.24596797  1
  Ca  Ca21  1  0.50353041  0.00083124  0.74523695  1
  Ca  Ca22  1  0.49519211  0.50219861  0.25040092  1
  Ca  Ca23  1  0.49721329  0.49851433  0.75051075  1
  Ti  Ti24  1  0.25018316  0.24915502  0.24922965  1
  Ti  Ti25  1  0.24863568  0.25073624  0.74886686  1
  Ti  Ti26  1  0.24724269  0.75073135  0.25175704  1
  Ti  Ti27  1  0.24642484  0.74867541  0.74729397  1
  Ti  Ti28  1  0.75033377  0.24879953  0.25101385  1
  Ti  Ti29  1  0.75024189  0.24925891  0.75036445  1
  Ti  Ti30  1  0.75196925  0.74948357  0.24803560  1
  Ti  Ti31  1  0.75300717  0.74965843  0.75078492  1
  Al  Al32  1  0.09315757  0.08406970  0.07574137  1
  Al  Al33  1  0.08293807  0.07874776  0.58068728  1
  Al  Al34  1  0.08818199  0.58878360  0.09044362  1
  Al  Al35  1  0.08108345  0.59271216  0.58668310  1
  Al  Al36  1  0.56719968  0.08795822  0.08151293  1
  Al  Al37  1  0.58850770  0.08435408  0.58589564  1
  Al  Al38  1  0.58491577  0.58868412  0.07447992  1
  Al  Al39  1  0.57837595  0.58338768  0.57535823  1
  Al  Al40  1  0.39538227  0.41272907  0.08105472  1
  Al  Al41  1  0.41659554  0.41202409  0.58456519  1
  Al  Al42  1  0.41814402  0.93364879  0.08916346  1
  Al  Al43  1  0.41189292  0.91975217  0.58874430  1
  Al  Al44  1  0.93298295  0.42860798  0.08019686  1
  Al  Al45  1  0.91950641  0.41826487  0.57974629  1
  Al  Al46  1  0.91273564  0.90805937  0.07505620  1
  Al  Al47  1  0.91081742  0.90860891  0.58969883  1
  Al  Al48  1  0.41570281  0.07755500  0.42428393  1
  Al  Al49  1  0.41214274  0.09702134  0.91967877  1
  Al  Al50  1  0.41123012  0.59261027  0.41159173  1
  Al  Al51  1  0.42279610  0.57405169  0.91681216  1
  Al  Al52  1  0.92188967  0.08064046  0.42224352  1
  Al  Al53  1  0.92025566  0.07418635  0.91302758  1
  Al  Al54  1  0.92784045  0.59535786  0.41434767  1
  Al  Al55  1  0.91963887  0.59756782  0.91960401  1
  Al  Al56  1  0.09754524  0.42102259  0.41154779  1
  Al  Al57  1  0.08987209  0.41482129  0.92526658  1
  Al  Al58  1  0.08473568  0.91019802  0.42545875  1
  Al  Al59  1  0.08302133  0.90959602  0.91237494  1
  Al  Al60  1  0.57998690  0.43152608  0.43031188  1
  Al  Al61  1  0.57355184  0.42021000  0.91483418  1
  Al  Al62  1  0.58818297  0.90669601  0.42865875  1
  Al  Al63  1  0.59217784  0.91917364  0.91995349  1
  Al  Al64  1  0.08193291  0.08230948  0.42088369  1
  Al  Al65  1  0.09175155  0.08378597  0.91837038  1
  Al  Al66  1  0.08925643  0.58531049  0.40328975  1
  Al  Al67  1  0.08254631  0.59046109  0.92257888  1
  Al  Al68  1  0.58772162  0.08912076  0.42952347  1
  Al  Al69  1  0.57420494  0.08345537  0.91092049  1
  Al  Al70  1  0.57557404  0.59417274  0.41247916  1
  Al  Al71  1  0.58537766  0.59160220  0.91714029  1
  Al  Al72  1  0.40631153  0.42589201  0.42195076  1
  Al  Al73  1  0.40403208  0.40904853  0.91943533  1
  Al  Al74  1  0.41538885  0.91813508  0.42086751  1
  Al  Al75  1  0.42430770  0.93178790  0.92514821  1
  Al  Al76  1  0.92654326  0.41535095  0.42352763  1
  Al  Al77  1  0.92662050  0.42650186  0.91911349  1
  Al  Al78  1  0.91421918  0.90803461  0.42701322  1
  Al  Al79  1  0.91357574  0.90534702  0.91241673  1
  Al  Al80  1  0.09492926  0.41787034  0.08738445  1
  Al  Al81  1  0.08926473  0.41292934  0.57328018  1
  Al  Al82  1  0.08472168  0.91423438  0.08046726  1
  Al  Al83  1  0.07867653  0.90645894  0.58680562  1
  Al  Al84  1  0.57132791  0.42242666  0.07417076  1
  Al  Al85  1  0.57718991  0.41574728  0.58880478  1
  Al  Al86  1  0.57845255  0.91042530  0.07283046  1
  Al  Al87  1  0.59216497  0.91109734  0.58598709  1
  Al  Al88  1  0.40538735  0.09450370  0.08584310  1
  Al  Al89  1  0.41121197  0.08012809  0.58880790  1
  Al  Al90  1  0.40903533  0.57281377  0.08859934  1
  Al  Al91  1  0.40909075  0.58827752  0.57588260  1
  Al  Al92  1  0.92329268  0.07100820  0.07552530  1
  Al  Al93  1  0.90880526  0.07291310  0.58837279  1
  Al  Al94  1  0.92338840  0.59349819  0.08393435  1
  Al  Al95  1  0.92266488  0.59256495  0.58972175  1
  Al  Al96  1  0.25162239  0.12916917  0.13242946  1
  Al  Al97  1  0.25012423  0.13033985  0.63760562  1
  Al  Al98  1  0.24793512  0.63541280  0.13461895  1
  Al  Al99  1  0.24560984  0.63184878  0.62850206  1
  Al  Al100  1  0.74935846  0.13812502  0.13041489  1
  Al  Al101  1  0.75286316  0.13762879  0.63034914  1
  Al  Al102  1  0.75020882  0.63804561  0.12937000  1
  Al  Al103  1  0.75456670  0.63425856  0.63728341  1
  Al  Al104  1  0.24887122  0.36309874  0.12967707  1
  Al  Al105  1  0.24839373  0.36832366  0.63056749  1
  Al  Al106  1  0.24688268  0.86790007  0.13939196  1
  Al  Al107  1  0.24472981  0.86784755  0.63433742  1
  Al  Al108  1  0.74718923  0.36197956  0.13425499  1
  Al  Al109  1  0.75056765  0.36524144  0.63738907  1
  Al  Al110  1  0.74992026  0.86010841  0.13358106  1
  Al  Al111  1  0.75468495  0.86378259  0.63297825  1
  Al  Al112  1  0.25052433  0.13606073  0.36444213  1
  Al  Al113  1  0.25431084  0.13737463  0.86423129  1
  Al  Al114  1  0.24694858  0.63708203  0.37107519  1
  Al  Al115  1  0.23994412  0.63620047  0.86596159  1
  Al  Al116  1  0.75102842  0.13631308  0.37230175  1
  Al  Al117  1  0.74979511  0.13830352  0.86654315  1
  Al  Al118  1  0.75231804  0.63986270  0.36286138  1
  Al  Al119  1  0.75474198  0.63682190  0.87087541  1
  Al  Al120  1  0.25042866  0.36772671  0.37264447  1
  Al  Al121  1  0.24828532  0.36205423  0.87060248  1
  Al  Al122  1  0.24519171  0.86404938  0.36903202  1
  Al  Al123  1  0.24803831  0.86200675  0.86221069  1
  Al  Al124  1  0.74845192  0.36337744  0.36568355  1
  Al  Al125  1  0.75236257  0.37062016  0.86383240  1
  Al  Al126  1  0.75172897  0.85931205  0.36969720  1
  Al  Al127  1  0.75511883  0.86354967  0.86245629  1
  Al  Al128  1  0.13942124  0.25215859  0.13443878  1
  Al  Al129  1  0.13239597  0.25378526  0.63665155  1
  Al  Al130  1  0.13143611  0.74340235  0.13619802  1
  Al  Al131  1  0.13731991  0.74927556  0.62655074  1
  Al  Al132  1  0.63142916  0.24948737  0.13400864  1
  Al  Al133  1  0.63534136  0.24402688  0.63389000  1
  Al  Al134  1  0.63441866  0.74770673  0.12832857  1
  Al  Al135  1  0.63824897  0.75228650  0.63471932  1
  Al  Al136  1  0.13770668  0.25569169  0.36558843  1
  Al  Al137  1  0.13355865  0.25237567  0.86487952  1
  Al  Al138  1  0.13053332  0.74720579  0.36765762  1
  Al  Al139  1  0.12679929  0.74784251  0.86019437  1
  Al  Al140  1  0.63484019  0.24138862  0.36750329  1
  Al  Al141  1  0.62723037  0.24890232  0.86138199  1
  Al  Al142  1  0.63480418  0.75120072  0.36625004  1
  Al  Al143  1  0.63992652  0.75149235  0.87065477  1
  Al  Al144  1  0.35869908  0.24679928  0.12669289  1
  Al  Al145  1  0.36265018  0.25145045  0.63457571  1
  Al  Al146  1  0.36138333  0.74841331  0.13755285  1
  Al  Al147  1  0.36118449  0.74599055  0.63261907  1
  Al  Al148  1  0.86493622  0.25049634  0.13486060  1
  Al  Al149  1  0.87103541  0.24711194  0.63936745  1
  Al  Al150  1  0.87207380  0.74163488  0.13218560  1
  Al  Al151  1  0.86912456  0.75599113  0.63532292  1
  Al  Al152  1  0.36509225  0.25193638  0.36091189  1
  Al  Al153  1  0.36455815  0.25143117  0.86575687  1
  Al  Al154  1  0.36337471  0.74696781  0.36823512  1
  Al  Al155  1  0.36193655  0.74612560  0.86226198  1
  Al  Al156  1  0.86521018  0.24948346  0.36513238  1
  Al  Al157  1  0.86659412  0.25181306  0.86532757  1
  Al  Al158  1  0.87151770  0.75070070  0.36236789  1
  Al  Al159  1  0.87436281  0.74759105  0.86137840  1
  Al  Al160  1  0.14017630  0.12907662  0.24720458  1
  Al  Al161  1  0.13462289  0.13565201  0.74760772  1
  Al  Al162  1  0.13440637  0.63444114  0.25295542  1
  Al  Al163  1  0.13545373  0.63001755  0.74749068  1
  Al  Al164  1  0.63506657  0.13574541  0.24555710  1
  Al  Al165  1  0.63207743  0.13494668  0.74820604  1
  Al  Al166  1  0.63421066  0.64093279  0.25222688  1
  Al  Al167  1  0.63852459  0.63650751  0.75107263  1
  Al  Al168  1  0.36624299  0.13214747  0.24231887  1
  Al  Al169  1  0.37105182  0.13976120  0.74889659  1
  Al  Al170  1  0.36147272  0.63617288  0.25207926  1
  Al  Al171  1  0.35997310  0.63428908  0.74470634  1
  Al  Al172  1  0.86169583  0.13399853  0.25189636  1
  Al  Al173  1  0.86366709  0.12679873  0.74997988  1
  Al  Al174  1  0.86936248  0.63639558  0.24877154  1
  Al  Al175  1  0.86699443  0.63235771  0.75274800  1
  Al  Al176  1  0.14037471  0.36760396  0.25376446  1
  Al  Al177  1  0.13571392  0.37124916  0.74960672  1
  Al  Al178  1  0.13240546  0.86687229  0.25178063  1
  Al  Al179  1  0.12547480  0.85925321  0.74359850  1
  Al  Al180  1  0.63513087  0.36182491  0.25244044  1
  Al  Al181  1  0.63516012  0.36613941  0.75186356  1
  Al  Al182  1  0.63706347  0.86091091  0.24866347  1
  Al  Al183  1  0.63908767  0.86458080  0.74851836  1
  Al  Al184  1  0.36029841  0.36718245  0.24391692  1
  Al  Al185  1  0.36182194  0.36476737  0.75092608  1
  Al  Al186  1  0.36223341  0.86616930  0.25274912  1
  Al  Al187  1  0.35995671  0.86544705  0.74406722  1
  Al  Al188  1  0.86513365  0.36370701  0.25165956  1
  Al  Al189  1  0.86978315  0.36781583  0.74972053  1
  Al  Al190  1  0.86612140  0.86173464  0.24802900  1
  Al  Al191  1  0.86945088  0.86755794  0.74880358  1
  Al  Al192  1  0.82909181  0.50138821  0.32429185  1
  Al  Al193  1  0.50116950  0.33012035  0.33083925  1
  Al  Al194  1  0.50004224  0.31483445  0.68447187  1
  Al  Al195  1  0.00234983  0.18036347  0.32720966  1
  Al  Al196  1  0.67439349  -0.00131903  0.33601523  1
  Al  Al197  1  0.67315043  0.17480507  -0.00223045  1
  Al  Al198  1  -0.00002344  0.82245758  0.17805497  1
  Al  Al199  1  0.00367729  0.17604420  0.82309648  1
  Al  Al200  1  0.82922423  0.50175851  0.17043563  1
  Al  Al201  1  0.66938626  -0.00053208  0.16821686  1
  Al  Al202  1  0.33335016  0.00172406  0.81246043  1
  Al  Al203  1  0.31957755  0.00115232  0.32332730  1
  Al  Al204  1  0.00047924  0.17290394  0.17752621  1
  Al  Al205  1  0.66617025  0.31573783  0.50009384  1
  Al  Al206  1  0.49961579  0.16656379  0.31706110  1
  Al  Al207  1  0.67988629  0.00159543  0.82406919  1
  Al  Al208  1  0.49858400  0.67441517  0.81506753  1
  Al  Al209  1  0.00288702  0.32884006  0.18111104  1
  Al  Al210  1  0.31832422  0.50014412  0.82148670  1
  Al  Al211  1  0.49905186  0.66802840  0.18340747  1
  Al  Al212  1  0.82577132  -0.00206313  0.17232346  1
  Al  Al213  1  0.00217423  0.69649322  0.69608558  1
  Al  Al214  1  0.49815080  0.81524042  0.33068988  1
  Al  Al215  1  0.32504585  0.17817059  0.50029427  1
  Al  Al216  1  0.82464950  0.31575877  0.50204651  1
  Al  Al217  1  0.82960990  0.69288817  0.49914024  1
  Al  Al218  1  0.82599580  0.32716954  0.00194063  1
  Al  Al219  1  0.19055201  0.18901047  -0.00159244  1
  Al  Al220  1  0.80791993  0.80184095  -0.00167317  1
  Al  Al221  1  0.17638724  -0.00258726  0.81642599  1
  Al  Al222  1  0.31500828  0.81700245  0.50176925  1
  Al  Al223  1  0.49778057  0.82581989  0.17400324  1
  Al  Al224  1  0.49392127  0.31602312  0.16841203  1
  Al  Al225  1  0.67625336  0.50457741  0.67629946  1
  Al  Al226  1  0.31784421  0.66911467  -0.00255143  1
  Al  Al227  1  0.66852597  0.50100478  0.17739596  1
  Al  Al228  1  0.49900028  0.82054147  0.67413227  1
  Al  Al229  1  0.49857478  0.83397910  0.82651697  1
  Al  Al230  1  0.67540485  0.68361344  0.49963926  1
  Al  Al231  1  0.83158490  -0.00344368  0.32808037  1
  Al  Al232  1  0.30796428  0.50142058  0.31225368  1
  Al  Al233  1  0.17315154  0.18395151  0.50132770  1
  Al  Al234  1  0.67264691  0.50333848  0.32861298  1
  Al  Al235  1  0.33066213  0.83103266  0.00520224  1
  Al  Al236  1  0.17507618  0.81232890  -0.00127623  1
  Al  Al237  1  0.68728726  0.00063820  0.67241677  1
  Al  Al238  1  0.18967889  0.50083770  0.18793548  1
  Au  Au239  1  0.33623869  0.50024645  0.67118617  1
  Au  Au240  1  0.00622304  0.33276656  0.33313962  1
  Au  Au241  1  0.83318652  0.49900913  0.66576919  1
  Au  Au242  1  0.00330637  0.33258682  0.66259075  1
  Au  Au243  1  0.66152636  0.33035341  -0.00541008  1
  Au  Au244  1  0.49440609  0.32636786  0.83219609  1
  Au  Au245  1  0.17030171  0.50256471  0.84085855  1
  Au  Au246  1  0.82874538  0.15603017  -0.00087134  1
  Au  Au247  1  0.00148075  0.16728437  0.83176719  1
  Au  Au248  1  0.16508344  -0.00245499  0.33501994  1
  Au  Au249  1  0.68050607  -0.00156907  0.35166519  1
  Au  Au250  1  0.66753100  0.50257593  0.66748394  1
  Au  Au251  1  0.00040027  0.16640598  0.16211444  1
  Au  Au252  1  0.32334914  0.65363951  -0.00419684  1
  Au  Au253  1  0.17665530  -0.00148112  0.16166239  1
  Au  Au254  1  0.66674546  0.50177953  0.83339167  1
  Au  Au255  1  0.82939972  0.16474025  0.50102914  1
  Au  Au256  1  0.33113660  0.00525187  0.82893395  1
  Au  Au257  1  0.00023973  0.81961967  0.81917978  1
  Au  Au258  1  0.49842856  0.67096738  0.66308009  1
  Au  Au259  1  0.50472484  0.82527140  0.83977830  1
  Au  Au260  1  0.49115854  0.32581677  0.15481614  1
  Au  Au261  1  -0.00224556  0.16086315  0.66814300  1
  Au  Au262  1  0.49498771  0.66950195  0.16654626  1
  Au  Au263  1  0.67259323  0.33183135  0.50053783  1
  Au  Au264  1  0.49952877  0.16203609  0.33364867  1
  Au  Au265  1  0.83512075  0.50023588  0.33968541  1
  Au  Au266  1  0.00078402  0.82179579  0.34123484  1
  Au  Au267  1  0.16858686  0.67088181  0.49679880  1
  Au  Au268  1  0.66240119  0.16854054  -0.00237975  1
  Au  Au269  1  0.82850826  -0.00339765  0.82410817  1
  Au  Au270  1  0.33215736  -0.00142817  0.32401769  1
  Au  Au271  1  0.16852767  -0.00446787  0.66615758  1
  Au  Au272  1  0.50186558  0.34698023  0.33550923  1
  Au  Au273  1  0.32419198  0.84636435  0.00792141  1
  Au  Au274  1  0.83821925  0.50731993  0.83578615  1
  Au  Au275  1  0.32648848  0.82947921  0.50445821  1
  Au  Au276  1  -0.00162397  0.82108911  0.16553020  1
  Au  Au277  1  0.82918273  0.67609555  0.50187609  1
  Au  Au278  1  0.32132257  0.50481022  0.32217887  1
  Au  Au279  1  0.67251413  0.49622670  0.16136372  1
  Au  Au280  1  0.84033912  0.33595768  0.00433705  1
  Au  Au281  1  0.49963966  0.16628663  0.67090108  1
  Au  Au282  1  0.68165788  0.68288893  -0.00183872  1
  Au  Au283  1  0.00474618  0.33350040  0.83333327  1
  Au  Au284  1  0.66959907  -0.00417000  0.15231154  1
  Au  Au285  1  0.16623113  0.49938612  0.66420578  1
  Au  Au286  1  0.32414440  0.32701978  0.50122262  1
  Au  Au287  1  0.50190117  0.83215256  0.32986774  1
