# generated using pymatgen
data_Ca24Ti8Al207Au49
_symmetry_space_group_name_H-M   'P 1'
_cell_length_a   17.31953199
_cell_length_b   17.31975826
_cell_length_c   17.31871973
_cell_angle_alpha   89.99939291
_cell_angle_beta   89.99566912
_cell_angle_gamma   89.99743808
_symmetry_Int_Tables_number   1
_chemical_formula_structural   Ca24Ti8Al207Au49
_chemical_formula_sum   'Ca24 Ti8 Al207 Au49'
_cell_volume   5195.09819554
_cell_formula_units_Z   1
loop_
 _symmetry_equiv_pos_site_id
 _symmetry_equiv_pos_as_xyz
  1  'x, y, z'
loop_
 _atom_site_type_symbol
 _atom_site_label
 _atom_site_symmetry_multiplicity
 _atom_site_fract_x
 _atom_site_fract_y
 _atom_site_fract_z
 _atom_site_occupancy
  Ca  Ca0  1  0.25149096  0.00029081  0.00146539  1
  Ca  Ca1  1  0.24561215  0.00336666  0.49975659  1
  Ca  Ca2  1  0.25557637  0.50036393  -0.00160682  1
  Ca  Ca3  1  0.24909322  0.49777440  0.50035202  1
  Ca  Ca4  1  0.74626995  -0.00346677  -0.00286893  1
  Ca  Ca5  1  0.75088545  -0.00124513  0.50224330  1
  Ca  Ca6  1  0.74818801  0.50244634  0.00202253  1
  Ca  Ca7  1  0.74869044  0.50066615  0.49141901  1
  Ca  Ca8  1  -0.00439924  0.24893302  0.00171986  1
  Ca  Ca9  1  -0.00069958  0.24900903  0.49448826  1
  Ca  Ca10  1  -0.00586837  0.74153029  0.00087094  1
  Ca  Ca11  1  0.00249487  0.73528434  0.49808977  1
  Ca  Ca12  1  0.50247230  0.25458338  0.00482665  1
  Ca  Ca13  1  0.50281625  0.25645473  0.50034861  1
  Ca  Ca14  1  0.50503512  0.75022015  0.00058648  1
  Ca  Ca15  1  0.50123114  0.74445182  0.49844499  1
  Ca  Ca16  1  -0.00193029  0.00547615  0.25289588  1
  Ca  Ca17  1  -0.00776503  -0.00216114  0.74668780  1
  Ca  Ca18  1  -0.00035368  0.49552994  0.25509833  1
  Ca  Ca19  1  0.00046672  0.50111423  0.74861682  1
  Ca  Ca20  1  0.50019421  -0.00291906  0.24686930  1
  Ca  Ca21  1  0.50611790  -0.00318962  0.75355824  1
  Ca  Ca22  1  0.50041498  0.50275441  0.25333765  1
  Ca  Ca23  1  0.49864211  0.50799789  0.75092721  1
  Ti  Ti24  1  0.25072695  0.25179342  0.25167667  1
  Ti  Ti25  1  0.25005827  0.25026496  0.74728438  1
  Ti  Ti26  1  0.25243853  0.74636933  0.25075787  1
  Ti  Ti27  1  0.25365853  0.74791396  0.74974369  1
  Ti  Ti28  1  0.74743648  0.25044532  0.25092274  1
  Ti  Ti29  1  0.75095617  0.24893711  0.75002555  1
  Ti  Ti30  1  0.74873291  0.75037072  0.24787973  1
  Ti  Ti31  1  0.74745040  0.74985176  0.75167168  1
  Al  Al32  1  0.07554744  0.08811167  0.08566670  1
  Al  Al33  1  0.07535773  0.09872441  0.57665954  1
  Al  Al34  1  0.08131126  0.57878131  0.08551788  1
  Al  Al35  1  0.09100454  0.57713734  0.58786028  1
  Al  Al36  1  0.58655297  0.07500558  0.07609019  1
  Al  Al37  1  0.59722591  0.07056109  0.58447925  1
  Al  Al38  1  0.58325048  0.59368403  0.09140589  1
  Al  Al39  1  0.57309199  0.58149581  0.57713533  1
  Al  Al40  1  0.41186200  0.41727165  0.08217057  1
  Al  Al41  1  0.41072221  0.42675563  0.57540764  1
  Al  Al42  1  0.42993984  0.91382671  0.09267974  1
  Al  Al43  1  0.43117572  0.90617710  0.58513058  1
  Al  Al44  1  0.91248863  0.41906888  0.07914991  1
  Al  Al45  1  0.91396522  0.41581996  0.57797465  1
  Al  Al46  1  0.91144936  0.92064388  0.07300004  1
  Al  Al47  1  0.91093580  0.92567064  0.58311123  1
  Al  Al48  1  0.41302032  0.09593651  0.42098499  1
  Al  Al49  1  0.42317989  0.07309105  0.92541025  1
  Al  Al50  1  0.42374108  0.59067352  0.41867239  1
  Al  Al51  1  0.42646578  0.58489342  0.91343511  1
  Al  Al52  1  0.91950344  0.09132158  0.42142278  1
  Al  Al53  1  0.89732004  0.08474513  0.91684899  1
  Al  Al54  1  0.90938105  0.57832305  0.41001941  1
  Al  Al55  1  0.90444042  0.58508702  0.91471370  1
  Al  Al56  1  0.08831622  0.41296783  0.41416343  1
  Al  Al57  1  0.08639784  0.42647938  0.91866896  1
  Al  Al58  1  0.08320246  0.93115503  0.41886689  1
  Al  Al59  1  0.07443438  0.92494609  0.92240197  1
  Al  Al60  1  0.59135687  0.41467252  0.40467635  1
  Al  Al61  1  0.58021860  0.42415615  0.92236863  1
  Al  Al62  1  0.58281411  0.90831133  0.41383330  1
  Al  Al63  1  0.59384552  0.90659499  0.90874996  1
  Al  Al64  1  0.08496703  0.09462974  0.41355780  1
  Al  Al65  1  0.07511626  0.08086094  0.92552096  1
  Al  Al66  1  0.08561344  0.57522198  0.41381891  1
  Al  Al67  1  0.08004902  0.57939775  0.91177086  1
  Al  Al68  1  0.58136149  0.08351899  0.42066460  1
  Al  Al69  1  0.59877624  0.06995489  0.91170151  1
  Al  Al70  1  0.58715971  0.58103002  0.40633028  1
  Al  Al71  1  0.58351328  0.59471077  0.91236222  1
  Al  Al72  1  0.42698964  0.40974703  0.41393286  1
  Al  Al73  1  0.41599388  0.41479686  0.92416431  1
  Al  Al74  1  0.42609071  0.91038579  0.41854898  1
  Al  Al75  1  0.43387534  0.90565340  0.90874163  1
  Al  Al76  1  0.91048026  0.41628891  0.40835158  1
  Al  Al77  1  0.90051817  0.42553233  0.91846143  1
  Al  Al78  1  0.91707524  0.92253822  0.42646657  1
  Al  Al79  1  0.89789590  0.92425395  0.91100660  1
  Al  Al80  1  0.07990974  0.42089146  0.08366227  1
  Al  Al81  1  0.09425894  0.41738691  0.58042280  1
  Al  Al82  1  0.07951749  0.92680547  0.08134165  1
  Al  Al83  1  0.07575798  0.92432010  0.57198825  1
  Al  Al84  1  0.58211914  0.42047650  0.08536796  1
  Al  Al85  1  0.58550722  0.41753286  0.56454504  1
  Al  Al86  1  0.59032950  0.90493868  0.08239239  1
  Al  Al87  1  0.58883390  0.91159456  0.60382424  1
  Al  Al88  1  0.41950891  0.07574975  0.08322709  1
  Al  Al89  1  0.40532207  0.08966264  0.57188154  1
  Al  Al90  1  0.42383943  0.58280745  0.09281654  1
  Al  Al91  1  0.40769347  0.58903610  0.58255930  1
  Al  Al92  1  0.91301076  0.09426599  0.07843405  1
  Al  Al93  1  0.91152847  0.09403136  0.58572749  1
  Al  Al94  1  0.90673707  0.58342312  0.07693731  1
  Al  Al95  1  0.91917443  0.57774353  0.57448051  1
  Al  Al96  1  0.25082045  0.13913769  0.13752376  1
  Al  Al97  1  0.24973341  0.13299524  0.62932373  1
  Al  Al98  1  0.25251699  0.63588080  0.13111590  1
  Al  Al99  1  0.25189208  0.63811308  0.62818088  1
  Al  Al100  1  0.74934766  0.13780086  0.13074658  1
  Al  Al101  1  0.75131601  0.12889050  0.63488784  1
  Al  Al102  1  0.74564939  0.63651014  0.12862848  1
  Al  Al103  1  0.74842081  0.63396687  0.63827801  1
  Al  Al104  1  0.25217559  0.36436819  0.13711749  1
  Al  Al105  1  0.25014543  0.36283425  0.63207491  1
  Al  Al106  1  0.25107955  0.85897290  0.13546820  1
  Al  Al107  1  0.25615410  0.85918435  0.63434463  1
  Al  Al108  1  0.74502865  0.36476463  0.13750095  1
  Al  Al109  1  0.75078084  0.36603539  0.63259663  1
  Al  Al110  1  0.74604767  0.86141842  0.12556727  1
  Al  Al111  1  0.74587854  0.87074310  0.63512513  1
  Al  Al112  1  0.25089821  0.13729890  0.36898423  1
  Al  Al113  1  0.25114076  0.13196733  0.86271550  1
  Al  Al114  1  0.25136280  0.63390156  0.37006947  1
  Al  Al115  1  0.25336459  0.63673895  0.86762254  1
  Al  Al116  1  0.74977524  0.13446266  0.36765559  1
  Al  Al117  1  0.75025325  0.13075784  0.86616495  1
  Al  Al118  1  0.74723527  0.63201505  0.36269543  1
  Al  Al119  1  0.74607668  0.63658178  0.87306424  1
  Al  Al120  1  0.24951438  0.36621880  0.36553943  1
  Al  Al121  1  0.25122445  0.36513961  0.86436123  1
  Al  Al122  1  0.25097686  0.86042299  0.36400956  1
  Al  Al123  1  0.25550641  0.86594693  0.86439191  1
  Al  Al124  1  0.74581176  0.36788893  0.36494329  1
  Al  Al125  1  0.75168809  0.36821005  0.86589461  1
  Al  Al126  1  0.74741548  0.86546506  0.36861228  1
  Al  Al127  1  0.74589249  0.86509190  0.87093077  1
  Al  Al128  1  0.13505917  0.25330947  0.13826537  1
  Al  Al129  1  0.13488796  0.24374805  0.62929923  1
  Al  Al130  1  0.13277143  0.73966877  0.13804626  1
  Al  Al131  1  0.13886006  0.74933968  0.62820730  1
  Al  Al132  1  0.63090805  0.25045011  0.13386853  1
  Al  Al133  1  0.63749840  0.24840801  0.63552299  1
  Al  Al134  1  0.63163619  0.75051588  0.13155563  1
  Al  Al135  1  0.62549751  0.75324281  0.64104738  1
  Al  Al136  1  0.13449596  0.24606659  0.36679568  1
  Al  Al137  1  0.13389285  0.25247955  0.86258371  1
  Al  Al138  1  0.13838065  0.74470084  0.36878456  1
  Al  Al139  1  0.13736725  0.74705268  0.86225303  1
  Al  Al140  1  0.63436017  0.25661747  0.37128391  1
  Al  Al141  1  0.64260750  0.24875637  0.87103543  1
  Al  Al142  1  0.63401788  0.74796403  0.36446936  1
  Al  Al143  1  0.63376415  0.75176880  0.86975316  1
  Al  Al144  1  0.37053775  0.25622923  0.13558803  1
  Al  Al145  1  0.36438722  0.24541332  0.62749057  1
  Al  Al146  1  0.37093907  0.74614558  0.13321913  1
  Al  Al147  1  0.37273381  0.74693572  0.63469291  1
  Al  Al148  1  0.86248586  0.25022122  0.13698452  1
  Al  Al149  1  0.86504702  0.24503371  0.63164977  1
  Al  Al150  1  0.86101858  0.74733720  0.12723072  1
  Al  Al151  1  0.85805660  0.75468191  0.63962476  1
  Al  Al152  1  0.36275620  0.25152910  0.37140587  1
  Al  Al153  1  0.36342165  0.25224379  0.86610863  1
  Al  Al154  1  0.36765627  0.74376207  0.36826293  1
  Al  Al155  1  0.37140684  0.74751930  0.86579886  1
  Al  Al156  1  0.86298152  0.24756971  0.36710203  1
  Al  Al157  1  0.86312735  0.24440445  0.86609832  1
  Al  Al158  1  0.86174167  0.75159000  0.36183615  1
  Al  Al159  1  0.85780975  0.75070903  0.87222693  1
  Al  Al160  1  0.13549541  0.13816291  0.25239434  1
  Al  Al161  1  0.13352302  0.13896717  0.74921808  1
  Al  Al162  1  0.14061492  0.62641115  0.25243804  1
  Al  Al163  1  0.13806995  0.63638363  0.74401681  1
  Al  Al164  1  0.63427532  0.13721341  0.25307934  1
  Al  Al165  1  0.63768628  0.13249951  0.75071083  1
  Al  Al166  1  0.63007666  0.63981022  0.24976292  1
  Al  Al167  1  0.62760428  0.63990151  0.75425478  1
  Al  Al168  1  0.36773382  0.14005543  0.24805569  1
  Al  Al169  1  0.36328222  0.13459840  0.74861972  1
  Al  Al170  1  0.37022935  0.63663896  0.25134238  1
  Al  Al171  1  0.37097793  0.63735094  0.74851942  1
  Al  Al172  1  0.86237958  0.13485898  0.25146238  1
  Al  Al173  1  0.86101560  0.12941794  0.74802554  1
  Al  Al174  1  0.86061101  0.63656174  0.24920590  1
  Al  Al175  1  0.85920845  0.63431328  0.75779735  1
  Al  Al176  1  0.13723963  0.36970050  0.25309966  1
  Al  Al177  1  0.13433809  0.36325915  0.74468536  1
  Al  Al178  1  0.13580558  0.86229155  0.24550491  1
  Al  Al179  1  0.13979416  0.86739506  0.75185280  1
  Al  Al180  1  0.62641859  0.36374669  0.25261439  1
  Al  Al181  1  0.63900682  0.36546757  0.75030607  1
  Al  Al182  1  0.63268198  0.86140119  0.24606642  1
  Al  Al183  1  0.63600244  0.86653582  0.75439471  1
  Al  Al184  1  0.37132445  0.36401877  0.25500220  1
  Al  Al185  1  0.36221625  0.36266999  0.74662739  1
  Al  Al186  1  0.36774172  0.85907880  0.24741033  1
  Al  Al187  1  0.37274422  0.86023407  0.75110109  1
  Al  Al188  1  0.86111276  0.36357769  0.25514476  1
  Al  Al189  1  0.86227010  0.36519943  0.74935229  1
  Al  Al190  1  0.85705448  0.86961634  0.24205601  1
  Al  Al191  1  0.85216196  0.87584252  0.75572215  1
  Al  Al192  1  -0.00334137  0.16876107  0.81858572  1
  Al  Al193  1  0.17965945  0.50102565  0.80913301  1
  Al  Al194  1  0.82603216  0.49907418  0.18458741  1
  Al  Al195  1  0.31868672  0.50057645  0.17735965  1
  Al  Al196  1  0.32174942  0.50027499  0.33337692  1
  Al  Al197  1  0.00090336  0.82605611  0.66883928  1
  Al  Al198  1  0.00035508  0.31463672  0.32461901  1
  Al  Al199  1  0.67947245  -0.00157331  0.17837987  1
  Al  Al200  1  0.50130002  0.32754218  0.82711725  1
  Al  Al201  1  0.33038880  -0.00500570  0.67635109  1
  Al  Al202  1  0.50196902  0.16967000  0.66771549  1
  Al  Al203  1  0.82530114  0.67735525  0.49962217  1
  Al  Al204  1  -0.00296150  0.67277468  0.82578636  1
  Al  Al205  1  0.67170871  0.67619037  0.50117325  1
  Al  Al206  1  0.18573602  0.33120332  0.00077623  1
  Al  Al207  1  0.50220215  0.17206237  0.83070625  1
  Al  Al208  1  -0.00163118  0.17871009  0.18811378  1
  Al  Al209  1  0.82363562  0.00339349  0.32607880  1
  Al  Al210  1  0.33202528  0.18259672  0.00193770  1
  Al  Al211  1  0.31963520  -0.00215037  0.17435583  1
  Al  Al212  1  -0.00308845  0.81996995  0.16812397  1
  Al  Al213  1  0.82453557  0.50398283  0.67962971  1
  Al  Al214  1  0.00163307  0.31400270  0.66891052  1
  Al  Al215  1  0.68328252  0.50226497  0.81998605  1
  Al  Al216  1  0.49992665  0.18943079  0.32276770  1
  Al  Al217  1  0.50000242  0.81058926  0.31354846  1
  Al  Al218  1  0.33779978  0.82410176  0.00200858  1
  Al  Al219  1  0.30963452  0.50181913  0.67704378  1
  Al  Al220  1  -0.00282930  0.32977679  0.17341689  1
  Al  Al221  1  0.17305901  0.17622214  -0.00040387  1
  Al  Al222  1  -0.00252587  0.66907665  0.67276773  1
  Al  Al223  1  0.33176649  0.49988020  0.82765494  1
  Al  Al224  1  0.68516266  0.18425473  0.50201407  1
  Al  Al225  1  -0.00483198  0.33159757  0.83129875  1
  Al  Al226  1  0.32698469  0.82161497  0.50034207  1
  Al  Al227  1  0.00076089  0.67085066  0.32042805  1
  Al  Al228  1  0.32977018  -0.00049564  0.32392062  1
  Al  Al229  1  -0.00527469  0.82621574  0.82695367  1
  Al  Al230  1  0.00220165  0.82975359  0.33067918  1
  Al  Al231  1  0.67235085  0.50156146  0.19301442  1
  Al  Al232  1  0.16592682  0.00521155  0.67557933  1
  Al  Al233  1  0.16800709  0.81810433  0.00115436  1
  Al  Al234  1  0.17480693  0.00113923  0.31717171  1
  Al  Al235  1  0.81304607  0.31612054  0.49826930  1
  Al  Al236  1  0.81746237  0.31594972  0.00135135  1
  Al  Al237  1  0.18305752  0.31365195  0.49827676  1
  Al  Al238  1  0.50082867  0.33496268  0.66849247  1
  Au  Au239  1  -0.00520055  0.83642030  0.16422772  1
  Au  Au240  1  0.50503473  0.16331519  0.16422024  1
  Au  Au241  1  0.67149423  0.49983746  0.65219691  1
  Au  Au242  1  0.33966043  -0.00605263  0.83514591  1
  Au  Au243  1  0.66039868  0.82620387  0.50636214  1
  Au  Au244  1  -0.00564037  0.34682519  0.83592449  1
  Au  Au245  1  0.33156124  0.32397454  0.49966972  1
  Au  Au246  1  0.65895136  -0.00223792  0.32573648  1
  Au  Au247  1  -0.00608552  0.82970614  0.84293981  1
  Au  Au248  1  0.50241566  0.15739027  0.65788438  1
  Au  Au249  1  0.17335100  0.65928746  0.49824278  1
  Au  Au250  1  0.00377640  0.32580007  0.65697903  1
  Au  Au251  1  0.34136673  0.66217174  0.00137255  1
  Au  Au252  1  0.67335000  0.50403898  0.17666150  1
  Au  Au253  1  0.33931623  0.83631386  0.00418009  1
  Au  Au254  1  0.17052731  0.00277222  0.84101380  1
  Au  Au255  1  0.49990114  0.18139233  0.33774439  1
  Au  Au256  1  0.82454873  0.32831960  0.49576921  1
  Au  Au257  1  0.15094270  0.00819551  0.66848896  1
  Au  Au258  1  0.49646173  0.33804949  0.17398323  1
  Au  Au259  1  0.16924523  0.83479997  -0.00211117  1
  Au  Au260  1  0.49994695  0.67034727  0.67222329  1
  Au  Au261  1  0.32641537  0.16628381  0.00214000  1
  Au  Au262  1  0.83257292  0.00111792  0.33461854  1
  Au  Au263  1  -0.00699065  0.65656466  0.17173967  1
  Au  Au264  1  0.33212901  0.00004746  0.34051226  1
  Au  Au265  1  0.68104561  0.16255894  -0.00017664  1
  Au  Au266  1  0.82124895  0.82758152  -0.00126852  1
  Au  Au267  1  0.34180974  -0.00535105  0.66407691  1
  Au  Au268  1  0.67808625  0.16860988  0.50175325  1
  Au  Au269  1  0.17488175  0.83852434  0.49749659  1
  Au  Au270  1  0.16691710  0.65905127  -0.00260691  1
  Au  Au271  1  0.33898763  0.81748630  0.50190010  1
  Au  Au272  1  -0.00011859  0.82025548  0.65302936  1
  Au  Au273  1  0.66856843  0.67668064  0.00108082  1
  Au  Au274  1  0.16936113  0.00682311  0.16756092  1
  Au  Au275  1  0.82965334  0.82626400  0.50190401  1
  Au  Au276  1  0.50779966  0.17162375  0.84602136  1
  Au  Au277  1  0.67032788  0.33202451  0.00015128  1
  Au  Au278  1  0.83392805  0.50198160  0.67118427  1
  Au  Au279  1  0.00450231  0.82459036  0.34653955  1
  Au  Au280  1  0.66896884  0.50230188  0.82883989  1
  Au  Au281  1  0.33788857  0.50359685  0.33227468  1
  Au  Au282  1  -0.00520547  0.15459988  0.82723356  1
  Au  Au283  1  0.16862039  0.33115374  0.00008292  1
  Au  Au284  1  0.82679065  0.00585421  0.15975703  1
  Au  Au285  1  0.50098696  0.35081205  0.67410518  1
  Au  Au286  1  0.82555712  0.00262885  0.67364883  1
  Au  Au287  1  0.16915960  0.49809314  0.17573561  1
