# generated using pymatgen
data_Ca24Ti8Al207Au49
_symmetry_space_group_name_H-M   'P 1'
_cell_length_a   17.31973817
_cell_length_b   17.32134499
_cell_length_c   17.32056583
_cell_angle_alpha   89.99856695
_cell_angle_beta   90.00092067
_cell_angle_gamma   89.99800060
_symmetry_Int_Tables_number   1
_chemical_formula_structural   Ca24Ti8Al207Au49
_chemical_formula_sum   'Ca24 Ti8 Al207 Au49'
_cell_volume   5196.18983588
_cell_formula_units_Z   1
loop_
 _symmetry_equiv_pos_site_id
 _symmetry_equiv_pos_as_xyz
  1  'x, y, z'
loop_
 _atom_site_type_symbol
 _atom_site_label
 _atom_site_symmetry_multiplicity
 _atom_site_fract_x
 _atom_site_fract_y
 _atom_site_fract_z
 _atom_site_occupancy
  Ca  Ca0  1  0.24770292  0.00528710  0.00312957  1
  Ca  Ca1  1  0.25018682  -0.00188695  0.49423366  1
  Ca  Ca2  1  0.24645872  0.49495664  0.00470151  1
  Ca  Ca3  1  0.25339583  0.50406234  0.49310142  1
  Ca  Ca4  1  0.75399994  0.00028244  0.00253967  1
  Ca  Ca5  1  0.74959002  0.00042877  0.49664115  1
  Ca  Ca6  1  0.75454136  0.50014501  -0.00038875  1
  Ca  Ca7  1  0.74990826  0.50079296  0.50038035  1
  Ca  Ca8  1  -0.00387391  0.25265354  0.00120576  1
  Ca  Ca9  1  -0.00249206  0.24915758  0.49888717  1
  Ca  Ca10  1  -0.00587991  0.74771022  0.00463739  1
  Ca  Ca11  1  -0.00168910  0.74619451  0.49760625  1
  Ca  Ca12  1  0.50175112  0.25220813  0.00146951  1
  Ca  Ca13  1  0.49983157  0.25652889  0.49483292  1
  Ca  Ca14  1  0.50558387  0.75044562  0.00064140  1
  Ca  Ca15  1  0.50333882  0.74766367  0.49723756  1
  Ca  Ca16  1  -0.00242016  0.00331983  0.25466632  1
  Ca  Ca17  1  -0.00258068  0.00213168  0.74992572  1
  Ca  Ca18  1  0.00315336  0.49764366  0.25008141  1
  Ca  Ca19  1  -0.00087792  0.49419373  0.74990756  1
  Ca  Ca20  1  0.50345690  -0.00008656  0.25593576  1
  Ca  Ca21  1  0.49814129  -0.00168874  0.74688290  1
  Ca  Ca22  1  0.49555938  0.49625895  0.25758934  1
  Ca  Ca23  1  0.50064234  0.50436894  0.73740901  1
  Ti  Ti24  1  0.24899231  0.25200166  0.25066239  1
  Ti  Ti25  1  0.24891936  0.25099768  0.74977418  1
  Ti  Ti26  1  0.25011749  0.74815429  0.25277880  1
  Ti  Ti27  1  0.25115121  0.74689903  0.74754983  1
  Ti  Ti28  1  0.75117512  0.25043091  0.24889262  1
  Ti  Ti29  1  0.75174632  0.24919308  0.75038291  1
  Ti  Ti30  1  0.74890579  0.75077154  0.25222016  1
  Ti  Ti31  1  0.74985385  0.75137443  0.74839957  1
  Al  Al32  1  0.07783374  0.09096592  0.09509797  1
  Al  Al33  1  0.07531242  0.07908350  0.58134857  1
  Al  Al34  1  0.08294310  0.57151372  0.09354521  1
  Al  Al35  1  0.09070123  0.57688105  0.58446394  1
  Al  Al36  1  0.58458302  0.08434490  0.08626375  1
  Al  Al37  1  0.58809081  0.07996533  0.57205731  1
  Al  Al38  1  0.58038442  0.58284025  0.07830562  1
  Al  Al39  1  0.58814128  0.59599809  0.58618756  1
  Al  Al40  1  0.41258186  0.41053963  0.09973468  1
  Al  Al41  1  0.41501816  0.41832173  0.56883934  1
  Al  Al42  1  0.42899577  0.92544169  0.08013259  1
  Al  Al43  1  0.41147746  0.92143485  0.58634709  1
  Al  Al44  1  0.91699331  0.40888922  0.07994922  1
  Al  Al45  1  0.91137038  0.41609489  0.58687954  1
  Al  Al46  1  0.91650856  0.91768483  0.08446247  1
  Al  Al47  1  0.91075689  0.92066920  0.57199275  1
  Al  Al48  1  0.41843221  0.07862447  0.41874636  1
  Al  Al49  1  0.40120033  0.07928292  0.91892357  1
  Al  Al50  1  0.41060916  0.57930405  0.41668375  1
  Al  Al51  1  0.42454000  0.57655546  0.91500738  1
  Al  Al52  1  0.91156735  0.09103839  0.40952139  1
  Al  Al53  1  0.91271588  0.09557065  0.92301532  1
  Al  Al54  1  0.91889658  0.59472885  0.41972260  1
  Al  Al55  1  0.91637030  0.59051013  0.91537803  1
  Al  Al56  1  0.08267685  0.42212837  0.40633116  1
  Al  Al57  1  0.08747045  0.41277909  0.92240642  1
  Al  Al58  1  0.08888313  0.91989868  0.40958510  1
  Al  Al59  1  0.07656936  0.92519799  0.91973338  1
  Al  Al60  1  0.57418344  0.41298072  0.41407709  1
  Al  Al61  1  0.58402977  0.42275467  0.92780945  1
  Al  Al62  1  0.59016388  0.90591094  0.41083267  1
  Al  Al63  1  0.59618899  0.91527297  0.92199781  1
  Al  Al64  1  0.07900106  0.08377765  0.40186214  1
  Al  Al65  1  0.07518227  0.08590394  0.91822689  1
  Al  Al66  1  0.08377770  0.58452366  0.40707746  1
  Al  Al67  1  0.07354669  0.58355903  0.90759286  1
  Al  Al68  1  0.59380014  0.07976511  0.41256036  1
  Al  Al69  1  0.59082544  0.07379719  0.92349452  1
  Al  Al70  1  0.58681238  0.58910106  0.42611462  1
  Al  Al71  1  0.58446965  0.58626034  0.91778920  1
  Al  Al72  1  0.41008181  0.41389468  0.40724810  1
  Al  Al73  1  0.41476299  0.41916175  0.92664472  1
  Al  Al74  1  0.42576317  0.91346256  0.41156697  1
  Al  Al75  1  0.41257527  0.92661201  0.90732482  1
  Al  Al76  1  0.92140551  0.40983883  0.42356489  1
  Al  Al77  1  0.91314178  0.41233525  0.91976244  1
  Al  Al78  1  0.91115680  0.91604274  0.41200410  1
  Al  Al79  1  0.91325409  0.91764252  0.92143196  1
  Al  Al80  1  0.08913721  0.41130301  0.08586984  1
  Al  Al81  1  0.08017170  0.41910844  0.59152219  1
  Al  Al82  1  0.07417294  0.93026858  0.09284387  1
  Al  Al83  1  0.08536532  0.92178997  0.56922743  1
  Al  Al84  1  0.57626982  0.40498464  0.08909221  1
  Al  Al85  1  0.58151514  0.42572593  0.57607886  1
  Al  Al86  1  0.59373254  0.91168084  0.08149152  1
  Al  Al87  1  0.59193641  0.90997659  0.57267033  1
  Al  Al88  1  0.42394855  0.08853499  0.07962043  1
  Al  Al89  1  0.40575404  0.07758691  0.58491249  1
  Al  Al90  1  0.41516568  0.56817553  0.09291279  1
  Al  Al91  1  0.42120595  0.59020232  0.57853103  1
  Al  Al92  1  0.91508583  0.09834840  0.08709997  1
  Al  Al93  1  0.91052116  0.08959865  0.57333109  1
  Al  Al94  1  0.92083405  0.58303760  0.07624358  1
  Al  Al95  1  0.90229193  0.58148545  0.58216893  1
  Al  Al96  1  0.24555998  0.14092363  0.13797938  1
  Al  Al97  1  0.25458374  0.13464943  0.63290494  1
  Al  Al98  1  0.24561710  0.63227427  0.13724036  1
  Al  Al99  1  0.24860742  0.63343138  0.62886244  1
  Al  Al100  1  0.75355141  0.13693211  0.13003646  1
  Al  Al101  1  0.75084843  0.12985032  0.63409452  1
  Al  Al102  1  0.74741803  0.63631980  0.13854279  1
  Al  Al103  1  0.74918117  0.63695056  0.63102854  1
  Al  Al104  1  0.24774531  0.36374921  0.13250444  1
  Al  Al105  1  0.24909174  0.36776342  0.63440572  1
  Al  Al106  1  0.25261756  0.86149671  0.13950223  1
  Al  Al107  1  0.25440083  0.86186391  0.63426383  1
  Al  Al108  1  0.75506132  0.35982055  0.12883772  1
  Al  Al109  1  0.75390574  0.36652583  0.63474029  1
  Al  Al110  1  0.74762855  0.86406141  0.13304548  1
  Al  Al111  1  0.74937806  0.86571873  0.62677041  1
  Al  Al112  1  0.24876954  0.13636100  0.36314619  1
  Al  Al113  1  0.25105719  0.13691251  0.86657141  1
  Al  Al114  1  0.25106034  0.63742163  0.37077157  1
  Al  Al115  1  0.24734175  0.62716594  0.86089579  1
  Al  Al116  1  0.75257171  0.13685013  0.36471683  1
  Al  Al117  1  0.75438858  0.13661817  0.87186634  1
  Al  Al118  1  0.74921715  0.63901292  0.37108859  1
  Al  Al119  1  0.74982247  0.63485766  0.86380086  1
  Al  Al120  1  0.25444188  0.36739321  0.36564379  1
  Al  Al121  1  0.24849763  0.36824584  0.87018644  1
  Al  Al122  1  0.24877489  0.86139729  0.36469068  1
  Al  Al123  1  0.25710554  0.86346887  0.86121274  1
  Al  Al124  1  0.75042993  0.36399985  0.36247605  1
  Al  Al125  1  0.75417910  0.36391948  0.87312547  1
  Al  Al126  1  0.74590156  0.86163896  0.37403950  1
  Al  Al127  1  0.75238758  0.86241123  0.87103955  1
  Al  Al128  1  0.12819814  0.25209090  0.13655841  1
  Al  Al129  1  0.13589718  0.24875006  0.63361723  1
  Al  Al130  1  0.13415389  0.74810316  0.13960106  1
  Al  Al131  1  0.13452076  0.74481378  0.63506764  1
  Al  Al132  1  0.63829552  0.25051900  0.12957323  1
  Al  Al133  1  0.63900646  0.25132050  0.63465814  1
  Al  Al134  1  0.63496896  0.75138009  0.13321471  1
  Al  Al135  1  0.63653440  0.74834534  0.62861262  1
  Al  Al136  1  0.13379917  0.25113383  0.36403979  1
  Al  Al137  1  0.13592301  0.25499551  0.86588601  1
  Al  Al138  1  0.12745473  0.74544491  0.36345391  1
  Al  Al139  1  0.13625318  0.74300828  0.86008042  1
  Al  Al140  1  0.63475824  0.25514828  0.36507872  1
  Al  Al141  1  0.64016717  0.24944781  0.87290123  1
  Al  Al142  1  0.63177348  0.74999662  0.36896092  1
  Al  Al143  1  0.63761366  0.74921042  0.86886779  1
  Al  Al144  1  0.36626427  0.25630899  0.13860936  1
  Al  Al145  1  0.36137350  0.25163243  0.63117504  1
  Al  Al146  1  0.36572605  0.74814343  0.13863969  1
  Al  Al147  1  0.36617534  0.74225338  0.63048214  1
  Al  Al148  1  0.87195081  0.24886956  0.13591310  1
  Al  Al149  1  0.86412167  0.24658368  0.63533782  1
  Al  Al150  1  0.86412290  0.75133174  0.13717860  1
  Al  Al151  1  0.86157005  0.74725074  0.62563835  1
  Al  Al152  1  0.36410131  0.25367461  0.37078219  1
  Al  Al153  1  0.36297953  0.25316943  0.86530921  1
  Al  Al154  1  0.36986547  0.74513220  0.36707697  1
  Al  Al155  1  0.36523394  0.74468635  0.86179078  1
  Al  Al156  1  0.86717155  0.24443054  0.36533436  1
  Al  Al157  1  0.86544594  0.25207711  0.86643347  1
  Al  Al158  1  0.86584139  0.75227220  0.37108464  1
  Al  Al159  1  0.86547396  0.74780709  0.86184417  1
  Al  Al160  1  0.12912548  0.13909905  0.25280334  1
  Al  Al161  1  0.13625720  0.13443713  0.74928266  1
  Al  Al162  1  0.13474561  0.63294188  0.25289695  1
  Al  Al163  1  0.13590414  0.62795679  0.74651312  1
  Al  Al164  1  0.63967677  0.13552722  0.25258800  1
  Al  Al165  1  0.63765749  0.13644986  0.75209491  1
  Al  Al166  1  0.62979842  0.63983400  0.25393532  1
  Al  Al167  1  0.63123903  0.64024656  0.74619036  1
  Al  Al168  1  0.36477569  0.13957379  0.25148046  1
  Al  Al169  1  0.36515246  0.13576840  0.75072776  1
  Al  Al170  1  0.36765270  0.63206369  0.25628796  1
  Al  Al171  1  0.36881847  0.63326659  0.74615571  1
  Al  Al172  1  0.86945125  0.13696338  0.24843900  1
  Al  Al173  1  0.86177663  0.13046400  0.75072471  1
  Al  Al174  1  0.86370391  0.63858676  0.25700966  1
  Al  Al175  1  0.86090257  0.63169951  0.74720382  1
  Al  Al176  1  0.13571690  0.36771233  0.24617158  1
  Al  Al177  1  0.13781772  0.36992022  0.75089039  1
  Al  Al178  1  0.13426688  0.86576900  0.25649248  1
  Al  Al179  1  0.13635227  0.86476823  0.75114750  1
  Al  Al180  1  0.63293254  0.36137216  0.24695386  1
  Al  Al181  1  0.64031575  0.36174284  0.75062034  1
  Al  Al182  1  0.63426419  0.86701398  0.25830263  1
  Al  Al183  1  0.63721999  0.86335629  0.74550533  1
  Al  Al184  1  0.36717877  0.36475351  0.25420474  1
  Al  Al185  1  0.36086122  0.36659267  0.75066386  1
  Al  Al186  1  0.36953368  0.86143624  0.25775904  1
  Al  Al187  1  0.36901326  0.86315332  0.74553490  1
  Al  Al188  1  0.86546568  0.36323603  0.24875205  1
  Al  Al189  1  0.86216379  0.36884764  0.75160669  1
  Al  Al190  1  0.86134845  0.86396851  0.25474327  1
  Al  Al191  1  0.85955293  0.87014292  0.74761896  1
  Al  Al192  1  0.17886708  0.33226975  0.49968586  1
  Al  Al193  1  0.68343907  -0.00152959  0.81840486  1
  Al  Al194  1  -0.00173735  0.67002580  0.18313685  1
  Al  Al195  1  0.31600146  -0.00101378  0.32710018  1
  Al  Al196  1  0.17043404  0.18182648  0.00093044  1
  Al  Al197  1  0.68199881  0.50169976  0.67020834  1
  Al  Al198  1  0.32785243  0.82024752  0.49750800  1
  Al  Al199  1  0.50278078  0.82009178  0.83210596  1
  Al  Al200  1  0.32417610  0.18366426  0.00322906  1
  Al  Al201  1  0.68955439  0.18225257  0.49864619  1
  Al  Al202  1  0.19018753  0.50065867  0.31068525  1
  Al  Al203  1  0.33017066  0.83040996  0.00107543  1
  Al  Al204  1  0.17040604  0.83000182  0.00195155  1
  Al  Al205  1  -0.00262474  0.66648929  0.67919236  1
  Al  Al206  1  0.67724895  0.49712699  0.17508520  1
  Al  Al207  1  0.50035302  0.17178329  0.66689069  1
  Al  Al208  1  0.82590788  0.50153052  0.32745188  1
  Al  Al209  1  -0.00008359  0.31480211  0.31923062  1
  Al  Al210  1  -0.00080723  0.18075761  0.81678762  1
  Al  Al211  1  0.49852992  0.33025445  0.66997245  1
  Al  Al212  1  0.50150437  0.33044572  0.82857453  1
  Al  Al213  1  0.16478847  0.66941101  0.00173468  1
  Al  Al214  1  0.30863861  0.49823058  0.19381564  1
  Al  Al215  1  0.00159179  0.81319164  0.82716862  1
  Al  Al216  1  0.18875510  -0.00013620  0.82771724  1
  Al  Al217  1  0.17596425  0.17024071  0.49700573  1
  Al  Al218  1  0.50235570  0.18711403  0.17387048  1
  Al  Al219  1  0.68296140  0.49788594  0.82462638  1
  Al  Al220  1  0.49984767  0.16792433  0.83414915  1
  Al  Al221  1  0.50094469  0.18449352  0.32867880  1
  Al  Al222  1  0.81764701  0.31242239  0.49941526  1
  Al  Al223  1  0.17382083  0.00238043  0.19150209  1
  Al  Al224  1  0.67099300  0.50126257  0.33032255  1
  Al  Al225  1  -0.00091748  0.82481693  0.18321250  1
  Al  Al226  1  0.17429830  0.81482301  0.49866073  1
  Al  Al227  1  -0.00050567  0.31926606  0.68310862  1
  Al  Al228  1  0.32820373  0.67001692  0.00244585  1
  Al  Al229  1  -0.00012646  0.82717276  0.67056144  1
  Al  Al230  1  0.83038075  0.50068551  0.17157540  1
  Al  Al231  1  0.80951943  -0.00013410  0.31944053  1
  Al  Al232  1  0.81723917  0.68160625  0.00080824  1
  Al  Al233  1  0.68106260  0.00173226  0.18402735  1
  Al  Al234  1  0.50188984  0.82162187  0.18443653  1
  Al  Al235  1  0.18926209  -0.00132977  0.67256224  1
  Al  Al236  1  0.32783544  -0.00366796  0.17681005  1
  Al  Al237  1  0.32734282  0.50107486  0.67301789  1
  Al  Al238  1  0.50022803  0.81484883  0.66876917  1
  Au  Au239  1  0.49984754  0.17581900  0.65124077  1
  Au  Au240  1  0.00111022  0.84139947  0.66061090  1
  Au  Au241  1  0.67604527  0.33211742  0.00190727  1
  Au  Au242  1  0.34341790  0.66612421  0.00395742  1
  Au  Au243  1  0.16483216  0.16431711  0.49704688  1
  Au  Au244  1  0.16156357  0.17050921  0.00165225  1
  Au  Au245  1  0.67852451  0.16495628  0.00090786  1
  Au  Au246  1  0.50211387  0.16789064  0.32528857  1
  Au  Au247  1  0.49935648  0.15297538  0.83973545  1
  Au  Au248  1  0.50125273  0.82539776  0.65638279  1
  Au  Au249  1  0.17225732  0.00168105  0.83268758  1
  Au  Au250  1  0.17171346  0.34700986  0.49954652  1
  Au  Au251  1  0.33324019  0.84167337  -0.00364405  1
  Au  Au252  1  0.82457458  0.83039614  0.00397552  1
  Au  Au253  1  0.16148497  0.83828867  0.01436916  1
  Au  Au254  1  0.16041393  0.65847139  -0.00285960  1
  Au  Au255  1  0.16027482  0.49842347  0.82564853  1
  Au  Au256  1  0.32481116  0.50218401  0.65626707  1
  Au  Au257  1  0.18097774  -0.00251440  0.65734466  1
  Au  Au258  1  0.66865754  0.67620167  0.00168711  1
  Au  Au259  1  0.17010074  0.66492899  0.49788276  1
  Au  Au260  1  0.66711565  0.50165775  0.82317462  1
  Au  Au261  1  0.49796979  0.65976998  0.17455173  1
  Au  Au262  1  0.32745472  0.33148767  0.00458954  1
  Au  Au263  1  0.83059665  0.00431481  0.83719028  1
  Au  Au264  1  0.83771742  0.00404185  0.17330412  1
  Au  Au265  1  0.50486446  0.83676146  0.83556125  1
  Au  Au266  1  0.67240255  -0.00048690  0.17479869  1
  Au  Au267  1  0.83055524  0.00220833  0.66361195  1
  Au  Au268  1  0.33606441  0.83196336  0.49741147  1
  Au  Au269  1  -0.00284097  0.65110001  0.67341556  1
  Au  Au270  1  -0.00012283  0.32654531  0.17141666  1
  Au  Au271  1  -0.00000540  0.82486193  0.83958326  1
  Au  Au272  1  0.32651074  0.49894843  0.83541596  1
  Au  Au273  1  0.32740072  0.01150213  0.16863566  1
  Au  Au274  1  0.66124930  0.49749540  0.17171545  1
  Au  Au275  1  0.49991629  0.66095142  0.81996540  1
  Au  Au276  1  0.83820795  0.50054639  0.33788208  1
  Au  Au277  1  0.49993700  0.34641263  0.82314638  1
  Au  Au278  1  0.50231437  0.83223603  0.17087742  1
  Au  Au279  1  0.84136974  0.50151244  0.82625995  1
  Au  Au280  1  0.33427441  0.17415026  0.49798156  1
  Au  Au281  1  0.66273859  -0.00195627  0.66994007  1
  Au  Au282  1  0.66880908  0.33061807  0.49933994  1
  Au  Au283  1  0.00014610  0.82831364  0.33185561  1
  Au  Au284  1  0.49933176  0.66948965  0.34063344  1
  Au  Au285  1  0.82326994  0.82533901  0.49849909  1
  Au  Au286  1  -0.00335141  0.16963652  0.66712385  1
  Au  Au287  1  0.00089630  0.32797833  0.83567607  1
