# generated using pymatgen
data_Ca24Ti8Al207Au49
_symmetry_space_group_name_H-M   'P 1'
_cell_length_a   17.31942493
_cell_length_b   17.31945857
_cell_length_c   17.31934566
_cell_angle_alpha   89.99759438
_cell_angle_beta   89.99675111
_cell_angle_gamma   90.00114562
_symmetry_Int_Tables_number   1
_chemical_formula_structural   Ca24Ti8Al207Au49
_chemical_formula_sum   'Ca24 Ti8 Al207 Au49'
_cell_volume   5195.16395137
_cell_formula_units_Z   1
loop_
 _symmetry_equiv_pos_site_id
 _symmetry_equiv_pos_as_xyz
  1  'x, y, z'
loop_
 _atom_site_type_symbol
 _atom_site_label
 _atom_site_symmetry_multiplicity
 _atom_site_fract_x
 _atom_site_fract_y
 _atom_site_fract_z
 _atom_site_occupancy
  Ca  Ca0  1  0.25650168  0.00121360  -0.00220491  1
  Ca  Ca1  1  0.25505173  0.00142992  0.50054447  1
  Ca  Ca2  1  0.25261515  0.50221129  -0.00078342  1
  Ca  Ca3  1  0.25583204  0.49930393  0.50122391  1
  Ca  Ca4  1  0.74467612  0.00171012  -0.00537717  1
  Ca  Ca5  1  0.74873893  0.00092344  0.50080642  1
  Ca  Ca6  1  0.74129611  0.49924949  -0.00370758  1
  Ca  Ca7  1  0.74403240  0.50114836  0.50218617  1
  Ca  Ca8  1  -0.00300919  0.24417265  -0.00265729  1
  Ca  Ca9  1  0.00067354  0.24336931  0.50367804  1
  Ca  Ca10  1  0.00189549  0.74644912  -0.00137426  1
  Ca  Ca11  1  -0.00228854  0.74580463  0.49817041  1
  Ca  Ca12  1  0.50380756  0.25086961  -0.00067284  1
  Ca  Ca13  1  0.50230253  0.24840520  0.49846448  1
  Ca  Ca14  1  0.49542474  0.74969630  -0.00163691  1
  Ca  Ca15  1  0.50198133  0.74634458  0.49822829  1
  Ca  Ca16  1  0.00291037  -0.00210369  0.25233150  1
  Ca  Ca17  1  -0.00070605  -0.00444936  0.75154848  1
  Ca  Ca18  1  -0.00129731  0.50173403  0.24396681  1
  Ca  Ca19  1  -0.00216180  0.50157820  0.75087328  1
  Ca  Ca20  1  0.49791901  -0.00134072  0.24990333  1
  Ca  Ca21  1  0.49947860  0.00113410  0.75994052  1
  Ca  Ca22  1  0.50739150  0.50131351  0.24920621  1
  Ca  Ca23  1  0.50230099  0.49823750  0.75485706  1
  Ti  Ti24  1  0.25195120  0.24676643  0.24897882  1
  Ti  Ti25  1  0.25274791  0.24926430  0.75101047  1
  Ti  Ti26  1  0.25210213  0.75180172  0.25010357  1
  Ti  Ti27  1  0.25134202  0.75023162  0.75049646  1
  Ti  Ti28  1  0.74728427  0.24859181  0.25061872  1
  Ti  Ti29  1  0.74797519  0.25171805  0.74939535  1
  Ti  Ti30  1  0.74717362  0.75184304  0.24895999  1
  Ti  Ti31  1  0.74853025  0.74730826  0.75203701  1
  Al  Al32  1  0.10554279  0.08440659  0.07952424  1
  Al  Al33  1  0.07814537  0.08897889  0.58397772  1
  Al  Al34  1  0.08130974  0.59261759  0.08390608  1
  Al  Al35  1  0.08418570  0.58104293  0.58374135  1
  Al  Al36  1  0.58099059  0.08675121  0.07798749  1
  Al  Al37  1  0.57794079  0.07927173  0.57615844  1
  Al  Al38  1  0.58431902  0.57564268  0.08245430  1
  Al  Al39  1  0.58042003  0.58139685  0.58182255  1
  Al  Al40  1  0.42333909  0.42279544  0.07831561  1
  Al  Al41  1  0.42263285  0.41597531  0.58129510  1
  Al  Al42  1  0.41168060  0.90439387  0.08293069  1
  Al  Al43  1  0.42160864  0.91975749  0.57644957  1
  Al  Al44  1  0.90143672  0.42458076  0.07003697  1
  Al  Al45  1  0.91747613  0.41703812  0.58825605  1
  Al  Al46  1  0.91608593  0.92196638  0.07982069  1
  Al  Al47  1  0.90979609  0.91787402  0.57717754  1
  Al  Al48  1  0.41314057  0.09637315  0.41124261  1
  Al  Al49  1  0.41196718  0.07892965  0.90985551  1
  Al  Al50  1  0.42141411  0.58762250  0.42391218  1
  Al  Al51  1  0.42069882  0.59544246  0.91385745  1
  Al  Al52  1  0.90959002  0.08339680  0.42667234  1
  Al  Al53  1  0.90731870  0.08042467  0.91236219  1
  Al  Al54  1  0.90814686  0.58652964  0.42162925  1
  Al  Al55  1  0.91630214  0.58264983  0.90591650  1
  Al  Al56  1  0.07975559  0.42372209  0.42714153  1
  Al  Al57  1  0.08300492  0.42627593  0.91937195  1
  Al  Al58  1  0.09601151  0.92714131  0.41251596  1
  Al  Al59  1  0.09501317  0.92475007  0.91434010  1
  Al  Al60  1  0.58904710  0.41242980  0.40460642  1
  Al  Al61  1  0.59152276  0.41187228  0.91044691  1
  Al  Al62  1  0.58632363  0.91041952  0.41817491  1
  Al  Al63  1  0.58497697  0.92269026  0.91340570  1
  Al  Al64  1  0.09360448  0.08016841  0.41866344  1
  Al  Al65  1  0.10203301  0.08542975  0.91756879  1
  Al  Al66  1  0.08450296  0.58374055  0.42118538  1
  Al  Al67  1  0.07802088  0.59183291  0.91729959  1
  Al  Al68  1  0.57603933  0.09260064  0.40987971  1
  Al  Al69  1  0.58943991  0.08618794  0.91326339  1
  Al  Al70  1  0.58541401  0.57675514  0.41120418  1
  Al  Al71  1  0.58435360  0.58293054  0.90745312  1
  Al  Al72  1  0.42850032  0.40599873  0.41112181  1
  Al  Al73  1  0.42903189  0.41231523  0.91745308  1
  Al  Al74  1  0.41707076  0.91801456  0.41436749  1
  Al  Al75  1  0.40425689  0.91335228  0.91889915  1
  Al  Al76  1  0.91375037  0.42491651  0.42228653  1
  Al  Al77  1  0.89475999  0.42255329  0.91297406  1
  Al  Al78  1  0.90534638  0.91739798  0.42274079  1
  Al  Al79  1  0.90727352  0.92325342  0.91142279  1
  Al  Al80  1  0.08432040  0.42821258  0.07736190  1
  Al  Al81  1  0.07795845  0.41817337  0.58948470  1
  Al  Al82  1  0.09450277  0.92473829  0.08665741  1
  Al  Al83  1  0.07942621  0.92409705  0.57318040  1
  Al  Al84  1  0.59414856  0.41337969  0.08525369  1
  Al  Al85  1  0.58148311  0.41551042  0.58211492  1
  Al  Al86  1  0.57348789  0.91370846  0.08696739  1
  Al  Al87  1  0.58751996  0.91390307  0.57589691  1
  Al  Al88  1  0.41829405  0.08019168  0.08375762  1
  Al  Al89  1  0.41338183  0.08861116  0.57250891  1
  Al  Al90  1  0.41196051  0.58748509  0.07541588  1
  Al  Al91  1  0.41608742  0.58962067  0.58145789  1
  Al  Al92  1  0.91229004  0.07796330  0.07606192  1
  Al  Al93  1  0.91586324  0.09580703  0.58652896  1
  Al  Al94  1  0.92146508  0.58322756  0.08872123  1
  Al  Al95  1  0.90852575  0.58792789  0.58345346  1
  Al  Al96  1  0.25311379  0.12730070  0.13309328  1
  Al  Al97  1  0.25538511  0.13398080  0.63436754  1
  Al  Al98  1  0.25380956  0.63796205  0.13455331  1
  Al  Al99  1  0.25123410  0.63575361  0.63469809  1
  Al  Al100  1  0.74671945  0.13408058  0.13637352  1
  Al  Al101  1  0.75068078  0.13571642  0.62732885  1
  Al  Al102  1  0.74519646  0.63564218  0.13401279  1
  Al  Al103  1  0.74921602  0.62582436  0.64008773  1
  Al  Al104  1  0.24761104  0.36340847  0.13650131  1
  Al  Al105  1  0.25362991  0.36339029  0.63643965  1
  Al  Al106  1  0.25287941  0.86962910  0.13679401  1
  Al  Al107  1  0.25382831  0.86477162  0.63480705  1
  Al  Al108  1  0.74251496  0.36688448  0.13680262  1
  Al  Al109  1  0.74876608  0.37095663  0.63602528  1
  Al  Al110  1  0.74712992  0.86501970  0.13053312  1
  Al  Al111  1  0.75129026  0.86634363  0.63764841  1
  Al  Al112  1  0.25201733  0.13091004  0.36469751  1
  Al  Al113  1  0.25291697  0.13225278  0.87062915  1
  Al  Al114  1  0.25061713  0.63584650  0.36931345  1
  Al  Al115  1  0.25432104  0.63557583  0.86598931  1
  Al  Al116  1  0.74667348  0.13384000  0.37085617  1
  Al  Al117  1  0.74892075  0.13375369  0.86403761  1
  Al  Al118  1  0.74330218  0.63745580  0.36393457  1
  Al  Al119  1  0.75014067  0.62954519  0.86429399  1
  Al  Al120  1  0.25233989  0.36220726  0.36674749  1
  Al  Al121  1  0.24690524  0.36519317  0.86559166  1
  Al  Al122  1  0.25085047  0.87327422  0.36130985  1
  Al  Al123  1  0.25491172  0.86588792  0.86840639  1
  Al  Al124  1  0.74543387  0.36281002  0.36687433  1
  Al  Al125  1  0.74628618  0.37054165  0.86462068  1
  Al  Al126  1  0.74923966  0.87177796  0.36262134  1
  Al  Al127  1  0.74661008  0.85999553  0.87122944  1
  Al  Al128  1  0.13878928  0.24095129  0.13558934  1
  Al  Al129  1  0.13509624  0.24536160  0.63879191  1
  Al  Al130  1  0.13768652  0.74925270  0.13598885  1
  Al  Al131  1  0.13554593  0.74878031  0.63435864  1
  Al  Al132  1  0.63432058  0.25125971  0.13683925  1
  Al  Al133  1  0.63574289  0.24918544  0.63805038  1
  Al  Al134  1  0.63070061  0.75579734  0.13577425  1
  Al  Al135  1  0.63979387  0.74653354  0.63879067  1
  Al  Al136  1  0.13617365  0.24431486  0.36164439  1
  Al  Al137  1  0.13704196  0.24052995  0.86786724  1
  Al  Al138  1  0.13745471  0.74984754  0.36607359  1
  Al  Al139  1  0.13699525  0.74876108  0.86643368  1
  Al  Al140  1  0.62868355  0.24840349  0.36247510  1
  Al  Al141  1  0.63556115  0.25686048  0.86568403  1
  Al  Al142  1  0.63475530  0.75426404  0.36235901  1
  Al  Al143  1  0.62790583  0.74738390  0.86215005  1
  Al  Al144  1  0.36471234  0.24433617  0.13603882  1
  Al  Al145  1  0.36564485  0.24989461  0.63139056  1
  Al  Al146  1  0.36654191  0.75367136  0.13111437  1
  Al  Al147  1  0.36505314  0.74888775  0.63144135  1
  Al  Al148  1  0.86111834  0.25015235  0.13578860  1
  Al  Al149  1  0.86339451  0.24759176  0.63763699  1
  Al  Al150  1  0.86329220  0.74891993  0.13356464  1
  Al  Al151  1  0.86297164  0.74845466  0.63992437  1
  Al  Al152  1  0.36467132  0.24544370  0.36789536  1
  Al  Al153  1  0.36468362  0.24748863  0.86831356  1
  Al  Al154  1  0.36299206  0.75457131  0.36744787  1
  Al  Al155  1  0.36672377  0.75188148  0.86851892  1
  Al  Al156  1  0.86315475  0.24462502  0.36650553  1
  Al  Al157  1  0.86014647  0.25161008  0.86547352  1
  Al  Al158  1  0.86404193  0.75006199  0.36381339  1
  Al  Al159  1  0.86446235  0.74580999  0.86510669  1
  Al  Al160  1  0.13856212  0.12730609  0.25049131  1
  Al  Al161  1  0.14196973  0.13250455  0.75262065  1
  Al  Al162  1  0.13938991  0.63169400  0.24931353  1
  Al  Al163  1  0.13235654  0.63851824  0.75124906  1
  Al  Al164  1  0.63540355  0.13008198  0.25347182  1
  Al  Al165  1  0.63734266  0.13541756  0.75371476  1
  Al  Al166  1  0.63309398  0.63321551  0.24625844  1
  Al  Al167  1  0.63582071  0.62717432  0.75569673  1
  Al  Al168  1  0.36347098  0.12774118  0.25163786  1
  Al  Al169  1  0.36397936  0.13444129  0.75597353  1
  Al  Al170  1  0.36464243  0.63955588  0.24965621  1
  Al  Al171  1  0.36629900  0.63858437  0.75395744  1
  Al  Al172  1  0.86604365  0.13550132  0.25224742  1
  Al  Al173  1  0.86344075  0.13706979  0.75129282  1
  Al  Al174  1  0.86173739  0.63592861  0.24807456  1
  Al  Al175  1  0.86602494  0.63168980  0.75073636  1
  Al  Al176  1  0.13776399  0.36711176  0.25150469  1
  Al  Al177  1  0.13568888  0.36055610  0.75217557  1
  Al  Al178  1  0.13483608  0.86581732  0.24836976  1
  Al  Al179  1  0.13937703  0.86716701  0.75779286  1
  Al  Al180  1  0.63181529  0.36593459  0.25352834  1
  Al  Al181  1  0.63606949  0.37228389  0.75301682  1
  Al  Al182  1  0.63141206  0.87028833  0.24974416  1
  Al  Al183  1  0.63604328  0.86709429  0.75824309  1
  Al  Al184  1  0.36778493  0.36012378  0.25590804  1
  Al  Al185  1  0.36726510  0.36185703  0.75572429  1
  Al  Al186  1  0.37058222  0.86728134  0.24791185  1
  Al  Al187  1  0.36650890  0.86633863  0.75806871  1
  Al  Al188  1  0.86036311  0.36375061  0.25290600  1
  Al  Al189  1  0.85876995  0.37036260  0.75019930  1
  Al  Al190  1  0.86513418  0.86463633  0.25074516  1
  Al  Al191  1  0.86117759  0.86672419  0.75843182  1
  Al  Al192  1  0.81403614  0.69061897  0.50157162  1
  Al  Al193  1  0.50145746  0.18497950  0.82516894  1
  Al  Al194  1  0.00083782  0.82984020  0.33049209  1
  Al  Al195  1  0.00345992  0.16561506  0.17330595  1
  Al  Al196  1  0.00024780  0.81764688  0.16929184  1
  Al  Al197  1  0.67305388  0.31810861  0.50049979  1
  Al  Al198  1  0.17351275  -0.00099549  0.68146509  1
  Al  Al199  1  0.83005359  0.67360091  -0.00003855  1
  Al  Al200  1  0.83224589  0.31288516  0.50226488  1
  Al  Al201  1  0.32835733  0.49995034  0.82903801  1
  Al  Al202  1  0.49871117  0.32510445  0.17981397  1
  Al  Al203  1  0.17922888  0.82262314  0.49797230  1
  Al  Al204  1  0.32877861  0.50147487  0.33160514  1
  Al  Al205  1  0.18564930  0.67477094  -0.00004710  1
  Al  Al206  1  0.33069147  0.50083819  0.67297229  1
  Al  Al207  1  0.32329119  0.49879715  0.17410977  1
  Al  Al208  1  0.81261799  0.50105051  0.17355330  1
  Al  Al209  1  -0.00044508  0.32204875  0.33017140  1
  Al  Al210  1  0.49872769  0.17126312  0.67223173  1
  Al  Al211  1  0.32641220  0.31996919  0.00201029  1
  Al  Al212  1  0.00315950  0.16657068  0.81649589  1
  Al  Al213  1  0.82593538  0.00208855  0.68536995  1
  Al  Al214  1  0.49957384  0.68199888  0.32559044  1
  Al  Al215  1  -0.00257563  0.33214446  0.16564506  1
  Al  Al216  1  0.67996558  0.18885900  -0.00035846  1
  Al  Al217  1  0.50146763  0.66997993  0.68534449  1
  Al  Al218  1  0.32902150  -0.00002973  0.68396328  1
  Al  Al219  1  0.81877057  -0.00052979  0.17972204  1
  Al  Al220  1  0.49906092  0.67931821  0.16966260  1
  Al  Al221  1  0.69191166  0.81587938  0.50033003  1
  Al  Al222  1  0.50182844  0.82579639  0.67705758  1
  Al  Al223  1  0.16682418  0.31370006  0.00063011  1
  Al  Al224  1  0.80588462  0.50115375  0.32949517  1
  Al  Al225  1  -0.00120470  0.82261154  0.67089565  1
  Al  Al226  1  0.50022942  0.17248364  0.18629634  1
  Al  Al227  1  -0.00134070  0.31376104  0.67711724  1
  Al  Al228  1  0.67169970  0.67777798  -0.00182251  1
  Al  Al229  1  0.18682978  0.82588403  0.00100921  1
  Al  Al230  1  0.18505858  0.17178629  0.50117894  1
  Al  Al231  1  0.18002732  0.32573472  0.50240763  1
  Al  Al232  1  0.00111632  0.81909427  0.83163104  1
  Al  Al233  1  0.67218591  0.00119382  0.68279164  1
  Al  Al234  1  0.80410345  0.31871702  0.00054378  1
  Al  Al235  1  -0.00356697  0.32931775  0.83051013  1
  Al  Al236  1  0.17650439  0.49871880  0.68038694  1
  Al  Al237  1  0.50145492  0.32316835  0.68758546  1
  Al  Al238  1  0.00014783  0.67009580  0.31306736  1
  Au  Au239  1  0.34311111  0.32194438  0.49886407  1
  Au  Au240  1  -0.01107997  0.34357205  0.15778523  1
  Au  Au241  1  0.00099934  0.16225491  0.34278496  1
  Au  Au242  1  0.82606868  0.32904993  0.50306554  1
  Au  Au243  1  0.66396277  0.49894990  0.67479290  1
  Au  Au244  1  0.50000206  0.83155165  0.32623389  1
  Au  Au245  1  0.17351784  0.32983243  0.00005875  1
  Au  Au246  1  0.34273567  0.00168857  0.67409581  1
  Au  Au247  1  -0.00878051  0.34458155  0.82882096  1
  Au  Au248  1  0.00444634  0.15191791  0.82440065  1
  Au  Au249  1  0.82710552  0.17218740  -0.00090679  1
  Au  Au250  1  0.83212852  0.00352300  0.32868541  1
  Au  Au251  1  0.34529249  0.50206055  0.32738385  1
  Au  Au252  1  0.32552953  0.00213961  0.33521630  1
  Au  Au253  1  0.15693866  0.00073318  0.67729126  1
  Au  Au254  1  0.83252677  0.50066167  0.67729832  1
  Au  Au255  1  0.66762644  0.66880554  0.49839484  1
  Au  Au256  1  0.50094285  0.66716161  0.16646684  1
  Au  Au257  1  0.82231009  0.50143793  0.32383743  1
  Au  Au258  1  0.50291899  0.81901800  0.66151462  1
  Au  Au259  1  0.65681143  0.82773453  -0.00020733  1
  Au  Au260  1  0.17308354  0.50664485  0.16431042  1
  Au  Au261  1  0.16368278  0.32378890  0.50653663  1
  Au  Au262  1  0.66797664  0.16818534  0.49928397  1
  Au  Au263  1  0.16421096  0.50920082  0.82760782  1
  Au  Au264  1  0.32763167  -0.00355022  0.16549339  1
  Au  Au265  1  -0.00198885  0.82564383  0.65444899  1
  Au  Au266  1  0.82785350  0.66094048  -0.00003461  1
  Au  Au267  1  -0.00137723  0.65970171  0.32644125  1
  Au  Au268  1  0.17605197  0.83528453  0.00089748  1
  Au  Au269  1  0.66959783  0.00021423  0.15914047  1
  Au  Au270  1  -0.00035766  0.65920695  0.67667377  1
  Au  Au271  1  0.49720560  0.83001992  0.83841996  1
  Au  Au272  1  0.00500891  0.15139602  0.16561429  1
  Au  Au273  1  0.00113711  0.83518819  0.83772869  1
  Au  Au274  1  0.65598382  0.00006537  0.67827522  1
  Au  Au275  1  0.17947080  0.66287036  0.50314105  1
  Au  Au276  1  0.33967213  0.49562712  0.83280389  1
  Au  Au277  1  0.00101048  0.83993644  0.34237850  1
  Au  Au278  1  0.66342985  0.00164504  0.33292103  1
  Au  Au279  1  0.00169388  0.82977828  0.15753343  1
  Au  Au280  1  0.00069330  0.33891493  0.33343285  1
  Au  Au281  1  0.33361737  0.16859616  -0.00014919  1
  Au  Au282  1  0.33525316  0.82416425  0.49912205  1
  Au  Au283  1  0.16673784  0.49749890  0.33232100  1
  Au  Au284  1  0.17334507  0.83394104  0.49809331  1
  Au  Au285  1  0.82538368  0.83815119  -0.00044943  1
  Au  Au286  1  0.49968082  0.33340981  0.16850121  1
  Au  Au287  1  0.84050167  0.00310610  0.67638012  1
