# generated using pymatgen
data_Ca24Ti8Al207Au49
_symmetry_space_group_name_H-M   'P 1'
_cell_length_a   17.32234558
_cell_length_b   17.32386594
_cell_length_c   17.32224062
_cell_angle_alpha   89.99811390
_cell_angle_beta   89.99792768
_cell_angle_gamma   90.00531806
_symmetry_Int_Tables_number   1
_chemical_formula_structural   Ca24Ti8Al207Au49
_chemical_formula_sum   'Ca24 Ti8 Al207 Au49'
_cell_volume   5198.23103029
_cell_formula_units_Z   1
loop_
 _symmetry_equiv_pos_site_id
 _symmetry_equiv_pos_as_xyz
  1  'x, y, z'
loop_
 _atom_site_type_symbol
 _atom_site_label
 _atom_site_symmetry_multiplicity
 _atom_site_fract_x
 _atom_site_fract_y
 _atom_site_fract_z
 _atom_site_occupancy
  Ca  Ca0  1  0.24793671  0.00320979  -0.00192308  1
  Ca  Ca1  1  0.25194217  -0.00183030  0.49872060  1
  Ca  Ca2  1  0.24947944  0.49572463  0.00479257  1
  Ca  Ca3  1  0.24561484  0.50317240  0.49815506  1
  Ca  Ca4  1  0.74602718  -0.00106538  -0.00311721  1
  Ca  Ca5  1  0.74892796  -0.00331400  0.50219892  1
  Ca  Ca6  1  0.74620606  0.50331257  -0.00410001  1
  Ca  Ca7  1  0.75111792  0.50253574  0.50470119  1
  Ca  Ca8  1  0.00235308  0.25164124  -0.00663042  1
  Ca  Ca9  1  -0.00056607  0.25304492  0.50627665  1
  Ca  Ca10  1  0.00043755  0.74812179  -0.00199406  1
  Ca  Ca11  1  -0.00211524  0.74658103  0.50218334  1
  Ca  Ca12  1  0.50150449  0.25137370  -0.00336156  1
  Ca  Ca13  1  0.49873545  0.25292141  0.50224824  1
  Ca  Ca14  1  0.49759499  0.74860252  0.00205260  1
  Ca  Ca15  1  0.50573558  0.74729977  0.49958017  1
  Ca  Ca16  1  -0.00166229  0.00007152  0.25191094  1
  Ca  Ca17  1  -0.00476406  0.00096192  0.75186887  1
  Ca  Ca18  1  0.00220874  0.50005955  0.25463625  1
  Ca  Ca19  1  -0.00436273  0.49885606  0.74753106  1
  Ca  Ca20  1  0.50172979  -0.00294441  0.24842072  1
  Ca  Ca21  1  0.50449402  -0.00031669  0.75093216  1
  Ca  Ca22  1  0.49866839  0.50149287  0.24922348  1
  Ca  Ca23  1  0.50424014  0.50198378  0.74859879  1
  Ti  Ti24  1  0.25230300  0.25239300  0.25040918  1
  Ti  Ti25  1  0.24795302  0.25065539  0.75032466  1
  Ti  Ti26  1  0.24838560  0.74685861  0.25098628  1
  Ti  Ti27  1  0.24816678  0.74807208  0.74977021  1
  Ti  Ti28  1  0.74772177  0.25281430  0.25097287  1
  Ti  Ti29  1  0.75144794  0.25028988  0.74981862  1
  Ti  Ti30  1  0.75030281  0.74843096  0.25221735  1
  Ti  Ti31  1  0.75060011  0.74965712  0.74807326  1
  Al  Al32  1  0.08176712  0.08131107  0.07597487  1
  Al  Al33  1  0.07801691  0.08314411  0.58565675  1
  Al  Al34  1  0.08906717  0.57698122  0.08842701  1
  Al  Al35  1  0.07258982  0.58609784  0.58332039  1
  Al  Al36  1  0.58770164  0.07535205  0.08730050  1
  Al  Al37  1  0.58747789  0.08560292  0.59874856  1
  Al  Al38  1  0.58916406  0.57945943  0.08481425  1
  Al  Al39  1  0.59469525  0.58660211  0.59298813  1
  Al  Al40  1  0.41103202  0.42109519  0.08451828  1
  Al  Al41  1  0.41708177  0.41004304  0.57973044  1
  Al  Al42  1  0.42051910  0.92077178  0.08407344  1
  Al  Al43  1  0.42540269  0.92045856  0.57454280  1
  Al  Al44  1  0.91913492  0.41831122  0.07388545  1
  Al  Al45  1  0.91047510  0.42200986  0.59799113  1
  Al  Al46  1  0.91813529  0.92055067  0.08429460  1
  Al  Al47  1  0.91018834  0.91604214  0.58860950  1
  Al  Al48  1  0.41854736  0.08239437  0.42172989  1
  Al  Al49  1  0.41723153  0.08265469  0.91334101  1
  Al  Al50  1  0.42080341  0.57390207  0.41129634  1
  Al  Al51  1  0.41980404  0.58260066  0.91957485  1
  Al  Al52  1  0.92210122  0.07772663  0.42336077  1
  Al  Al53  1  0.91804317  0.08622607  0.90613387  1
  Al  Al54  1  0.92022034  0.59334525  0.42691312  1
  Al  Al55  1  0.91176250  0.57498760  0.91070219  1
  Al  Al56  1  0.08552534  0.42637110  0.41151006  1
  Al  Al57  1  0.08693900  0.41685737  0.90860895  1
  Al  Al58  1  0.08396176  0.91747755  0.41470905  1
  Al  Al59  1  0.08438006  0.92454533  0.91065580  1
  Al  Al60  1  0.58068062  0.42176699  0.42153236  1
  Al  Al61  1  0.58464201  0.42091768  0.91369082  1
  Al  Al62  1  0.58536468  0.91817219  0.41638709  1
  Al  Al63  1  0.58700182  0.91975932  0.90975653  1
  Al  Al64  1  0.08442233  0.07802181  0.41675424  1
  Al  Al65  1  0.08205159  0.08584349  0.90310827  1
  Al  Al66  1  0.08227440  0.58786289  0.41061400  1
  Al  Al67  1  0.08669593  0.57525207  0.90971177  1
  Al  Al68  1  0.58393333  0.07817433  0.41809670  1
  Al  Al69  1  0.58657681  0.07805693  0.90720472  1
  Al  Al70  1  0.58479654  0.58611857  0.42231202  1
  Al  Al71  1  0.58714298  0.58231658  0.91320074  1
  Al  Al72  1  0.40335440  0.41476029  0.41897107  1
  Al  Al73  1  0.42041074  0.41799646  0.92042387  1
  Al  Al74  1  0.41840696  0.91563987  0.41731324  1
  Al  Al75  1  0.42024494  0.92139953  0.91467963  1
  Al  Al76  1  0.92596547  0.42520896  0.42583953  1
  Al  Al77  1  0.91190774  0.41629960  0.90683127  1
  Al  Al78  1  0.91842146  0.91295877  0.42269729  1
  Al  Al79  1  0.91406180  0.92553005  0.91271310  1
  Al  Al80  1  0.09026312  0.42059495  0.08610729  1
  Al  Al81  1  0.07303472  0.41483701  0.58806398  1
  Al  Al82  1  0.07865637  0.91908946  0.08089198  1
  Al  Al83  1  0.08046291  0.91688705  0.58560196  1
  Al  Al84  1  0.58778065  0.42295387  0.08439468  1
  Al  Al85  1  0.58234873  0.42370416  0.59149295  1
  Al  Al86  1  0.58518515  0.91789057  0.08850094  1
  Al  Al87  1  0.59098329  0.92278401  0.58922323  1
  Al  Al88  1  0.41697497  0.07874064  0.08072836  1
  Al  Al89  1  0.42630361  0.09406817  0.58718170  1
  Al  Al90  1  0.41176804  0.57795755  0.08493481  1
  Al  Al91  1  0.43286191  0.58212522  0.58720997  1
  Al  Al92  1  0.91514097  0.07792336  0.07686642  1
  Al  Al93  1  0.91398369  0.07943874  0.59256718  1
  Al  Al94  1  0.92192411  0.57883142  0.07573800  1
  Al  Al95  1  0.90791019  0.58680152  0.59058709  1
  Al  Al96  1  0.25085518  0.13860454  0.12840953  1
  Al  Al97  1  0.24812504  0.13787312  0.64052751  1
  Al  Al98  1  0.24966509  0.63241901  0.13787853  1
  Al  Al99  1  0.24261900  0.63230698  0.63807098  1
  Al  Al100  1  0.74859301  0.13681143  0.13301421  1
  Al  Al101  1  0.74877641  0.12761012  0.63943053  1
  Al  Al102  1  0.74831420  0.63279619  0.13673487  1
  Al  Al103  1  0.75295303  0.63054863  0.63605548  1
  Al  Al104  1  0.25320967  0.36609086  0.13612559  1
  Al  Al105  1  0.24962281  0.36462405  0.63457948  1
  Al  Al106  1  0.24734194  0.86405616  0.13593430  1
  Al  Al107  1  0.24706152  0.86424540  0.63750800  1
  Al  Al108  1  0.74582844  0.36904491  0.13617925  1
  Al  Al109  1  0.75254341  0.36897664  0.63782867  1
  Al  Al110  1  0.74609152  0.86477107  0.13313920  1
  Al  Al111  1  0.75133205  0.86564026  0.63089864  1
  Al  Al112  1  0.25519216  0.13755515  0.36670318  1
  Al  Al113  1  0.24438258  0.13917416  0.86618515  1
  Al  Al114  1  0.24585264  0.62616262  0.36270323  1
  Al  Al115  1  0.24509543  0.63390373  0.86233002  1
  Al  Al116  1  0.74802282  0.13704439  0.36602518  1
  Al  Al117  1  0.75345437  0.13616470  0.86030170  1
  Al  Al118  1  0.75179137  0.63062848  0.36724918  1
  Al  Al119  1  0.75166600  0.62805889  0.85797968  1
  Al  Al120  1  0.25169313  0.37027882  0.36587554  1
  Al  Al121  1  0.24528654  0.36392279  0.86366367  1
  Al  Al122  1  0.24554371  0.85952107  0.36582130  1
  Al  Al123  1  0.24667381  0.86551412  0.86273454  1
  Al  Al124  1  0.74811111  0.37212627  0.36664679  1
  Al  Al125  1  0.75652744  0.37198741  0.85784885  1
  Al  Al126  1  0.75226693  0.86141912  0.37232689  1
  Al  Al127  1  0.75197024  0.86526348  0.86546073  1
  Al  Al128  1  0.13810147  0.25022319  0.13602234  1
  Al  Al129  1  0.12639673  0.25367175  0.63542148  1
  Al  Al130  1  0.13574082  0.74568518  0.13480629  1
  Al  Al131  1  0.12597600  0.74920819  0.63839640  1
  Al  Al132  1  0.63278011  0.25236042  0.13634282  1
  Al  Al133  1  0.63746718  0.25028554  0.63731702  1
  Al  Al134  1  0.63554272  0.74897262  0.13736236  1
  Al  Al135  1  0.63722316  0.74551374  0.63616495  1
  Al  Al136  1  0.13673437  0.24973912  0.36365532  1
  Al  Al137  1  0.12572531  0.25184883  0.85997640  1
  Al  Al138  1  0.12619248  0.74807202  0.36333019  1
  Al  Al139  1  0.13377828  0.74794881  0.86559759  1
  Al  Al140  1  0.63035048  0.25414773  0.36474928  1
  Al  Al141  1  0.63294499  0.25088718  0.85913033  1
  Al  Al142  1  0.63742645  0.74940512  0.36442070  1
  Al  Al143  1  0.63785438  0.74660861  0.85883496  1
  Al  Al144  1  0.36862217  0.25114324  0.13804460  1
  Al  Al145  1  0.36431277  0.25135416  0.63271487  1
  Al  Al146  1  0.36255557  0.74813834  0.13829212  1
  Al  Al147  1  0.36391710  0.74569011  0.63784573  1
  Al  Al148  1  0.86018351  0.25366079  0.13886423  1
  Al  Al149  1  0.87040232  0.25145226  0.63816169  1
  Al  Al150  1  0.86116575  0.74779124  0.13676962  1
  Al  Al151  1  0.86668179  0.74779065  0.63308157  1
  Al  Al152  1  0.36724398  0.25541477  0.36839101  1
  Al  Al153  1  0.36835971  0.24528038  0.86358109  1
  Al  Al154  1  0.36138003  0.74631452  0.36243254  1
  Al  Al155  1  0.36257663  0.74672227  0.86415142  1
  Al  Al156  1  0.86143659  0.25161906  0.36773939  1
  Al  Al157  1  0.87573828  0.24914262  0.85699536  1
  Al  Al158  1  0.86827302  0.74842528  0.37035881  1
  Al  Al159  1  0.86110111  0.74821463  0.85948264  1
  Al  Al160  1  0.13798285  0.13489718  0.24850920  1
  Al  Al161  1  0.12454397  0.13657052  0.75248185  1
  Al  Al162  1  0.13074578  0.63172115  0.25747114  1
  Al  Al163  1  0.13220345  0.62923842  0.74797787  1
  Al  Al164  1  0.63746593  0.13541503  0.24922749  1
  Al  Al165  1  0.63029421  0.13549565  0.74853475  1
  Al  Al166  1  0.63765838  0.62878139  0.25137063  1
  Al  Al167  1  0.63478913  0.62836876  0.74721687  1
  Al  Al168  1  0.36516603  0.13772062  0.25366124  1
  Al  Al169  1  0.37139675  0.13840513  0.74711886  1
  Al  Al170  1  0.36258489  0.62665515  0.25047592  1
  Al  Al171  1  0.37168121  0.63423622  0.75004423  1
  Al  Al172  1  0.86337908  0.13602104  0.25094914  1
  Al  Al173  1  0.86792742  0.13062869  0.74749866  1
  Al  Al174  1  0.86659773  0.63321891  0.25868688  1
  Al  Al175  1  0.86453684  0.62959100  0.74380765  1
  Al  Al176  1  0.13622567  0.36538745  0.25199391  1
  Al  Al177  1  0.13170767  0.37000524  0.74932942  1
  Al  Al178  1  0.13371700  0.86306833  0.25069046  1
  Al  Al179  1  0.13221609  0.86357119  0.75034581  1
  Al  Al180  1  0.63118814  0.37088977  0.25164857  1
  Al  Al181  1  0.63792471  0.37305550  0.75029900  1
  Al  Al182  1  0.63705329  0.86356591  0.25076231  1
  Al  Al183  1  0.63633789  0.86503695  0.74552766  1
  Al  Al184  1  0.36814707  0.37072355  0.25201330  1
  Al  Al185  1  0.36584491  0.36332257  0.75263075  1
  Al  Al186  1  0.36232523  0.86487714  0.25362896  1
  Al  Al187  1  0.36379111  0.86388665  0.75151218  1
  Al  Al188  1  0.86355115  0.36955933  0.25261346  1
  Al  Al189  1  0.87044945  0.36680197  0.74748427  1
  Al  Al190  1  0.86289748  0.86157307  0.25367916  1
  Al  Al191  1  0.86206825  0.86895734  0.74525903  1
  Al  Al192  1  -0.00008990  0.32431817  0.32770833  1
  Al  Al193  1  0.82692092  0.32592500  0.50060002  1
  Al  Al194  1  0.17242530  0.68095548  0.50046091  1
  Al  Al195  1  0.49851014  0.82272157  0.18237480  1
  Al  Al196  1  0.17278882  0.32899519  0.49977773  1
  Al  Al197  1  0.32818675  0.82869697  -0.00004897  1
  Al  Al198  1  0.18278360  -0.00022493  0.31754928  1
  Al  Al199  1  0.50046592  0.67838059  0.32333629  1
  Al  Al200  1  0.82448997  0.82740686  -0.00133776  1
  Al  Al201  1  0.18086451  0.17368017  0.49925887  1
  Al  Al202  1  0.31181740  0.00209903  0.82583806  1
  Al  Al203  1  0.82406073  0.17710566  -0.00499859  1
  Al  Al204  1  0.32817883  0.66544363  0.50096127  1
  Al  Al205  1  0.32780539  0.00073156  0.66974917  1
  Al  Al206  1  -0.00326100  0.82680916  0.82009358  1
  Al  Al207  1  0.19062429  0.49937853  0.19347471  1
  Al  Al208  1  0.69310242  0.00023235  0.80655267  1
  Al  Al209  1  0.67409797  0.67913305  -0.00129620  1
  Al  Al210  1  0.50128168  0.17749701  0.17484217  1
  Al  Al211  1  0.17190410  0.00171478  0.68989048  1
  Al  Al212  1  -0.00142260  0.66681264  0.18415787  1
  Al  Al213  1  0.17334140  0.32221263  -0.00088241  1
  Al  Al214  1  0.67837271  -0.00082983  0.31279802  1
  Al  Al215  1  0.32643694  0.32067827  -0.00061760  1
  Al  Al216  1  0.49973826  0.66851658  0.17095733  1
  Al  Al217  1  -0.00059525  0.17356231  0.17905889  1
  Al  Al218  1  0.82875403  -0.00091033  0.33000760  1
  Al  Al219  1  0.31712097  0.00149792  0.18168939  1
  Al  Al220  1  0.50103836  0.31696887  0.67970875  1
  Al  Al221  1  0.82602678  0.67093232  -0.00264074  1
  Al  Al222  1  0.67449586  0.32765329  -0.00297275  1
  Al  Al223  1  0.68780479  0.68011178  0.50097270  1
  Al  Al224  1  -0.00251494  0.66954159  0.81271325  1
  Al  Al225  1  0.81222267  -0.00038541  0.17736961  1
  Al  Al226  1  0.32130567  0.67403349  0.00096521  1
  Al  Al227  1  0.49956659  0.81304077  0.66678859  1
  Al  Al228  1  -0.00176706  0.82442772  0.18054533  1
  Al  Al229  1  0.32488465  0.49828334  0.67226874  1
  Al  Al230  1  0.17212957  0.82121871  -0.00189979  1
  Al  Al231  1  0.31534236  0.49881879  0.82871716  1
  Al  Al232  1  0.82061315  0.32350237  -0.00262439  1
  Al  Al233  1  0.31970449  0.82426573  0.50171510  1
  Al  Al234  1  0.00001319  0.33001685  0.17305458  1
  Al  Al235  1  0.81975785  0.50105045  0.17714117  1
  Al  Al236  1  0.50004665  0.81791702  0.82466074  1
  Al  Al237  1  0.66740065  0.17209613  -0.00270044  1
  Al  Al238  1  0.67444258  0.17680259  0.50455404  1
  Au  Au239  1  0.65972962  0.82765229  -0.00087540  1
  Au  Au240  1  0.16764940  0.00001279  0.16930250  1
  Au  Au241  1  0.66785115  0.82878757  0.50164136  1
  Au  Au242  1  0.81675612  -0.00125424  0.68192031  1
  Au  Au243  1  0.83760603  0.50574118  0.34005383  1
  Au  Au244  1  0.49666650  0.33361252  0.33896487  1
  Au  Au245  1  0.50072574  0.34164589  0.16850911  1
  Au  Au246  1  0.82919598  0.33326048  -0.00218302  1
  Au  Au247  1  0.82644568  0.50011074  0.16163077  1
  Au  Au248  1  -0.00210854  0.17396037  0.67338897  1
  Au  Au249  1  0.83285124  0.16724418  -0.00403502  1
  Au  Au250  1  0.33977677  0.00048024  0.67379967  1
  Au  Au251  1  0.15831737  0.50120121  0.67303594  1
  Au  Au252  1  -0.00072381  0.67247888  0.16792408  1
  Au  Au253  1  0.50172985  0.33364815  0.82677792  1
  Au  Au254  1  0.50029838  0.82951623  0.67115927  1
  Au  Au255  1  0.67805726  0.49989512  0.82573742  1
  Au  Au256  1  0.83614677  0.33419266  0.50280388  1
  Au  Au257  1  0.83319968  0.81973418  0.50146472  1
  Au  Au258  1  0.34318487  0.67328065  0.50131994  1
  Au  Au259  1  0.83685971  0.82458884  -0.00291514  1
  Au  Au260  1  0.50134597  0.16629527  0.16934164  1
  Au  Au261  1  -0.00243927  0.66765736  0.82945945  1
  Au  Au262  1  0.17453025  0.65701464  -0.00121718  1
  Au  Au263  1  0.33022605  -0.00159225  0.33257991  1
  Au  Au264  1  0.82930061  0.16099147  0.50228346  1
  Au  Au265  1  0.00088159  0.33244912  0.82273797  1
  Au  Au266  1  0.16916370  0.00173954  0.67748902  1
  Au  Au267  1  0.66417547  0.17128815  0.50030894  1
  Au  Au268  1  0.33608294  0.50246439  0.66870777  1
  Au  Au269  1  -0.00058213  0.17551835  0.34361587  1
  Au  Au270  1  0.66321006  0.33250007  0.50653882  1
  Au  Au271  1  0.50100385  0.16397671  0.82134791  1
  Au  Au272  1  0.16802146  0.83312171  -0.00299851  1
  Au  Au273  1  -0.00332392  0.82663357  0.66982202  1
  Au  Au274  1  0.33581721  0.17190509  -0.00071492  1
  Au  Au275  1  0.50034260  0.82698614  0.33208637  1
  Au  Au276  1  0.32674070  0.49886888  0.83399875  1
  Au  Au277  1  0.50127134  0.66842484  0.82958729  1
  Au  Au278  1  0.66300403  0.50148944  0.32802469  1
  Au  Au279  1  0.17638284  0.16325416  0.50438031  1
  Au  Au280  1  0.33667759  0.17804231  0.50214359  1
  Au  Au281  1  0.16246982  0.17259800  -0.00751782  1
  Au  Au282  1  0.16910714  0.83224994  0.50055775  1
  Au  Au283  1  0.50098191  0.16152916  0.32876855  1
  Au  Au284  1  0.17479302  0.34165634  0.49993367  1
  Au  Au285  1  -0.00458928  0.17568389  0.16278543  1
  Au  Au286  1  -0.00153866  0.82899126  0.33049497  1
  Au  Au287  1  0.32062975  0.49933856  0.32170096  1
