# generated using pymatgen
data_Ca24Ti8Al207Au49
_symmetry_space_group_name_H-M   'P 1'
_cell_length_a   17.32509523
_cell_length_b   17.32216078
_cell_length_c   17.32557717
_cell_angle_alpha   90.00463887
_cell_angle_beta   90.00085178
_cell_angle_gamma   89.99973897
_symmetry_Int_Tables_number   1
_chemical_formula_structural   Ca24Ti8Al207Au49
_chemical_formula_sum   'Ca24 Ti8 Al207 Au49'
_cell_volume   5199.54577086
_cell_formula_units_Z   1
loop_
 _symmetry_equiv_pos_site_id
 _symmetry_equiv_pos_as_xyz
  1  'x, y, z'
loop_
 _atom_site_type_symbol
 _atom_site_label
 _atom_site_symmetry_multiplicity
 _atom_site_fract_x
 _atom_site_fract_y
 _atom_site_fract_z
 _atom_site_occupancy
  Ca  Ca0  1  0.25022287  0.00033561  0.00047362  1
  Ca  Ca1  1  0.25474251  0.00408885  0.50059871  1
  Ca  Ca2  1  0.25587795  0.50164947  -0.00184436  1
  Ca  Ca3  1  0.25282992  0.49652738  0.49937179  1
  Ca  Ca4  1  0.74748419  0.00147981  0.00097131  1
  Ca  Ca5  1  0.74747271  0.00121313  0.49932248  1
  Ca  Ca6  1  0.74804267  0.49737419  0.00084746  1
  Ca  Ca7  1  0.74647375  0.50110263  0.49791685  1
  Ca  Ca8  1  -0.00188979  0.24692275  -0.00069987  1
  Ca  Ca9  1  0.00126246  0.24600665  0.49901938  1
  Ca  Ca10  1  0.00667282  0.74886701  -0.00627247  1
  Ca  Ca11  1  -0.00371691  0.74619670  0.50570202  1
  Ca  Ca12  1  0.50172254  0.24887608  -0.00165061  1
  Ca  Ca13  1  0.49830214  0.24709158  0.50038299  1
  Ca  Ca14  1  0.49579325  0.74765510  -0.00223576  1
  Ca  Ca15  1  0.50267874  0.74411748  0.50257521  1
  Ca  Ca16  1  -0.00030740  0.00504272  0.24531596  1
  Ca  Ca17  1  0.00031212  -0.00157056  0.75505183  1
  Ca  Ca18  1  -0.00274606  0.49898691  0.24668541  1
  Ca  Ca19  1  -0.00113618  0.50452554  0.75115156  1
  Ca  Ca20  1  0.50279535  0.00179982  0.25296186  1
  Ca  Ca21  1  0.49975293  -0.00070444  0.75286186  1
  Ca  Ca22  1  0.50579562  0.50177912  0.24606442  1
  Ca  Ca23  1  0.50474602  0.50329351  0.75314732  1
  Ti  Ti24  1  0.25064563  0.25146808  0.24908430  1
  Ti  Ti25  1  0.25056148  0.25062621  0.75154892  1
  Ti  Ti26  1  0.25356109  0.74904446  0.24879267  1
  Ti  Ti27  1  0.25036859  0.74902681  0.75015739  1
  Ti  Ti28  1  0.74899122  0.24885293  0.25052532  1
  Ti  Ti29  1  0.74795013  0.24939600  0.74996513  1
  Ti  Ti30  1  0.74737925  0.75200484  0.25122021  1
  Ti  Ti31  1  0.74995359  0.75015414  0.74901464  1
  Al  Al32  1  0.08327100  0.08583898  0.07900870  1
  Al  Al33  1  0.08350327  0.08796568  0.57900073  1
  Al  Al34  1  0.09234264  0.58446006  0.07202524  1
  Al  Al35  1  0.07536141  0.59315438  0.59009994  1
  Al  Al36  1  0.58140681  0.08269172  0.08094236  1
  Al  Al37  1  0.58512630  0.08546324  0.58097484  1
  Al  Al38  1  0.57459900  0.58297839  0.09167780  1
  Al  Al39  1  0.58679532  0.58845615  0.59958526  1
  Al  Al40  1  0.41476127  0.42405729  0.09196563  1
  Al  Al41  1  0.41861687  0.41826513  0.57521214  1
  Al  Al42  1  0.41950547  0.91196807  0.07875968  1
  Al  Al43  1  0.42416853  0.91139810  0.59306451  1
  Al  Al44  1  0.90995411  0.41689982  0.08920064  1
  Al  Al45  1  0.91630849  0.42587526  0.57586043  1
  Al  Al46  1  0.91743091  0.92689895  0.08988381  1
  Al  Al47  1  0.91829789  0.91227877  0.58369376  1
  Al  Al48  1  0.41433697  0.09044427  0.42172911  1
  Al  Al49  1  0.41741496  0.08802776  0.91218098  1
  Al  Al50  1  0.42484357  0.59018513  0.41102219  1
  Al  Al51  1  0.42071371  0.59363379  0.91817990  1
  Al  Al52  1  0.91602756  0.08310172  0.41646689  1
  Al  Al53  1  0.91749250  0.08177101  0.92424229  1
  Al  Al54  1  0.90284826  0.58129030  0.42548610  1
  Al  Al55  1  0.91916240  0.58223172  0.91502185  1
  Al  Al56  1  0.07831452  0.41357586  0.42077679  1
  Al  Al57  1  0.08181722  0.41979220  0.92218766  1
  Al  Al58  1  0.07511893  0.92625280  0.42108985  1
  Al  Al59  1  0.08511026  0.90625415  0.91514911  1
  Al  Al60  1  0.57574215  0.41055899  0.41283542  1
  Al  Al61  1  0.59103493  0.42056193  0.91428602  1
  Al  Al62  1  0.57991824  0.91534088  0.41451863  1
  Al  Al63  1  0.57948634  0.92191854  0.89925428  1
  Al  Al64  1  0.08559750  0.08764893  0.42107217  1
  Al  Al65  1  0.09007005  0.08751874  0.92216398  1
  Al  Al66  1  0.07632137  0.57601516  0.43234797  1
  Al  Al67  1  0.08840692  0.59515676  0.91591300  1
  Al  Al68  1  0.58513889  0.08964072  0.42228799  1
  Al  Al69  1  0.58137663  0.08373915  0.90666587  1
  Al  Al70  1  0.58130046  0.59003198  0.41233858  1
  Al  Al71  1  0.58310029  0.58408143  0.89975251  1
  Al  Al72  1  0.41849466  0.40428493  0.41540106  1
  Al  Al73  1  0.42507353  0.42226756  0.92114191  1
  Al  Al74  1  0.42510781  0.91775140  0.41555280  1
  Al  Al75  1  0.41932336  0.91102514  0.90842590  1
  Al  Al76  1  0.91198648  0.42084974  0.41563416  1
  Al  Al77  1  0.91320011  0.42298156  0.91998111  1
  Al  Al78  1  0.91351383  0.91906184  0.41708486  1
  Al  Al79  1  0.92701755  0.91487348  0.90917006  1
  Al  Al80  1  0.08254431  0.41726557  0.08150430  1
  Al  Al81  1  0.08307648  0.42237990  0.57852735  1
  Al  Al82  1  0.08165699  0.91519181  0.07469830  1
  Al  Al83  1  0.07577969  0.91761680  0.58799557  1
  Al  Al84  1  0.58320750  0.41908821  0.08063944  1
  Al  Al85  1  0.58818458  0.42718816  0.58892073  1
  Al  Al86  1  0.57769896  0.91958619  0.08753204  1
  Al  Al87  1  0.57846903  0.91018125  0.59230097  1
  Al  Al88  1  0.42003251  0.08752412  0.07418568  1
  Al  Al89  1  0.41663688  0.08800429  0.58051078  1
  Al  Al90  1  0.41091587  0.58825490  0.09061513  1
  Al  Al91  1  0.42576741  0.58961630  0.59235854  1
  Al  Al92  1  0.91038135  0.08395395  0.08551856  1
  Al  Al93  1  0.92154434  0.08653298  0.57901796  1
  Al  Al94  1  0.91091627  0.57230960  0.07912868  1
  Al  Al95  1  0.91274877  0.59544914  0.58745911  1
  Al  Al96  1  0.24776707  0.13771340  0.13254286  1
  Al  Al97  1  0.25467698  0.13265997  0.63648571  1
  Al  Al98  1  0.25429809  0.63054933  0.13595733  1
  Al  Al99  1  0.25182152  0.63623289  0.63924312  1
  Al  Al100  1  0.74910307  0.12944621  0.13626809  1
  Al  Al101  1  0.74902447  0.13420520  0.63021697  1
  Al  Al102  1  0.74790813  0.63741038  0.13607171  1
  Al  Al103  1  0.74690705  0.63616100  0.63260767  1
  Al  Al104  1  0.25262934  0.37114216  0.13625199  1
  Al  Al105  1  0.24851519  0.36638876  0.63748430  1
  Al  Al106  1  0.25210422  0.85965613  0.13282122  1
  Al  Al107  1  0.25390026  0.86533845  0.63987050  1
  Al  Al108  1  0.75244937  0.36516691  0.13776887  1
  Al  Al109  1  0.74513162  0.36757070  0.63639546  1
  Al  Al110  1  0.75071258  0.87161401  0.13713937  1
  Al  Al111  1  0.74982786  0.86504572  0.63550008  1
  Al  Al112  1  0.25282998  0.13817018  0.36470020  1
  Al  Al113  1  0.24849779  0.13676522  0.86616132  1
  Al  Al114  1  0.25370935  0.63380290  0.36281250  1
  Al  Al115  1  0.24866601  0.63343773  0.86221781  1
  Al  Al116  1  0.74905151  0.13242166  0.36976099  1
  Al  Al117  1  0.74380326  0.13364084  0.86528202  1
  Al  Al118  1  0.74782460  0.63643760  0.36960542  1
  Al  Al119  1  0.74530378  0.63911640  0.86143628  1
  Al  Al120  1  0.25193377  0.36631656  0.36185348  1
  Al  Al121  1  0.24996693  0.36862252  0.86702219  1
  Al  Al122  1  0.25604871  0.86258370  0.36282354  1
  Al  Al123  1  0.25075220  0.86119066  0.86236989  1
  Al  Al124  1  0.74850107  0.36407045  0.36358332  1
  Al  Al125  1  0.74687032  0.36385935  0.86385186  1
  Al  Al126  1  0.74750358  0.87135675  0.36588586  1
  Al  Al127  1  0.74135975  0.86502506  0.85921058  1
  Al  Al128  1  0.13572204  0.25035494  0.13330400  1
  Al  Al129  1  0.13661576  0.25066981  0.63838755  1
  Al  Al130  1  0.13868502  0.74639721  0.13391626  1
  Al  Al131  1  0.13298330  0.74831073  0.63792889  1
  Al  Al132  1  0.63751202  0.24922086  0.13533360  1
  Al  Al133  1  0.63577579  0.24808828  0.63445888  1
  Al  Al134  1  0.62812770  0.74643360  0.13779342  1
  Al  Al135  1  0.63230278  0.74903888  0.63489522  1
  Al  Al136  1  0.13571235  0.25478115  0.36427790  1
  Al  Al137  1  0.12997697  0.24899163  0.86324511  1
  Al  Al138  1  0.13489985  0.74820900  0.36167572  1
  Al  Al139  1  0.13027486  0.74772771  0.86076366  1
  Al  Al140  1  0.63519712  0.25014218  0.36581794  1
  Al  Al141  1  0.62913371  0.24816976  0.86143698  1
  Al  Al142  1  0.63659277  0.74859940  0.37080494  1
  Al  Al143  1  0.62508645  0.74709102  0.86113050  1
  Al  Al144  1  0.36450542  0.25454250  0.13384566  1
  Al  Al145  1  0.36602407  0.24938417  0.63690340  1
  Al  Al146  1  0.37296232  0.74634248  0.13537774  1
  Al  Al147  1  0.36984216  0.74945865  0.63452690  1
  Al  Al148  1  0.86333704  0.25050992  0.13614442  1
  Al  Al149  1  0.86196547  0.24796228  0.63663132  1
  Al  Al150  1  0.86001465  0.75288752  0.14038571  1
  Al  Al151  1  0.86602897  0.74524994  0.63385880  1
  Al  Al152  1  0.36682747  0.25124166  0.36457197  1
  Al  Al153  1  0.36987044  0.24965918  0.86477644  1
  Al  Al154  1  0.36895297  0.74387251  0.36551860  1
  Al  Al155  1  0.36987191  0.75000598  0.86280113  1
  Al  Al156  1  0.86204563  0.24727611  0.36326399  1
  Al  Al157  1  0.86691848  0.25004977  0.86290783  1
  Al  Al158  1  0.86228735  0.75030974  0.36337187  1
  Al  Al159  1  0.86688435  0.75052871  0.86216093  1
  Al  Al160  1  0.13757544  0.13716483  0.24994947  1
  Al  Al161  1  0.13686747  0.13318187  0.75274250  1
  Al  Al162  1  0.13711169  0.63339690  0.24462510  1
  Al  Al163  1  0.13007213  0.63236788  0.75171413  1
  Al  Al164  1  0.63610446  0.12935664  0.25165784  1
  Al  Al165  1  0.63485070  0.12975854  0.75305258  1
  Al  Al166  1  0.63334181  0.63659287  0.25322947  1
  Al  Al167  1  0.63295440  0.63577266  0.74820083  1
  Al  Al168  1  0.36541698  0.14008922  0.24917877  1
  Al  Al169  1  0.36594102  0.13643361  0.75327163  1
  Al  Al170  1  0.36967753  0.63252592  0.24543711  1
  Al  Al171  1  0.37123608  0.63740307  0.75197005  1
  Al  Al172  1  0.86241151  0.13046102  0.24882145  1
  Al  Al173  1  0.86184382  0.13348944  0.75312813  1
  Al  Al174  1  0.86406582  0.63460281  0.24885383  1
  Al  Al175  1  0.86955122  0.63617195  0.74991071  1
  Al  Al176  1  0.13068134  0.36524335  0.24540473  1
  Al  Al177  1  0.13601114  0.37059097  0.75482680  1
  Al  Al178  1  0.13817027  0.86223766  0.25016143  1
  Al  Al179  1  0.13267702  0.86669973  0.75229651  1
  Al  Al180  1  0.62968382  0.36233653  0.24949025  1
  Al  Al181  1  0.63446599  0.36860298  0.75057086  1
  Al  Al182  1  0.63470620  0.87054817  0.24813298  1
  Al  Al183  1  0.62913915  0.86301760  0.74802079  1
  Al  Al184  1  0.37281810  0.36280559  0.24823734  1
  Al  Al185  1  0.36588993  0.36552194  0.75587983  1
  Al  Al186  1  0.36874583  0.86256375  0.24726610  1
  Al  Al187  1  0.37243082  0.86029789  0.74993700  1
  Al  Al188  1  0.86945705  0.36400894  0.24948741  1
  Al  Al189  1  0.86280589  0.36676410  0.75259035  1
  Al  Al190  1  0.86328042  0.86970799  0.25292761  1
  Al  Al191  1  0.86491333  0.86575734  0.75163853  1
  Al  Al192  1  0.17057496  -0.00177472  0.17213698  1
  Al  Al193  1  0.50074807  0.18222977  0.17455915  1
  Al  Al194  1  0.82388205  0.31983538  0.50065190  1
  Al  Al195  1  0.17232487  0.83058066  0.49845191  1
  Al  Al196  1  0.00085957  0.82662468  0.17641026  1
  Al  Al197  1  0.00081087  0.17653863  0.32491980  1
  Al  Al198  1  0.32757342  0.49917949  0.67763306  1
  Al  Al199  1  0.17078760  0.50027894  0.31888006  1
  Al  Al200  1  0.81831404  0.81475845  0.49939120  1
  Al  Al201  1  0.00023309  0.17344688  0.68263569  1
  Al  Al202  1  0.66932008  0.49893080  0.32694893  1
  Al  Al203  1  0.81555297  -0.00133220  0.82417272  1
  Al  Al204  1  0.50105647  0.18122225  0.32794816  1
  Al  Al205  1  0.81700243  0.50181969  0.67538491  1
  Al  Al206  1  0.31295461  0.68085357  -0.00048246  1
  Al  Al207  1  0.82097805  0.50018999  0.31320254  1
  Al  Al208  1  0.50255381  0.81201845  0.31916903  1
  Al  Al209  1  0.18993386  0.18289957  0.50103418  1
  Al  Al210  1  0.32210042  -0.00103891  0.82103926  1
  Al  Al211  1  -0.00183377  0.33046325  0.67484591  1
  Al  Al212  1  0.18194119  0.80885220  -0.00202928  1
  Al  Al213  1  0.67972919  0.31781164  -0.00036048  1
  Al  Al214  1  0.50049721  0.32994293  0.68017398  1
  Al  Al215  1  0.50158209  0.17308755  0.68214667  1
  Al  Al216  1  0.81147872  0.50301323  0.82709901  1
  Al  Al217  1  0.18055611  0.67298122  0.50117713  1
  Al  Al218  1  0.33183059  0.82091338  0.50111244  1
  Al  Al219  1  0.82361895  0.67289237  -0.00161207  1
  Al  Al220  1  0.17690138  0.00317557  0.67604783  1
  Al  Al221  1  0.32855177  0.00099660  0.32768935  1
  Al  Al222  1  0.33453171  0.49809290  0.31683730  1
  Al  Al223  1  0.67496607  -0.00181263  0.67620933  1
  Al  Al224  1  0.66924944  0.83175982  -0.00475406  1
  Al  Al225  1  0.31558307  0.18203979  -0.00137169  1
  Al  Al226  1  0.17420658  0.00047780  0.32764022  1
  Al  Al227  1  0.32292834  0.00111644  0.17072889  1
  Al  Al228  1  0.68574645  0.50004408  0.17596825  1
  Al  Al229  1  0.81634960  0.18191334  0.00001143  1
  Al  Al230  1  0.31996385  0.31039083  0.50076644  1
  Al  Al231  1  0.18249790  0.31214864  -0.00086493  1
  Al  Al232  1  0.83387862  0.82940104  0.00102390  1
  Al  Al233  1  -0.00264370  0.67337585  0.33340582  1
  Al  Al234  1  0.67074602  0.32023158  0.50053000  1
  Al  Al235  1  -0.00132684  0.81040991  0.68736710  1
  Al  Al236  1  -0.00054887  0.17810731  0.17194068  1
  Al  Al237  1  -0.00192631  0.67266750  0.16643398  1
  Al  Al238  1  0.66742528  0.67066251  -0.00209681  1
  Au  Au239  1  0.50335618  0.32752440  0.83491864  1
  Au  Au240  1  0.82875272  0.50266776  0.66711439  1
  Au  Au241  1  0.34125801  0.33044759  0.00207383  1
  Au  Au242  1  0.34997209  0.49766399  0.32233790  1
  Au  Au243  1  -0.00326759  0.33624832  0.83489338  1
  Au  Au244  1  0.16125643  0.50137930  0.33275693  1
  Au  Au245  1  0.67186528  0.66044568  0.50278187  1
  Au  Au246  1  0.33040334  0.65763738  0.50103233  1
  Au  Au247  1  0.50231913  0.32676429  0.66813800  1
  Au  Au248  1  0.34145864  0.00118337  0.67320909  1
  Au  Au249  1  0.82817994  0.33190435  -0.00057391  1
  Au  Au250  1  0.66709804  0.33247748  0.50084381  1
  Au  Au251  1  0.83458345  0.00232632  0.32246181  1
  Au  Au252  1  0.17835469  0.50116911  0.15743468  1
  Au  Au253  1  -0.00232404  0.66966447  0.15053793  1
  Au  Au254  1  0.66738144  0.00277369  0.33571086  1
  Au  Au255  1  -0.00079237  0.32949709  0.16801290  1
  Au  Au256  1  0.66229867  -0.00112184  0.67945902  1
  Au  Au257  1  -0.00261656  0.32466173  0.65887098  1
  Au  Au258  1  0.65987198  0.82815633  0.50188141  1
  Au  Au259  1  0.83347629  0.00345450  0.66227484  1
  Au  Au260  1  0.65454240  0.83433488  -0.00948415  1
  Au  Au261  1  0.50242518  0.33275339  0.17298859  1
  Au  Au262  1  0.33842210  0.00617696  0.17198145  1
  Au  Au263  1  0.66559408  0.16741862  -0.00463917  1
  Au  Au264  1  0.32961500  0.82866388  -0.00510045  1
  Au  Au265  1  -0.00266322  0.82687269  0.68199726  1
  Au  Au266  1  0.00126414  0.84360440  0.32321222  1
  Au  Au267  1  0.16437357  0.50539571  0.66777003  1
  Au  Au268  1  0.17375602  -0.00248623  0.84136573  1
  Au  Au269  1  0.17469099  0.32970928  0.50111265  1
  Au  Au270  1  0.16713203  0.31911091  -0.00137435  1
  Au  Au271  1  0.33678863  0.49978296  0.66929485  1
  Au  Au272  1  0.82461822  -0.00166524  0.83866414  1
  Au  Au273  1  0.33904666  0.50498367  0.83297630  1
  Au  Au274  1  0.50069088  0.82178745  0.17207562  1
  Au  Au275  1  0.66389326  0.65946783  0.00229082  1
  Au  Au276  1  0.00020183  0.16247600  0.83250469  1
  Au  Au277  1  0.33770732  0.83203675  0.50089499  1
  Au  Au278  1  0.82737775  0.16998415  0.49979792  1
  Au  Au279  1  -0.00443610  0.66937203  0.34913416  1
  Au  Au280  1  0.83397695  0.82232652  0.49906363  1
  Au  Au281  1  -0.00524521  0.32482190  0.33858070  1
  Au  Au282  1  0.16867803  0.50150797  0.83702433  1
  Au  Au283  1  0.16822994  0.00116018  0.66708844  1
  Au  Au284  1  -0.00248838  0.67390387  0.82852139  1
  Au  Au285  1  0.15628701  0.82345020  0.49710781  1
  Au  Au286  1  0.84999989  0.82529732  0.00364858  1
  Au  Au287  1  0.67414588  0.00080054  0.16564843  1
