# generated using pymatgen
data_Ca24Ti8Al207Au49
_symmetry_space_group_name_H-M   'P 1'
_cell_length_a   17.31882744
_cell_length_b   17.31870525
_cell_length_c   17.31849890
_cell_angle_alpha   89.99398368
_cell_angle_beta   90.00300980
_cell_angle_gamma   89.99646679
_symmetry_Int_Tables_number   1
_chemical_formula_structural   Ca24Ti8Al207Au49
_chemical_formula_sum   'Ca24 Ti8 Al207 Au49'
_cell_volume   5194.50476036
_cell_formula_units_Z   1
loop_
 _symmetry_equiv_pos_site_id
 _symmetry_equiv_pos_as_xyz
  1  'x, y, z'
loop_
 _atom_site_type_symbol
 _atom_site_label
 _atom_site_symmetry_multiplicity
 _atom_site_fract_x
 _atom_site_fract_y
 _atom_site_fract_z
 _atom_site_occupancy
  Ca  Ca0  1  0.25972209  0.00102751  -0.00480083  1
  Ca  Ca1  1  0.25039226  0.00211321  0.50628590  1
  Ca  Ca2  1  0.25122012  0.49714624  -0.00143033  1
  Ca  Ca3  1  0.24836956  0.49533398  0.49971668  1
  Ca  Ca4  1  0.74369097  -0.00890129  -0.00083674  1
  Ca  Ca5  1  0.75158178  0.00178867  0.50354053  1
  Ca  Ca6  1  0.74739063  0.50167580  -0.00127330  1
  Ca  Ca7  1  0.75362237  0.50088183  0.50370247  1
  Ca  Ca8  1  0.00426055  0.24723358  -0.00619282  1
  Ca  Ca9  1  -0.00079745  0.24896791  0.50442415  1
  Ca  Ca10  1  -0.00027684  0.75788543  -0.00014530  1
  Ca  Ca11  1  -0.00026670  0.74698065  0.50199906  1
  Ca  Ca12  1  0.49856986  0.24057744  -0.00255140  1
  Ca  Ca13  1  0.50073913  0.24747023  0.50174759  1
  Ca  Ca14  1  0.50159050  0.76153362  -0.00120676  1
  Ca  Ca15  1  0.50257122  0.74849597  0.49893042  1
  Ca  Ca16  1  -0.00496118  -0.00383708  0.24615714  1
  Ca  Ca17  1  -0.00190369  -0.00182975  0.75116204  1
  Ca  Ca18  1  0.00227817  0.50343674  0.25965370  1
  Ca  Ca19  1  -0.00314311  0.50280830  0.74130668  1
  Ca  Ca20  1  0.50457396  -0.00206164  0.24413070  1
  Ca  Ca21  1  0.49729813  -0.00003889  0.75692518  1
  Ca  Ca22  1  0.49893772  0.49982060  0.25585739  1
  Ca  Ca23  1  0.50275372  0.49931960  0.74715259  1
  Ti  Ti24  1  0.25016360  0.24982983  0.24790853  1
  Ti  Ti25  1  0.25199706  0.24796153  0.75284291  1
  Ti  Ti26  1  0.25142621  0.75122406  0.25034730  1
  Ti  Ti27  1  0.24995555  0.75288305  0.75175936  1
  Ti  Ti28  1  0.74953335  0.24739520  0.25114176  1
  Ti  Ti29  1  0.74793236  0.24618953  0.74931284  1
  Ti  Ti30  1  0.75029303  0.75141303  0.25019063  1
  Ti  Ti31  1  0.74926972  0.75295191  0.75016563  1
  Al  Al32  1  0.08465202  0.07763263  0.06828019  1
  Al  Al33  1  0.08090227  0.08578633  0.59913524  1
  Al  Al34  1  0.07915586  0.57727360  0.09757342  1
  Al  Al35  1  0.07068471  0.58157067  0.58628557  1
  Al  Al36  1  0.58629646  0.07248032  0.08838929  1
  Al  Al37  1  0.58845950  0.08126491  0.59083605  1
  Al  Al38  1  0.57728078  0.58959690  0.08051876  1
  Al  Al39  1  0.58307476  0.58488989  0.57982722  1
  Al  Al40  1  0.41546696  0.40792293  0.08029457  1
  Al  Al41  1  0.42456034  0.40992164  0.58692758  1
  Al  Al42  1  0.42391201  0.91494327  0.07890025  1
  Al  Al43  1  0.41376841  0.92388610  0.59896059  1
  Al  Al44  1  0.92936257  0.42472708  0.07584963  1
  Al  Al45  1  0.91501155  0.41134464  0.58110910  1
  Al  Al46  1  0.90566481  0.90419346  0.08068806  1
  Al  Al47  1  0.91354688  0.91830817  0.60115987  1
  Al  Al48  1  0.42127959  0.08527276  0.42364705  1
  Al  Al49  1  0.41182583  0.08414642  0.90862692  1
  Al  Al50  1  0.42201028  0.58957669  0.41162128  1
  Al  Al51  1  0.42235817  0.58475633  0.91613360  1
  Al  Al52  1  0.91025314  0.07704196  0.42153983  1
  Al  Al53  1  0.90352809  0.07310943  0.91073029  1
  Al  Al54  1  0.91373122  0.59187015  0.41803678  1
  Al  Al55  1  0.91818275  0.58570763  0.91447719  1
  Al  Al56  1  0.09145303  0.42120304  0.41709270  1
  Al  Al57  1  0.09386266  0.41137176  0.92321295  1
  Al  Al58  1  0.07170030  0.92080504  0.41539030  1
  Al  Al59  1  0.08291964  0.92296730  0.90583502  1
  Al  Al60  1  0.58461414  0.41815044  0.42677740  1
  Al  Al61  1  0.57750965  0.41738711  0.91557816  1
  Al  Al62  1  0.59064416  0.92244819  0.40110863  1
  Al  Al63  1  0.58740612  0.91046702  0.91412634  1
  Al  Al64  1  0.08063105  0.08034021  0.43091717  1
  Al  Al65  1  0.09505954  0.08104173  0.90958823  1
  Al  Al66  1  0.07577763  0.58329877  0.40615483  1
  Al  Al67  1  0.07620282  0.57541052  0.91189335  1
  Al  Al68  1  0.58643393  0.08128357  0.40905068  1
  Al  Al69  1  0.57606609  0.08011752  0.91013177  1
  Al  Al70  1  0.58119324  0.59268691  0.41569728  1
  Al  Al71  1  0.58052742  0.58419537  0.91538347  1
  Al  Al72  1  0.41770239  0.42271723  0.42323987  1
  Al  Al73  1  0.41565933  0.40840254  0.91696930  1
  Al  Al74  1  0.42753841  0.92045624  0.41208906  1
  Al  Al75  1  0.41489778  0.91656392  0.91232740  1
  Al  Al76  1  0.91135173  0.42075234  0.42476919  1
  Al  Al77  1  0.92239746  0.42668647  0.91908851  1
  Al  Al78  1  0.91212565  0.91793673  0.41073093  1
  Al  Al79  1  0.89958989  0.91352182  0.91425968  1
  Al  Al80  1  0.09678155  0.41633591  0.08101478  1
  Al  Al81  1  0.08069147  0.41684309  0.57828177  1
  Al  Al82  1  0.06921003  0.91277579  0.08622976  1
  Al  Al83  1  0.07653724  0.92362572  0.60490904  1
  Al  Al84  1  0.57183619  0.41374539  0.07997517  1
  Al  Al85  1  0.58464611  0.40769932  0.58693888  1
  Al  Al86  1  0.58938231  0.90969572  0.09015253  1
  Al  Al87  1  0.58553368  0.92277705  0.59439813  1
  Al  Al88  1  0.41704324  0.08126354  0.07290857  1
  Al  Al89  1  0.40890403  0.08270851  0.58984542  1
  Al  Al90  1  0.42061910  0.58675629  0.08319957  1
  Al  Al91  1  0.42549348  0.58130571  0.57677748  1
  Al  Al92  1  0.91065060  0.06690716  0.07187849  1
  Al  Al93  1  0.91519863  0.08392004  0.59640138  1
  Al  Al94  1  0.92420244  0.59116073  0.08367518  1
  Al  Al95  1  0.91096501  0.59495011  0.58008237  1
  Al  Al96  1  0.24833458  0.13411501  0.12651194  1
  Al  Al97  1  0.25177458  0.12809797  0.64299663  1
  Al  Al98  1  0.25084086  0.63975148  0.13907131  1
  Al  Al99  1  0.25080395  0.63999309  0.63909439  1
  Al  Al100  1  0.74746032  0.12415748  0.13618722  1
  Al  Al101  1  0.74907928  0.13282611  0.63112103  1
  Al  Al102  1  0.74792295  0.64160283  0.13604169  1
  Al  Al103  1  0.75412543  0.63990513  0.63477593  1
  Al  Al104  1  0.25117141  0.36277063  0.12672096  1
  Al  Al105  1  0.25223273  0.36324883  0.63690226  1
  Al  Al106  1  0.25439651  0.86230268  0.13276620  1
  Al  Al107  1  0.24963871  0.87253655  0.64078933  1
  Al  Al108  1  0.74323574  0.36097271  0.13358972  1
  Al  Al109  1  0.75222954  0.36174489  0.63442880  1
  Al  Al110  1  0.74851679  0.86747701  0.13584303  1
  Al  Al111  1  0.75145188  0.87223427  0.63711988  1
  Al  Al112  1  0.25228809  0.13072174  0.36435555  1
  Al  Al113  1  0.25412731  0.13239568  0.86929784  1
  Al  Al114  1  0.24710495  0.63157725  0.36037250  1
  Al  Al115  1  0.24943531  0.63459473  0.86373892  1
  Al  Al116  1  0.74763991  0.13363512  0.37171614  1
  Al  Al117  1  0.74781745  0.12312959  0.86061119  1
  Al  Al118  1  0.75141917  0.63888934  0.36399415  1
  Al  Al119  1  0.75054374  0.63979957  0.86419996  1
  Al  Al120  1  0.25062318  0.37030779  0.36321139  1
  Al  Al121  1  0.25378899  0.36390411  0.86992521  1
  Al  Al122  1  0.25284800  0.87013701  0.35950819  1
  Al  Al123  1  0.25595654  0.86761583  0.86481448  1
  Al  Al124  1  0.75023688  0.36476860  0.36598548  1
  Al  Al125  1  0.74490270  0.36064982  0.86410479  1
  Al  Al126  1  0.74640347  0.86373805  0.36351791  1
  Al  Al127  1  0.74858779  0.87344772  0.86001160  1
  Al  Al128  1  0.13784771  0.25123442  0.12698380  1
  Al  Al129  1  0.13614261  0.24479239  0.63811920  1
  Al  Al130  1  0.12900440  0.75322679  0.13568645  1
  Al  Al131  1  0.13122056  0.75332926  0.63779060  1
  Al  Al132  1  0.63697431  0.24118675  0.13005008  1
  Al  Al133  1  0.63245658  0.24584370  0.63580823  1
  Al  Al134  1  0.63145584  0.75760391  0.13399022  1
  Al  Al135  1  0.63674172  0.75619239  0.63825189  1
  Al  Al136  1  0.13240258  0.24777412  0.36475909  1
  Al  Al137  1  0.13886762  0.24661486  0.87025038  1
  Al  Al138  1  0.13407112  0.74697690  0.36648711  1
  Al  Al139  1  0.13240753  0.75677538  0.86246899  1
  Al  Al140  1  0.63575660  0.24602357  0.36443199  1
  Al  Al141  1  0.63466981  0.24100296  0.86684983  1
  Al  Al142  1  0.62882050  0.75244184  0.36164220  1
  Al  Al143  1  0.63123521  0.75982164  0.86398392  1
  Al  Al144  1  0.36271492  0.24638643  0.12723650  1
  Al  Al145  1  0.36600820  0.24799661  0.63942738  1
  Al  Al146  1  0.36914025  0.75407205  0.13398961  1
  Al  Al147  1  0.36367734  0.75699890  0.63946867  1
  Al  Al148  1  0.86360680  0.25183809  0.13629431  1
  Al  Al149  1  0.86385246  0.24562969  0.63345420  1
  Al  Al150  1  0.86966876  0.75500890  0.13612629  1
  Al  Al151  1  0.87000331  0.75295221  0.63908956  1
  Al  Al152  1  0.36156537  0.25106485  0.36501453  1
  Al  Al153  1  0.36732119  0.24554557  0.87029258  1
  Al  Al154  1  0.37065191  0.75261437  0.36274704  1
  Al  Al155  1  0.37174424  0.75679652  0.86438799  1
  Al  Al156  1  0.86280395  0.24956285  0.37387335  1
  Al  Al157  1  0.86115487  0.24125376  0.86215425  1
  Al  Al158  1  0.86617764  0.74815477  0.36699146  1
  Al  Al159  1  0.86433362  0.75920049  0.86523577  1
  Al  Al160  1  0.13793874  0.13558447  0.25187336  1
  Al  Al161  1  0.13405044  0.13297748  0.74974950  1
  Al  Al162  1  0.12993337  0.63847373  0.24969085  1
  Al  Al163  1  0.13235114  0.63684986  0.74857326  1
  Al  Al164  1  0.63740477  0.12934018  0.24933341  1
  Al  Al165  1  0.63511598  0.12705495  0.74841501  1
  Al  Al166  1  0.63416363  0.63581089  0.25304749  1
  Al  Al167  1  0.63572048  0.63916556  0.75232320  1
  Al  Al168  1  0.36215459  0.13580514  0.24568751  1
  Al  Al169  1  0.36598786  0.13013741  0.75602756  1
  Al  Al170  1  0.36919029  0.63624163  0.25600992  1
  Al  Al171  1  0.36736160  0.63641409  0.75580999  1
  Al  Al172  1  0.86129154  0.13478071  0.25436598  1
  Al  Al173  1  0.86190266  0.12769756  0.74479378  1
  Al  Al174  1  0.87117385  0.63965350  0.24935744  1
  Al  Al175  1  0.86791040  0.63912645  0.74814331  1
  Al  Al176  1  0.13598712  0.36319744  0.25350127  1
  Al  Al177  1  0.14032125  0.36150065  0.75312437  1
  Al  Al178  1  0.13420185  0.86483129  0.24958433  1
  Al  Al179  1  0.13147274  0.86843370  0.74896303  1
  Al  Al180  1  0.63583984  0.36364859  0.25288324  1
  Al  Al181  1  0.63306985  0.36070621  0.74704074  1
  Al  Al182  1  0.63278190  0.86752730  0.24662509  1
  Al  Al183  1  0.63275789  0.87262128  0.75015035  1
  Al  Al184  1  0.36382347  0.36333879  0.24896013  1
  Al  Al185  1  0.36641636  0.36482589  0.75227589  1
  Al  Al186  1  0.37322512  0.86471509  0.24960549  1
  Al  Al187  1  0.36803410  0.87055859  0.75339041  1
  Al  Al188  1  0.86679943  0.36158729  0.25320412  1
  Al  Al189  1  0.86207437  0.36039321  0.74977205  1
  Al  Al190  1  0.86583332  0.86685952  0.24689820  1
  Al  Al191  1  0.86511731  0.87025669  0.74975736  1
  Al  Al192  1  0.49978074  0.31366678  0.17771312  1
  Al  Al193  1  0.32877155  0.83069436  0.49829069  1
  Al  Al194  1  0.49903002  0.17559355  0.31644647  1
  Al  Al195  1  0.16672231  0.83520530  0.50495148  1
  Al  Al196  1  0.81638277  0.17079996  -0.00097774  1
  Al  Al197  1  0.50023357  0.32931674  0.33133625  1
  Al  Al198  1  0.67442149  0.50119423  0.67276048  1
  Al  Al199  1  -0.00103813  0.17347206  0.33157546  1
  Al  Al200  1  0.82773079  0.50106598  0.16957744  1
  Al  Al201  1  0.18348414  0.31723103  0.50008766  1
  Al  Al202  1  0.32875096  -0.00225477  0.17484239  1
  Al  Al203  1  0.17521921  0.49945832  0.18983701  1
  Al  Al204  1  0.00096423  0.32836703  0.82761348  1
  Al  Al205  1  0.68524436  0.67707964  0.50018324  1
  Al  Al206  1  0.50067503  0.68975955  0.18645976  1
  Al  Al207  1  0.17305244  0.49967918  0.67794330  1
  Al  Al208  1  0.00441531  0.32799548  0.17701007  1
  Al  Al209  1  0.17974404  0.83132891  -0.00085925  1
  Al  Al210  1  0.82809761  0.50059704  0.67186717  1
  Al  Al211  1  0.67303435  0.49961813  0.82563026  1
  Al  Al212  1  0.16906964  0.67076445  0.00205259  1
  Al  Al213  1  0.32664989  0.68707534  -0.00209254  1
  Al  Al214  1  0.32632135  0.67514768  0.49927363  1
  Al  Al215  1  0.17152395  0.66720901  0.50181594  1
  Al  Al216  1  0.00005669  0.81219284  0.31670785  1
  Al  Al217  1  0.67353333  0.83273560  0.50056524  1
  Al  Al218  1  -0.00449655  0.16734087  0.81691340  1
  Al  Al219  1  0.17133561  -0.00039801  0.18000140  1
  Al  Al220  1  0.00066747  0.31597245  0.67229817  1
  Al  Al221  1  0.31760739  0.17848385  0.50234647  1
  Al  Al222  1  0.32975960  0.49957801  0.17849174  1
  Al  Al223  1  0.00067987  0.68340869  0.82161292  1
  Al  Al224  1  0.80953678  -0.00052072  0.31850015  1
  Al  Al225  1  0.68578060  0.31705455  0.50069651  1
  Al  Al226  1  0.49843894  0.17977219  0.68509879  1
  Al  Al227  1  0.50158646  0.30981111  0.81596365  1
  Al  Al228  1  -0.00173397  0.16606813  0.16854274  1
  Al  Al229  1  0.33137029  0.50191782  0.67426638  1
  Al  Al230  1  0.82138296  0.50265982  0.32752479  1
  Al  Al231  1  0.82706051  0.69100630  0.00149415  1
  Al  Al232  1  0.83211388  0.81525340  0.50420529  1
  Al  Al233  1  0.82393758  0.33042415  -0.00157236  1
  Al  Al234  1  0.19135991  -0.00023198  0.80926670  1
  Al  Al235  1  0.66749248  0.49910052  0.17764233  1
  Al  Al236  1  0.67289365  0.69273969  -0.00196186  1
  Al  Al237  1  0.82425271  0.50055564  0.82453481  1
  Al  Al238  1  0.50031986  0.68496949  0.67753273  1
  Au  Au239  1  0.16839590  0.16685786  0.51033272  1
  Au  Au240  1  0.32390099  0.49888581  0.16247370  1
  Au  Au241  1  0.50152656  0.32478481  0.82363191  1
  Au  Au242  1  0.84404233  0.50167658  0.17623108  1
  Au  Au243  1  0.17669466  0.17249320  -0.00265756  1
  Au  Au244  1  0.50047325  0.67386934  0.17941314  1
  Au  Au245  1  0.15395550  0.84198727  0.51170625  1
  Au  Au246  1  0.66542692  0.16902359  0.49907237  1
  Au  Au247  1  0.17003804  -0.00260635  0.16338023  1
  Au  Au248  1  0.83807067  0.67787136  -0.00045024  1
  Au  Au249  1  0.49836151  0.16503173  0.16680315  1
  Au  Au250  1  -0.00513166  0.15407438  0.82609322  1
  Au  Au251  1  0.50088800  0.83574284  0.68022158  1
  Au  Au252  1  0.33595737  0.32600786  0.50117328  1
  Au  Au253  1  0.16354317  0.65429263  0.00371100  1
  Au  Au254  1  -0.00832162  0.16506915  0.15200499  1
  Au  Au255  1  0.83511888  0.17246288  0.50508180  1
  Au  Au256  1  0.49805671  0.16538450  0.67693915  1
  Au  Au257  1  0.66241035  0.49786846  0.16140530  1
  Au  Au258  1  0.32871579  0.50180096  0.66167876  1
  Au  Au259  1  0.82296334  -0.00358774  0.17049154  1
  Au  Au260  1  -0.00204440  0.82922030  0.31994210  1
  Au  Au261  1  0.16886175  0.84392285  -0.00177441  1
  Au  Au262  1  0.34252023  0.68064410  -0.00233531  1
  Au  Au263  1  0.34152185  0.00495561  0.32694944  1
  Au  Au264  1  -0.00526962  0.83671723  0.82421098  1
  Au  Au265  1  0.83779500  0.83036207  0.50479200  1
  Au  Au266  1  0.00056955  0.16120879  0.32936429  1
  Au  Au267  1  0.66466514  0.67734750  -0.00242282  1
  Au  Au268  1  0.66804268  -0.00146232  0.82365844  1
  Au  Au269  1  0.32497050  0.50273150  0.33970698  1
  Au  Au270  1  0.83979333  0.32342643  -0.00193324  1
  Au  Au271  1  0.17021729  0.65194426  0.49748843  1
  Au  Au272  1  0.32634555  0.32054628  -0.00126386  1
  Au  Au273  1  0.33259823  0.50002764  0.83673402  1
  Au  Au274  1  0.00422828  0.33490233  0.16649291  1
  Au  Au275  1  0.50271570  0.67426189  0.82545385  1
  Au  Au276  1  0.50319679  0.82890006  0.32104992  1
  Au  Au277  1  0.66097105  0.32852467  -0.00067497  1
  Au  Au278  1  0.00301747  0.67084225  0.82095238  1
  Au  Au279  1  -0.00283830  0.33767592  0.34078620  1
  Au  Au280  1  0.34449389  0.83063223  0.50242235  1
  Au  Au281  1  0.00223723  0.34295982  0.82182616  1
  Au  Au282  1  0.66092842  0.83155066  0.49998132  1
  Au  Au283  1  0.17132552  0.00091436  0.34100945  1
  Au  Au284  1  0.67163776  0.50224172  0.34414628  1
  Au  Au285  1  0.00100473  0.67893742  0.17739026  1
  Au  Au286  1  0.16771188  0.49740260  0.82735942  1
  Au  Au287  1  0.66832980  0.15535801  -0.00223386  1
