# generated using pymatgen
data_Ca24Ti8Al207Au49
_symmetry_space_group_name_H-M   'P 1'
_cell_length_a   17.32257054
_cell_length_b   17.32148273
_cell_length_c   17.32343069
_cell_angle_alpha   89.99737274
_cell_angle_beta   89.99678944
_cell_angle_gamma   90.00047777
_symmetry_Int_Tables_number   1
_chemical_formula_structural   Ca24Ti8Al207Au49
_chemical_formula_sum   'Ca24 Ti8 Al207 Au49'
_cell_volume   5197.94051557
_cell_formula_units_Z   1
loop_
 _symmetry_equiv_pos_site_id
 _symmetry_equiv_pos_as_xyz
  1  'x, y, z'
loop_
 _atom_site_type_symbol
 _atom_site_label
 _atom_site_symmetry_multiplicity
 _atom_site_fract_x
 _atom_site_fract_y
 _atom_site_fract_z
 _atom_site_occupancy
  Ca  Ca0  1  0.25077432  -0.00058322  -0.00013480  1
  Ca  Ca1  1  0.25211215  0.00020503  0.49989665  1
  Ca  Ca2  1  0.25146660  0.49860559  0.00010513  1
  Ca  Ca3  1  0.25800377  0.50248199  0.49979327  1
  Ca  Ca4  1  0.75410400  -0.00063074  0.00233044  1
  Ca  Ca5  1  0.74979525  -0.00141609  0.49893563  1
  Ca  Ca6  1  0.75072375  0.50017056  0.00021868  1
  Ca  Ca7  1  0.74686118  0.50220448  0.49807250  1
  Ca  Ca8  1  0.00195203  0.25016881  0.00055354  1
  Ca  Ca9  1  0.00215612  0.25069178  0.50135050  1
  Ca  Ca10  1  0.00395024  0.75191258  0.00291365  1
  Ca  Ca11  1  -0.00085166  0.74982642  0.49428673  1
  Ca  Ca12  1  0.49591421  0.25296363  -0.00265627  1
  Ca  Ca13  1  0.49972571  0.25579590  0.50250446  1
  Ca  Ca14  1  0.49864762  0.74912667  0.00081661  1
  Ca  Ca15  1  0.49776761  0.74340783  0.49935384  1
  Ca  Ca16  1  -0.00002450  -0.00130811  0.24933766  1
  Ca  Ca17  1  0.00398971  -0.00017759  0.75839833  1
  Ca  Ca18  1  -0.00086721  0.50026459  0.24805554  1
  Ca  Ca19  1  0.00260717  0.49987481  0.75267802  1
  Ca  Ca20  1  0.49857248  -0.00163292  0.25014093  1
  Ca  Ca21  1  0.49907598  0.00235005  0.75120189  1
  Ca  Ca22  1  0.50005653  0.50145279  0.25535672  1
  Ca  Ca23  1  0.49756388  0.49941604  0.74817854  1
  Ti  Ti24  1  0.25011365  0.24886213  0.24829511  1
  Ti  Ti25  1  0.25009970  0.24925612  0.75150828  1
  Ti  Ti26  1  0.25083525  0.75027881  0.24947625  1
  Ti  Ti27  1  0.25080313  0.75021159  0.75093361  1
  Ti  Ti28  1  0.75009454  0.24965575  0.25065773  1
  Ti  Ti29  1  0.74982143  0.25103938  0.75103327  1
  Ti  Ti30  1  0.74967321  0.75149405  0.25159884  1
  Ti  Ti31  1  0.74908156  0.74877248  0.74798789  1
  Al  Al32  1  0.09143081  0.08701862  0.07739905  1
  Al  Al33  1  0.08112275  0.08106004  0.57627972  1
  Al  Al34  1  0.08474759  0.58907190  0.07847867  1
  Al  Al35  1  0.08274502  0.58191524  0.57840304  1
  Al  Al36  1  0.58439907  0.07872212  0.07753420  1
  Al  Al37  1  0.57533323  0.09609763  0.58493168  1
  Al  Al38  1  0.59367267  0.58628870  0.08019866  1
  Al  Al39  1  0.57648942  0.58957853  0.58514404  1
  Al  Al40  1  0.40534293  0.41474403  0.08119138  1
  Al  Al41  1  0.41954019  0.41863505  0.58403410  1
  Al  Al42  1  0.40306303  0.91406676  0.08756887  1
  Al  Al43  1  0.41820220  0.90774998  0.57965179  1
  Al  Al44  1  0.90814017  0.42286200  0.08183187  1
  Al  Al45  1  0.91491010  0.41940366  0.57797047  1
  Al  Al46  1  0.92047317  0.92208542  0.07758944  1
  Al  Al47  1  0.92134705  0.90340969  0.58278365  1
  Al  Al48  1  0.41779392  0.07806257  0.42336695  1
  Al  Al49  1  0.41531419  0.09389129  0.91389968  1
  Al  Al50  1  0.41340891  0.58722537  0.41380508  1
  Al  Al51  1  0.41686683  0.58636387  0.91372392  1
  Al  Al52  1  0.92051081  0.08519115  0.40957622  1
  Al  Al53  1  0.91834225  0.09402438  0.91536624  1
  Al  Al54  1  0.91489645  0.59234201  0.41274423  1
  Al  Al55  1  0.91354726  0.58012187  0.92570298  1
  Al  Al56  1  0.08313095  0.42020995  0.41791268  1
  Al  Al57  1  0.09425481  0.41080795  0.91684948  1
  Al  Al58  1  0.07887336  0.91800844  0.41544497  1
  Al  Al59  1  0.08709516  0.90742180  0.91978600  1
  Al  Al60  1  0.58254036  0.41507794  0.42226523  1
  Al  Al61  1  0.57338389  0.41910099  0.91855747  1
  Al  Al62  1  0.59703950  0.91372768  0.41476551  1
  Al  Al63  1  0.57906404  0.91735581  0.92683021  1
  Al  Al64  1  0.07901973  0.08709644  0.40815272  1
  Al  Al65  1  0.08146709  0.09823524  0.91685512  1
  Al  Al66  1  0.07879982  0.58956958  0.41172164  1
  Al  Al67  1  0.09424453  0.57933406  0.92260778  1
  Al  Al68  1  0.59126933  0.07537454  0.41685721  1
  Al  Al69  1  0.57475797  0.09471576  0.91471739  1
  Al  Al70  1  0.57531140  0.58761728  0.41574369  1
  Al  Al71  1  0.58343665  0.59048701  0.92012896  1
  Al  Al72  1  0.41422574  0.42321483  0.41525264  1
  Al  Al73  1  0.40944281  0.40670228  0.91832032  1
  Al  Al74  1  0.41292451  0.91445737  0.42040124  1
  Al  Al75  1  0.40896749  0.91282822  0.92640558  1
  Al  Al76  1  0.91647832  0.42039280  0.41919826  1
  Al  Al77  1  0.91735840  0.41601190  0.91937790  1
  Al  Al78  1  0.91526720  0.91322811  0.41625493  1
  Al  Al79  1  0.92460633  0.91945559  0.91823856  1
  Al  Al80  1  0.09203098  0.41223050  0.07351504  1
  Al  Al81  1  0.08405637  0.42086067  0.58106137  1
  Al  Al82  1  0.09425014  0.91222226  0.07928262  1
  Al  Al83  1  0.07754231  0.90896736  0.58737587  1
  Al  Al84  1  0.58116532  0.42496922  0.08302081  1
  Al  Al85  1  0.58317719  0.40900063  0.58106030  1
  Al  Al86  1  0.58170553  0.91703064  0.08386914  1
  Al  Al87  1  0.58023296  0.90246355  0.57275257  1
  Al  Al88  1  0.40474714  0.07711802  0.08243337  1
  Al  Al89  1  0.42060120  0.09261343  0.59010643  1
  Al  Al90  1  0.41283953  0.57939972  0.08091479  1
  Al  Al91  1  0.41337925  0.58945704  0.58433563  1
  Al  Al92  1  0.91067440  0.08719065  0.07696087  1
  Al  Al93  1  0.92504951  0.07990927  0.57586950  1
  Al  Al94  1  0.90991701  0.58381775  0.08737837  1
  Al  Al95  1  0.90979292  0.58755507  0.57434774  1
  Al  Al96  1  0.24719381  0.13607060  0.12803448  1
  Al  Al97  1  0.25061326  0.13405629  0.63392787  1
  Al  Al98  1  0.24954603  0.63606395  0.13527365  1
  Al  Al99  1  0.25257981  0.63670268  0.63111963  1
  Al  Al100  1  0.75293308  0.13507863  0.13573653  1
  Al  Al101  1  0.74572013  0.13565459  0.63721534  1
  Al  Al102  1  0.75090672  0.63597751  0.13746349  1
  Al  Al103  1  0.74967353  0.63521681  0.62507859  1
  Al  Al104  1  0.24864978  0.36355931  0.13123560  1
  Al  Al105  1  0.24787462  0.36334775  0.63770727  1
  Al  Al106  1  0.25056273  0.86735855  0.13158243  1
  Al  Al107  1  0.25312465  0.86513549  0.63517813  1
  Al  Al108  1  0.75353245  0.36392662  0.13498781  1
  Al  Al109  1  0.74782851  0.36548218  0.63643320  1
  Al  Al110  1  0.74640767  0.86658955  0.13086612  1
  Al  Al111  1  0.74762803  0.86237457  0.62465060  1
  Al  Al112  1  0.25209600  0.13557062  0.37025671  1
  Al  Al113  1  0.25008198  0.13530061  0.87216005  1
  Al  Al114  1  0.25987137  0.63390471  0.36914658  1
  Al  Al115  1  0.24963315  0.63457353  0.86758310  1
  Al  Al116  1  0.74614059  0.12929896  0.36555748  1
  Al  Al117  1  0.75401868  0.13936337  0.86418532  1
  Al  Al118  1  0.75194897  0.63629464  0.37345507  1
  Al  Al119  1  0.74819570  0.63522018  0.86356190  1
  Al  Al120  1  0.25049138  0.36510903  0.36390215  1
  Al  Al121  1  0.25031652  0.35982254  0.87037048  1
  Al  Al122  1  0.25226354  0.86503969  0.36377213  1
  Al  Al123  1  0.24886509  0.86875690  0.86692285  1
  Al  Al124  1  0.74985823  0.36535045  0.36339056  1
  Al  Al125  1  0.75226621  0.36083344  0.86357331  1
  Al  Al126  1  0.74927828  0.86602722  0.37174866  1
  Al  Al127  1  0.74865619  0.86247463  0.86882569  1
  Al  Al128  1  0.13451676  0.24990632  0.13012413  1
  Al  Al129  1  0.13610396  0.24696533  0.63160066  1
  Al  Al130  1  0.13766295  0.74902008  0.12990827  1
  Al  Al131  1  0.13486005  0.75442154  0.63475690  1
  Al  Al132  1  0.63205438  0.24741593  0.13905717  1
  Al  Al133  1  0.63502694  0.25029246  0.63257906  1
  Al  Al134  1  0.63689976  0.74736833  0.13192367  1
  Al  Al135  1  0.63656983  0.74699097  0.62645598  1
  Al  Al136  1  0.13658799  0.24904923  0.36767887  1
  Al  Al137  1  0.13349656  0.24986682  0.86930766  1
  Al  Al138  1  0.13664139  0.74796457  0.36421871  1
  Al  Al139  1  0.13915156  0.75119581  0.86949243  1
  Al  Al140  1  0.63811068  0.25087353  0.36937147  1
  Al  Al141  1  0.62857540  0.24721426  0.86304485  1
  Al  Al142  1  0.63751571  0.74893244  0.37152597  1
  Al  Al143  1  0.63710857  0.74830391  0.87278798  1
  Al  Al144  1  0.36146728  0.25099657  0.12663878  1
  Al  Al145  1  0.36597142  0.24588968  0.63819066  1
  Al  Al146  1  0.36307673  0.75397571  0.13277989  1
  Al  Al147  1  0.36601108  0.74446326  0.63528208  1
  Al  Al148  1  0.86714792  0.24768811  0.13637712  1
  Al  Al149  1  0.86719595  0.24997027  0.63636090  1
  Al  Al150  1  0.86434486  0.75132492  0.13491857  1
  Al  Al151  1  0.86152744  0.75136762  0.62734114  1
  Al  Al152  1  0.36425599  0.24861709  0.36238432  1
  Al  Al153  1  0.36623568  0.24719000  0.86902286  1
  Al  Al154  1  0.36910357  0.74675080  0.36309394  1
  Al  Al155  1  0.36081365  0.75291725  0.86828673  1
  Al  Al156  1  0.86359697  0.24913086  0.36224679  1
  Al  Al157  1  0.87318285  0.24834088  0.86463584  1
  Al  Al158  1  0.86160163  0.74952101  0.37110091  1
  Al  Al159  1  0.86382585  0.75022258  0.86418273  1
  Al  Al160  1  0.13619493  0.13638075  0.24972522  1
  Al  Al161  1  0.13537029  0.13484122  0.75889544  1
  Al  Al162  1  0.13549407  0.63815884  0.25352464  1
  Al  Al163  1  0.13632061  0.63660174  0.74822790  1
  Al  Al164  1  0.63757412  0.12942986  0.25011329  1
  Al  Al165  1  0.63149989  0.13573057  0.74894705  1
  Al  Al166  1  0.63629967  0.63811310  0.25389804  1
  Al  Al167  1  0.63636997  0.63882270  0.74552708  1
  Al  Al168  1  0.35948065  0.12959579  0.24299758  1
  Al  Al169  1  0.36296476  0.13207958  0.75340854  1
  Al  Al170  1  0.36702863  0.63603994  0.25198534  1
  Al  Al171  1  0.36386442  0.63598758  0.75036912  1
  Al  Al172  1  0.86648864  0.13255372  0.25479304  1
  Al  Al173  1  0.86747571  0.13648487  0.75252394  1
  Al  Al174  1  0.86549689  0.63757433  0.25177935  1
  Al  Al175  1  0.86250361  0.63648509  0.74294359  1
  Al  Al176  1  0.13323720  0.36077457  0.24840424  1
  Al  Al177  1  0.13038775  0.36002906  0.75224553  1
  Al  Al178  1  0.13717791  0.86394835  0.24686335  1
  Al  Al179  1  0.13676437  0.86534310  0.75268220  1
  Al  Al180  1  0.63662876  0.36399297  0.24836006  1
  Al  Al181  1  0.63348268  0.36281749  0.75196463  1
  Al  Al182  1  0.63812284  0.86824876  0.25515519  1
  Al  Al183  1  0.64049421  0.86019094  0.74469398  1
  Al  Al184  1  0.36289190  0.36279569  0.24769675  1
  Al  Al185  1  0.36504804  0.36230727  0.75555968  1
  Al  Al186  1  0.36311231  0.86942600  0.24884102  1
  Al  Al187  1  0.36108591  0.86960706  0.75049148  1
  Al  Al188  1  0.86738159  0.36779565  0.24696414  1
  Al  Al189  1  0.86942978  0.36254646  0.75046559  1
  Al  Al190  1  0.86115824  0.86630666  0.25344376  1
  Al  Al191  1  0.86200443  0.86024670  0.74665838  1
  Al  Al192  1  0.17895511  0.68074281  0.49859933  1
  Al  Al193  1  0.50293862  0.16881063  0.32527642  1
  Al  Al194  1  0.31964326  0.49919985  0.68053678  1
  Al  Al195  1  -0.00034100  0.82471667  0.81497704  1
  Al  Al196  1  0.83073036  -0.00223995  0.67019187  1
  Al  Al197  1  0.49936813  0.31421205  0.68129243  1
  Al  Al198  1  0.32397379  0.32288312  0.50092633  1
  Al  Al199  1  -0.00018646  0.31472560  0.32395237  1
  Al  Al200  1  0.50101244  0.67394149  0.81312741  1
  Al  Al201  1  0.82039019  -0.00358680  0.17701097  1
  Al  Al202  1  0.82753750  -0.00022603  0.82800165  1
  Al  Al203  1  0.66893398  0.50114622  0.32765463  1
  Al  Al204  1  0.32377436  0.50049952  0.18681495  1
  Al  Al205  1  0.00012797  0.17607929  0.18010231  1
  Al  Al206  1  0.17259230  0.49995699  0.16937685  1
  Al  Al207  1  0.82543554  0.31409096  -0.00046820  1
  Al  Al208  1  0.00078236  0.83059652  0.17230898  1
  Al  Al209  1  0.49969758  0.32772120  0.32141892  1
  Al  Al210  1  0.17741562  0.00242531  0.31836304  1
  Al  Al211  1  -0.00127050  0.81179950  0.32292530  1
  Al  Al212  1  0.67198298  0.33040215  -0.00001492  1
  Al  Al213  1  0.66915203  0.00150023  0.82853044  1
  Al  Al214  1  0.67505557  0.49994436  0.67441065  1
  Al  Al215  1  0.31724303  0.80693992  0.49946471  1
  Al  Al216  1  0.82172122  0.17217525  0.49916769  1
  Al  Al217  1  0.81199947  0.67990760  0.00054133  1
  Al  Al218  1  0.17745257  -0.00029851  0.67856417  1
  Al  Al219  1  0.81416988  0.32827778  0.49959571  1
  Al  Al220  1  0.00083770  0.67507687  0.18365673  1
  Al  Al221  1  0.49915721  0.82549572  0.17490429  1
  Al  Al222  1  0.00234032  0.17903900  0.68534529  1
  Al  Al223  1  0.66733081  -0.00311988  0.66689261  1
  Al  Al224  1  0.18274869  0.49750559  0.81991526  1
  Al  Al225  1  0.50247371  0.81528517  0.33039249  1
  Al  Al226  1  0.68805779  0.17380140  0.00019758  1
  Al  Al227  1  -0.00212761  0.68678918  0.67008801  1
  Al  Al228  1  0.00141600  0.67119342  0.83154689  1
  Al  Al229  1  0.67141882  0.49961982  0.83093839  1
  Al  Al230  1  0.49510422  0.17693194  0.16564682  1
  Al  Al231  1  0.68777760  0.50027941  0.17566104  1
  Al  Al232  1  0.82574864  0.49964049  0.82171872  1
  Al  Al233  1  0.18693077  0.50188137  0.32669491  1
  Al  Al234  1  0.31766415  0.68117545  0.00269428  1
  Al  Al235  1  0.50115957  0.66942158  0.18343461  1
  Al  Al236  1  0.50220157  0.83003176  0.82018502  1
  Al  Al237  1  0.50068868  0.80976004  0.67234662  1
  Al  Al238  1  0.82454540  0.50127839  0.31578120  1
  Au  Au239  1  -0.00350797  0.68091354  0.65455795  1
  Au  Au240  1  0.32672280  0.67221968  0.00003401  1
  Au  Au241  1  0.33185003  0.49778157  0.83160119  1
  Au  Au242  1  0.65450336  -0.00339079  0.65742226  1
  Au  Au243  1  0.66320054  0.17806384  0.50065698  1
  Au  Au244  1  0.83831537  0.50146517  0.67238876  1
  Au  Au245  1  0.17115747  0.83618702  0.49920997  1
  Au  Au246  1  0.00615873  0.67197675  0.84701205  1
  Au  Au247  1  0.82576021  -0.00052369  0.33364435  1
  Au  Au248  1  0.34271818  -0.00162602  0.66810230  1
  Au  Au249  1  0.16463538  -0.00100010  0.66822290  1
  Au  Au250  1  0.00082993  0.16302027  0.16966826  1
  Au  Au251  1  0.49571052  0.82467783  0.83500661  1
  Au  Au252  1  0.16905082  0.50125100  0.67241200  1
  Au  Au253  1  0.82750086  0.82530251  0.49894172  1
  Au  Au254  1  0.17054868  0.50218322  0.32153176  1
  Au  Au255  1  0.49918136  0.32250398  0.83023840  1
  Au  Au256  1  0.83774767  0.17862557  0.49791959  1
  Au  Au257  1  0.00233398  0.32654742  0.83906359  1
  Au  Au258  1  0.49632568  0.16466396  0.16798330  1
  Au  Au259  1  0.32445491  0.17351670  0.00027827  1
  Au  Au260  1  0.66682917  0.82095608  0.00374194  1
  Au  Au261  1  0.50220793  0.66581540  0.16711747  1
  Au  Au262  1  0.50359606  0.17530696  0.34184186  1
  Au  Au263  1  0.33388159  0.00098490  0.83597957  1
  Au  Au264  1  0.17844813  0.00085373  0.16251484  1
  Au  Au265  1  0.16478879  0.16916980  0.49582525  1
  Au  Au266  1  0.66701337  0.67088740  0.49795277  1
  Au  Au267  1  0.33346855  0.00147907  0.32607081  1
  Au  Au268  1  0.49799609  0.34161609  0.16975793  1
  Au  Au269  1  0.00276317  0.16472250  0.67596017  1
  Au  Au270  1  0.82927593  -0.00126178  0.16851352  1
  Au  Au271  1  0.50257479  0.83156420  0.33307423  1
  Au  Au272  1  0.16614892  0.00304358  0.84372162  1
  Au  Au273  1  0.82919624  0.50110152  0.32781864  1
  Au  Au274  1  -0.00130673  0.32226921  0.33940246  1
  Au  Au275  1  0.00036415  0.34201805  0.16229432  1
  Au  Au276  1  -0.00081229  0.33640666  0.66698897  1
  Au  Au277  1  0.00119951  0.67047503  0.17165566  1
  Au  Au278  1  0.33418842  0.17338698  0.50272936  1
  Au  Au279  1  0.84670420  -0.00449541  0.67528899  1
  Au  Au280  1  0.66344404  -0.00198105  0.17745784  1
  Au  Au281  1  0.67184522  0.17930763  0.00001640  1
  Au  Au282  1  0.16733700  -0.00267701  0.32311798  1
  Au  Au283  1  0.66327547  0.49964203  0.66963740  1
  Au  Au284  1  0.18149196  0.66827009  0.49709549  1
  Au  Au285  1  0.17577913  0.33710326  0.50103855  1
  Au  Au286  1  0.83860439  0.82587136  -0.00272314  1
  Au  Au287  1  0.67365796  0.00289327  0.84507395  1
