# generated using pymatgen
data_Ca24Ti8Al207Au49
_symmetry_space_group_name_H-M   'P 1'
_cell_length_a   17.32196561
_cell_length_b   17.32131758
_cell_length_c   17.32027178
_cell_angle_alpha   90.00281980
_cell_angle_beta   89.99809972
_cell_angle_gamma   90.00403249
_symmetry_Int_Tables_number   1
_chemical_formula_structural   Ca24Ti8Al207Au49
_chemical_formula_sum   'Ca24 Ti8 Al207 Au49'
_cell_volume   5196.76163491
_cell_formula_units_Z   1
loop_
 _symmetry_equiv_pos_site_id
 _symmetry_equiv_pos_as_xyz
  1  'x, y, z'
loop_
 _atom_site_type_symbol
 _atom_site_label
 _atom_site_symmetry_multiplicity
 _atom_site_fract_x
 _atom_site_fract_y
 _atom_site_fract_z
 _atom_site_occupancy
  Ca  Ca0  1  0.24810663  -0.00525249  0.00086944  1
  Ca  Ca1  1  0.25155122  0.00076817  0.49741611  1
  Ca  Ca2  1  0.24392046  0.50144647  -0.00313016  1
  Ca  Ca3  1  0.25008017  0.50072283  0.50294746  1
  Ca  Ca4  1  0.75251683  0.00595393  0.00076937  1
  Ca  Ca5  1  0.75478952  0.00015876  0.50279500  1
  Ca  Ca6  1  0.74874059  0.49318310  -0.00313008  1
  Ca  Ca7  1  0.74610262  0.50034134  0.50418398  1
  Ca  Ca8  1  0.00341161  0.24716869  -0.00200617  1
  Ca  Ca9  1  -0.00294993  0.24669091  0.50359518  1
  Ca  Ca10  1  0.00194986  0.75114522  -0.00378172  1
  Ca  Ca11  1  -0.00469040  0.75315466  0.50542979  1
  Ca  Ca12  1  0.49819269  0.24793247  -0.00089961  1
  Ca  Ca13  1  0.50036985  0.25565404  0.49673055  1
  Ca  Ca14  1  0.49514690  0.75456190  -0.00395242  1
  Ca  Ca15  1  0.50273952  0.74949016  0.50539612  1
  Ca  Ca16  1  0.00206063  0.00424365  0.24699010  1
  Ca  Ca17  1  0.00038534  0.00058098  0.74781429  1
  Ca  Ca18  1  0.00174270  0.49723442  0.25143726  1
  Ca  Ca19  1  0.00305026  0.49994622  0.75115243  1
  Ca  Ca20  1  0.49922617  -0.00055300  0.25367094  1
  Ca  Ca21  1  0.49814622  -0.00528071  0.74940848  1
  Ca  Ca22  1  0.49964400  0.50088914  0.25601466  1
  Ca  Ca23  1  0.50006573  0.50463716  0.74767250  1
  Ti  Ti24  1  0.24969706  0.25063039  0.24932337  1
  Ti  Ti25  1  0.24809074  0.25095090  0.75081381  1
  Ti  Ti26  1  0.25026897  0.74970337  0.24966198  1
  Ti  Ti27  1  0.25028962  0.74939566  0.75085785  1
  Ti  Ti28  1  0.75142037  0.25024079  0.24900504  1
  Ti  Ti29  1  0.75237657  0.25183285  0.74961509  1
  Ti  Ti30  1  0.74984465  0.75015492  0.25109713  1
  Ti  Ti31  1  0.75049732  0.74774131  0.74959835  1
  Al  Al32  1  0.08196369  0.09119934  0.08670331  1
  Al  Al33  1  0.06707274  0.08512870  0.58795521  1
  Al  Al34  1  0.08228181  0.58343745  0.07194021  1
  Al  Al35  1  0.08411275  0.58240869  0.60204609  1
  Al  Al36  1  0.58993434  0.08922168  0.07973994  1
  Al  Al37  1  0.58212280  0.08188392  0.58396530  1
  Al  Al38  1  0.57880106  0.58205734  0.07342786  1
  Al  Al39  1  0.58737329  0.58659587  0.59148005  1
  Al  Al40  1  0.41600832  0.41784566  0.08076617  1
  Al  Al41  1  0.41961093  0.41772442  0.58950582  1
  Al  Al42  1  0.40618887  0.91413461  0.07374339  1
  Al  Al43  1  0.42036582  0.91345454  0.59269233  1
  Al  Al44  1  0.92059652  0.41136143  0.07849935  1
  Al  Al45  1  0.91921774  0.41789865  0.58499477  1
  Al  Al46  1  0.92843630  0.93369405  0.08037462  1
  Al  Al47  1  0.91029239  0.91994100  0.59049881  1
  Al  Al48  1  0.42307393  0.08704681  0.40848837  1
  Al  Al49  1  0.40613948  0.07018223  0.91319737  1
  Al  Al50  1  0.41484015  0.57272043  0.41402234  1
  Al  Al51  1  0.41659361  0.58633248  0.91037541  1
  Al  Al52  1  0.91685191  0.09138520  0.42102881  1
  Al  Al53  1  0.91261097  0.08863943  0.92229602  1
  Al  Al54  1  0.91841980  0.58184507  0.42247577  1
  Al  Al55  1  0.92889858  0.58250957  0.90810578  1
  Al  Al56  1  0.08391733  0.41755319  0.42377703  1
  Al  Al57  1  0.09102937  0.41049023  0.91009503  1
  Al  Al58  1  0.09158685  0.92361807  0.41724182  1
  Al  Al59  1  0.08951283  0.90263968  0.91567177  1
  Al  Al60  1  0.57390714  0.41697606  0.41188077  1
  Al  Al61  1  0.58798570  0.41841167  0.91593639  1
  Al  Al62  1  0.58145241  0.91808536  0.41657179  1
  Al  Al63  1  0.56807178  0.91380195  0.91220074  1
  Al  Al64  1  0.07997706  0.08045017  0.40625720  1
  Al  Al65  1  0.08807202  0.08986607  0.92336720  1
  Al  Al66  1  0.07817709  0.57615426  0.41874237  1
  Al  Al67  1  0.08922869  0.58529231  0.90469389  1
  Al  Al68  1  0.58124504  0.08992172  0.41116491  1
  Al  Al69  1  0.58682140  0.08459047  0.92685326  1
  Al  Al70  1  0.58229840  0.57844209  0.42799109  1
  Al  Al71  1  0.58029072  0.58790909  0.91082242  1
  Al  Al72  1  0.41441816  0.41244387  0.40451615  1
  Al  Al73  1  0.41286030  0.42096605  0.91498027  1
  Al  Al74  1  0.42047466  0.91860248  0.41548533  1
  Al  Al75  1  0.40507792  0.90854555  0.90983661  1
  Al  Al76  1  0.91819015  0.41734132  0.42172554  1
  Al  Al77  1  0.92395464  0.41190881  0.91647515  1
  Al  Al78  1  0.91605497  0.92288567  0.42598385  1
  Al  Al79  1  0.93033672  0.91545607  0.90892380  1
  Al  Al80  1  0.08673194  0.40550668  0.07360043  1
  Al  Al81  1  0.09010393  0.42057383  0.58969599  1
  Al  Al82  1  0.09120521  0.91564245  0.07717706  1
  Al  Al83  1  0.07444200  0.91426317  0.58029383  1
  Al  Al84  1  0.58055977  0.41531806  0.07735665  1
  Al  Al85  1  0.57993933  0.42347291  0.59316837  1
  Al  Al86  1  0.57634593  0.92417226  0.07722112  1
  Al  Al87  1  0.58224135  0.91319014  0.59110386  1
  Al  Al88  1  0.41754367  0.07667145  0.07829682  1
  Al  Al89  1  0.42088426  0.07939362  0.58614782  1
  Al  Al90  1  0.41556748  0.58156380  0.07844574  1
  Al  Al91  1  0.42435775  0.58239546  0.59092028  1
  Al  Al92  1  0.91547861  0.09471717  0.08693498  1
  Al  Al93  1  0.90666540  0.08670906  0.58660340  1
  Al  Al94  1  0.92561402  0.57436082  0.07870521  1
  Al  Al95  1  0.92183707  0.58846540  0.59124920  1
  Al  Al96  1  0.24611278  0.13675593  0.12819556  1
  Al  Al97  1  0.25084071  0.13878805  0.63716001  1
  Al  Al98  1  0.25040131  0.63373940  0.13451822  1
  Al  Al99  1  0.24802136  0.63430475  0.63841264  1
  Al  Al100  1  0.75151774  0.13657964  0.13345472  1
  Al  Al101  1  0.75755709  0.13752360  0.63186216  1
  Al  Al102  1  0.75005743  0.63580100  0.13632917  1
  Al  Al103  1  0.74978965  0.62931056  0.63894226  1
  Al  Al104  1  0.24660210  0.36710892  0.13486884  1
  Al  Al105  1  0.24889769  0.36655599  0.63832593  1
  Al  Al106  1  0.24735874  0.86414140  0.12866084  1
  Al  Al107  1  0.25089250  0.86183709  0.64136003  1
  Al  Al108  1  0.75317772  0.36004708  0.12694948  1
  Al  Al109  1  0.75097090  0.36986421  0.63513584  1
  Al  Al110  1  0.74878989  0.86519272  0.13318325  1
  Al  Al111  1  0.75060409  0.86272732  0.63861257  1
  Al  Al112  1  0.24707082  0.13470221  0.36305545  1
  Al  Al113  1  0.24785740  0.13750621  0.86941240  1
  Al  Al114  1  0.25393309  0.62595273  0.36297374  1
  Al  Al115  1  0.24940967  0.63140577  0.86092641  1
  Al  Al116  1  0.75533743  0.13770395  0.36831657  1
  Al  Al117  1  0.75217151  0.13593777  0.86574314  1
  Al  Al118  1  0.75333378  0.63389234  0.36572096  1
  Al  Al119  1  0.74779720  0.63042109  0.85834051  1
  Al  Al120  1  0.25319735  0.36985739  0.36376105  1
  Al  Al121  1  0.24459845  0.37244227  0.86514417  1
  Al  Al122  1  0.25051428  0.86542717  0.36477267  1
  Al  Al123  1  0.25158134  0.86240676  0.86866333  1
  Al  Al124  1  0.75088858  0.36284426  0.36722559  1
  Al  Al125  1  0.75141433  0.36761594  0.86731721  1
  Al  Al126  1  0.75024898  0.86544700  0.36600650  1
  Al  Al127  1  0.75131469  0.86219587  0.86461379  1
  Al  Al128  1  0.13564928  0.24847799  0.13356791  1
  Al  Al129  1  0.13000225  0.25113919  0.63923353  1
  Al  Al130  1  0.13677971  0.75189910  0.13640213  1
  Al  Al131  1  0.12630074  0.74850053  0.64196685  1
  Al  Al132  1  0.63534472  0.24923380  0.12904185  1
  Al  Al133  1  0.63765163  0.25558463  0.63345444  1
  Al  Al134  1  0.63428445  0.75297541  0.13386503  1
  Al  Al135  1  0.63476275  0.74707834  0.63683245  1
  Al  Al136  1  0.13799015  0.25165505  0.36152904  1
  Al  Al137  1  0.13668199  0.25159878  0.86813220  1
  Al  Al138  1  0.14058307  0.74876840  0.36221049  1
  Al  Al139  1  0.13534384  0.75326202  0.86307647  1
  Al  Al140  1  0.63457489  0.24990124  0.36660935  1
  Al  Al141  1  0.63654563  0.25332957  0.86672335  1
  Al  Al142  1  0.63630323  0.75060592  0.36671317  1
  Al  Al143  1  0.62903127  0.74903810  0.85991248  1
  Al  Al144  1  0.36416673  0.25063633  0.13332030  1
  Al  Al145  1  0.36584859  0.25512064  0.63544590  1
  Al  Al146  1  0.36519330  0.75350998  0.13432726  1
  Al  Al147  1  0.36507553  0.74711792  0.63585394  1
  Al  Al148  1  0.86680589  0.24592275  0.12644376  1
  Al  Al149  1  0.87135504  0.24925090  0.63729362  1
  Al  Al150  1  0.86494617  0.75215436  0.13658955  1
  Al  Al151  1  0.87100020  0.74672368  0.64005109  1
  Al  Al152  1  0.36588763  0.25073381  0.36603759  1
  Al  Al153  1  0.36178791  0.25270164  0.86700022  1
  Al  Al154  1  0.36139778  0.74891645  0.36760091  1
  Al  Al155  1  0.37151561  0.75213100  0.86326850  1
  Al  Al156  1  0.86687983  0.25022496  0.36486590  1
  Al  Al157  1  0.86478594  0.24804192  0.86772539  1
  Al  Al158  1  0.86335496  0.74830096  0.36531397  1
  Al  Al159  1  0.86644047  0.75146234  0.86338241  1
  Al  Al160  1  0.13652094  0.13234799  0.24435680  1
  Al  Al161  1  0.12910431  0.13510141  0.75271718  1
  Al  Al162  1  0.13802016  0.63002741  0.24995932  1
  Al  Al163  1  0.13478158  0.63198120  0.75036109  1
  Al  Al164  1  0.63774225  0.13892823  0.25251491  1
  Al  Al165  1  0.64017543  0.14002453  0.74653597  1
  Al  Al166  1  0.63219317  0.63749937  0.25198736  1
  Al  Al167  1  0.62917559  0.63182926  0.74788410  1
  Al  Al168  1  0.36281710  0.13687478  0.25100663  1
  Al  Al169  1  0.36178487  0.13702929  0.75290144  1
  Al  Al170  1  0.36810486  0.63574410  0.25146981  1
  Al  Al171  1  0.37113227  0.63650544  0.75230282  1
  Al  Al172  1  0.86622316  0.13798559  0.24789730  1
  Al  Al173  1  0.87095645  0.13511746  0.74875761  1
  Al  Al174  1  0.86410287  0.63000888  0.24885334  1
  Al  Al175  1  0.86662281  0.62832881  0.74936760  1
  Al  Al176  1  0.13611042  0.37058903  0.25020952  1
  Al  Al177  1  0.13484206  0.36952916  0.75007818  1
  Al  Al178  1  0.14087476  0.87382861  0.24835820  1
  Al  Al179  1  0.12770284  0.86597219  0.75148013  1
  Al  Al180  1  0.63773615  0.36227047  0.25069800  1
  Al  Al181  1  0.63900710  0.37174183  0.74995045  1
  Al  Al182  1  0.63520287  0.86500565  0.24963021  1
  Al  Al183  1  0.63446723  0.86388710  0.75044045  1
  Al  Al184  1  0.36466182  0.36640043  0.25399685  1
  Al  Al185  1  0.36212056  0.36788648  0.75250845  1
  Al  Al186  1  0.36131866  0.86568394  0.24729370  1
  Al  Al187  1  0.36521684  0.86617807  0.75625965  1
  Al  Al188  1  0.86433551  0.36547129  0.24699946  1
  Al  Al189  1  0.86529150  0.36860959  0.74764374  1
  Al  Al190  1  0.86349210  0.86548624  0.25240632  1
  Al  Al191  1  0.87027930  0.86499043  0.74730262  1
  Al  Al192  1  0.50127224  0.18591933  0.67511182  1
  Al  Al193  1  0.16880702  0.67157587  0.50290184  1
  Al  Al194  1  0.17233982  0.68601629  -0.00261549  1
  Al  Al195  1  0.81775650  0.82014976  0.50328626  1
  Al  Al196  1  0.17064806  0.00070771  0.67269893  1
  Al  Al197  1  0.00157929  0.67336400  0.17083795  1
  Al  Al198  1  0.68526464  0.00183522  0.67412972  1
  Al  Al199  1  0.00074333  0.67263873  0.32426933  1
  Al  Al200  1  0.49906777  0.80794923  0.69315400  1
  Al  Al201  1  0.32074641  0.00057489  0.32596334  1
  Al  Al202  1  0.82684196  -0.00102578  0.82208853  1
  Al  Al203  1  0.50042425  0.17000488  0.18500720  1
  Al  Al204  1  0.18082665  0.82607793  0.50262686  1
  Al  Al205  1  0.32887741  0.67549365  0.50159191  1
  Al  Al206  1  0.68417776  0.68035186  0.50227198  1
  Al  Al207  1  0.32581304  0.68972947  -0.00245840  1
  Al  Al208  1  0.50104643  0.32697600  0.81070119  1
  Al  Al209  1  0.67991701  0.17644074  0.50098109  1
  Al  Al210  1  0.00044980  0.31700412  0.81744638  1
  Al  Al211  1  0.82626905  0.83376747  0.00207430  1
  Al  Al212  1  0.49925539  0.16933192  0.83174746  1
  Al  Al213  1  0.00161535  0.18006333  0.31161491  1
  Al  Al214  1  0.31702875  0.00114826  0.17352202  1
  Al  Al215  1  0.32607782  0.00050102  0.68738220  1
  Al  Al216  1  0.18783449  -0.00052151  0.83141728  1
  Al  Al217  1  0.00135822  0.31118027  0.18045856  1
  Al  Al218  1  0.67376780  0.00133180  0.17129915  1
  Al  Al219  1  0.81960685  0.31188483  0.50233721  1
  Al  Al220  1  0.83067335  0.66907642  -0.00248854  1
  Al  Al221  1  0.67983454  0.00152992  0.32488168  1
  Al  Al222  1  0.50011717  0.32761700  0.19025072  1
  Al  Al223  1  0.00158035  0.82862296  0.17123139  1
  Al  Al224  1  0.18138761  0.32529287  0.50165827  1
  Al  Al225  1  0.31198976  0.31877704  -0.00016538  1
  Al  Al226  1  0.67744678  0.49957280  0.32670404  1
  Al  Al227  1  0.50289373  0.67910613  0.17473275  1
  Al  Al228  1  0.67944998  0.49858287  0.16942879  1
  Al  Al229  1  0.49842913  0.81694764  0.31883891  1
  Al  Al230  1  0.67383150  -0.00083894  0.82998764  1
  Al  Al231  1  0.00203513  0.82807651  0.32377809  1
  Al  Al232  1  0.32858342  0.17789620  0.49892530  1
  Al  Al233  1  0.82694684  0.00152355  0.18246161  1
  Al  Al234  1  0.00084868  0.68920810  0.80864245  1
  Al  Al235  1  0.31854815  0.50191348  0.68020437  1
  Al  Al236  1  0.67421216  0.67991411  -0.00327109  1
  Al  Al237  1  0.31976341  0.50058092  0.18485594  1
  Al  Al238  1  0.16938975  0.16897640  0.50069753  1
  Au  Au239  1  0.33246771  0.66368011  0.50028186  1
  Au  Au240  1  0.50042993  0.68029062  0.81878423  1
  Au  Au241  1  0.49743884  0.15495977  0.82466232  1
  Au  Au242  1  0.32363874  0.67276891  -0.00115914  1
  Au  Au243  1  0.84078367  0.49650744  0.17042825  1
  Au  Au244  1  0.65515298  0.82804774  -0.00397628  1
  Au  Au245  1  0.83261116  0.32244281  0.50265126  1
  Au  Au246  1  0.50081362  0.33946424  0.82214580  1
  Au  Au247  1  0.17239238  0.00102668  0.66000917  1
  Au  Au248  1  0.33034822  0.83999566  0.50211481  1
  Au  Au249  1  0.00187342  0.31822608  0.16548937  1
  Au  Au250  1  0.00333343  0.32555124  0.34091893  1
  Au  Au251  1  0.82511953  0.65321734  -0.00321129  1
  Au  Au252  1  0.33447791  0.16684690  0.49905262  1
  Au  Au253  1  0.33063084  0.34172106  0.50089420  1
  Au  Au254  1  0.66837084  0.50334671  0.82516627  1
  Au  Au255  1  0.65767097  0.33925288  0.50210819  1
  Au  Au256  1  0.82743597  0.49951417  0.33913226  1
  Au  Au257  1  0.00073953  0.16994193  0.83332116  1
  Au  Au258  1  0.66553445  0.32042393  -0.00135048  1
  Au  Au259  1  0.17298682  -0.00079617  0.83760647  1
  Au  Au260  1  0.32200071  0.50216121  0.82701966  1
  Au  Au261  1  0.67227285  0.16476741  0.50052198  1
  Au  Au262  1  0.66307331  0.50303857  0.17106620  1
  Au  Au263  1  0.33537291  0.50067642  0.17707288  1
  Au  Au264  1  0.83364249  0.32195786  -0.00409709  1
  Au  Au265  1  0.15720244  0.17284306  0.50020481  1
  Au  Au266  1  0.50065285  0.67024497  0.16593884  1
  Au  Au267  1  0.00346247  0.32969717  0.66989797  1
  Au  Au268  1  0.16155423  0.49944706  0.16141075  1
  Au  Au269  1  0.83539765  0.67212852  0.50398354  1
  Au  Au270  1  0.66167992  -0.00008152  0.82643900  1
  Au  Au271  1  0.82722362  0.50143660  0.66492317  1
  Au  Au272  1  0.49542818  0.84322441  0.17080104  1
  Au  Au273  1  0.00275050  0.83068278  0.33998333  1
  Au  Au274  1  0.32096124  0.33369687  -0.00052776  1
  Au  Au275  1  0.17514428  0.49880140  0.33748013  1
  Au  Au276  1  0.49973711  0.15651098  0.17570599  1
  Au  Au277  1  0.49963458  0.33082911  0.17310143  1
  Au  Au278  1  0.83946183  -0.00069674  0.81939944  1
  Au  Au279  1  0.50316966  0.66849570  0.33976727  1
  Au  Au280  1  0.83750595  0.49561710  0.83039354  1
  Au  Au281  1  -0.00202443  0.82484559  0.67488103  1
  Au  Au282  1  0.83006442  0.00435677  0.33473928  1
  Au  Au283  1  0.83829535  0.84467757  0.00173288  1
  Au  Au284  1  0.32145064  0.15837597  -0.00092347  1
  Au  Au285  1  0.15181344  0.67566281  0.50511336  1
  Au  Au286  1  0.16767916  0.00230657  0.16983940  1
  Au  Au287  1  0.66699148  0.83191983  0.50110964  1
