# generated using pymatgen
data_Ca24Ti8Al207Au49
_symmetry_space_group_name_H-M   'P 1'
_cell_length_a   17.31806581
_cell_length_b   17.31858568
_cell_length_c   17.32067038
_cell_angle_alpha   89.99729922
_cell_angle_beta   89.99839363
_cell_angle_gamma   90.00148083
_symmetry_Int_Tables_number   1
_chemical_formula_structural   Ca24Ti8Al207Au49
_chemical_formula_sum   'Ca24 Ti8 Al207 Au49'
_cell_volume   5194.89177545
_cell_formula_units_Z   1
loop_
 _symmetry_equiv_pos_site_id
 _symmetry_equiv_pos_as_xyz
  1  'x, y, z'
loop_
 _atom_site_type_symbol
 _atom_site_label
 _atom_site_symmetry_multiplicity
 _atom_site_fract_x
 _atom_site_fract_y
 _atom_site_fract_z
 _atom_site_occupancy
  Ca  Ca0  1  0.25275962  -0.00139256  0.00304496  1
  Ca  Ca1  1  0.25134708  -0.00059086  0.49882019  1
  Ca  Ca2  1  0.24980203  0.50429930  0.00225213  1
  Ca  Ca3  1  0.24654781  0.50085646  0.49647389  1
  Ca  Ca4  1  0.74608822  -0.00038629  -0.00131329  1
  Ca  Ca5  1  0.74628730  0.00031790  0.49918376  1
  Ca  Ca6  1  0.74841162  0.49879145  -0.00224152  1
  Ca  Ca7  1  0.74642161  0.49941951  0.49994102  1
  Ca  Ca8  1  0.00186960  0.24995786  -0.00016429  1
  Ca  Ca9  1  -0.00237407  0.24557586  0.50404178  1
  Ca  Ca10  1  0.00302128  0.74988738  0.00404557  1
  Ca  Ca11  1  0.00296759  0.74842603  0.50003661  1
  Ca  Ca12  1  0.50413733  0.24478072  -0.00052388  1
  Ca  Ca13  1  0.50297714  0.24159701  0.50111543  1
  Ca  Ca14  1  0.49636707  0.75050847  0.00009129  1
  Ca  Ca15  1  0.49906966  0.75003242  0.49679143  1
  Ca  Ca16  1  -0.00478686  0.00068079  0.24909802  1
  Ca  Ca17  1  0.00035960  -0.00186485  0.74720899  1
  Ca  Ca18  1  0.00166523  0.50083030  0.24862650  1
  Ca  Ca19  1  -0.00163539  0.50087906  0.74773528  1
  Ca  Ca20  1  0.50452816  -0.00156645  0.25057695  1
  Ca  Ca21  1  0.50066447  0.00111709  0.75167869  1
  Ca  Ca22  1  0.49586664  0.50445798  0.25281078  1
  Ca  Ca23  1  0.50191588  0.50190959  0.74904101  1
  Ti  Ti24  1  0.25009839  0.24925947  0.24930538  1
  Ti  Ti25  1  0.25089309  0.24647084  0.75048186  1
  Ti  Ti26  1  0.25083933  0.75012320  0.25119651  1
  Ti  Ti27  1  0.24988560  0.75208048  0.74933245  1
  Ti  Ti28  1  0.75066351  0.24751955  0.24882303  1
  Ti  Ti29  1  0.74985696  0.24898231  0.74936142  1
  Ti  Ti30  1  0.74819573  0.75243527  0.25082790  1
  Ti  Ti31  1  0.74955597  0.75067988  0.74950244  1
  Al  Al32  1  0.09350874  0.07986847  0.08980437  1
  Al  Al33  1  0.07916282  0.09267208  0.58685205  1
  Al  Al34  1  0.09469791  0.58087194  0.08026815  1
  Al  Al35  1  0.09203112  0.58328271  0.57664311  1
  Al  Al36  1  0.58777999  0.07990701  0.07393496  1
  Al  Al37  1  0.58644876  0.08507701  0.57793913  1
  Al  Al38  1  0.58140253  0.58682638  0.08308937  1
  Al  Al39  1  0.59069930  0.58961047  0.57401550  1
  Al  Al40  1  0.41828166  0.42257150  0.07363433  1
  Al  Al41  1  0.41924586  0.42136864  0.57886771  1
  Al  Al42  1  0.40400574  0.91731846  0.08814111  1
  Al  Al43  1  0.41967130  0.90892627  0.58604393  1
  Al  Al44  1  0.91936934  0.39883876  0.08134835  1
  Al  Al45  1  0.91513125  0.41099756  0.59736789  1
  Al  Al46  1  0.90796147  0.91052402  0.08007504  1
  Al  Al47  1  0.91729518  0.93073995  0.57592250  1
  Al  Al48  1  0.41576194  0.08291041  0.42369530  1
  Al  Al49  1  0.42032398  0.09528654  0.91812055  1
  Al  Al50  1  0.41612858  0.59172582  0.41021749  1
  Al  Al51  1  0.41289522  0.59098051  0.92280137  1
  Al  Al52  1  0.91555421  0.07699191  0.42200898  1
  Al  Al53  1  0.91413742  0.08213171  0.91919009  1
  Al  Al54  1  0.92538166  0.58099479  0.42815466  1
  Al  Al55  1  0.90655696  0.58115274  0.91706934  1
  Al  Al56  1  0.08696592  0.42454582  0.40579670  1
  Al  Al57  1  0.07497286  0.42585054  0.92293060  1
  Al  Al58  1  0.08429516  0.90155568  0.41119263  1
  Al  Al59  1  0.09155341  0.91556475  0.93181750  1
  Al  Al60  1  0.58380407  0.42518182  0.42259391  1
  Al  Al61  1  0.58719867  0.40216739  0.91985347  1
  Al  Al62  1  0.58722592  0.92069862  0.41238123  1
  Al  Al63  1  0.59098571  0.91754792  0.92091322  1
  Al  Al64  1  0.08010879  0.07640316  0.42679331  1
  Al  Al65  1  0.08352696  0.08088992  0.92553001  1
  Al  Al66  1  0.09859206  0.58731692  0.41484415  1
  Al  Al67  1  0.09125231  0.58976246  0.92263498  1
  Al  Al68  1  0.59292141  0.08298421  0.41553169  1
  Al  Al69  1  0.58497833  0.09252772  0.91106566  1
  Al  Al70  1  0.58213678  0.59337605  0.41190918  1
  Al  Al71  1  0.57960529  0.58240651  0.92330225  1
  Al  Al72  1  0.41553665  0.42654479  0.41710310  1
  Al  Al73  1  0.42314698  0.41500167  0.91620078  1
  Al  Al74  1  0.42046778  0.91605913  0.42094075  1
  Al  Al75  1  0.41355458  0.91448140  0.92669264  1
  Al  Al76  1  0.92800392  0.41590419  0.42565596  1
  Al  Al77  1  0.90584428  0.41540771  0.92139814  1
  Al  Al78  1  0.92320929  0.91342770  0.40783376  1
  Al  Al79  1  0.90436314  0.91578423  0.92477743  1
  Al  Al80  1  0.07969948  0.41527576  0.09373065  1
  Al  Al81  1  0.07481490  0.42041511  0.59116866  1
  Al  Al82  1  0.10048572  0.91656167  0.09025150  1
  Al  Al83  1  0.09202684  0.91647304  0.56965117  1
  Al  Al84  1  0.59566030  0.40746798  0.07647429  1
  Al  Al85  1  0.58459831  0.41991429  0.58017825  1
  Al  Al86  1  0.58989320  0.91566217  0.08065863  1
  Al  Al87  1  0.57947813  0.91210472  0.58792277  1
  Al  Al88  1  0.40728472  0.08111698  0.08033636  1
  Al  Al89  1  0.41306041  0.08556699  0.58048865  1
  Al  Al90  1  0.41303044  0.58996776  0.08007015  1
  Al  Al91  1  0.41700385  0.58524873  0.57345343  1
  Al  Al92  1  0.91537675  0.08509315  0.08128054  1
  Al  Al93  1  0.91657604  0.08956228  0.59282976  1
  Al  Al94  1  0.91828656  0.58508120  0.07208320  1
  Al  Al95  1  0.90891749  0.57377046  0.58962421  1
  Al  Al96  1  0.25149472  0.13192886  0.13389655  1
  Al  Al97  1  0.25145502  0.12857682  0.63586288  1
  Al  Al98  1  0.25112832  0.63673070  0.13721200  1
  Al  Al99  1  0.24796304  0.63800948  0.63308699  1
  Al  Al100  1  0.74794790  0.13553529  0.13133909  1
  Al  Al101  1  0.74897632  0.13594566  0.63195179  1
  Al  Al102  1  0.74474619  0.63397806  0.13745213  1
  Al  Al103  1  0.75076873  0.63182006  0.63752660  1
  Al  Al104  1  0.25094274  0.36504659  0.13538143  1
  Al  Al105  1  0.25394889  0.36226225  0.63440033  1
  Al  Al106  1  0.24801052  0.86543131  0.13550253  1
  Al  Al107  1  0.24885725  0.86796964  0.62981592  1
  Al  Al108  1  0.74808239  0.36266420  0.12838053  1
  Al  Al109  1  0.75014591  0.36901355  0.63715631  1
  Al  Al110  1  0.75061813  0.86381927  0.13373293  1
  Al  Al111  1  0.74864718  0.86298669  0.62739244  1
  Al  Al112  1  0.25245736  0.13305546  0.36542745  1
  Al  Al113  1  0.25222692  0.12860538  0.86415765  1
  Al  Al114  1  0.24617419  0.63852717  0.36601479  1
  Al  Al115  1  0.25168099  0.63461825  0.86531627  1
  Al  Al116  1  0.75054751  0.12892787  0.36747053  1
  Al  Al117  1  0.74820146  0.13466991  0.86669509  1
  Al  Al118  1  0.74634168  0.63905158  0.36572685  1
  Al  Al119  1  0.74783195  0.63667578  0.86559653  1
  Al  Al120  1  0.24875058  0.36486515  0.36565959  1
  Al  Al121  1  0.24913244  0.36575099  0.86175530  1
  Al  Al122  1  0.24956569  0.86271127  0.37315158  1
  Al  Al123  1  0.24995245  0.86984368  0.86421429  1
  Al  Al124  1  0.75035369  0.36192063  0.36315869  1
  Al  Al125  1  0.74913821  0.36161724  0.86854914  1
  Al  Al126  1  0.74828748  0.86857887  0.36884759  1
  Al  Al127  1  0.75045476  0.86392267  0.86713715  1
  Al  Al128  1  0.13715093  0.25055114  0.13464418  1
  Al  Al129  1  0.13481684  0.24720208  0.63772106  1
  Al  Al130  1  0.13460098  0.75215666  0.13506058  1
  Al  Al131  1  0.13545606  0.75050925  0.63172764  1
  Al  Al132  1  0.63472661  0.24764569  0.13121057  1
  Al  Al133  1  0.63454885  0.24407777  0.63313434  1
  Al  Al134  1  0.63387883  0.75406306  0.13000285  1
  Al  Al135  1  0.63757631  0.74981423  0.62797285  1
  Al  Al136  1  0.13597252  0.24859492  0.36276630  1
  Al  Al137  1  0.13540949  0.24408792  0.86396218  1
  Al  Al138  1  0.13463261  0.75275440  0.36797726  1
  Al  Al139  1  0.13637133  0.75286235  0.86490954  1
  Al  Al140  1  0.63771216  0.24474730  0.36541630  1
  Al  Al141  1  0.63794009  0.24641377  0.86993761  1
  Al  Al142  1  0.63283152  0.75152575  0.36938103  1
  Al  Al143  1  0.63751184  0.75379640  0.87090816  1
  Al  Al144  1  0.36533550  0.24626822  0.13315292  1
  Al  Al145  1  0.36498296  0.23982758  0.63404862  1
  Al  Al146  1  0.36422823  0.74834561  0.13201934  1
  Al  Al147  1  0.36457622  0.75589379  0.63396189  1
  Al  Al148  1  0.86629541  0.25301381  0.13168695  1
  Al  Al149  1  0.86786767  0.24939711  0.63659449  1
  Al  Al150  1  0.86598887  0.75411557  0.13572652  1
  Al  Al151  1  0.86614803  0.74852480  0.63489356  1
  Al  Al152  1  0.36423707  0.24643594  0.36280426  1
  Al  Al153  1  0.36577584  0.24156864  0.86557539  1
  Al  Al154  1  0.36961914  0.75320716  0.36371632  1
  Al  Al155  1  0.36349588  0.75296897  0.86336450  1
  Al  Al156  1  0.86319805  0.24662988  0.36489660  1
  Al  Al157  1  0.86500609  0.25396771  0.86693138  1
  Al  Al158  1  0.86457457  0.75510574  0.36793422  1
  Al  Al159  1  0.86535328  0.74965187  0.86537947  1
  Al  Al160  1  0.13934246  0.13106704  0.24476946  1
  Al  Al161  1  0.13848531  0.12748323  0.74741455  1
  Al  Al162  1  0.13377729  0.63814973  0.25113407  1
  Al  Al163  1  0.13160792  0.64006179  0.74979782  1
  Al  Al164  1  0.63703817  0.13401986  0.25187456  1
  Al  Al165  1  0.62900636  0.13794224  0.75188911  1
  Al  Al166  1  0.62891413  0.64137720  0.25127521  1
  Al  Al167  1  0.63567320  0.63814764  0.74517922  1
  Al  Al168  1  0.36401877  0.13137737  0.24270444  1
  Al  Al169  1  0.36868606  0.12930455  0.75073517  1
  Al  Al170  1  0.36729834  0.63850966  0.25315231  1
  Al  Al171  1  0.36287902  0.63524690  0.74735680  1
  Al  Al172  1  0.86080814  0.12920075  0.24707132  1
  Al  Al173  1  0.86281979  0.13609400  0.75096652  1
  Al  Al174  1  0.86626386  0.64153932  0.25032616  1
  Al  Al175  1  0.86722669  0.63695159  0.74956786  1
  Al  Al176  1  0.13469627  0.36332776  0.24916423  1
  Al  Al177  1  0.13331116  0.36083188  0.74772849  1
  Al  Al178  1  0.13646089  0.86418946  0.25179223  1
  Al  Al179  1  0.13735753  0.87114020  0.74629510  1
  Al  Al180  1  0.63680937  0.36222373  0.24444294  1
  Al  Al181  1  0.63773447  0.36019220  0.75105377  1
  Al  Al182  1  0.63470312  0.86524289  0.25443428  1
  Al  Al183  1  0.63573273  0.86193260  0.74495381  1
  Al  Al184  1  0.36602213  0.36237617  0.24972722  1
  Al  Al185  1  0.36431228  0.36248936  0.75252294  1
  Al  Al186  1  0.36236310  0.86695692  0.24691197  1
  Al  Al187  1  0.36285798  0.87031527  0.74810646  1
  Al  Al188  1  0.86491258  0.36358059  0.24447431  1
  Al  Al189  1  0.86382373  0.36457405  0.74664579  1
  Al  Al190  1  0.86246416  0.87013753  0.25345757  1
  Al  Al191  1  0.86616149  0.86387539  0.75099633  1
  Al  Al192  1  0.50218996  0.17233591  0.17115684  1
  Al  Al193  1  0.81691782  -0.00037964  0.68144240  1
  Al  Al194  1  0.19225033  0.69215407  0.00111068  1
  Al  Al195  1  -0.00231563  0.32938257  0.81564046  1
  Al  Al196  1  0.50162370  0.82454812  0.17413612  1
  Al  Al197  1  0.00015851  0.68473933  0.32673728  1
  Al  Al198  1  0.50076366  0.67524046  0.82449405  1
  Al  Al199  1  0.82820850  0.31922827  0.50260689  1
  Al  Al200  1  0.49899870  0.68614806  0.66649256  1
  Al  Al201  1  0.16608599  0.32765591  0.50102140  1
  Al  Al202  1  0.66859363  0.49979706  0.81964506  1
  Al  Al203  1  0.00166334  0.82733944  0.83453744  1
  Al  Al204  1  0.49982260  0.17134101  0.32785200  1
  Al  Al205  1  0.31516030  0.68207745  0.49801117  1
  Al  Al206  1  0.00023738  0.17103769  0.33005932  1
  Al  Al207  1  0.67716862  -0.00051581  0.18192083  1
  Al  Al208  1  0.50114730  0.31040238  0.82833324  1
  Al  Al209  1  0.81179759  0.18791984  -0.00001587  1
  Al  Al210  1  0.50339819  0.32828811  0.32238410  1
  Al  Al211  1  0.18709087  0.17473670  0.00000923  1
  Al  Al212  1  0.82548386  0.49718625  0.16635288  1
  Al  Al213  1  0.31226370  0.50242968  0.32366445  1
  Al  Al214  1  0.00099711  0.18603108  0.17286440  1
  Al  Al215  1  0.50010261  0.32257320  0.67226730  1
  Al  Al216  1  0.18393549  0.17516005  0.49996336  1
  Al  Al217  1  -0.00082636  0.32454106  0.31571444  1
  Al  Al218  1  0.32871464  0.50310126  0.82322131  1
  Al  Al219  1  0.81674048  0.68685206  0.00150777  1
  Al  Al220  1  0.00142424  0.17089781  0.81175985  1
  Al  Al221  1  0.17188283  -0.00197077  0.32269799  1
  Al  Al222  1  0.67754232  -0.00016390  0.81779970  1
  Al  Al223  1  0.17735161  0.50013325  0.18932476  1
  Al  Al224  1  0.50004759  0.83181301  0.81888894  1
  Al  Al225  1  0.67409822  0.50233245  0.32074037  1
  Al  Al226  1  0.16963852  0.32912584  -0.00092686  1
  Al  Al227  1  0.67268268  0.31758115  0.49978300  1
  Al  Al228  1  0.00031513  0.82746801  0.18201785  1
  Al  Al229  1  0.30791612  0.81320055  -0.00030913  1
  Al  Al230  1  0.17806574  0.50006777  0.68175046  1
  Al  Al231  1  0.83279637  0.50033679  0.32773004  1
  Al  Al232  1  0.32737472  0.31036381  0.49967176  1
  Al  Al233  1  0.32866731  0.50071320  0.17226865  1
  Al  Al234  1  0.00113823  0.82514719  0.66793547  1
  Al  Al235  1  0.32577283  -0.00056670  0.32052951  1
  Al  Al236  1  0.81578625  0.67848023  0.50220587  1
  Al  Al237  1  0.32723887  0.31046994  -0.00240855  1
  Al  Al238  1  0.82325425  0.49914066  0.81460959  1
  Au  Au239  1  0.82293876  0.66310330  0.50334871  1
  Au  Au240  1  0.50210922  0.82561065  0.33321411  1
  Au  Au241  1  0.83273764  0.83829790  0.49763343  1
  Au  Au242  1  0.65775038  0.49929839  0.17249880  1
  Au  Au243  1  0.82645781  0.17876037  -0.00160313  1
  Au  Au244  1  0.49656404  0.66840942  0.17516351  1
  Au  Au245  1  0.33714415  0.00386905  0.83864225  1
  Au  Au246  1  0.32289494  0.32685065  -0.00325749  1
  Au  Au247  1  0.49874246  0.33548064  0.15940046  1
  Au  Au248  1  0.66923896  0.67822886  -0.00000098  1
  Au  Au249  1  0.32505793  0.82923190  0.50069301  1
  Au  Au250  1  0.00222919  0.65905663  0.66423251  1
  Au  Au251  1  0.49986261  0.16184087  0.67198591  1
  Au  Au252  1  0.15485533  0.00042417  0.32363045  1
  Au  Au253  1  0.82540744  0.16441952  0.50149625  1
  Au  Au254  1  0.82654576  -0.00216625  0.83096496  1
  Au  Au255  1  0.00249607  0.66255102  0.16233092  1
  Au  Au256  1  -0.00186600  0.66072622  0.83488130  1
  Au  Au257  1  0.66118834  0.82696480  0.49933009  1
  Au  Au258  1  0.33413967  -0.00265653  0.66678954  1
  Au  Au259  1  0.15062381  0.32831619  0.50380288  1
  Au  Au260  1  0.17028391  -0.00257655  0.83839747  1
  Au  Au261  1  0.82648281  -0.00095005  0.33103879  1
  Au  Au262  1  0.50375595  0.83051169  0.83522131  1
  Au  Au263  1  0.50336006  0.33133020  0.33845448  1
  Au  Au264  1  -0.00295395  0.33864302  0.82922606  1
  Au  Au265  1  0.32360479  0.50359619  0.65680886  1
  Au  Au266  1  0.33926747  0.32230678  0.49786148  1
  Au  Au267  1  0.82689539  0.49799189  0.34329678  1
  Au  Au268  1  0.34241361  0.00366167  0.32110497  1
  Au  Au269  1  0.82475881  0.33123063  0.50435390  1
  Au  Au270  1  0.50193952  0.16005210  0.16489586  1
  Au  Au271  1  0.67062970  0.49589312  0.83598823  1
  Au  Au272  1  0.49690483  0.82950705  0.16404892  1
  Au  Au273  1  0.00090152  0.84077158  0.17192076  1
  Au  Au274  1  0.00098949  0.83614666  0.65620536  1
  Au  Au275  1  0.00190170  0.67278804  0.33857538  1
  Au  Au276  1  0.33939845  0.49858880  0.82803993  1
  Au  Au277  1  0.16562726  0.00136859  0.66381075  1
  Au  Au278  1  0.50225917  0.66941854  0.66723206  1
  Au  Au279  1  0.00292746  0.16003936  0.82475749  1
  Au  Au280  1  0.00092424  0.83289022  0.84938940  1
  Au  Au281  1  0.50179456  0.33801796  0.67946577  1
  Au  Au282  1  0.82244709  -0.00088014  0.16183266  1
  Au  Au283  1  0.67859683  0.50267896  0.65878435  1
  Au  Au284  1  0.66803711  -0.00002517  0.66745220  1
  Au  Au285  1  0.83256723  0.49548759  0.15201627  1
  Au  Au286  1  0.16525390  0.50039482  0.83058472  1
  Au  Au287  1  0.00189843  0.16959414  0.17750517  1
