# generated using pymatgen
data_Ca24Ti8Al207Au49
_symmetry_space_group_name_H-M   'P 1'
_cell_length_a   17.32148697
_cell_length_b   17.32163133
_cell_length_c   17.32084753
_cell_angle_alpha   90.00115082
_cell_angle_beta   89.99813689
_cell_angle_gamma   90.00343024
_symmetry_Int_Tables_number   1
_chemical_formula_structural   Ca24Ti8Al207Au49
_chemical_formula_sum   'Ca24 Ti8 Al207 Au49'
_cell_volume   5196.88492288
_cell_formula_units_Z   1
loop_
 _symmetry_equiv_pos_site_id
 _symmetry_equiv_pos_as_xyz
  1  'x, y, z'
loop_
 _atom_site_type_symbol
 _atom_site_label
 _atom_site_symmetry_multiplicity
 _atom_site_fract_x
 _atom_site_fract_y
 _atom_site_fract_z
 _atom_site_occupancy
  Ca  Ca0  1  0.25445305  -0.00028984  -0.00202198  1
  Ca  Ca1  1  0.25108414  0.00064256  0.49807619  1
  Ca  Ca2  1  0.25282336  0.49872407  0.00605211  1
  Ca  Ca3  1  0.25630297  0.50446682  0.49485336  1
  Ca  Ca4  1  0.74740840  0.00011662  0.00208432  1
  Ca  Ca5  1  0.75015257  0.00155576  0.49840679  1
  Ca  Ca6  1  0.74918289  0.50074688  0.00209502  1
  Ca  Ca7  1  0.74996653  0.50071881  0.49960268  1
  Ca  Ca8  1  -0.00110931  0.25417895  0.00280292  1
  Ca  Ca9  1  -0.00554926  0.24929049  0.49715107  1
  Ca  Ca10  1  -0.00001740  0.74615173  0.00325054  1
  Ca  Ca11  1  -0.00503502  0.74667229  0.49613658  1
  Ca  Ca12  1  0.50096745  0.25168447  0.00004573  1
  Ca  Ca13  1  0.50419394  0.24871636  0.49680302  1
  Ca  Ca14  1  0.49870738  0.75004764  0.00020057  1
  Ca  Ca15  1  0.49956902  0.74995181  0.49861700  1
  Ca  Ca16  1  -0.00296582  0.00041400  0.25218523  1
  Ca  Ca17  1  -0.00283750  -0.00031415  0.75214445  1
  Ca  Ca18  1  0.00399369  0.49543143  0.24596570  1
  Ca  Ca19  1  -0.00115418  0.49936957  0.75402536  1
  Ca  Ca20  1  0.50056069  -0.00040866  0.24813544  1
  Ca  Ca21  1  0.49819863  -0.00088995  0.75222696  1
  Ca  Ca22  1  0.49488613  0.50103649  0.24530012  1
  Ca  Ca23  1  0.50217690  0.50469116  0.75400277  1
  Ti  Ti24  1  0.25234166  0.24913929  0.24893322  1
  Ti  Ti25  1  0.25069176  0.25040440  0.75171191  1
  Ti  Ti26  1  0.25184588  0.75080950  0.24857536  1
  Ti  Ti27  1  0.25252863  0.75019160  0.75236145  1
  Ti  Ti28  1  0.74754998  0.24975427  0.24894614  1
  Ti  Ti29  1  0.74852871  0.24992771  0.74943709  1
  Ti  Ti30  1  0.74957867  0.75099234  0.24919032  1
  Ti  Ti31  1  0.74873592  0.74828057  0.75101238  1
  Al  Al32  1  0.08838647  0.07939225  0.08815409  1
  Al  Al33  1  0.07189278  0.08596624  0.59492393  1
  Al  Al34  1  0.09490568  0.57772441  0.08720819  1
  Al  Al35  1  0.07336428  0.57977997  0.57509611  1
  Al  Al36  1  0.58088992  0.08090932  0.08336946  1
  Al  Al37  1  0.58722556  0.09482295  0.58523628  1
  Al  Al38  1  0.58730560  0.58868404  0.07797383  1
  Al  Al39  1  0.57948332  0.59302539  0.58754821  1
  Al  Al40  1  0.41379107  0.41621137  0.09734811  1
  Al  Al41  1  0.42184406  0.42320846  0.58251960  1
  Al  Al42  1  0.41450650  0.90912292  0.07973034  1
  Al  Al43  1  0.41953463  0.91540826  0.58460761  1
  Al  Al44  1  0.91346460  0.41305167  0.09353108  1
  Al  Al45  1  0.91424078  0.42250057  0.57779031  1
  Al  Al46  1  0.91019192  0.91946003  0.08798310  1
  Al  Al47  1  0.91530158  0.91887978  0.56729117  1
  Al  Al48  1  0.41663235  0.07641295  0.41103530  1
  Al  Al49  1  0.40887153  0.07671517  0.90813677  1
  Al  Al50  1  0.41434508  0.58563834  0.40008693  1
  Al  Al51  1  0.42256942  0.59515791  0.91012039  1
  Al  Al52  1  0.91062572  0.08210712  0.40829529  1
  Al  Al53  1  0.92391969  0.08233447  0.92653625  1
  Al  Al54  1  0.91735193  0.59080731  0.41813549  1
  Al  Al55  1  0.91455075  0.58031428  0.92247678  1
  Al  Al56  1  0.08290310  0.41413781  0.39843826  1
  Al  Al57  1  0.08142706  0.42209087  0.92351599  1
  Al  Al58  1  0.08632460  0.91750652  0.41454158  1
  Al  Al59  1  0.09878096  0.92248045  0.91531947  1
  Al  Al60  1  0.57671018  0.41272288  0.41867032  1
  Al  Al61  1  0.58091563  0.42719167  0.92384254  1
  Al  Al62  1  0.57945161  0.91995574  0.41631857  1
  Al  Al63  1  0.57149558  0.90576641  0.91692651  1
  Al  Al64  1  0.07523209  0.07722574  0.40959894  1
  Al  Al65  1  0.09292513  0.07959819  0.91407189  1
  Al  Al66  1  0.07997406  0.57683650  0.40801915  1
  Al  Al67  1  0.08958192  0.58101305  0.92680681  1
  Al  Al68  1  0.58968510  0.08807181  0.42348750  1
  Al  Al69  1  0.57083647  0.08168863  0.92157878  1
  Al  Al70  1  0.57262523  0.59133050  0.41723702  1
  Al  Al71  1  0.58641488  0.59675031  0.91391687  1
  Al  Al72  1  0.41259905  0.42428843  0.40322697  1
  Al  Al73  1  0.41895038  0.42300378  0.92638245  1
  Al  Al74  1  0.41249899  0.91953149  0.40624055  1
  Al  Al75  1  0.40789448  0.90850986  0.91432388  1
  Al  Al76  1  0.92362825  0.40758873  0.41227090  1
  Al  Al77  1  0.91732024  0.41863697  0.92643123  1
  Al  Al78  1  0.90378470  0.91776313  0.40944000  1
  Al  Al79  1  0.92090546  0.91977772  0.93164111  1
  Al  Al80  1  0.08485487  0.41474195  0.09557410  1
  Al  Al81  1  0.07537610  0.42013553  0.57635260  1
  Al  Al82  1  0.08897348  0.92029903  0.08635318  1
  Al  Al83  1  0.08305101  0.92447667  0.57343075  1
  Al  Al84  1  0.57700390  0.41392684  0.09070416  1
  Al  Al85  1  0.58286076  0.41467516  0.57906009  1
  Al  Al86  1  0.57872156  0.90981934  0.08658721  1
  Al  Al87  1  0.57729592  0.91840724  0.58207164  1
  Al  Al88  1  0.41828003  0.07879411  0.08198830  1
  Al  Al89  1  0.42807937  0.08668834  0.58825969  1
  Al  Al90  1  0.41143916  0.58042716  0.08946687  1
  Al  Al91  1  0.42307974  0.58584800  0.59124693  1
  Al  Al92  1  0.91256899  0.07946575  0.09185483  1
  Al  Al93  1  0.91779597  0.09291029  0.58087799  1
  Al  Al94  1  0.90922559  0.57518562  0.08756354  1
  Al  Al95  1  0.90387190  0.58495923  0.57670725  1
  Al  Al96  1  0.25034055  0.13425089  0.13634473  1
  Al  Al97  1  0.25241909  0.13429602  0.63543324  1
  Al  Al98  1  0.25587162  0.63093029  0.13802380  1
  Al  Al99  1  0.25631196  0.63723755  0.63622759  1
  Al  Al100  1  0.75092210  0.13732500  0.13157474  1
  Al  Al101  1  0.74646828  0.13544922  0.63229265  1
  Al  Al102  1  0.74707024  0.63612646  0.13610644  1
  Al  Al103  1  0.74978676  0.63526748  0.63525063  1
  Al  Al104  1  0.25285282  0.36764658  0.13346852  1
  Al  Al105  1  0.25157101  0.36007776  0.63138919  1
  Al  Al106  1  0.25270337  0.86418305  0.12965170  1
  Al  Al107  1  0.25617135  0.86426553  0.63749597  1
  Al  Al108  1  0.74844252  0.36533346  0.13837236  1
  Al  Al109  1  0.74713801  0.36278607  0.63428791  1
  Al  Al110  1  0.74895985  0.86525230  0.13543204  1
  Al  Al111  1  0.74831962  0.86162824  0.63714328  1
  Al  Al112  1  0.25598909  0.12900943  0.36105429  1
  Al  Al113  1  0.25104462  0.13168022  0.86581080  1
  Al  Al114  1  0.25651329  0.63269835  0.36313583  1
  Al  Al115  1  0.25780530  0.63602753  0.86606627  1
  Al  Al116  1  0.74814887  0.13331363  0.36016433  1
  Al  Al117  1  0.75190402  0.13529613  0.86764203  1
  Al  Al118  1  0.75879383  0.63669818  0.36796639  1
  Al  Al119  1  0.74767168  0.63616010  0.86624111  1
  Al  Al120  1  0.25580370  0.36760927  0.36044055  1
  Al  Al121  1  0.25230941  0.36365443  0.87360204  1
  Al  Al122  1  0.25302197  0.87065752  0.36072923  1
  Al  Al123  1  0.25477051  0.86307894  0.87300448  1
  Al  Al124  1  0.74702978  0.36380573  0.36160319  1
  Al  Al125  1  0.74872117  0.36297406  0.86712295  1
  Al  Al126  1  0.74852157  0.86884467  0.36101155  1
  Al  Al127  1  0.74571667  0.86327096  0.86653880  1
  Al  Al128  1  0.13480254  0.25547937  0.13714015  1
  Al  Al129  1  0.13300382  0.24687211  0.63710408  1
  Al  Al130  1  0.13596135  0.75245847  0.13668766  1
  Al  Al131  1  0.13626602  0.74969543  0.63737587  1
  Al  Al132  1  0.63225861  0.24949007  0.13150183  1
  Al  Al133  1  0.63414731  0.24695312  0.62647828  1
  Al  Al134  1  0.63506846  0.75078963  0.12977322  1
  Al  Al135  1  0.63120775  0.74578261  0.63486051  1
  Al  Al136  1  0.13705595  0.25550552  0.35895692  1
  Al  Al137  1  0.13759157  0.25068074  0.86586977  1
  Al  Al138  1  0.13953762  0.75201614  0.35884819  1
  Al  Al139  1  0.13810797  0.74996348  0.86810840  1
  Al  Al140  1  0.63208310  0.24915144  0.36726289  1
  Al  Al141  1  0.63602866  0.24714779  0.86884924  1
  Al  Al142  1  0.63471866  0.74954598  0.36624402  1
  Al  Al143  1  0.63278691  0.74769878  0.87048693  1
  Al  Al144  1  0.36941097  0.25234998  0.13785913  1
  Al  Al145  1  0.36616441  0.24470100  0.63515722  1
  Al  Al146  1  0.36596118  0.75001234  0.13106729  1
  Al  Al147  1  0.36781354  0.74955819  0.63228090  1
  Al  Al148  1  0.86738130  0.25236584  0.13813071  1
  Al  Al149  1  0.86335023  0.24640927  0.63351086  1
  Al  Al150  1  0.86662215  0.75176963  0.13619974  1
  Al  Al151  1  0.86399801  0.74657267  0.63473797  1
  Al  Al152  1  0.37149215  0.25073087  0.36164198  1
  Al  Al153  1  0.36440920  0.24982295  0.86570047  1
  Al  Al154  1  0.36497498  0.74904261  0.36792719  1
  Al  Al155  1  0.36827353  0.75205289  0.87161593  1
  Al  Al156  1  0.86285236  0.25107432  0.36052041  1
  Al  Al157  1  0.86531259  0.24685138  0.86603859  1
  Al  Al158  1  0.86449705  0.75270815  0.36051907  1
  Al  Al159  1  0.86594276  0.74702326  0.86709694  1
  Al  Al160  1  0.13798039  0.12889585  0.25048466  1
  Al  Al161  1  0.13855605  0.13404289  0.75262875  1
  Al  Al162  1  0.13860968  0.63329851  0.24485758  1
  Al  Al163  1  0.13272476  0.63824980  0.75091154  1
  Al  Al164  1  0.62931746  0.13574947  0.24843611  1
  Al  Al165  1  0.63450032  0.13740009  0.74738884  1
  Al  Al166  1  0.63374987  0.63999273  0.25076695  1
  Al  Al167  1  0.63069426  0.63777584  0.75295605  1
  Al  Al168  1  0.37174231  0.13360033  0.24839935  1
  Al  Al169  1  0.36350021  0.13434711  0.75357290  1
  Al  Al170  1  0.36939362  0.63612232  0.25076504  1
  Al  Al171  1  0.37283493  0.64161865  0.75344850  1
  Al  Al172  1  0.86325628  0.13241705  0.24923736  1
  Al  Al173  1  0.86358220  0.13504983  0.74825212  1
  Al  Al174  1  0.86393021  0.63285153  0.24413498  1
  Al  Al175  1  0.86740880  0.63652548  0.75323639  1
  Al  Al176  1  0.13715337  0.36857409  0.24520030  1
  Al  Al177  1  0.13592921  0.36353812  0.74883777  1
  Al  Al178  1  0.13915361  0.87402020  0.24743024  1
  Al  Al179  1  0.14117738  0.86689890  0.75910328  1
  Al  Al180  1  0.62709685  0.36147156  0.24839658  1
  Al  Al181  1  0.63679990  0.36234460  0.74899822  1
  Al  Al182  1  0.63186903  0.86518544  0.24697163  1
  Al  Al183  1  0.63223834  0.85973068  0.75443843  1
  Al  Al184  1  0.36735891  0.36908638  0.24713813  1
  Al  Al185  1  0.36261928  0.36493171  0.75252238  1
  Al  Al186  1  0.36734527  0.86401369  0.24649634  1
  Al  Al187  1  0.36869857  0.86487850  0.75901538  1
  Al  Al188  1  0.86725384  0.36568314  0.24694923  1
  Al  Al189  1  0.86266021  0.36167958  0.75072044  1
  Al  Al190  1  0.86401516  0.86956540  0.24969707  1
  Al  Al191  1  0.86280675  0.86311492  0.75289984  1
  Al  Al192  1  0.82215118  0.49908799  0.68211646  1
  Al  Al193  1  0.00134621  0.16868300  0.81378901  1
  Al  Al194  1  0.17696028  0.33122434  0.49676785  1
  Al  Al195  1  0.00259921  0.17944853  0.17828880  1
  Al  Al196  1  0.82065151  0.32585377  0.49841560  1
  Al  Al197  1  0.32924197  0.50187921  0.68320408  1
  Al  Al198  1  -0.00231016  0.31502422  0.66783094  1
  Al  Al199  1  0.50124624  0.68448851  0.17944944  1
  Al  Al200  1  0.81644711  0.81089842  0.49796500  1
  Al  Al201  1  0.81985505  0.31999896  0.00273715  1
  Al  Al202  1  0.49946568  0.81402157  0.31693811  1
  Al  Al203  1  0.17902993  0.49966371  0.67641413  1
  Al  Al204  1  0.17113485  0.17105616  0.49879614  1
  Al  Al205  1  0.81649045  0.17339968  0.49541569  1
  Al  Al206  1  0.00077784  0.82387992  0.83148320  1
  Al  Al207  1  0.67166630  0.00101433  0.83007591  1
  Al  Al208  1  0.17463788  -0.00075450  0.68303630  1
  Al  Al209  1  0.00038819  0.82265309  0.17525700  1
  Al  Al210  1  0.18410768  0.50019190  0.82925022  1
  Al  Al211  1  0.82931412  -0.00070742  0.67727415  1
  Al  Al212  1  0.00145618  0.68008402  0.31606069  1
  Al  Al213  1  0.66895448  0.50112903  0.67236655  1
  Al  Al214  1  -0.00011413  0.18636474  0.32731243  1
  Al  Al215  1  0.81683399  0.82449521  0.00113296  1
  Al  Al216  1  0.50179032  0.32925432  0.83079935  1
  Al  Al217  1  0.67942974  0.50094115  0.82558340  1
  Al  Al218  1  0.00018582  0.82430291  0.66772304  1
  Al  Al219  1  0.00024146  0.32674952  0.82665925  1
  Al  Al220  1  0.66905380  0.50285050  0.32817597  1
  Al  Al221  1  0.18533001  0.68304182  0.00303761  1
  Al  Al222  1  0.83117063  0.49850049  0.31956176  1
  Al  Al223  1  0.49893016  0.81264174  0.68832012  1
  Al  Al224  1  0.33130590  0.17768491  0.49859163  1
  Al  Al225  1  0.17523556  0.67020200  0.49648147  1
  Al  Al226  1  0.67188804  -0.00097951  0.67328185  1
  Al  Al227  1  0.18495346  0.50123143  0.31239353  1
  Al  Al228  1  0.18061655  0.82655954  0.49966364  1
  Al  Al229  1  0.17490477  0.17755976  0.00189311  1
  Al  Al230  1  0.67926576  0.50087519  0.17227382  1
  Al  Al231  1  0.49920881  0.17522878  0.81616312  1
  Al  Al232  1  0.81709042  0.67196427  0.00290040  1
  Al  Al233  1  0.31664039  -0.00112978  0.18083012  1
  Al  Al234  1  0.68058811  0.67722353  0.49671319  1
  Al  Al235  1  0.32663911  -0.00040771  0.68767208  1
  Al  Al236  1  0.32817203  0.17665113  0.00077579  1
  Al  Al237  1  0.49981479  0.31163140  0.67420964  1
  Al  Al238  1  0.68529010  0.00107942  0.17959042  1
  Au  Au239  1  0.67804400  0.00268498  0.33896709  1
  Au  Au240  1  0.83023334  0.00064528  0.66028759  1
  Au  Au241  1  -0.00094129  0.83468168  0.17776331  1
  Au  Au242  1  0.84618387  0.49923320  0.32592529  1
  Au  Au243  1  0.67044429  0.33924010  0.00252890  1
  Au  Au244  1  0.15754293  -0.00108926  0.68088963  1
  Au  Au245  1  0.33270000  0.67106470  0.00128047  1
  Au  Au246  1  -0.00029158  0.82837223  0.65147783  1
  Au  Au247  1  0.34265731  0.66615607  0.50027388  1
  Au  Au248  1  -0.00092162  0.82804177  0.33900866  1
  Au  Au249  1  0.66453169  0.16911888  -0.00260411  1
  Au  Au250  1  0.15466886  0.16553752  0.50114787  1
  Au  Au251  1  0.67226816  0.66785030  0.49912696  1
  Au  Au252  1  0.65371317  0.50418457  0.32135952  1
  Au  Au253  1  0.32978921  -0.00324006  0.17037633  1
  Au  Au254  1  0.66566338  0.82309346  -0.00043777  1
  Au  Au255  1  0.15938608  0.67583053  0.49407138  1
  Au  Au256  1  0.16523090  0.33463689  0.49899630  1
  Au  Au257  1  0.17729038  0.83382111  0.00234023  1
  Au  Au258  1  0.33348601  0.34180639  0.49697213  1
  Au  Au259  1  0.50336237  0.16340344  0.33018684  1
  Au  Au260  1  -0.00552750  0.33182132  0.67002917  1
  Au  Au261  1  0.50155120  0.66950667  0.17200925  1
  Au  Au262  1  0.00155884  0.83915544  0.83754276  1
  Au  Au263  1  0.33823353  0.32743815  0.00553218  1
  Au  Au264  1  0.16127102  0.32820720  0.00287371  1
  Au  Au265  1  0.00308860  0.16790223  0.83087437  1
  Au  Au266  1  0.33653752  0.16617966  0.49837671  1
  Au  Au267  1  0.49948358  0.82994277  0.32358368  1
  Au  Au268  1  0.00501785  0.66014235  0.83771628  1
  Au  Au269  1  0.32793610  0.84040249  0.49690378  1
  Au  Au270  1  0.49677485  0.33272698  0.32183781  1
  Au  Au271  1  0.33688116  0.50146215  0.83279594  1
  Au  Au272  1  0.67254160  0.32569418  0.49769354  1
  Au  Au273  1  0.49865270  0.32818743  0.67706329  1
  Au  Au274  1  0.17294853  0.00061233  0.32592625  1
  Au  Au275  1  0.49877986  0.17691365  0.16231832  1
  Au  Au276  1  0.67313271  0.84028477  0.50154116  1
  Au  Au277  1  0.16569703  0.50248321  0.66626735  1
  Au  Au278  1  0.83339245  -0.00191766  0.84221386  1
  Au  Au279  1  -0.00725494  0.65851774  0.66841558  1
  Au  Au280  1  0.00228474  0.16824915  0.16973780  1
  Au  Au281  1  0.50200840  0.82419240  0.67567939  1
  Au  Au282  1  0.83274214  0.17028240  0.00343775  1
  Au  Au283  1  0.83013002  0.49638753  0.83131319  1
  Au  Au284  1  0.67298542  -0.00119540  0.16814118  1
  Au  Au285  1  0.65546115  -0.00348954  0.82801743  1
  Au  Au286  1  0.33900145  0.00189079  0.67582911  1
  Au  Au287  1  0.00173722  0.65726259  0.16895948  1
