# generated using pymatgen
data_Ca24Ti8Al207Au49
_symmetry_space_group_name_H-M   'P 1'
_cell_length_a   17.31919300
_cell_length_b   17.31845776
_cell_length_c   17.31915878
_cell_angle_alpha   90.00053520
_cell_angle_beta   90.00229403
_cell_angle_gamma   90.00214956
_symmetry_Int_Tables_number   1
_chemical_formula_structural   Ca24Ti8Al207Au49
_chemical_formula_sum   'Ca24 Ti8 Al207 Au49'
_cell_volume   5194.73813066
_cell_formula_units_Z   1
loop_
 _symmetry_equiv_pos_site_id
 _symmetry_equiv_pos_as_xyz
  1  'x, y, z'
loop_
 _atom_site_type_symbol
 _atom_site_label
 _atom_site_symmetry_multiplicity
 _atom_site_fract_x
 _atom_site_fract_y
 _atom_site_fract_z
 _atom_site_occupancy
  Ca  Ca0  1  0.25326922  0.00011382  -0.00087572  1
  Ca  Ca1  1  0.25265119  -0.00372905  0.49794740  1
  Ca  Ca2  1  0.24710663  0.50015899  -0.00341343  1
  Ca  Ca3  1  0.25146751  0.50550076  0.50098369  1
  Ca  Ca4  1  0.74467841  -0.00064996  -0.00044667  1
  Ca  Ca5  1  0.74352651  0.00090411  0.50023288  1
  Ca  Ca6  1  0.75287350  0.50029918  -0.00342512  1
  Ca  Ca7  1  0.74350265  0.50216202  0.49863461  1
  Ca  Ca8  1  0.00314244  0.25388427  -0.00335703  1
  Ca  Ca9  1  0.00098590  0.25265057  0.50662940  1
  Ca  Ca10  1  0.00461983  0.74895037  -0.00645406  1
  Ca  Ca11  1  0.00108601  0.74591319  0.50412723  1
  Ca  Ca12  1  0.49826040  0.24557544  0.00255227  1
  Ca  Ca13  1  0.50044399  0.25114367  0.49807839  1
  Ca  Ca14  1  0.49846184  0.75240601  -0.00229291  1
  Ca  Ca15  1  0.49980870  0.74640817  0.50229936  1
  Ca  Ca16  1  -0.00175311  -0.00205094  0.24556656  1
  Ca  Ca17  1  0.00286451  0.00330390  0.74989022  1
  Ca  Ca18  1  -0.00094978  0.50388568  0.24865872  1
  Ca  Ca19  1  0.00178851  0.49885648  0.75323495  1
  Ca  Ca20  1  0.50248997  0.00069728  0.25082184  1
  Ca  Ca21  1  0.49499834  -0.00263011  0.75316595  1
  Ca  Ca22  1  0.50077205  0.49994943  0.25596959  1
  Ca  Ca23  1  0.50192377  0.50134700  0.74288330  1
  Ti  Ti24  1  0.25171449  0.24934724  0.24945240  1
  Ti  Ti25  1  0.24971345  0.24976733  0.75021800  1
  Ti  Ti26  1  0.25135602  0.74939337  0.25128886  1
  Ti  Ti27  1  0.25033039  0.75056573  0.74870082  1
  Ti  Ti28  1  0.74788042  0.25109848  0.24900885  1
  Ti  Ti29  1  0.74996544  0.25198011  0.75023465  1
  Ti  Ti30  1  0.74710900  0.74716397  0.25083494  1
  Ti  Ti31  1  0.74865804  0.74716395  0.74944722  1
  Al  Al32  1  0.10432137  0.08572402  0.08219818  1
  Al  Al33  1  0.08225203  0.08049004  0.58294646  1
  Al  Al34  1  0.08142329  0.58873306  0.08408651  1
  Al  Al35  1  0.09008633  0.58950556  0.58002734  1
  Al  Al36  1  0.58794831  0.08471650  0.08351735  1
  Al  Al37  1  0.58819740  0.07813730  0.58201855  1
  Al  Al38  1  0.58760056  0.57895398  0.09200521  1
  Al  Al39  1  0.58663189  0.58779875  0.58542653  1
  Al  Al40  1  0.41802476  0.41792870  0.07982852  1
  Al  Al41  1  0.41050368  0.41782504  0.57597399  1
  Al  Al42  1  0.41733084  0.92446202  0.07794611  1
  Al  Al43  1  0.41420537  0.90774143  0.57910829  1
  Al  Al44  1  0.91775379  0.42460362  0.07667616  1
  Al  Al45  1  0.91865457  0.41627654  0.59034615  1
  Al  Al46  1  0.91683213  0.91763304  0.07471706  1
  Al  Al47  1  0.91587269  0.91974114  0.58596892  1
  Al  Al48  1  0.42061978  0.10247047  0.41347961  1
  Al  Al49  1  0.40655979  0.08024128  0.91657035  1
  Al  Al50  1  0.41949168  0.59521517  0.42031280  1
  Al  Al51  1  0.41176095  0.58176617  0.90984635  1
  Al  Al52  1  0.91547539  0.07763383  0.42256982  1
  Al  Al53  1  0.92263282  0.08881443  0.91757795  1
  Al  Al54  1  0.91710693  0.58628298  0.41908274  1
  Al  Al55  1  0.92129946  0.57965324  0.90617493  1
  Al  Al56  1  0.08161614  0.42490822  0.42029896  1
  Al  Al57  1  0.08582751  0.41094403  0.90962597  1
  Al  Al58  1  0.08801638  0.91440596  0.42368999  1
  Al  Al59  1  0.07684906  0.91137600  0.91138311  1
  Al  Al60  1  0.58387999  0.40795390  0.41591597  1
  Al  Al61  1  0.58644667  0.42168972  0.91843321  1
  Al  Al62  1  0.58543728  0.92241694  0.41363830  1
  Al  Al63  1  0.57880291  0.91023912  0.91784862  1
  Al  Al64  1  0.08517355  0.07872565  0.42372485  1
  Al  Al65  1  0.08845969  0.09435465  0.92150015  1
  Al  Al66  1  0.08909953  0.58866074  0.41787756  1
  Al  Al67  1  0.08280545  0.58426023  0.91151901  1
  Al  Al68  1  0.58309650  0.08789874  0.40465180  1
  Al  Al69  1  0.58222776  0.08186564  0.92559160  1
  Al  Al70  1  0.58332116  0.58684108  0.42061101  1
  Al  Al71  1  0.58207931  0.58170329  0.91302368  1
  Al  Al72  1  0.42024684  0.40146708  0.41541037  1
  Al  Al73  1  0.40578862  0.42134187  0.91482284  1
  Al  Al74  1  0.41499516  0.90664188  0.42178408  1
  Al  Al75  1  0.41578100  0.91805334  0.91164974  1
  Al  Al76  1  0.91893466  0.42288088  0.41998548  1
  Al  Al77  1  0.92123592  0.41774605  0.90378089  1
  Al  Al78  1  0.91693827  0.92126325  0.42246888  1
  Al  Al79  1  0.91998149  0.90392502  0.91535341  1
  Al  Al80  1  0.09004888  0.41533037  0.07286191  1
  Al  Al81  1  0.08005362  0.41404201  0.58765404  1
  Al  Al82  1  0.08934591  0.92554627  0.08665138  1
  Al  Al83  1  0.08494627  0.91429241  0.58256855  1
  Al  Al84  1  0.58880098  0.42041732  0.09046427  1
  Al  Al85  1  0.59250204  0.42472663  0.57659575  1
  Al  Al86  1  0.58846339  0.91398200  0.07956152  1
  Al  Al87  1  0.58562811  0.91814380  0.58820019  1
  Al  Al88  1  0.40922099  0.08630363  0.07885251  1
  Al  Al89  1  0.41167898  0.08713988  0.57239540  1
  Al  Al90  1  0.41886443  0.58096333  0.08185245  1
  Al  Al91  1  0.41716461  0.59061708  0.58426615  1
  Al  Al92  1  0.91611212  0.07846370  0.07543257  1
  Al  Al93  1  0.91692566  0.07886001  0.58775372  1
  Al  Al94  1  0.92333017  0.58601937  0.09225847  1
  Al  Al95  1  0.91468638  0.58256075  0.58312675  1
  Al  Al96  1  0.25243590  0.13723187  0.12947010  1
  Al  Al97  1  0.25522947  0.13741857  0.63256003  1
  Al  Al98  1  0.25156440  0.63493868  0.13756839  1
  Al  Al99  1  0.25303906  0.63516576  0.63311227  1
  Al  Al100  1  0.74622025  0.13570529  0.13161884  1
  Al  Al101  1  0.74639382  0.13798008  0.63171295  1
  Al  Al102  1  0.74378399  0.62774549  0.13689038  1
  Al  Al103  1  0.74604184  0.63129746  0.63523278  1
  Al  Al104  1  0.24824146  0.36307132  0.13424655  1
  Al  Al105  1  0.25334151  0.36471483  0.63331242  1
  Al  Al106  1  0.25039509  0.86325927  0.13467457  1
  Al  Al107  1  0.25378710  0.86096091  0.63085972  1
  Al  Al108  1  0.74583484  0.37082926  0.13639357  1
  Al  Al109  1  0.74671439  0.36868563  0.63359352  1
  Al  Al110  1  0.74527987  0.86304168  0.13649607  1
  Al  Al111  1  0.74529203  0.86222143  0.63828520  1
  Al  Al112  1  0.25577718  0.13776881  0.37133543  1
  Al  Al113  1  0.24788658  0.13634375  0.86902555  1
  Al  Al114  1  0.25236973  0.63701323  0.36868011  1
  Al  Al115  1  0.25428347  0.63650866  0.86251969  1
  Al  Al116  1  0.74312351  0.13660696  0.36901257  1
  Al  Al117  1  0.74897005  0.13788758  0.87011127  1
  Al  Al118  1  0.74434507  0.62846781  0.36411969  1
  Al  Al119  1  0.74673485  0.62996006  0.86326771  1
  Al  Al120  1  0.25672935  0.36256659  0.36882534  1
  Al  Al121  1  0.24746496  0.36298619  0.86784352  1
  Al  Al122  1  0.25131991  0.86039260  0.37371207  1
  Al  Al123  1  0.25222567  0.86486992  0.86290152  1
  Al  Al124  1  0.74299691  0.37040362  0.36652672  1
  Al  Al125  1  0.75078123  0.37130328  0.86510981  1
  Al  Al126  1  0.74554835  0.86260829  0.36380789  1
  Al  Al127  1  0.74522948  0.86282551  0.86478157  1
  Al  Al128  1  0.13642857  0.24858284  0.12786114  1
  Al  Al129  1  0.13580689  0.24735967  0.63335068  1
  Al  Al130  1  0.13490261  0.74714886  0.13419913  1
  Al  Al131  1  0.13671853  0.74951065  0.62884445  1
  Al  Al132  1  0.63151967  0.24644010  0.13594318  1
  Al  Al133  1  0.63570141  0.25455680  0.62849388  1
  Al  Al134  1  0.63240127  0.74940670  0.13876930  1
  Al  Al135  1  0.63077307  0.74029439  0.63435951  1
  Al  Al136  1  0.13832409  0.24739992  0.36580390  1
  Al  Al137  1  0.13452507  0.25162569  0.86707439  1
  Al  Al138  1  0.13785506  0.74863476  0.37260935  1
  Al  Al139  1  0.13513961  0.74894791  0.86351344  1
  Al  Al140  1  0.63283149  0.25182423  0.36699127  1
  Al  Al141  1  0.63627918  0.25221078  0.86392396  1
  Al  Al142  1  0.62946713  0.74450857  0.36524918  1
  Al  Al143  1  0.63277840  0.74968110  0.86228980  1
  Al  Al144  1  0.36767767  0.24564635  0.13188274  1
  Al  Al145  1  0.36728361  0.25138042  0.63664073  1
  Al  Al146  1  0.36750384  0.74627774  0.13545877  1
  Al  Al147  1  0.36692778  0.74899173  0.63415858  1
  Al  Al148  1  0.86012545  0.25202701  0.12802476  1
  Al  Al149  1  0.86251265  0.25155892  0.63568245  1
  Al  Al150  1  0.86206408  0.74549226  0.13699374  1
  Al  Al151  1  0.86327079  0.74654165  0.63628361  1
  Al  Al152  1  0.36955088  0.25051802  0.36674951  1
  Al  Al153  1  0.36250886  0.24633231  0.86970840  1
  Al  Al154  1  0.36825010  0.74944098  0.36848821  1
  Al  Al155  1  0.36857697  0.75112653  0.86316667  1
  Al  Al156  1  0.85910480  0.25085460  0.36446257  1
  Al  Al157  1  0.86751365  0.25137037  0.86690017  1
  Al  Al158  1  0.85958984  0.74536894  0.36359311  1
  Al  Al159  1  0.86576227  0.74912022  0.86172301  1
  Al  Al160  1  0.14069177  0.13418342  0.24332660  1
  Al  Al161  1  0.13096300  0.13827545  0.75357555  1
  Al  Al162  1  0.13677710  0.63782215  0.24966399  1
  Al  Al163  1  0.13542082  0.63668301  0.75046079  1
  Al  Al164  1  0.62939875  0.13777597  0.25377512  1
  Al  Al165  1  0.63817048  0.13675336  0.74671816  1
  Al  Al166  1  0.63049056  0.63108777  0.25248058  1
  Al  Al167  1  0.63385890  0.62773701  0.74857769  1
  Al  Al168  1  0.36973775  0.13932447  0.25090440  1
  Al  Al169  1  0.36101514  0.13357938  0.75529936  1
  Al  Al170  1  0.37090018  0.63746902  0.25494917  1
  Al  Al171  1  0.36677327  0.63536852  0.74752422  1
  Al  Al172  1  0.86115647  0.13782636  0.24716614  1
  Al  Al173  1  0.86793483  0.13901741  0.75198145  1
  Al  Al174  1  0.86090973  0.62961090  0.24922821  1
  Al  Al175  1  0.86650588  0.63236013  0.75411143  1
  Al  Al176  1  0.13806816  0.36123104  0.24870189  1
  Al  Al177  1  0.13539884  0.36339809  0.75192206  1
  Al  Al178  1  0.13765632  0.86278814  0.24543387  1
  Al  Al179  1  0.13182768  0.86134073  0.75143472  1
  Al  Al180  1  0.63360946  0.36763476  0.25337903  1
  Al  Al181  1  0.63637737  0.37080179  0.74868280  1
  Al  Al182  1  0.63129821  0.86462862  0.25469718  1
  Al  Al183  1  0.63281180  0.86334038  0.74856588  1
  Al  Al184  1  0.36522669  0.36221397  0.25215871  1
  Al  Al185  1  0.36178701  0.36635851  0.75307921  1
  Al  Al186  1  0.36638141  0.86249999  0.25199289  1
  Al  Al187  1  0.36630068  0.86566904  0.75256150  1
  Al  Al188  1  0.86075831  0.36985538  0.24939454  1
  Al  Al189  1  0.86499353  0.36784345  0.75372278  1
  Al  Al190  1  0.86257818  0.86210205  0.24780688  1
  Al  Al191  1  0.86735210  0.86025412  0.74992794  1
  Al  Al192  1  0.32964487  0.00089687  0.32965961  1
  Al  Al193  1  0.32614917  0.82025653  -0.00077822  1
  Al  Al194  1  0.32033757  0.49830021  0.17415185  1
  Al  Al195  1  0.00029497  0.32609731  0.16889675  1
  Al  Al196  1  -0.00136043  0.82595411  0.32812578  1
  Al  Al197  1  -0.00061469  0.31799792  0.68948717  1
  Al  Al198  1  0.31455020  0.00061961  0.17533605  1
  Al  Al199  1  0.81312908  0.82533094  0.00052265  1
  Al  Al200  1  -0.00056536  0.81399078  0.16731509  1
  Al  Al201  1  0.32067702  0.50104552  0.67591818  1
  Al  Al202  1  0.80943650  0.00008794  0.32934853  1
  Al  Al203  1  0.81657127  0.32385235  0.49859279  1
  Al  Al204  1  0.83002336  -0.00225079  0.82787317  1
  Al  Al205  1  0.67961031  0.31653962  0.00180037  1
  Al  Al206  1  0.17259913  0.82932725  -0.00080323  1
  Al  Al207  1  0.83247428  0.67053521  -0.00346001  1
  Al  Al208  1  0.18228943  0.32053586  0.49859947  1
  Al  Al209  1  0.49941370  0.17168255  0.83036644  1
  Al  Al210  1  0.49887590  0.32783588  0.82029971  1
  Al  Al211  1  0.67319618  0.00042991  0.18357047  1
  Al  Al212  1  0.31501568  0.31416000  0.00153796  1
  Al  Al213  1  0.81115559  0.00002778  0.67395173  1
  Al  Al214  1  0.17449965  -0.00063689  0.67663377  1
  Al  Al215  1  0.33139654  -0.00055055  0.67900418  1
  Al  Al216  1  0.18296165  -0.00032589  0.83118027  1
  Al  Al217  1  0.00039656  0.68082741  0.68380636  1
  Al  Al218  1  0.81399137  0.50038303  0.68722110  1
  Al  Al219  1  0.82473944  -0.00140419  0.17207962  1
  Al  Al220  1  0.49668791  0.82478064  0.17461406  1
  Al  Al221  1  0.00000927  0.32980134  0.32631426  1
  Al  Al222  1  0.67122641  0.81356144  0.50055682  1
  Al  Al223  1  0.00006645  0.67123550  0.31687210  1
  Al  Al224  1  0.00436679  0.17089002  0.16708400  1
  Al  Al225  1  0.66905887  0.00021791  0.81861219  1
  Al  Al226  1  0.81373047  0.67356314  0.49991242  1
  Al  Al227  1  0.49960771  0.32221686  0.18530151  1
  Al  Al228  1  0.50075280  0.68323041  0.81385169  1
  Al  Al229  1  0.32883025  0.50038023  0.32868297  1
  Al  Al230  1  0.82821843  0.82545582  0.50153846  1
  Al  Al231  1  0.18003629  0.67496863  -0.00205502  1
  Al  Al232  1  0.18583680  0.50039083  0.82052247  1
  Al  Al233  1  0.17361295  -0.00111174  0.31300579  1
  Al  Al234  1  -0.00089097  0.17216938  0.32987719  1
  Al  Al235  1  0.49981957  0.81427559  0.68355986  1
  Al  Al236  1  0.49973024  0.17572976  0.67423950  1
  Al  Al237  1  0.17374500  0.49997374  0.31706263  1
  Al  Al238  1  0.67225169  0.68705424  0.00044166  1
  Au  Au239  1  0.82635224  0.50043391  0.67521267  1
  Au  Au240  1  0.49958285  0.82742094  0.67245699  1
  Au  Au241  1  0.82975254  0.33451731  0.49971604  1
  Au  Au242  1  0.18284555  0.15954578  0.50318772  1
  Au  Au243  1  0.00212616  0.18359466  0.83501880  1
  Au  Au244  1  0.49922277  0.15982968  0.67075557  1
  Au  Au245  1  -0.00037036  0.84034307  0.67871839  1
  Au  Au246  1  0.32172979  0.33001415  0.00166029  1
  Au  Au247  1  -0.00099468  0.17879209  0.34628735  1
  Au  Au248  1  0.67545794  0.49979211  0.82632089  1
  Au  Au249  1  0.49934854  0.66900165  0.82299236  1
  Au  Au250  1  0.49704460  0.33226930  0.83652087  1
  Au  Au251  1  0.65376117  -0.00053833  0.82404993  1
  Au  Au252  1  0.83254580  0.50134748  0.32984703  1
  Au  Au253  1  0.00074211  0.66944517  0.67144849  1
  Au  Au254  1  -0.00012552  0.83016353  0.16171236  1
  Au  Au255  1  0.50563758  0.33832905  0.65499119  1
  Au  Au256  1  0.49863857  0.16153561  0.17165317  1
  Au  Au257  1  0.67637113  0.82970699  0.50027580  1
  Au  Au258  1  0.32982955  0.66718885  -0.00056946  1
  Au  Au259  1  0.82131754  0.16299181  0.00059495  1
  Au  Au260  1  0.66612531  0.32679258  0.00284883  1
  Au  Au261  1  0.16971715  0.50168060  0.16420035  1
  Au  Au262  1  0.49957663  0.65971057  0.17908313  1
  Au  Au263  1  0.34494003  0.00502492  0.32888879  1
  Au  Au264  1  0.66079220  0.17323624  0.49696714  1
  Au  Au265  1  0.16440192  0.50035381  0.67360058  1
  Au  Au266  1  0.66182616  0.67373114  0.00172467  1
  Au  Au267  1  0.33290375  0.50260301  0.67927256  1
  Au  Au268  1  0.82704867  0.16231246  0.50436609  1
  Au  Au269  1  0.17767131  0.82584044  0.50346148  1
  Au  Au270  1  0.84511298  -0.00377601  0.82338742  1
  Au  Au271  1  0.00009370  0.17190589  0.66699201  1
  Au  Au272  1  0.49854851  0.83350443  0.16589912  1
  Au  Au273  1  0.49920864  0.33809624  0.17888892  1
  Au  Au274  1  0.83998760  0.33216048  -0.00768207  1
  Au  Au275  1  0.00078072  0.33862955  0.17157837  1
  Au  Au276  1  0.50103730  0.82238519  0.33828129  1
  Au  Au277  1  0.82200548  0.50091420  0.16199009  1
  Au  Au278  1  0.17368825  0.33518272  0.49870783  1
  Au  Au279  1  0.33861679  0.50027335  0.33875705  1
  Au  Au280  1  0.16660324  0.00044586  0.83318298  1
  Au  Au281  1  0.66027312  0.49996152  0.32903925  1
  Au  Au282  1  -0.00336713  0.81862504  0.34377014  1
  Au  Au283  1  0.15777439  -0.00244324  0.31914971  1
  Au  Au284  1  0.32524920  -0.00095844  0.66307478  1
  Au  Au285  1  0.84780194  0.67521260  -0.00404617  1
  Au  Au286  1  0.82607481  -0.00172363  0.32446703  1
  Au  Au287  1  0.00011313  0.15976235  0.16298566  1
