# generated using pymatgen
data_Ca24Ti8Al207Au49
_symmetry_space_group_name_H-M   'P 1'
_cell_length_a   17.32062237
_cell_length_b   17.32132604
_cell_length_c   17.32125154
_cell_angle_alpha   90.00013434
_cell_angle_beta   90.00248803
_cell_angle_gamma   89.99810133
_symmetry_Int_Tables_number   1
_chemical_formula_structural   Ca24Ti8Al207Au49
_chemical_formula_sum   'Ca24 Ti8 Al207 Au49'
_cell_volume   5196.65514478
_cell_formula_units_Z   1
loop_
 _symmetry_equiv_pos_site_id
 _symmetry_equiv_pos_as_xyz
  1  'x, y, z'
loop_
 _atom_site_type_symbol
 _atom_site_label
 _atom_site_symmetry_multiplicity
 _atom_site_fract_x
 _atom_site_fract_y
 _atom_site_fract_z
 _atom_site_occupancy
  Ca  Ca0  1  0.24698447  0.00718521  0.00123087  1
  Ca  Ca1  1  0.24426770  0.00068034  0.49660026  1
  Ca  Ca2  1  0.24725748  0.49127805  -0.00177806  1
  Ca  Ca3  1  0.24549845  0.49672784  0.49967525  1
  Ca  Ca4  1  0.75483359  0.00221086  -0.00408832  1
  Ca  Ca5  1  0.75368783  0.00642013  0.50330096  1
  Ca  Ca6  1  0.75851933  0.49843052  -0.00030447  1
  Ca  Ca7  1  0.75484103  0.49461174  0.50017467  1
  Ca  Ca8  1  0.00003771  0.24840955  -0.00322880  1
  Ca  Ca9  1  -0.00133900  0.24891042  0.50277115  1
  Ca  Ca10  1  -0.00735027  0.75476779  0.00069600  1
  Ca  Ca11  1  0.00189598  0.75642035  0.49592471  1
  Ca  Ca12  1  0.49803514  0.25055185  0.00248516  1
  Ca  Ca13  1  0.50278597  0.24963358  0.49905277  1
  Ca  Ca14  1  0.50512505  0.75163004  -0.00175897  1
  Ca  Ca15  1  0.49999422  0.75189601  0.50468254  1
  Ca  Ca16  1  -0.00020202  0.00307314  0.24916068  1
  Ca  Ca17  1  -0.00039640  0.00530899  0.75249648  1
  Ca  Ca18  1  -0.00532245  0.49680844  0.24795124  1
  Ca  Ca19  1  0.00062099  0.49233569  0.75384473  1
  Ca  Ca20  1  0.50146667  0.00453175  0.24881254  1
  Ca  Ca21  1  0.50074408  0.00165925  0.75368923  1
  Ca  Ca22  1  0.50345919  0.48903501  0.25042823  1
  Ca  Ca23  1  0.49934007  0.49989787  0.75727698  1
  Ti  Ti24  1  0.24913522  0.24848278  0.24828036  1
  Ti  Ti25  1  0.24838357  0.25020204  0.75166125  1
  Ti  Ti26  1  0.24659778  0.75202864  0.25195923  1
  Ti  Ti27  1  0.24713980  0.75037019  0.74862515  1
  Ti  Ti28  1  0.75042034  0.24982930  0.25062827  1
  Ti  Ti29  1  0.75062300  0.25006061  0.74960347  1
  Ti  Ti30  1  0.75307840  0.75149756  0.24797366  1
  Ti  Ti31  1  0.75133316  0.75043955  0.75322078  1
  Al  Al32  1  0.08245508  0.08705958  0.08064586  1
  Al  Al33  1  0.08464904  0.08050323  0.59192772  1
  Al  Al34  1  0.06897292  0.57698570  0.08037852  1
  Al  Al35  1  0.08198123  0.57600612  0.57721207  1
  Al  Al36  1  0.57755611  0.08692816  0.08929852  1
  Al  Al37  1  0.59557405  0.08356084  0.57758048  1
  Al  Al38  1  0.59005698  0.57463181  0.07927011  1
  Al  Al39  1  0.57990319  0.57480787  0.57643720  1
  Al  Al40  1  0.40709786  0.40249228  0.07847013  1
  Al  Al41  1  0.41846316  0.42027477  0.57884368  1
  Al  Al42  1  0.42076498  0.93573545  0.07853610  1
  Al  Al43  1  0.41829482  0.91574079  0.57982657  1
  Al  Al44  1  0.91636082  0.41860737  0.08312999  1
  Al  Al45  1  0.91753096  0.40172267  0.58585672  1
  Al  Al46  1  0.90468116  0.92033584  0.08263094  1
  Al  Al47  1  0.92572660  0.92769537  0.58345090  1
  Al  Al48  1  0.41381570  0.08137610  0.40530343  1
  Al  Al49  1  0.41084216  0.09405748  0.92751528  1
  Al  Al50  1  0.42267261  0.57940762  0.42096644  1
  Al  Al51  1  0.42508910  0.57085572  0.91298496  1
  Al  Al52  1  0.91894609  0.09538510  0.41555848  1
  Al  Al53  1  0.91039870  0.09072106  0.91310547  1
  Al  Al54  1  0.91093512  0.57430866  0.40996636  1
  Al  Al55  1  0.91007685  0.57332390  0.91865821  1
  Al  Al56  1  0.08336284  0.41314729  0.42637240  1
  Al  Al57  1  0.08983066  0.40394808  0.90939421  1
  Al  Al58  1  0.09667701  0.91904578  0.41820193  1
  Al  Al59  1  0.07587305  0.92758047  0.91747676  1
  Al  Al60  1  0.58669345  0.40546360  0.41206468  1
  Al  Al61  1  0.57305535  0.41505268  0.91102190  1
  Al  Al62  1  0.57897538  0.92875146  0.42681038  1
  Al  Al63  1  0.59491421  0.92086511  0.91050254  1
  Al  Al64  1  0.08314273  0.08254802  0.40975224  1
  Al  Al65  1  0.07803684  0.09506120  0.91094026  1
  Al  Al66  1  0.07887141  0.57957562  0.41805689  1
  Al  Al67  1  0.08538847  0.56648786  0.91232915  1
  Al  Al68  1  0.58699265  0.09243046  0.41964987  1
  Al  Al69  1  0.58681069  0.08051525  0.91190151  1
  Al  Al70  1  0.58258815  0.57674637  0.41740595  1
  Al  Al71  1  0.58403467  0.57955086  0.91565068  1
  Al  Al72  1  0.42506241  0.40894878  0.41299533  1
  Al  Al73  1  0.41053776  0.39952104  0.91543456  1
  Al  Al74  1  0.40119295  0.92378068  0.41254126  1
  Al  Al75  1  0.42722377  0.92740785  0.91792615  1
  Al  Al76  1  0.90967827  0.41392952  0.42146031  1
  Al  Al77  1  0.91835092  0.40905038  0.90828588  1
  Al  Al78  1  0.92281693  0.92598958  0.41805629  1
  Al  Al79  1  0.90500395  0.92322453  0.91702953  1
  Al  Al80  1  0.08461943  0.40697873  0.07265673  1
  Al  Al81  1  0.08211255  0.40398595  0.58917369  1
  Al  Al82  1  0.07593680  0.92473242  0.08339604  1
  Al  Al83  1  0.09178871  0.91748912  0.58337970  1
  Al  Al84  1  0.57840212  0.41724548  0.08706773  1
  Al  Al85  1  0.58758270  0.41198027  0.57618319  1
  Al  Al86  1  0.59170253  0.92741434  0.07366187  1
  Al  Al87  1  0.58131390  0.92212415  0.58641688  1
  Al  Al88  1  0.41443531  0.10005807  0.08855983  1
  Al  Al89  1  0.42030578  0.07636848  0.57607814  1
  Al  Al90  1  0.42564524  0.56280626  0.07661916  1
  Al  Al91  1  0.41394932  0.57847720  0.58073796  1
  Al  Al92  1  0.90832389  0.08480907  0.08010498  1
  Al  Al93  1  0.91567934  0.09165474  0.58376953  1
  Al  Al94  1  0.90985555  0.58241171  0.08800940  1
  Al  Al95  1  0.92021034  0.57197673  0.57603467  1
  Al  Al96  1  0.25290356  0.13664838  0.12843364  1
  Al  Al97  1  0.24452654  0.13447179  0.63801105  1
  Al  Al98  1  0.24548612  0.63649752  0.13702697  1
  Al  Al99  1  0.24441933  0.63132257  0.63347511  1
  Al  Al100  1  0.75578838  0.13512124  0.13470603  1
  Al  Al101  1  0.75189430  0.13665790  0.63887792  1
  Al  Al102  1  0.75327570  0.63329391  0.13525587  1
  Al  Al103  1  0.75368914  0.63424466  0.63611926  1
  Al  Al104  1  0.25083737  0.35854998  0.13123388  1
  Al  Al105  1  0.24697237  0.36334784  0.63647448  1
  Al  Al106  1  0.24788934  0.86957886  0.13638465  1
  Al  Al107  1  0.24414753  0.86856578  0.62970277  1
  Al  Al108  1  0.75365766  0.36093664  0.13644771  1
  Al  Al109  1  0.75538148  0.36097802  0.62720192  1
  Al  Al110  1  0.75651499  0.86813906  0.12821803  1
  Al  Al111  1  0.75028598  0.86835950  0.64031542  1
  Al  Al112  1  0.24704231  0.13335108  0.36255019  1
  Al  Al113  1  0.24803793  0.13764278  0.87165265  1
  Al  Al114  1  0.24323345  0.63890565  0.36788279  1
  Al  Al115  1  0.24837486  0.62890988  0.86555664  1
  Al  Al116  1  0.75115607  0.13449544  0.36501038  1
  Al  Al117  1  0.75558045  0.13644774  0.86674158  1
  Al  Al118  1  0.75445148  0.63379978  0.36332896  1
  Al  Al119  1  0.75081503  0.63433351  0.86729575  1
  Al  Al120  1  0.24686475  0.35999476  0.36464170  1
  Al  Al121  1  0.24811441  0.36513024  0.86778652  1
  Al  Al122  1  0.24547994  0.86753077  0.36914676  1
  Al  Al123  1  0.24688414  0.87333296  0.86325870  1
  Al  Al124  1  0.75149787  0.36200409  0.37104265  1
  Al  Al125  1  0.75618512  0.36322520  0.86306271  1
  Al  Al126  1  0.75555832  0.86818303  0.36219692  1
  Al  Al127  1  0.75372998  0.86957973  0.86914206  1
  Al  Al128  1  0.13611287  0.24611981  0.12720465  1
  Al  Al129  1  0.13189195  0.25359010  0.63580177  1
  Al  Al130  1  0.13474005  0.75569999  0.13535817  1
  Al  Al131  1  0.13590591  0.75247708  0.63021273  1
  Al  Al132  1  0.62965348  0.25069734  0.13429195  1
  Al  Al133  1  0.63756073  0.24903081  0.62904240  1
  Al  Al134  1  0.64249597  0.75373306  0.12618479  1
  Al  Al135  1  0.63925118  0.75080477  0.63853728  1
  Al  Al136  1  0.13307712  0.24765127  0.36616031  1
  Al  Al137  1  0.13506238  0.25125360  0.87035225  1
  Al  Al138  1  0.13100171  0.75431492  0.36954173  1
  Al  Al139  1  0.13368762  0.75469267  0.86369519  1
  Al  Al140  1  0.63681908  0.24973927  0.36954198  1
  Al  Al141  1  0.63103662  0.25017068  0.86508808  1
  Al  Al142  1  0.64053917  0.75050250  0.36245746  1
  Al  Al143  1  0.63955419  0.75382927  0.87270306  1
  Al  Al144  1  0.36972126  0.24884048  0.13495011  1
  Al  Al145  1  0.36446543  0.24851189  0.63605920  1
  Al  Al146  1  0.36289369  0.75600214  0.13838051  1
  Al  Al147  1  0.35989418  0.75336591  0.63498555  1
  Al  Al148  1  0.86618660  0.24515229  0.13489117  1
  Al  Al149  1  0.86997800  0.25226894  0.63766581  1
  Al  Al150  1  0.86408840  0.75376438  0.13574348  1
  Al  Al151  1  0.86281239  0.75175668  0.64196358  1
  Al  Al152  1  0.36502263  0.24956853  0.36534912  1
  Al  Al153  1  0.36428622  0.25111526  0.86804857  1
  Al  Al154  1  0.36008916  0.75368343  0.36557871  1
  Al  Al155  1  0.36016113  0.75233752  0.86371544  1
  Al  Al156  1  0.86718174  0.24852015  0.36472344  1
  Al  Al157  1  0.87216951  0.24970977  0.86207158  1
  Al  Al158  1  0.87384023  0.75073842  0.35673932  1
  Al  Al159  1  0.86726645  0.75287793  0.86569191  1
  Al  Al160  1  0.13019039  0.13836116  0.24831922  1
  Al  Al161  1  0.13432625  0.13717753  0.75509881  1
  Al  Al162  1  0.13300592  0.63688741  0.25256967  1
  Al  Al163  1  0.13560630  0.62976028  0.75662681  1
  Al  Al164  1  0.63513664  0.13592019  0.24807501  1
  Al  Al165  1  0.63633981  0.13582594  0.75630137  1
  Al  Al166  1  0.63929012  0.63636912  0.24816479  1
  Al  Al167  1  0.63804451  0.63667680  0.75402426  1
  Al  Al168  1  0.36516770  0.13576434  0.24956206  1
  Al  Al169  1  0.36442843  0.13547448  0.75750137  1
  Al  Al170  1  0.36171243  0.63806326  0.25107572  1
  Al  Al171  1  0.36097310  0.63039527  0.75218177  1
  Al  Al172  1  0.86879077  0.13441059  0.25044000  1
  Al  Al173  1  0.86837569  0.13639802  0.75535508  1
  Al  Al174  1  0.86350436  0.62962720  0.24897050  1
  Al  Al175  1  0.86264257  0.62524319  0.75620981  1
  Al  Al176  1  0.13582025  0.36039966  0.24724199  1
  Al  Al177  1  0.13182361  0.36509599  0.75524957  1
  Al  Al178  1  0.13040301  0.86828363  0.25563510  1
  Al  Al179  1  0.13728619  0.87368478  0.74771552  1
  Al  Al180  1  0.63214117  0.36038520  0.25137808  1
  Al  Al181  1  0.63779509  0.36170820  0.74959234  1
  Al  Al182  1  0.64120990  0.86536030  0.24446327  1
  Al  Al183  1  0.63771827  0.86616171  0.75708018  1
  Al  Al184  1  0.36857600  0.35950289  0.24839770  1
  Al  Al185  1  0.36248409  0.36697733  0.75518222  1
  Al  Al186  1  0.35879470  0.87414476  0.25473017  1
  Al  Al187  1  0.36179228  0.86779167  0.75114211  1
  Al  Al188  1  0.86419931  0.36736924  0.25378706  1
  Al  Al189  1  0.86815776  0.36450289  0.74936685  1
  Al  Al190  1  0.86858890  0.87235973  0.24764165  1
  Al  Al191  1  0.86417465  0.86906966  0.75661777  1
  Al  Al192  1  0.50014867  0.68252447  0.82846014  1
  Al  Al193  1  0.16720835  0.49708430  0.16977258  1
  Al  Al194  1  0.50026778  0.83253473  0.33086675  1
  Al  Al195  1  0.00032575  0.32167104  0.32951407  1
  Al  Al196  1  0.32831038  0.66877122  0.00172299  1
  Al  Al197  1  0.68290914  0.49801999  0.32263667  1
  Al  Al198  1  0.17235497  0.49737905  0.32474452  1
  Al  Al199  1  0.50136032  0.67528667  0.32734550  1
  Al  Al200  1  0.68428990  0.49795389  0.67342106  1
  Al  Al201  1  0.67353421  0.32766698  -0.00164671  1
  Al  Al202  1  0.67330271  0.67233275  0.49950178  1
  Al  Al203  1  0.32165446  0.67848362  0.49695231  1
  Al  Al204  1  -0.00216767  0.67313111  0.83070241  1
  Al  Al205  1  0.31504568  0.32132213  0.50078860  1
  Al  Al206  1  0.82904550  0.31449322  -0.00037406  1
  Al  Al207  1  0.49894810  0.67358093  0.67937886  1
  Al  Al208  1  0.32400631  0.49855968  0.32898054  1
  Al  Al209  1  0.31944584  0.83165903  -0.00003023  1
  Al  Al210  1  0.81286561  0.19011252  0.50177721  1
  Al  Al211  1  0.82179290  0.68270774  0.00053213  1
  Al  Al212  1  0.49948606  0.66503159  0.17091868  1
  Al  Al213  1  0.82825630  0.00272538  0.68439177  1
  Al  Al214  1  0.50268524  0.82980104  0.17029642  1
  Al  Al215  1  0.68665288  0.00207539  0.17235818  1
  Al  Al216  1  0.00135265  0.18287959  0.68587778  1
  Al  Al217  1  0.50144087  0.18486476  0.31496145  1
  Al  Al218  1  0.00031320  0.31795232  0.17341140  1
  Al  Al219  1  0.67487669  0.00127126  0.68542409  1
  Al  Al220  1  0.67321605  0.82724450  0.50150106  1
  Al  Al221  1  0.67928502  0.00009012  0.32765484  1
  Al  Al222  1  0.17514666  0.49704883  0.67625309  1
  Al  Al223  1  0.32120368  0.49689032  0.17067800  1
  Al  Al224  1  0.68289668  0.49727469  0.82799522  1
  Al  Al225  1  -0.00124503  0.67151559  0.67186342  1
  Al  Al226  1  0.00182095  0.83008487  0.68000947  1
  Al  Al227  1  0.68705049  0.17160947  0.00171879  1
  Al  Al228  1  0.82784361  0.67101116  0.49880578  1
  Al  Al229  1  0.68858893  0.49657569  0.17304870  1
  Al  Al230  1  0.82917549  0.82190182  0.49977048  1
  Al  Al231  1  -0.00110965  0.68084951  0.17927355  1
  Al  Al232  1  0.49886902  0.32738261  0.68481910  1
  Al  Al233  1  0.31719282  0.00057275  0.67950728  1
  Al  Al234  1  0.50005245  0.82788868  0.68224690  1
  Al  Al235  1  0.50370030  0.16834456  0.67815733  1
  Al  Al236  1  0.17200299  0.17695924  0.49959038  1
  Al  Al237  1  0.16476387  0.67278919  -0.00040630  1
  Al  Al238  1  0.18098594  0.00302802  0.18762191  1
  Au  Au239  1  0.83956275  0.00612682  0.32393004  1
  Au  Au240  1  0.49912283  0.82709000  0.34681226  1
  Au  Au241  1  -0.00437782  0.83850951  0.83138018  1
  Au  Au242  1  0.67829908  0.31763544  0.49922696  1
  Au  Au243  1  0.50452483  0.83806927  0.15576760  1
  Au  Au244  1  0.32044474  0.83544553  0.50068698  1
  Au  Au245  1  0.16762619  0.66032187  0.00034753  1
  Au  Au246  1  0.33931651  0.49831208  0.32146744  1
  Au  Au247  1  0.67129630  0.49737089  0.33103935  1
  Au  Au248  1  0.49773311  0.17612816  0.84162393  1
  Au  Au249  1  0.50125596  0.17704661  0.33012599  1
  Au  Au250  1  0.50041384  0.64885740  0.17727508  1
  Au  Au251  1  0.32647487  0.15836519  0.49605743  1
  Au  Au252  1  0.33199727  0.84294837  -0.00043596  1
  Au  Au253  1  0.32832350  0.49948902  0.67119678  1
  Au  Au254  1  0.50058934  0.67039199  0.66276679  1
  Au  Au255  1  0.16269197  0.49930310  0.67685812  1
  Au  Au256  1  0.32901518  0.33143047  0.49919023  1
  Au  Au257  1  0.16730496  0.00246238  0.17759758  1
  Au  Au258  1  -0.00273199  0.66125358  0.32709430  1
  Au  Au259  1  0.84352024  0.49431536  0.67527735  1
  Au  Au260  1  0.67341915  0.16284993  0.00170165  1
  Au  Au261  1  -0.00455788  0.16793641  0.16856407  1
  Au  Au262  1  0.32522222  -0.00046177  0.66462541  1
  Au  Au263  1  -0.00342195  0.67865554  0.65588339  1
  Au  Au264  1  0.50175599  0.83367178  0.83251281  1
  Au  Au265  1  0.32620241  0.49438908  0.83800250  1
  Au  Au266  1  0.16328205  0.16823619  0.50189184  1
  Au  Au267  1  -0.00095416  0.33371335  0.33285092  1
  Au  Au268  1  0.49826464  0.32759468  0.17158317  1
  Au  Au269  1  0.17145350  0.17516064  -0.00204358  1
  Au  Au270  1  0.82921997  0.83714121  0.50682446  1
  Au  Au271  1  0.34479164  0.66305182  -0.00002473  1
  Au  Au272  1  -0.00616494  0.83060763  0.16238631  1
  Au  Au273  1  0.00550939  0.83755253  0.33468964  1
  Au  Au274  1  0.66714709  -0.00228517  0.33020392  1
  Au  Au275  1  0.67356980  0.66601928  -0.00103473  1
  Au  Au276  1  0.33922571  0.00682963  0.17909497  1
  Au  Au277  1  0.32949098  0.00694771  0.83915906  1
  Au  Au278  1  0.67148702  0.33967134  -0.00417291  1
  Au  Au279  1  0.50457178  0.16635271  0.66101783  1
  Au  Au280  1  0.33039530  0.66964619  0.49893226  1
  Au  Au281  1  0.66791353  0.50189094  0.67471177  1
  Au  Au282  1  0.49915045  0.34194342  0.67609578  1
  Au  Au283  1  0.15712115  0.83338434  -0.00148500  1
  Au  Au284  1  0.16441207  0.67402569  0.49830275  1
  Au  Au285  1  0.68330294  0.83723152  -0.00148167  1
  Au  Au286  1  -0.00468791  0.66145625  0.83373576  1
  Au  Au287  1  0.16188385  0.00514382  0.82556737  1
