# generated using pymatgen
data_Ca24Ti8Al207Au49
_symmetry_space_group_name_H-M   'P 1'
_cell_length_a   17.31931107
_cell_length_b   17.32019538
_cell_length_c   17.31798487
_cell_angle_alpha   89.99811957
_cell_angle_beta   90.00160675
_cell_angle_gamma   90.00578487
_symmetry_Int_Tables_number   1
_chemical_formula_structural   Ca24Ti8Al207Au49
_chemical_formula_sum   'Ca24 Ti8 Al207 Au49'
_cell_volume   5194.94259087
_cell_formula_units_Z   1
loop_
 _symmetry_equiv_pos_site_id
 _symmetry_equiv_pos_as_xyz
  1  'x, y, z'
loop_
 _atom_site_type_symbol
 _atom_site_label
 _atom_site_symmetry_multiplicity
 _atom_site_fract_x
 _atom_site_fract_y
 _atom_site_fract_z
 _atom_site_occupancy
  Ca  Ca0  1  0.24953055  0.00340716  -0.00299385  1
  Ca  Ca1  1  0.24803877  0.00442352  0.50386403  1
  Ca  Ca2  1  0.25465319  0.49558162  -0.00140201  1
  Ca  Ca3  1  0.25498969  0.49542432  0.49997593  1
  Ca  Ca4  1  0.75339290  0.00094316  0.00071374  1
  Ca  Ca5  1  0.74940364  0.00709501  0.50068932  1
  Ca  Ca6  1  0.74628847  0.49940691  -0.00171000  1
  Ca  Ca7  1  0.74252595  0.49410226  0.50255808  1
  Ca  Ca8  1  -0.00255763  0.24642942  0.00013546  1
  Ca  Ca9  1  -0.00008552  0.24750040  0.50182894  1
  Ca  Ca10  1  -0.00554996  0.75470843  0.00278379  1
  Ca  Ca11  1  0.00179536  0.75177773  0.49907861  1
  Ca  Ca12  1  0.50207199  0.25082146  -0.00324346  1
  Ca  Ca13  1  0.50291906  0.24961056  0.50427223  1
  Ca  Ca14  1  0.50597986  0.74866062  0.00023561  1
  Ca  Ca15  1  0.49750836  0.74628576  0.49890944  1
  Ca  Ca16  1  -0.01058880  0.00286287  0.24734857  1
  Ca  Ca17  1  0.00156024  0.00553536  0.74943404  1
  Ca  Ca18  1  -0.00278716  0.49995573  0.25068547  1
  Ca  Ca19  1  -0.00319429  0.49365414  0.75135341  1
  Ca  Ca20  1  0.50829178  0.00276033  0.25482910  1
  Ca  Ca21  1  0.50110133  0.00252246  0.74932199  1
  Ca  Ca22  1  0.50079057  0.49597815  0.25559985  1
  Ca  Ca23  1  0.50173191  0.49262298  0.75066080  1
  Ti  Ti24  1  0.25062404  0.25028003  0.25130995  1
  Ti  Ti25  1  0.24920383  0.24811470  0.74896031  1
  Ti  Ti26  1  0.25101169  0.74976807  0.24959202  1
  Ti  Ti27  1  0.25129730  0.75224990  0.75026615  1
  Ti  Ti28  1  0.75009933  0.24975296  0.24995243  1
  Ti  Ti29  1  0.75130452  0.24822137  0.74953269  1
  Ti  Ti30  1  0.74878634  0.75133672  0.24870331  1
  Ti  Ti31  1  0.74945690  0.75296798  0.75281595  1
  Al  Al32  1  0.07054109  0.08013881  0.07389248  1
  Al  Al33  1  0.08610703  0.09554085  0.59056047  1
  Al  Al34  1  0.07477892  0.58368905  0.08130902  1
  Al  Al35  1  0.09741170  0.57873374  0.57573051  1
  Al  Al36  1  0.59117957  0.07977620  0.08027960  1
  Al  Al37  1  0.59122627  0.09222603  0.59134820  1
  Al  Al38  1  0.58917861  0.58782581  0.07305572  1
  Al  Al39  1  0.58402345  0.56836461  0.59413075  1
  Al  Al40  1  0.41372099  0.40740020  0.07511072  1
  Al  Al41  1  0.41948805  0.40487624  0.58155081  1
  Al  Al42  1  0.42619360  0.92321847  0.07220788  1
  Al  Al43  1  0.41229621  0.93039798  0.58300840  1
  Al  Al44  1  0.91706662  0.41568557  0.07652908  1
  Al  Al45  1  0.91142595  0.40819337  0.58386722  1
  Al  Al46  1  0.90607481  0.91501352  0.09314378  1
  Al  Al47  1  0.90741540  0.93516232  0.58644362  1
  Al  Al48  1  0.42357756  0.08391985  0.42407227  1
  Al  Al49  1  0.41325270  0.08673382  0.90688064  1
  Al  Al50  1  0.40944059  0.57966370  0.40474645  1
  Al  Al51  1  0.42683257  0.58273084  0.90929509  1
  Al  Al52  1  0.91132752  0.08446703  0.41430358  1
  Al  Al53  1  0.90864898  0.08768992  0.91793855  1
  Al  Al54  1  0.92454350  0.57321595  0.41940305  1
  Al  Al55  1  0.90807467  0.58368230  0.92388208  1
  Al  Al56  1  0.08834345  0.41758817  0.41787324  1
  Al  Al57  1  0.07662249  0.40215183  0.91610427  1
  Al  Al58  1  0.07409603  0.92499217  0.42334805  1
  Al  Al59  1  0.09120181  0.92619643  0.91203674  1
  Al  Al60  1  0.58123359  0.41202732  0.42645642  1
  Al  Al61  1  0.57919974  0.41764308  0.90651213  1
  Al  Al62  1  0.58865080  0.92587167  0.40879707  1
  Al  Al63  1  0.59960155  0.92039874  0.91486936  1
  Al  Al64  1  0.08490271  0.08794629  0.42753084  1
  Al  Al65  1  0.08885050  0.08309423  0.90742519  1
  Al  Al66  1  0.09807127  0.58091381  0.42102977  1
  Al  Al67  1  0.07526090  0.57819053  0.92291838  1
  Al  Al68  1  0.59185178  0.08646985  0.41753155  1
  Al  Al69  1  0.58902802  0.08386793  0.90814545  1
  Al  Al70  1  0.56927444  0.58177115  0.41083313  1
  Al  Al71  1  0.58941300  0.58941250  0.90997578  1
  Al  Al72  1  0.40989969  0.41659680  0.41856511  1
  Al  Al73  1  0.41686630  0.40937213  0.91263483  1
  Al  Al74  1  0.42220619  0.92244746  0.42279034  1
  Al  Al75  1  0.41174611  0.92691151  0.91005412  1
  Al  Al76  1  0.91318172  0.40873901  0.42229117  1
  Al  Al77  1  0.91762086  0.40802490  0.91492192  1
  Al  Al78  1  0.90777233  0.92809855  0.40766154  1
  Al  Al79  1  0.90750089  0.91833984  0.92199989  1
  Al  Al80  1  0.07979859  0.41185906  0.07492156  1
  Al  Al81  1  0.08473870  0.41474686  0.58422762  1
  Al  Al82  1  0.06734388  0.91039842  0.08677534  1
  Al  Al83  1  0.09062986  0.93390094  0.58580578  1
  Al  Al84  1  0.57371448  0.41791204  0.07902805  1
  Al  Al85  1  0.58665392  0.40622104  0.59117169  1
  Al  Al86  1  0.59909161  0.91790549  0.07676490  1
  Al  Al87  1  0.59173028  0.93152668  0.58937036  1
  Al  Al88  1  0.42358447  0.08429019  0.07108667  1
  Al  Al89  1  0.41748799  0.09011053  0.59433714  1
  Al  Al90  1  0.42227114  0.57662063  0.07877551  1
  Al  Al91  1  0.42053598  0.57758125  0.58154248  1
  Al  Al92  1  0.90592919  0.08134596  0.08474277  1
  Al  Al93  1  0.92094645  0.09202907  0.59347427  1
  Al  Al94  1  0.90818553  0.59189881  0.07973127  1
  Al  Al95  1  0.92005244  0.56856503  0.58135837  1
  Al  Al96  1  0.25154285  0.14009428  0.12746095  1
  Al  Al97  1  0.24749428  0.12955975  0.63499883  1
  Al  Al98  1  0.25173132  0.63863594  0.13228216  1
  Al  Al99  1  0.25363373  0.63363218  0.63433269  1
  Al  Al100  1  0.75522838  0.13128352  0.13347684  1
  Al  Al101  1  0.75180148  0.13213414  0.63688140  1
  Al  Al102  1  0.75003230  0.63156575  0.13439354  1
  Al  Al103  1  0.74348667  0.63086061  0.63936884  1
  Al  Al104  1  0.25578641  0.36240343  0.13363612  1
  Al  Al105  1  0.25080642  0.35737785  0.62988764  1
  Al  Al106  1  0.24838258  0.86116652  0.12927010  1
  Al  Al107  1  0.24930142  0.87339224  0.63823214  1
  Al  Al108  1  0.74997744  0.36842143  0.13487724  1
  Al  Al109  1  0.74501291  0.36478978  0.63737118  1
  Al  Al110  1  0.74918607  0.86549841  0.12915901  1
  Al  Al111  1  0.74715189  0.86994435  0.63610600  1
  Al  Al112  1  0.24876726  0.13770838  0.36834096  1
  Al  Al113  1  0.25143943  0.13884542  0.86845163  1
  Al  Al114  1  0.25259280  0.63472983  0.36585403  1
  Al  Al115  1  0.25172644  0.63753272  0.86431499  1
  Al  Al116  1  0.75133228  0.13212513  0.36555864  1
  Al  Al117  1  0.74899324  0.12852784  0.85821338  1
  Al  Al118  1  0.75007239  0.63576545  0.36409689  1
  Al  Al119  1  0.75124506  0.63448847  0.86487227  1
  Al  Al120  1  0.24950862  0.36139599  0.37388275  1
  Al  Al121  1  0.25377654  0.36091642  0.86393389  1
  Al  Al122  1  0.24771698  0.86411247  0.36347809  1
  Al  Al123  1  0.25106127  0.86514453  0.86910931  1
  Al  Al124  1  0.74669636  0.36625961  0.36654289  1
  Al  Al125  1  0.75222124  0.36252886  0.86207865  1
  Al  Al126  1  0.74927192  0.87016120  0.36372155  1
  Al  Al127  1  0.74836153  0.87097462  0.87109764  1
  Al  Al128  1  0.13382612  0.24950091  0.13573289  1
  Al  Al129  1  0.13221323  0.24743467  0.62909654  1
  Al  Al130  1  0.13083164  0.74942397  0.13172611  1
  Al  Al131  1  0.13921627  0.74555979  0.63457771  1
  Al  Al132  1  0.63878008  0.24775497  0.13535406  1
  Al  Al133  1  0.63518703  0.24816368  0.63670026  1
  Al  Al134  1  0.63735288  0.75125775  0.13498511  1
  Al  Al135  1  0.63550299  0.75135387  0.63861336  1
  Al  Al136  1  0.13281334  0.24962666  0.37487361  1
  Al  Al137  1  0.13333801  0.24815146  0.86355133  1
  Al  Al138  1  0.13789395  0.74477555  0.36761018  1
  Al  Al139  1  0.13417049  0.75310495  0.86818834  1
  Al  Al140  1  0.63607406  0.25344534  0.36537977  1
  Al  Al141  1  0.63467523  0.24823895  0.86178885  1
  Al  Al142  1  0.63148932  0.75230872  0.36369823  1
  Al  Al143  1  0.63718329  0.75197981  0.86551649  1
  Al  Al144  1  0.36647777  0.25023582  0.12976010  1
  Al  Al145  1  0.36513104  0.24642331  0.63517460  1
  Al  Al146  1  0.36815247  0.75024395  0.13311750  1
  Al  Al147  1  0.36377378  0.75033496  0.63606318  1
  Al  Al148  1  0.86360512  0.24578026  0.13547447  1
  Al  Al149  1  0.87222471  0.24608274  0.63903211  1
  Al  Al150  1  0.86281066  0.75276855  0.13203732  1
  Al  Al151  1  0.85844399  0.75183619  0.63672096  1
  Al  Al152  1  0.36530247  0.25490220  0.37245463  1
  Al  Al153  1  0.36803349  0.24963784  0.86775128  1
  Al  Al154  1  0.37007062  0.74765519  0.36417234  1
  Al  Al155  1  0.36795060  0.74973546  0.86407530  1
  Al  Al156  1  0.87100005  0.24626883  0.36336363  1
  Al  Al157  1  0.86375735  0.24482241  0.86337612  1
  Al  Al158  1  0.86272765  0.75546983  0.36376020  1
  Al  Al159  1  0.85936350  0.75410435  0.87252349  1
  Al  Al160  1  0.13567642  0.13918690  0.25405332  1
  Al  Al161  1  0.13123211  0.13536562  0.74413410  1
  Al  Al162  1  0.13621177  0.63599390  0.24630251  1
  Al  Al163  1  0.13682120  0.63536541  0.75311516  1
  Al  Al164  1  0.63933927  0.13322715  0.25325942  1
  Al  Al165  1  0.63439100  0.13122155  0.74601609  1
  Al  Al166  1  0.63795497  0.63093623  0.25001510  1
  Al  Al167  1  0.63029626  0.63823912  0.75398487  1
  Al  Al168  1  0.36293156  0.14143191  0.25120495  1
  Al  Al169  1  0.36177391  0.13102050  0.74999554  1
  Al  Al170  1  0.36565796  0.63278674  0.25373704  1
  Al  Al171  1  0.36913600  0.63608835  0.74845261  1
  Al  Al172  1  0.86086511  0.12821025  0.25207640  1
  Al  Al173  1  0.86520425  0.12528942  0.74781973  1
  Al  Al174  1  0.86452218  0.63487764  0.24478376  1
  Al  Al175  1  0.86594992  0.63558768  0.75136299  1
  Al  Al176  1  0.13797688  0.36012029  0.25556372  1
  Al  Al177  1  0.13099517  0.35774021  0.74603114  1
  Al  Al178  1  0.13449527  0.86054809  0.24768515  1
  Al  Al179  1  0.13546420  0.86543174  0.74918246  1
  Al  Al180  1  0.63630078  0.36928036  0.24942787  1
  Al  Al181  1  0.63349100  0.36285443  0.75058406  1
  Al  Al182  1  0.63684730  0.86830855  0.25362927  1
  Al  Al183  1  0.63562819  0.87228270  0.75302665  1
  Al  Al184  1  0.36288798  0.36502302  0.25916401  1
  Al  Al185  1  0.36494957  0.36086838  0.74917234  1
  Al  Al186  1  0.36533744  0.86356460  0.25344845  1
  Al  Al187  1  0.36501407  0.87433376  0.75173495  1
  Al  Al188  1  0.86321620  0.36405002  0.25232867  1
  Al  Al189  1  0.87196030  0.36093142  0.74904303  1
  Al  Al190  1  0.86056146  0.86977389  0.24478161  1
  Al  Al191  1  0.86049892  0.87307478  0.75474477  1
  Al  Al192  1  0.50368234  0.83365777  0.17713474  1
  Al  Al193  1  0.32880821  0.49969487  0.81789483  1
  Al  Al194  1  -0.00091544  0.82442748  0.83090533  1
  Al  Al195  1  0.19500865  0.00251316  0.80651227  1
  Al  Al196  1  0.50098602  0.67176402  0.18644290  1
  Al  Al197  1  0.80944882  0.31403404  0.50172023  1
  Al  Al198  1  0.50319129  0.82385383  0.83051071  1
  Al  Al199  1  0.32455965  0.82826367  0.50041774  1
  Al  Al200  1  -0.00190812  0.18271670  0.81462296  1
  Al  Al201  1  -0.00294773  0.17219504  0.17830592  1
  Al  Al202  1  0.32859932  0.67431844  -0.00498300  1
  Al  Al203  1  0.68040580  0.83433406  0.49938320  1
  Al  Al204  1  0.69250582  0.69007120  -0.00088261  1
  Al  Al205  1  0.68211528  0.18904589  0.50049699  1
  Al  Al206  1  0.18500574  0.49632635  0.67462366  1
  Al  Al207  1  0.68811293  -0.00029397  0.18342252  1
  Al  Al208  1  0.66976505  0.32797543  -0.00238693  1
  Al  Al209  1  0.82146509  0.49652324  0.32387234  1
  Al  Al210  1  0.68042606  0.49995223  0.80934546  1
  Al  Al211  1  0.68876126  0.17482044  -0.00327013  1
  Al  Al212  1  0.32085937  0.67226096  0.49897150  1
  Al  Al213  1  -0.00086306  0.32564105  0.17794945  1
  Al  Al214  1  0.49928973  0.32276495  0.18225503  1
  Al  Al215  1  0.49953166  0.30880208  0.68813514  1
  Al  Al216  1  0.00185725  0.67033985  0.32186731  1
  Al  Al217  1  -0.00205211  0.82887608  0.31623384  1
  Al  Al218  1  0.17461115  0.49634585  0.83101605  1
  Al  Al219  1  0.66812793  0.67222088  0.50049097  1
  Al  Al220  1  0.82243159  0.31032915  -0.00021732  1
  Al  Al221  1  -0.00257719  0.83215931  0.66730539  1
  Al  Al222  1  0.50317955  0.17045255  0.17101720  1
  Al  Al223  1  0.17247926  0.00075591  0.32950448  1
  Al  Al224  1  0.32733530  0.00237188  0.32977225  1
  Al  Al225  1  0.50071052  0.17972775  0.32546530  1
  Al  Al226  1  0.31649488  0.18053319  0.50184115  1
  Al  Al227  1  0.16625101  0.81903505  0.50136236  1
  Al  Al228  1  0.32775592  0.49820693  0.18566456  1
  Al  Al229  1  0.17127392  0.49638332  0.17123622  1
  Al  Al230  1  0.18422794  0.31822398  -0.00073043  1
  Al  Al231  1  0.00423711  0.66820172  0.67453099  1
  Al  Al232  1  0.81882927  0.49771839  0.68084094  1
  Al  Al233  1  0.16639948  0.00034061  0.17163817  1
  Al  Al234  1  0.49919551  0.82385059  0.66863856  1
  Al  Al235  1  0.19011943  0.49853510  0.32528057  1
  Al  Al236  1  0.33097826  0.00246817  0.17203125  1
  Al  Al237  1  0.82757303  0.67537347  0.50058948  1
  Al  Al238  1  0.49967206  0.18623011  0.80896611  1
  Au  Au239  1  0.17213202  0.83531302  0.50080020  1
  Au  Au240  1  -0.00378813  0.84911813  0.66756076  1
  Au  Au241  1  0.82690164  0.49623281  0.83890559  1
  Au  Au242  1  0.50139310  0.17228677  0.81772764  1
  Au  Au243  1  -0.00241917  0.17222868  0.82777197  1
  Au  Au244  1  0.83525988  0.49875491  0.16691772  1
  Au  Au245  1  0.66851259  0.83819646  0.49946017  1
  Au  Au246  1  0.32132809  0.00223764  0.68122080  1
  Au  Au247  1  0.82996229  0.49886448  0.33275304  1
  Au  Au248  1  0.33734924  0.66548192  -0.00304503  1
  Au  Au249  1  0.33427744  0.17729114  -0.00204294  1
  Au  Au250  1  0.00145608  0.83669643  0.83229276  1
  Au  Au251  1  0.16505300  0.17158600  0.00148804  1
  Au  Au252  1  0.49791816  0.32966008  0.33521963  1
  Au  Au253  1  -0.00369886  0.84506091  0.32097201  1
  Au  Au254  1  0.33418169  0.49131182  0.66630359  1
  Au  Au255  1  0.81984310  0.82336670  0.00263573  1
  Au  Au256  1  0.01091748  0.66378337  0.33527504  1
  Au  Au257  1  0.34661540  0.00476815  0.17771021  1
  Au  Au258  1  0.33160782  0.17310046  0.50179983  1
  Au  Au259  1  0.66452855  0.49881362  0.33528701  1
  Au  Au260  1  0.16249793  0.83553904  0.00267643  1
  Au  Au261  1  0.50380897  0.83127763  0.84507612  1
  Au  Au262  1  0.32982955  0.83898032  -0.00173133  1
  Au  Au263  1  0.33308159  0.66814452  0.49871629  1
  Au  Au264  1  0.83392703  0.84324162  0.50023552  1
  Au  Au265  1  0.49885572  0.83435609  0.65615549  1
  Au  Au266  1  0.15477872  0.49464884  0.17682075  1
  Au  Au267  1  0.82285499  0.00082821  0.82888760  1
  Au  Au268  1  0.84333473  0.66896403  0.50047163  1
  Au  Au269  1  0.82990985  0.16876166  0.50425395  1
  Au  Au270  1  0.17289635  0.32696898  0.50207567  1
  Au  Au271  1  0.00206845  0.33647074  0.32802627  1
  Au  Au272  1  0.66573377  0.49740802  0.16117987  1
  Au  Au273  1  0.50176252  0.65740121  0.67992366  1
  Au  Au274  1  0.15920989  0.49065569  0.82757318  1
  Au  Au275  1  0.81522293  0.49776485  0.66830118  1
  Au  Au276  1  0.49885583  0.82809870  0.34004925  1
  Au  Au277  1  0.50341437  0.66016337  0.17435064  1
  Au  Au278  1  0.17134453  0.66453584  -0.00007526  1
  Au  Au279  1  0.00239390  0.16150071  0.32852870  1
  Au  Au280  1  0.65432660  0.66162439  0.50191678  1
  Au  Au281  1  0.00132637  0.32778584  0.67104286  1
  Au  Au282  1  -0.00694787  0.67193049  0.84340326  1
  Au  Au283  1  0.33951630  0.49342253  0.17434802  1
  Au  Au284  1  0.00780472  0.65433899  0.66549578  1
  Au  Au285  1  -0.00483104  0.68045958  0.16010356  1
  Au  Au286  1  0.50875808  0.83388001  0.16076184  1
  Au  Au287  1  0.15068635  -0.00040406  0.17771186  1
