# generated using pymatgen
data_Ca24Ti8Al207Au49
_symmetry_space_group_name_H-M   'P 1'
_cell_length_a   17.31988841
_cell_length_b   17.32041462
_cell_length_c   17.32112739
_cell_angle_alpha   89.99574702
_cell_angle_beta   89.99744211
_cell_angle_gamma   90.00095219
_symmetry_Int_Tables_number   1
_chemical_formula_structural   Ca24Ti8Al207Au49
_chemical_formula_sum   'Ca24 Ti8 Al207 Au49'
_cell_volume   5196.12425078
_cell_formula_units_Z   1
loop_
 _symmetry_equiv_pos_site_id
 _symmetry_equiv_pos_as_xyz
  1  'x, y, z'
loop_
 _atom_site_type_symbol
 _atom_site_label
 _atom_site_symmetry_multiplicity
 _atom_site_fract_x
 _atom_site_fract_y
 _atom_site_fract_z
 _atom_site_occupancy
  Ca  Ca0  1  0.25098164  -0.00174645  -0.00097667  1
  Ca  Ca1  1  0.25460940  -0.00188648  0.49851432  1
  Ca  Ca2  1  0.24412317  0.50250038  -0.00334240  1
  Ca  Ca3  1  0.25023122  0.50198176  0.50215360  1
  Ca  Ca4  1  0.75262581  -0.00341563  0.00405747  1
  Ca  Ca5  1  0.75284084  -0.00419095  0.49353003  1
  Ca  Ca6  1  0.75292455  0.50457477  0.00161802  1
  Ca  Ca7  1  0.74741946  0.50317332  0.49583221  1
  Ca  Ca8  1  0.00329143  0.25028534  0.00324771  1
  Ca  Ca9  1  -0.00060713  0.24830721  0.49720999  1
  Ca  Ca10  1  0.00089207  0.74763874  0.00524934  1
  Ca  Ca11  1  -0.00417097  0.75265615  0.49653577  1
  Ca  Ca12  1  0.49750577  0.24990472  -0.00015509  1
  Ca  Ca13  1  0.50081077  0.24945369  0.50183758  1
  Ca  Ca14  1  0.49988086  0.74845558  0.00146420  1
  Ca  Ca15  1  0.50322204  0.75312062  0.50014081  1
  Ca  Ca16  1  -0.00181992  -0.00187186  0.25117523  1
  Ca  Ca17  1  -0.00064127  -0.00173591  0.74979615  1
  Ca  Ca18  1  0.00120830  0.50210329  0.24698370  1
  Ca  Ca19  1  -0.00067918  0.49890900  0.75015097  1
  Ca  Ca20  1  0.49799237  -0.00452359  0.25177249  1
  Ca  Ca21  1  0.50238106  -0.00037318  0.74141554  1
  Ca  Ca22  1  0.49811136  0.50623924  0.24886123  1
  Ca  Ca23  1  0.49957625  0.49978605  0.74774058  1
  Ti  Ti24  1  0.24977009  0.24915841  0.24914459  1
  Ti  Ti25  1  0.25020514  0.25179804  0.75063489  1
  Ti  Ti26  1  0.25120855  0.75075596  0.24983602  1
  Ti  Ti27  1  0.24952018  0.74965371  0.75051968  1
  Ti  Ti28  1  0.75082415  0.24783667  0.25025943  1
  Ti  Ti29  1  0.75044799  0.25018258  0.74855581  1
  Ti  Ti30  1  0.74974094  0.74982068  0.24972304  1
  Ti  Ti31  1  0.75008229  0.75023461  0.75033666  1
  Al  Al32  1  0.08175228  0.09150041  0.08444769  1
  Al  Al33  1  0.07410520  0.07743851  0.58246969  1
  Al  Al34  1  0.08103919  0.59229459  0.08737586  1
  Al  Al35  1  0.07979000  0.57823831  0.58069886  1
  Al  Al36  1  0.58492440  0.07192771  0.08331126  1
  Al  Al37  1  0.58051977  0.08009835  0.57684016  1
  Al  Al38  1  0.59046169  0.59424765  0.08066934  1
  Al  Al39  1  0.59247117  0.58173110  0.58479220  1
  Al  Al40  1  0.41913751  0.42122758  0.07416348  1
  Al  Al41  1  0.41629998  0.40713562  0.58915133  1
  Al  Al42  1  0.41408272  0.91183847  0.09450100  1
  Al  Al43  1  0.41411591  0.91485519  0.57589886  1
  Al  Al44  1  0.91437857  0.42643520  0.08962049  1
  Al  Al45  1  0.91987708  0.40854221  0.58543973  1
  Al  Al46  1  0.91753368  0.91278362  0.09192582  1
  Al  Al47  1  0.91676945  0.90567782  0.57772459  1
  Al  Al48  1  0.41128959  0.07589068  0.41190702  1
  Al  Al49  1  0.41697764  0.09015696  0.92570798  1
  Al  Al50  1  0.42260105  0.58761884  0.41127913  1
  Al  Al51  1  0.41520778  0.58789301  0.92110558  1
  Al  Al52  1  0.90754149  0.08717175  0.40818711  1
  Al  Al53  1  0.92397487  0.08621980  0.92293419  1
  Al  Al54  1  0.91744213  0.59414732  0.41767393  1
  Al  Al55  1  0.91764338  0.58988836  0.92998496  1
  Al  Al56  1  0.08240730  0.42019639  0.40439435  1
  Al  Al57  1  0.08320700  0.41161169  0.91014189  1
  Al  Al58  1  0.07136409  0.91376894  0.41324080  1
  Al  Al59  1  0.08403465  0.90552760  0.92551501  1
  Al  Al60  1  0.57489520  0.42398572  0.42575819  1
  Al  Al61  1  0.58211442  0.42325688  0.91289733  1
  Al  Al62  1  0.59382913  0.91245300  0.41326138  1
  Al  Al63  1  0.57939606  0.91213390  0.92353753  1
  Al  Al64  1  0.07030474  0.08487001  0.40933374  1
  Al  Al65  1  0.08498899  0.09421215  0.92480185  1
  Al  Al66  1  0.08429900  0.58097076  0.40713419  1
  Al  Al67  1  0.08410078  0.58491188  0.92252356  1
  Al  Al68  1  0.59172095  0.07446122  0.41238428  1
  Al  Al69  1  0.57710740  0.07970173  0.92295442  1
  Al  Al70  1  0.58061476  0.59658134  0.41972813  1
  Al  Al71  1  0.59031593  0.58659907  0.91902052  1
  Al  Al72  1  0.41038311  0.41326490  0.42930564  1
  Al  Al73  1  0.41958605  0.41848495  0.91622176  1
  Al  Al74  1  0.40899395  0.91333312  0.41317258  1
  Al  Al75  1  0.42049747  0.91103329  0.92597558  1
  Al  Al76  1  0.92292072  0.41065316  0.42041222  1
  Al  Al77  1  0.92530857  0.41252103  0.91526554  1
  Al  Al78  1  0.90767698  0.91367936  0.40812634  1
  Al  Al79  1  0.92097272  0.91142094  0.92247422  1
  Al  Al80  1  0.08214723  0.41873738  0.08187780  1
  Al  Al81  1  0.07791243  0.41368028  0.59141534  1
  Al  Al82  1  0.08128511  0.90425714  0.08591216  1
  Al  Al83  1  0.07583879  0.91097931  0.58691052  1
  Al  Al84  1  0.58307212  0.42804211  0.07835364  1
  Al  Al85  1  0.58057608  0.41765189  0.59412275  1
  Al  Al86  1  0.57985195  0.90854855  0.09235317  1
  Al  Al87  1  0.58560468  0.91356156  0.57464321  1
  Al  Al88  1  0.40459888  0.07521206  0.08597823  1
  Al  Al89  1  0.41866997  0.07933576  0.58037983  1
  Al  Al90  1  0.41656686  0.59453874  0.07824032  1
  Al  Al91  1  0.42238665  0.57633334  0.58085479  1
  Al  Al92  1  0.91764288  0.08177086  0.08991719  1
  Al  Al93  1  0.91315233  0.09210001  0.57119828  1
  Al  Al94  1  0.90985776  0.59063872  0.09155592  1
  Al  Al95  1  0.91373250  0.58942720  0.57558825  1
  Al  Al96  1  0.24973162  0.13408602  0.13784625  1
  Al  Al97  1  0.24933275  0.13936497  0.63446694  1
  Al  Al98  1  0.25254406  0.64156308  0.13553311  1
  Al  Al99  1  0.24957637  0.63809882  0.63503810  1
  Al  Al100  1  0.75079344  0.13329103  0.13777221  1
  Al  Al101  1  0.75203150  0.13835019  0.62934731  1
  Al  Al102  1  0.75022217  0.63569527  0.13504241  1
  Al  Al103  1  0.74887112  0.63820843  0.62797351  1
  Al  Al104  1  0.24785241  0.36346387  0.12959563  1
  Al  Al105  1  0.25263964  0.36195710  0.63431563  1
  Al  Al106  1  0.25147469  0.86368831  0.13699058  1
  Al  Al107  1  0.25027303  0.86263735  0.63440130  1
  Al  Al108  1  0.75241837  0.37208853  0.13673271  1
  Al  Al109  1  0.74729999  0.36483166  0.63901951  1
  Al  Al110  1  0.74841144  0.86121659  0.12965986  1
  Al  Al111  1  0.74928986  0.86283777  0.63320897  1
  Al  Al112  1  0.25679759  0.13335796  0.36439005  1
  Al  Al113  1  0.24468882  0.13752075  0.86561429  1
  Al  Al114  1  0.24881643  0.63688993  0.36206974  1
  Al  Al115  1  0.25153107  0.63754563  0.86652808  1
  Al  Al116  1  0.75160225  0.13399893  0.36874981  1
  Al  Al117  1  0.75334284  0.13716930  0.86416625  1
  Al  Al118  1  0.75152965  0.63710233  0.36870422  1
  Al  Al119  1  0.74897993  0.63789601  0.86826965  1
  Al  Al120  1  0.24947336  0.36176977  0.36392382  1
  Al  Al121  1  0.24688426  0.36404964  0.86896639  1
  Al  Al122  1  0.25732208  0.86621787  0.36398038  1
  Al  Al123  1  0.24536704  0.86279936  0.86763057  1
  Al  Al124  1  0.75441702  0.36200261  0.36438327  1
  Al  Al125  1  0.75089629  0.36459880  0.86108736  1
  Al  Al126  1  0.74904268  0.86698462  0.36317180  1
  Al  Al127  1  0.75178117  0.86341179  0.87089397  1
  Al  Al128  1  0.13686348  0.24977621  0.13047044  1
  Al  Al129  1  0.12962201  0.25531515  0.63445328  1
  Al  Al130  1  0.13439378  0.75081421  0.13599028  1
  Al  Al131  1  0.13314641  0.75291342  0.63419136  1
  Al  Al132  1  0.63679619  0.24817181  0.13918859  1
  Al  Al133  1  0.62941218  0.24927433  0.63489005  1
  Al  Al134  1  0.63247593  0.74947810  0.13357173  1
  Al  Al135  1  0.63177916  0.74920037  0.62810664  1
  Al  Al136  1  0.13490655  0.24644077  0.36428479  1
  Al  Al137  1  0.13114999  0.25315276  0.86654925  1
  Al  Al138  1  0.13476378  0.75441620  0.36241163  1
  Al  Al139  1  0.13357305  0.75282385  0.86684330  1
  Al  Al140  1  0.63154883  0.24451326  0.36326345  1
  Al  Al141  1  0.63473807  0.25370144  0.86136683  1
  Al  Al142  1  0.63735707  0.75128608  0.36988333  1
  Al  Al143  1  0.63639700  0.74918890  0.87030472  1
  Al  Al144  1  0.36450590  0.24985822  0.13563281  1
  Al  Al145  1  0.36748332  0.25116858  0.63012970  1
  Al  Al146  1  0.37347085  0.75139904  0.13784483  1
  Al  Al147  1  0.37084876  0.75390455  0.63420954  1
  Al  Al148  1  0.86317208  0.25169374  0.13714075  1
  Al  Al149  1  0.86686704  0.25157632  0.63623966  1
  Al  Al150  1  0.86369299  0.74777332  0.13153795  1
  Al  Al151  1  0.86382785  0.75093575  0.63291068  1
  Al  Al152  1  0.36689488  0.24745464  0.36783046  1
  Al  Al153  1  0.36499416  0.25251903  0.86474731  1
  Al  Al154  1  0.36680973  0.75115200  0.36506845  1
  Al  Al155  1  0.36607666  0.74805111  0.86728601  1
  Al  Al156  1  0.86636868  0.24385249  0.36537409  1
  Al  Al157  1  0.86979945  0.25439553  0.86316915  1
  Al  Al158  1  0.86613833  0.75036603  0.36276535  1
  Al  Al159  1  0.86367965  0.75091354  0.87330271  1
  Al  Al160  1  0.13394357  0.13291098  0.25208096  1
  Al  Al161  1  0.13318838  0.13684478  0.74876706  1
  Al  Al162  1  0.13441221  0.63713650  0.24817284  1
  Al  Al163  1  0.13421381  0.63792480  0.74917233  1
  Al  Al164  1  0.63639518  0.12584471  0.25280796  1
  Al  Al165  1  0.63428300  0.13707371  0.74880639  1
  Al  Al166  1  0.63032593  0.64007154  0.24807863  1
  Al  Al167  1  0.63879220  0.63744793  0.74582143  1
  Al  Al168  1  0.36663765  0.13318532  0.25045879  1
  Al  Al169  1  0.36508873  0.13908789  0.74727679  1
  Al  Al170  1  0.37290989  0.63873178  0.25159413  1
  Al  Al171  1  0.36493000  0.63713396  0.74691627  1
  Al  Al172  1  0.86557866  0.13094220  0.25520803  1
  Al  Al173  1  0.86597966  0.13505864  0.75092339  1
  Al  Al174  1  0.86633284  0.63370554  0.24461159  1
  Al  Al175  1  0.86283815  0.63790035  0.74922895  1
  Al  Al176  1  0.13659254  0.36359132  0.24908502  1
  Al  Al177  1  0.13403140  0.36460290  0.74984361  1
  Al  Al178  1  0.13440203  0.86652576  0.25130374  1
  Al  Al179  1  0.12979245  0.86389296  0.74830398  1
  Al  Al180  1  0.63721953  0.36532183  0.25169337  1
  Al  Al181  1  0.63071719  0.36572025  0.74592097  1
  Al  Al182  1  0.63653395  0.86655736  0.24929659  1
  Al  Al183  1  0.63703725  0.86029515  0.74779087  1
  Al  Al184  1  0.36567042  0.36267351  0.25618919  1
  Al  Al185  1  0.36975744  0.36305574  0.74646877  1
  Al  Al186  1  0.36767945  0.86625064  0.24872466  1
  Al  Al187  1  0.36272798  0.86236057  0.75000781  1
  Al  Al188  1  0.86595144  0.36476823  0.24812407  1
  Al  Al189  1  0.86923289  0.36748310  0.74739845  1
  Al  Al190  1  0.86376156  0.86390387  0.25290915  1
  Al  Al191  1  0.86864357  0.86090205  0.75205149  1
  Al  Al192  1  -0.00051036  0.18299600  0.18781920  1
  Al  Al193  1  0.18526685  0.68725086  0.00082685  1
  Al  Al194  1  0.17758293  0.16920555  0.49831725  1
  Al  Al195  1  -0.00143676  0.67905880  0.82743125  1
  Al  Al196  1  0.50038988  0.82410279  0.81985373  1
  Al  Al197  1  0.33228212  0.00016904  0.82936494  1
  Al  Al198  1  0.50184976  0.81867903  0.31775355  1
  Al  Al199  1  0.50212303  0.67149133  0.82335614  1
  Al  Al200  1  0.18002568  0.83134921  0.49752966  1
  Al  Al201  1  0.17372810  0.67182361  0.49756764  1
  Al  Al202  1  0.33003318  0.68607481  0.50035142  1
  Al  Al203  1  0.50100279  0.32815704  0.18139923  1
  Al  Al204  1  0.67430192  0.17142590  0.00060478  1
  Al  Al205  1  0.31378467  0.81089916  0.00195976  1
  Al  Al206  1  -0.00178026  0.17735304  0.67968262  1
  Al  Al207  1  0.32678164  0.50287498  0.17087807  1
  Al  Al208  1  0.18029331  0.33168995  0.49850870  1
  Al  Al209  1  -0.00122409  0.68279682  0.67141536  1
  Al  Al210  1  0.32744205  0.50116355  0.82776307  1
  Al  Al211  1  0.81861501  -0.00244480  0.18653999  1
  Al  Al212  1  0.16791924  -0.00026647  0.82551620  1
  Al  Al213  1  0.67472300  -0.00004730  0.67125731  1
  Al  Al214  1  0.18019904  -0.00107495  0.16894983  1
  Al  Al215  1  0.82943496  0.50259610  0.82903021  1
  Al  Al216  1  0.82736432  0.31451645  0.50020790  1
  Al  Al217  1  0.81277094  0.81268572  0.49715604  1
  Al  Al218  1  0.31944184  0.00000594  0.67283093  1
  Al  Al219  1  0.00091822  0.68696681  0.31022558  1
  Al  Al220  1  0.00006796  0.31213218  0.31937860  1
  Al  Al221  1  0.67650142  -0.00051460  0.83025091  1
  Al  Al222  1  0.81701094  0.50071306  0.66710730  1
  Al  Al223  1  0.31979453  0.49930203  0.67452643  1
  Al  Al224  1  0.67033833  0.50353404  0.32106319  1
  Al  Al225  1  0.83091601  -0.00181026  0.67309634  1
  Al  Al226  1  0.67562866  0.50148733  0.81413917  1
  Al  Al227  1  -0.00151770  0.81015205  0.18998082  1
  Al  Al228  1  0.31342438  0.50032363  0.32850708  1
  Al  Al229  1  0.67190795  0.32179541  0.50080308  1
  Al  Al230  1  0.49956701  0.16733752  0.17572441  1
  Al  Al231  1  0.68026085  0.32733872  0.00125354  1
  Al  Al232  1  0.31130763  0.17908803  0.00142204  1
  Al  Al233  1  0.18483955  -0.00037931  0.32959566  1
  Al  Al234  1  0.50298131  0.17951980  0.82245644  1
  Al  Al235  1  0.82761738  0.17823401  0.00167783  1
  Al  Al236  1  0.17404512  0.50205172  0.82064433  1
  Al  Al237  1  0.83125618  0.49966322  0.31950415  1
  Al  Al238  1  0.17145913  0.50169119  0.18183804  1
  Au  Au239  1  0.82267104  0.49960462  0.65181368  1
  Au  Au240  1  0.82867332  0.50462321  0.84451556  1
  Au  Au241  1  0.83915533  0.00122932  0.83948543  1
  Au  Au242  1  0.17029788  -0.00268069  0.66137226  1
  Au  Au243  1  0.32053613  0.50486335  0.15528542  1
  Au  Au244  1  0.33785026  0.17239520  0.49874775  1
  Au  Au245  1  0.84391073  0.32775863  0.00301922  1
  Au  Au246  1  0.16869392  -0.00134925  0.33450930  1
  Au  Au247  1  0.50204320  0.15951572  0.33275347  1
  Au  Au248  1  0.49998870  0.33708855  0.82084839  1
  Au  Au249  1  0.33398483  0.32512561  -0.00244645  1
  Au  Au250  1  0.49708974  0.16527109  0.16376852  1
  Au  Au251  1  0.00073842  0.18147131  0.83496680  1
  Au  Au252  1  0.67904319  0.15863279  0.49835299  1
  Au  Au253  1  0.16256935  -0.00018886  0.84091276  1
  Au  Au254  1  0.67122082  -0.00384271  0.17673936  1
  Au  Au255  1  0.49599406  0.33009200  0.34303298  1
  Au  Au256  1  0.50169124  0.34270118  0.17125754  1
  Au  Au257  1  0.65535541  0.50530087  0.32762083  1
  Au  Au258  1  0.50078642  0.17095242  0.83141079  1
  Au  Au259  1  0.16519069  0.32559905  -0.00080213  1
  Au  Au260  1  0.66333894  0.82094645  0.00265929  1
  Au  Au261  1  0.50274099  0.66069537  0.67357947  1
  Au  Au262  1  0.50013341  0.17220340  0.66515082  1
  Au  Au263  1  0.16206144  0.16436327  0.49786754  1
  Au  Au264  1  0.16936355  0.50008000  0.67172438  1
  Au  Au265  1  0.17035796  0.34480317  0.49723093  1
  Au  Au266  1  0.32696166  0.49819368  0.33894027  1
  Au  Au267  1  0.50185722  0.67367585  0.16901051  1
  Au  Au268  1  0.83937030  0.49896886  0.33440983  1
  Au  Au269  1  0.67908432  0.50537809  0.15974276  1
  Au  Au270  1  0.16395224  0.82503008  0.49765419  1
  Au  Au271  1  0.00093823  0.33299580  0.17350591  1
  Au  Au272  1  0.50008265  0.83698076  0.66864972  1
  Au  Au273  1  0.67597719  0.33813710  0.50381914  1
  Au  Au274  1  -0.00361196  0.17918319  0.66723586  1
  Au  Au275  1  0.17402230  -0.00129193  0.15377322  1
  Au  Au276  1  0.34881543  -0.00057402  0.82518994  1
  Au  Au277  1  0.32423837  0.82437056  0.00422853  1
  Au  Au278  1  0.83024077  0.00060750  0.65694438  1
  Au  Au279  1  0.50119828  0.82882032  0.33110109  1
  Au  Au280  1  0.66375488  0.32591103  -0.00298934  1
  Au  Au281  1  0.67663989  0.67748928  0.49927909  1
  Au  Au282  1  0.00197403  0.68147929  0.32620099  1
  Au  Au283  1  0.66009092  -0.00279909  0.82657368  1
  Au  Au284  1  0.83340258  0.82397409  0.00380049  1
  Au  Au285  1  0.00032758  0.82852823  0.82787153  1
  Au  Au286  1  0.33376919  0.66950442  0.50099500  1
  Au  Au287  1  -0.00124827  0.67068879  0.66728403  1
