# generated using pymatgen
data_Ca24Ti8Al207Au49
_symmetry_space_group_name_H-M   'P 1'
_cell_length_a   17.32102735
_cell_length_b   17.32191089
_cell_length_c   17.31937656
_cell_angle_alpha   90.00347138
_cell_angle_beta   89.99947301
_cell_angle_gamma   90.00033738
_symmetry_Int_Tables_number   1
_chemical_formula_structural   Ca24Ti8Al207Au49
_chemical_formula_sum   'Ca24 Ti8 Al207 Au49'
_cell_volume   5196.38956020
_cell_formula_units_Z   1
loop_
 _symmetry_equiv_pos_site_id
 _symmetry_equiv_pos_as_xyz
  1  'x, y, z'
loop_
 _atom_site_type_symbol
 _atom_site_label
 _atom_site_symmetry_multiplicity
 _atom_site_fract_x
 _atom_site_fract_y
 _atom_site_fract_z
 _atom_site_occupancy
  Ca  Ca0  1  0.24895930  0.00142757  0.00359380  1
  Ca  Ca1  1  0.24867908  0.00115914  0.49691835  1
  Ca  Ca2  1  0.25585038  0.49855358  -0.00363543  1
  Ca  Ca3  1  0.24978292  0.50086275  0.50498237  1
  Ca  Ca4  1  0.75667687  0.00516272  -0.00417247  1
  Ca  Ca5  1  0.75149948  0.00011743  0.50353298  1
  Ca  Ca6  1  0.74864672  0.49858769  -0.00318197  1
  Ca  Ca7  1  0.74734773  0.50038029  0.50333404  1
  Ca  Ca8  1  0.00027959  0.24579896  -0.00416216  1
  Ca  Ca9  1  0.00139207  0.24734902  0.50233480  1
  Ca  Ca10  1  0.00284012  0.75598645  0.00091794  1
  Ca  Ca11  1  0.00197534  0.74911618  0.50392231  1
  Ca  Ca12  1  0.49670610  0.25528383  0.00227647  1
  Ca  Ca13  1  0.49963527  0.25411969  0.49924736  1
  Ca  Ca14  1  0.49882372  0.74872855  -0.00481968  1
  Ca  Ca15  1  0.49917620  0.74741346  0.50551319  1
  Ca  Ca16  1  0.00159116  -0.00203074  0.25285789  1
  Ca  Ca17  1  -0.00286334  0.00106760  0.74977585  1
  Ca  Ca18  1  0.00196691  0.49911258  0.25055909  1
  Ca  Ca19  1  0.00424151  0.49619274  0.74564443  1
  Ca  Ca20  1  0.49921846  0.00464185  0.24774347  1
  Ca  Ca21  1  0.50239801  -0.00189805  0.74609952  1
  Ca  Ca22  1  0.49496654  0.49580688  0.25158216  1
  Ca  Ca23  1  0.49411231  0.50416280  0.74990752  1
  Ti  Ti24  1  0.24985076  0.24956279  0.25058174  1
  Ti  Ti25  1  0.25002625  0.25148919  0.74980890  1
  Ti  Ti26  1  0.25096035  0.75114577  0.25057563  1
  Ti  Ti27  1  0.24984102  0.74989576  0.74862013  1
  Ti  Ti28  1  0.75030122  0.24824748  0.25222475  1
  Ti  Ti29  1  0.75066137  0.24927247  0.74709521  1
  Ti  Ti30  1  0.74865676  0.75054808  0.25217735  1
  Ti  Ti31  1  0.75001682  0.75080005  0.74837102  1
  Al  Al32  1  0.08876097  0.07670046  0.08763629  1
  Al  Al33  1  0.08402191  0.09207138  0.58407712  1
  Al  Al34  1  0.08943683  0.57541103  0.09315258  1
  Al  Al35  1  0.08551591  0.58027627  0.59326507  1
  Al  Al36  1  0.59134704  0.08553918  0.08288460  1
  Al  Al37  1  0.58833036  0.07650798  0.58102239  1
  Al  Al38  1  0.57432991  0.57415930  0.07848429  1
  Al  Al39  1  0.58121828  0.59812518  0.58926364  1
  Al  Al40  1  0.40941375  0.40944098  0.08431015  1
  Al  Al41  1  0.40920865  0.42653613  0.59059548  1
  Al  Al42  1  0.40903692  0.92328593  0.08741976  1
  Al  Al43  1  0.41661998  0.89969192  0.58553122  1
  Al  Al44  1  0.91550897  0.40946703  0.06959337  1
  Al  Al45  1  0.92494039  0.41020881  0.58831077  1
  Al  Al46  1  0.91956557  0.91990058  0.08026564  1
  Al  Al47  1  0.91292690  0.92328486  0.59170539  1
  Al  Al48  1  0.41721964  0.08309371  0.41467785  1
  Al  Al49  1  0.41835240  0.08041617  0.92408961  1
  Al  Al50  1  0.41668606  0.57969842  0.42460422  1
  Al  Al51  1  0.40901444  0.58024689  0.90354672  1
  Al  Al52  1  0.91555645  0.08665663  0.42688421  1
  Al  Al53  1  0.91237624  0.08622389  0.90202139  1
  Al  Al54  1  0.92119566  0.58599237  0.42409713  1
  Al  Al55  1  0.92699997  0.58585204  0.91263232  1
  Al  Al56  1  0.08490154  0.41888880  0.42126862  1
  Al  Al57  1  0.08294157  0.41399814  0.90632240  1
  Al  Al58  1  0.08322693  0.91363341  0.41144434  1
  Al  Al59  1  0.07636838  0.92222120  0.92562689  1
  Al  Al60  1  0.57824470  0.41580929  0.41173129  1
  Al  Al61  1  0.56967396  0.41154786  0.91262705  1
  Al  Al62  1  0.58343265  0.92325327  0.42591578  1
  Al  Al63  1  0.58062547  0.92140647  0.90557315  1
  Al  Al64  1  0.08921858  0.08604434  0.42114606  1
  Al  Al65  1  0.07164088  0.08462229  0.91356129  1
  Al  Al66  1  0.08070473  0.57961955  0.41736506  1
  Al  Al67  1  0.08381583  0.57901998  0.90290088  1
  Al  Al68  1  0.58384077  0.08371313  0.41681126  1
  Al  Al69  1  0.59074476  0.07831058  0.91987714  1
  Al  Al70  1  0.58823127  0.58170317  0.42857800  1
  Al  Al71  1  0.56862298  0.58485601  0.90963077  1
  Al  Al72  1  0.42030776  0.41306321  0.41149489  1
  Al  Al73  1  0.40860869  0.41445857  0.91030543  1
  Al  Al74  1  0.40937109  0.91741760  0.42547241  1
  Al  Al75  1  0.41924094  0.91471386  0.91579245  1
  Al  Al76  1  0.92285972  0.41618331  0.42595982  1
  Al  Al77  1  0.91979004  0.39812174  0.91127459  1
  Al  Al78  1  0.92456359  0.91359096  0.41492904  1
  Al  Al79  1  0.91017129  0.92328884  0.90944607  1
  Al  Al80  1  0.08879254  0.42160612  0.08520409  1
  Al  Al81  1  0.08685309  0.41696486  0.59268853  1
  Al  Al82  1  0.09206118  0.91893471  0.08850448  1
  Al  Al83  1  0.08059531  0.91767187  0.58218753  1
  Al  Al84  1  0.57192662  0.41227169  0.08446642  1
  Al  Al85  1  0.57577751  0.42357177  0.57746636  1
  Al  Al86  1  0.58398698  0.93137713  0.08717441  1
  Al  Al87  1  0.58028371  0.90816807  0.59062031  1
  Al  Al88  1  0.40845965  0.08239360  0.08881561  1
  Al  Al89  1  0.41475226  0.07794713  0.57673446  1
  Al  Al90  1  0.41092224  0.57287042  0.07725598  1
  Al  Al91  1  0.41417194  0.58951883  0.59625496  1
  Al  Al92  1  0.91701794  0.08161520  0.07977567  1
  Al  Al93  1  0.91041174  0.08816991  0.59127935  1
  Al  Al94  1  0.92618197  0.57795069  0.07412149  1
  Al  Al95  1  0.92413349  0.58750842  0.58682110  1
  Al  Al96  1  0.25142756  0.13252144  0.13170078  1
  Al  Al97  1  0.24928252  0.13953615  0.62983859  1
  Al  Al98  1  0.24818711  0.63506343  0.13456410  1
  Al  Al99  1  0.25053623  0.63618343  0.63677562  1
  Al  Al100  1  0.74997676  0.12991860  0.13606892  1
  Al  Al101  1  0.75307491  0.12986413  0.63401601  1
  Al  Al102  1  0.75069019  0.63555943  0.13496155  1
  Al  Al103  1  0.74803239  0.63970415  0.63153913  1
  Al  Al104  1  0.25167927  0.36402662  0.13128523  1
  Al  Al105  1  0.24707420  0.36539860  0.63066727  1
  Al  Al106  1  0.25078551  0.87124278  0.13805457  1
  Al  Al107  1  0.25569429  0.86116421  0.63393986  1
  Al  Al108  1  0.75024221  0.36210099  0.13551034  1
  Al  Al109  1  0.75107405  0.36247352  0.62978449  1
  Al  Al110  1  0.74948631  0.86791152  0.13819824  1
  Al  Al111  1  0.75172788  0.86801990  0.63977070  1
  Al  Al112  1  0.24924154  0.13635585  0.36820640  1
  Al  Al113  1  0.25428290  0.13989039  0.87124769  1
  Al  Al114  1  0.25111973  0.63561790  0.36549099  1
  Al  Al115  1  0.25622660  0.63166032  0.85797668  1
  Al  Al116  1  0.75113453  0.13732185  0.37041436  1
  Al  Al117  1  0.75482509  0.13472911  0.86230197  1
  Al  Al118  1  0.75033881  0.63632228  0.37154984  1
  Al  Al119  1  0.74845924  0.63631588  0.85996674  1
  Al  Al120  1  0.24752924  0.36387288  0.37463399  1
  Al  Al121  1  0.25606799  0.36716425  0.86703286  1
  Al  Al122  1  0.25194244  0.86656875  0.36475638  1
  Al  Al123  1  0.25671008  0.86153720  0.86046981  1
  Al  Al124  1  0.75002855  0.36327243  0.37261496  1
  Al  Al125  1  0.75505001  0.36307900  0.86176378  1
  Al  Al126  1  0.74960330  0.86468578  0.36388306  1
  Al  Al127  1  0.75061792  0.86370355  0.85940744  1
  Al  Al128  1  0.13741385  0.24700846  0.12871228  1
  Al  Al129  1  0.13377730  0.25159186  0.63173887  1
  Al  Al130  1  0.13587752  0.75691907  0.13548814  1
  Al  Al131  1  0.12926489  0.75140783  0.63566033  1
  Al  Al132  1  0.63585975  0.24859814  0.13509165  1
  Al  Al133  1  0.63889860  0.24795104  0.62670109  1
  Al  Al134  1  0.63102022  0.74455695  0.13655654  1
  Al  Al135  1  0.63062819  0.74839698  0.63693064  1
  Al  Al136  1  0.13665636  0.24822598  0.36918766  1
  Al  Al137  1  0.13646646  0.25042364  0.86508807  1
  Al  Al138  1  0.13608837  0.75460665  0.36275151  1
  Al  Al139  1  0.13714110  0.74922137  0.86069656  1
  Al  Al140  1  0.63426377  0.25279291  0.37085239  1
  Al  Al141  1  0.63704548  0.25200511  0.86282153  1
  Al  Al142  1  0.63229335  0.74522980  0.36658102  1
  Al  Al143  1  0.62816555  0.74879685  0.86107204  1
  Al  Al144  1  0.36163509  0.25017426  0.12946859  1
  Al  Al145  1  0.36352183  0.25528850  0.62982925  1
  Al  Al146  1  0.36307772  0.75072238  0.13514602  1
  Al  Al147  1  0.37097275  0.74918248  0.63819676  1
  Al  Al148  1  0.86263321  0.24787131  0.12733492  1
  Al  Al149  1  0.86473131  0.24694501  0.62991839  1
  Al  Al150  1  0.86363676  0.75190239  0.13516594  1
  Al  Al151  1  0.87197896  0.74991955  0.63750769  1
  Al  Al152  1  0.36514756  0.25102321  0.37017303  1
  Al  Al153  1  0.36773822  0.25381813  0.86866763  1
  Al  Al154  1  0.36698764  0.75192132  0.36618369  1
  Al  Al155  1  0.37483200  0.74873497  0.85887341  1
  Al  Al156  1  0.86494573  0.24857161  0.37122221  1
  Al  Al157  1  0.86612739  0.24688934  0.86575525  1
  Al  Al158  1  0.86489073  0.75314168  0.36722994  1
  Al  Al159  1  0.86559125  0.75109926  0.86166035  1
  Al  Al160  1  0.13785806  0.13636317  0.24663249  1
  Al  Al161  1  0.13451824  0.13728179  0.75039288  1
  Al  Al162  1  0.13835468  0.63402294  0.24796704  1
  Al  Al163  1  0.13389951  0.62939959  0.74306594  1
  Al  Al164  1  0.63359335  0.13650618  0.25084471  1
  Al  Al165  1  0.63609147  0.13405057  0.74695794  1
  Al  Al166  1  0.63129499  0.63468175  0.24987159  1
  Al  Al167  1  0.62959060  0.63583931  0.74812741  1
  Al  Al168  1  0.36467171  0.13706496  0.24738288  1
  Al  Al169  1  0.36215949  0.13648695  0.74849972  1
  Al  Al170  1  0.36845394  0.63721397  0.25128058  1
  Al  Al171  1  0.37118894  0.63646076  0.74894262  1
  Al  Al172  1  0.86499888  0.13669500  0.24710085  1
  Al  Al173  1  0.86643674  0.13336498  0.74996956  1
  Al  Al174  1  0.86237445  0.63756822  0.25471605  1
  Al  Al175  1  0.86513987  0.63484420  0.74636703  1
  Al  Al176  1  0.13972790  0.36445875  0.24684318  1
  Al  Al177  1  0.13527794  0.36578535  0.74588416  1
  Al  Al178  1  0.13351184  0.86638746  0.24837224  1
  Al  Al179  1  0.13073692  0.86514700  0.74715951  1
  Al  Al180  1  0.63625424  0.36220071  0.25153357  1
  Al  Al181  1  0.63131001  0.36174082  0.74772969  1
  Al  Al182  1  0.63507493  0.86510524  0.24948221  1
  Al  Al183  1  0.62844921  0.86325853  0.74733731  1
  Al  Al184  1  0.36127273  0.36264956  0.25319645  1
  Al  Al185  1  0.36939196  0.36321811  0.75240558  1
  Al  Al186  1  0.36549366  0.86779639  0.24764004  1
  Al  Al187  1  0.37577056  0.86464319  0.74772189  1
  Al  Al188  1  0.86239067  0.36062001  0.25318489  1
  Al  Al189  1  0.86724541  0.36057555  0.74506811  1
  Al  Al190  1  0.86994057  0.86493228  0.24947906  1
  Al  Al191  1  0.87046663  0.86654897  0.74975876  1
  Al  Al192  1  0.17000691  -0.00000908  0.82801240  1
  Al  Al193  1  -0.00071053  0.32161965  0.16926465  1
  Al  Al194  1  -0.00039915  0.67721114  0.17519542  1
  Al  Al195  1  0.67871715  0.66742358  -0.00260751  1
  Al  Al196  1  0.49714133  0.31663154  0.19110568  1
  Al  Al197  1  0.00185871  0.32500447  0.32703396  1
  Al  Al198  1  0.31126796  0.49956810  0.18040198  1
  Al  Al199  1  0.50102559  0.18141359  0.32054721  1
  Al  Al200  1  0.82821718  0.49914615  0.67050704  1
  Al  Al201  1  0.50172321  0.18184554  0.82960844  1
  Al  Al202  1  0.67361573  0.50012085  0.32345495  1
  Al  Al203  1  0.50118706  0.82483551  0.16963809  1
  Al  Al204  1  0.18246298  0.82705120  -0.00221176  1
  Al  Al205  1  0.67246389  0.81622713  0.50214281  1
  Al  Al206  1  0.17589498  0.66900035  -0.00387442  1
  Al  Al207  1  0.32791703  0.68018212  -0.00407339  1
  Al  Al208  1  0.17548735  0.32477006  -0.00135992  1
  Al  Al209  1  0.49959174  0.82522230  0.33171843  1
  Al  Al210  1  0.17179162  0.66958732  0.50116292  1
  Al  Al211  1  0.17745748  0.49918114  0.31601373  1
  Al  Al212  1  0.18507999  0.82499805  0.49958974  1
  Al  Al213  1  0.17335836  0.00145204  0.31666211  1
  Al  Al214  1  0.17898822  0.00187456  0.67312066  1
  Al  Al215  1  0.32528383  0.00154297  0.31719048  1
  Al  Al216  1  0.18972032  0.49780587  0.81316160  1
  Al  Al217  1  0.68096239  0.33483694  -0.00186114  1
  Al  Al218  1  0.83029677  0.00236181  0.32234207  1
  Al  Al219  1  0.82643206  0.49830498  0.82932168  1
  Al  Al220  1  0.32708619  0.00144789  0.81879190  1
  Al  Al221  1  0.68588207  0.17680137  -0.00122721  1
  Al  Al222  1  0.00078301  0.17176315  0.32604032  1
  Al  Al223  1  0.30490784  0.49932675  0.69683438  1
  Al  Al224  1  0.49968284  0.18282203  0.67029653  1
  Al  Al225  1  0.82795297  0.82239248  0.50228108  1
  Al  Al226  1  -0.00014260  0.18512445  0.68536223  1
  Al  Al227  1  0.68765212  0.00041913  0.81729922  1
  Al  Al228  1  0.32527852  0.68506372  0.50240060  1
  Al  Al229  1  0.67318841  0.50117877  0.66974772  1
  Al  Al230  1  0.67208731  0.49763142  0.82659328  1
  Al  Al231  1  0.67051260  0.83381898  0.00015886  1
  Al  Al232  1  0.82342841  0.49768296  0.16951441  1
  Al  Al233  1  0.82697882  0.82387051  -0.00153058  1
  Al  Al234  1  0.82944687  0.49808941  0.32949916  1
  Al  Al235  1  0.00104487  0.30249265  0.80483047  1
  Al  Al236  1  0.00172027  0.68519780  0.33101170  1
  Al  Al237  1  0.00147440  0.68335202  0.80784017  1
  Al  Al238  1  0.67419625  0.00073128  0.31772102  1
  Au  Au239  1  0.67610170  0.84965267  -0.00012434  1
  Au  Au240  1  0.16148620  0.32541767  0.50312363  1
  Au  Au241  1  0.32863811  -0.00614780  0.66007714  1
  Au  Au242  1  0.49932040  0.83466405  0.33581031  1
  Au  Au243  1  0.67945540  0.16212993  0.50034603  1
  Au  Au244  1  -0.00034057  0.33775967  0.17466269  1
  Au  Au245  1  0.83285642  0.50286684  0.34080439  1
  Au  Au246  1  0.82460202  0.83438858  0.50057534  1
  Au  Au247  1  0.00118047  0.84020122  0.17517664  1
  Au  Au248  1  0.65959112  0.49722079  0.82320671  1
  Au  Au249  1  -0.00054209  0.17563877  0.67421410  1
  Au  Au250  1  0.66525134  0.32754044  -0.00172191  1
  Au  Au251  1  0.33311947  0.49942748  0.32819318  1
  Au  Au252  1  0.65450607  0.49632191  0.17593386  1
  Au  Au253  1  0.50411563  0.83704206  0.16876444  1
  Au  Au254  1  0.49168503  0.66153483  0.16401564  1
  Au  Au255  1  0.32198786  0.16386668  0.49806946  1
  Au  Au256  1  0.33175017  0.17449755  0.00122661  1
  Au  Au257  1  0.83588242  0.17258889  -0.00379668  1
  Au  Au258  1  0.49914414  0.34404360  0.67645606  1
  Au  Au259  1  0.83878110  0.49699370  0.82647813  1
  Au  Au260  1  0.50222229  0.18365448  0.33316687  1
  Au  Au261  1  0.82130376  -0.00203675  0.16295077  1
  Au  Au262  1  0.00131919  0.82867531  0.83791522  1
  Au  Au263  1  0.84486042  0.67574556  -0.00365101  1
  Au  Au264  1  0.82709753  0.66862532  0.50489096  1
  Au  Au265  1  0.33145282  0.83198954  0.00153648  1
  Au  Au266  1  0.82680587  0.00137311  0.33462623  1
  Au  Au267  1  -0.00022290  0.66146053  0.18205804  1
  Au  Au268  1  0.16454868  0.16265269  -0.00385684  1
  Au  Au269  1  0.15996019  0.66926878  0.00129803  1
  Au  Au270  1  0.17713382  0.49793797  0.81533415  1
  Au  Au271  1  0.17211673  0.49920488  0.32766363  1
  Au  Au272  1  0.17314294  0.82984212  0.49987918  1
  Au  Au273  1  0.50380636  0.66308483  0.33987323  1
  Au  Au274  1  0.17533229  0.33728365  0.00112457  1
  Au  Au275  1  0.66243988  0.66300180  -0.00295234  1
  Au  Au276  1  0.82612265  0.49753094  0.15277332  1
  Au  Au277  1  0.67540532  -0.00423607  0.67134411  1
  Au  Au278  1  0.00167345  0.15603547  0.17601191  1
  Au  Au279  1  0.66479560  0.33320682  0.49972957  1
  Au  Au280  1  0.33562967  0.33366347  0.50119043  1
  Au  Au281  1  0.50520803  0.17304468  0.84363837  1
  Au  Au282  1  0.83913476  0.32256837  0.50296302  1
  Au  Au283  1  0.50106781  0.17147773  0.16008113  1
  Au  Au284  1  -0.00051182  0.82666348  0.66897065  1
  Au  Au285  1  0.50185615  0.82562521  0.82436342  1
  Au  Au286  1  0.32337627  0.00305629  0.83086032  1
  Au  Au287  1  0.49941357  0.16801924  0.66211710  1
