# generated using pymatgen
data_Ca24Ti8Al207Au49
_symmetry_space_group_name_H-M   'P 1'
_cell_length_a   17.32386934
_cell_length_b   17.32392090
_cell_length_c   17.32406897
_cell_angle_alpha   89.99767514
_cell_angle_beta   90.00334951
_cell_angle_gamma   90.00102339
_symmetry_Int_Tables_number   1
_chemical_formula_structural   Ca24Ti8Al207Au49
_chemical_formula_sum   'Ca24 Ti8 Al207 Au49'
_cell_volume   5199.25351901
_cell_formula_units_Z   1
loop_
 _symmetry_equiv_pos_site_id
 _symmetry_equiv_pos_as_xyz
  1  'x, y, z'
loop_
 _atom_site_type_symbol
 _atom_site_label
 _atom_site_symmetry_multiplicity
 _atom_site_fract_x
 _atom_site_fract_y
 _atom_site_fract_z
 _atom_site_occupancy
  Ca  Ca0  1  0.25274245  0.00086259  -0.00162574  1
  Ca  Ca1  1  0.25499307  0.00200702  0.50316933  1
  Ca  Ca2  1  0.24609079  0.50211559  0.00445227  1
  Ca  Ca3  1  0.25385518  0.49981623  0.49719570  1
  Ca  Ca4  1  0.74813647  0.00176139  -0.00069754  1
  Ca  Ca5  1  0.74966713  0.00476369  0.50375005  1
  Ca  Ca6  1  0.74978345  0.49952346  0.00152829  1
  Ca  Ca7  1  0.74882487  0.49772468  0.49989384  1
  Ca  Ca8  1  -0.00277814  0.25354915  0.00065068  1
  Ca  Ca9  1  -0.00087394  0.25145234  0.49694221  1
  Ca  Ca10  1  0.00035017  0.74194352  0.00053342  1
  Ca  Ca11  1  0.00036280  0.74727508  0.49725241  1
  Ca  Ca12  1  0.50453405  0.24726808  0.00389962  1
  Ca  Ca13  1  0.49869917  0.25210479  0.49582191  1
  Ca  Ca14  1  0.50036567  0.74326061  -0.00449934  1
  Ca  Ca15  1  0.49548180  0.74895612  0.50623348  1
  Ca  Ca16  1  0.00381526  0.00249318  0.25352944  1
  Ca  Ca17  1  0.00642482  0.00127154  0.74261660  1
  Ca  Ca18  1  -0.00562853  0.49733935  0.24865699  1
  Ca  Ca19  1  -0.00403849  0.49806854  0.74614226  1
  Ca  Ca20  1  0.49741686  0.00410325  0.25269187  1
  Ca  Ca21  1  0.49320140  0.00018189  0.74188527  1
  Ca  Ca22  1  0.50442633  0.49714598  0.25278472  1
  Ca  Ca23  1  0.50353787  0.49859683  0.74672982  1
  Ti  Ti24  1  0.25145543  0.25012309  0.25068514  1
  Ti  Ti25  1  0.25043100  0.24962225  0.74815535  1
  Ti  Ti26  1  0.25060179  0.75049363  0.25001988  1
  Ti  Ti27  1  0.25107028  0.75076963  0.75020276  1
  Ti  Ti28  1  0.74923208  0.25182173  0.25053913  1
  Ti  Ti29  1  0.75103781  0.25273595  0.74933498  1
  Ti  Ti30  1  0.75144967  0.74743641  0.24980215  1
  Ti  Ti31  1  0.74901334  0.74782927  0.74933785  1
  Al  Al32  1  0.08177047  0.08022088  0.08197316  1
  Al  Al33  1  0.08930818  0.08456018  0.58071625  1
  Al  Al34  1  0.07346196  0.58727803  0.09000782  1
  Al  Al35  1  0.07656461  0.58836145  0.57694411  1
  Al  Al36  1  0.58229917  0.09952466  0.08740406  1
  Al  Al37  1  0.57992522  0.07996355  0.57378934  1
  Al  Al38  1  0.59408206  0.58294649  0.08329359  1
  Al  Al39  1  0.57965901  0.58268453  0.59039755  1
  Al  Al40  1  0.42173148  0.41225136  0.08495400  1
  Al  Al41  1  0.42208127  0.40973234  0.57994976  1
  Al  Al42  1  0.41888000  0.92457543  0.07688718  1
  Al  Al43  1  0.41331708  0.90517928  0.59267725  1
  Al  Al44  1  0.91138012  0.42190276  0.09306463  1
  Al  Al45  1  0.91194918  0.41356756  0.59240143  1
  Al  Al46  1  0.91798075  0.91791646  0.08264921  1
  Al  Al47  1  0.92125335  0.92351110  0.57907335  1
  Al  Al48  1  0.41457701  0.09633999  0.41855196  1
  Al  Al49  1  0.41054829  0.07567634  0.91327880  1
  Al  Al50  1  0.41258988  0.58604585  0.42597236  1
  Al  Al51  1  0.42259067  0.58113311  0.91756096  1
  Al  Al52  1  0.91381035  0.09111088  0.41723926  1
  Al  Al53  1  0.91754778  0.08422535  0.92460154  1
  Al  Al54  1  0.90979928  0.57416052  0.40654098  1
  Al  Al55  1  0.91358899  0.57934317  0.91914674  1
  Al  Al56  1  0.08065378  0.41929342  0.41966281  1
  Al  Al57  1  0.07979028  0.42005703  0.91843882  1
  Al  Al58  1  0.08926926  0.92126349  0.42390663  1
  Al  Al59  1  0.08743011  0.92126081  0.91561865  1
  Al  Al60  1  0.58439499  0.41347654  0.40776451  1
  Al  Al61  1  0.58668155  0.41443090  0.92169813  1
  Al  Al62  1  0.58329807  0.91138078  0.43425190  1
  Al  Al63  1  0.57525446  0.91426416  0.91953915  1
  Al  Al64  1  0.08313330  0.08748532  0.41883907  1
  Al  Al65  1  0.08595997  0.07800595  0.91745807  1
  Al  Al66  1  0.08492646  0.58249690  0.41981746  1
  Al  Al67  1  0.07965405  0.57694080  0.92146988  1
  Al  Al68  1  0.57493179  0.09639869  0.41606046  1
  Al  Al69  1  0.58348143  0.08633154  0.92887896  1
  Al  Al70  1  0.58797255  0.57298471  0.41463620  1
  Al  Al71  1  0.58980565  0.58840289  0.92107106  1
  Al  Al72  1  0.42099851  0.41125000  0.41715277  1
  Al  Al73  1  0.42141900  0.41939440  0.91963927  1
  Al  Al74  1  0.41164893  0.91465105  0.43135612  1
  Al  Al75  1  0.41025055  0.92096718  0.90429738  1
  Al  Al76  1  0.90741592  0.41658810  0.41347528  1
  Al  Al77  1  0.91494008  0.41809962  0.91540516  1
  Al  Al78  1  0.91783405  0.92764697  0.42137702  1
  Al  Al79  1  0.92078194  0.91930166  0.92379158  1
  Al  Al80  1  0.07319754  0.41956501  0.08225072  1
  Al  Al81  1  0.07369736  0.40904616  0.58467860  1
  Al  Al82  1  0.08228496  0.91972927  0.08237731  1
  Al  Al83  1  0.09123963  0.91901767  0.58254173  1
  Al  Al84  1  0.59089447  0.41321130  0.08692980  1
  Al  Al85  1  0.58313403  0.41905048  0.58661365  1
  Al  Al86  1  0.58068023  0.92147854  0.07370814  1
  Al  Al87  1  0.57794214  0.90236421  0.59128516  1
  Al  Al88  1  0.42404861  0.08698461  0.08766292  1
  Al  Al89  1  0.40678925  0.08277221  0.58328601  1
  Al  Al90  1  0.42250250  0.57684708  0.08120757  1
  Al  Al91  1  0.41676706  0.60069666  0.58605766  1
  Al  Al92  1  0.91557797  0.08749849  0.08357705  1
  Al  Al93  1  0.91002969  0.09003533  0.57609187  1
  Al  Al94  1  0.91150171  0.58399636  0.09696245  1
  Al  Al95  1  0.91598154  0.57466446  0.59306091  1
  Al  Al96  1  0.25324274  0.13557552  0.13689259  1
  Al  Al97  1  0.25604680  0.13552327  0.63369768  1
  Al  Al98  1  0.25013897  0.63129781  0.13162032  1
  Al  Al99  1  0.25491716  0.63693744  0.63349974  1
  Al  Al100  1  0.74753035  0.13697231  0.12837118  1
  Al  Al101  1  0.75124546  0.13978182  0.63456819  1
  Al  Al102  1  0.75242592  0.63116458  0.13334521  1
  Al  Al103  1  0.75096900  0.63430885  0.63196659  1
  Al  Al104  1  0.25434050  0.37094339  0.13921234  1
  Al  Al105  1  0.24889202  0.36430507  0.63488734  1
  Al  Al106  1  0.25185790  0.86272996  0.13038240  1
  Al  Al107  1  0.25677756  0.86345174  0.62702636  1
  Al  Al108  1  0.75211630  0.36717816  0.13814041  1
  Al  Al109  1  0.75471576  0.36565995  0.62980186  1
  Al  Al110  1  0.75252994  0.86480331  0.13547247  1
  Al  Al111  1  0.74347566  0.86255722  0.63185216  1
  Al  Al112  1  0.25666697  0.13621914  0.36713161  1
  Al  Al113  1  0.25340844  0.13557449  0.86176760  1
  Al  Al114  1  0.25172873  0.63604388  0.36393680  1
  Al  Al115  1  0.25369637  0.63699148  0.86892061  1
  Al  Al116  1  0.75020676  0.13883447  0.36441619  1
  Al  Al117  1  0.75243698  0.13691992  0.86794813  1
  Al  Al118  1  0.75142293  0.63035486  0.36661059  1
  Al  Al119  1  0.74800663  0.63079305  0.86641992  1
  Al  Al120  1  0.25016104  0.36534161  0.36467374  1
  Al  Al121  1  0.25418531  0.36392567  0.86181484  1
  Al  Al122  1  0.25238076  0.86179013  0.37286039  1
  Al  Al123  1  0.25450056  0.86520795  0.86552829  1
  Al  Al124  1  0.74915868  0.36877262  0.37034526  1
  Al  Al125  1  0.75159776  0.37151355  0.86121233  1
  Al  Al126  1  0.74911183  0.86331598  0.36498612  1
  Al  Al127  1  0.75029730  0.86290352  0.86204260  1
  Al  Al128  1  0.13684778  0.24934285  0.13680394  1
  Al  Al129  1  0.13126438  0.24849247  0.63518088  1
  Al  Al130  1  0.13705678  0.74747385  0.13023470  1
  Al  Al131  1  0.13762066  0.75420957  0.63396926  1
  Al  Al132  1  0.63472346  0.25123936  0.13505039  1
  Al  Al133  1  0.63438805  0.25648427  0.63315805  1
  Al  Al134  1  0.63920687  0.74402399  0.13482437  1
  Al  Al135  1  0.63164561  0.74914050  0.63251339  1
  Al  Al136  1  0.13535972  0.25194458  0.36567926  1
  Al  Al137  1  0.13637339  0.25135704  0.86302453  1
  Al  Al138  1  0.13282222  0.75058543  0.36395709  1
  Al  Al139  1  0.13844268  0.75154097  0.87180187  1
  Al  Al140  1  0.63508188  0.25456830  0.36573318  1
  Al  Al141  1  0.63547953  0.24996925  0.86397942  1
  Al  Al142  1  0.63616977  0.75186346  0.36589871  1
  Al  Al143  1  0.63175009  0.74489389  0.86298704  1
  Al  Al144  1  0.36965427  0.24765571  0.13756691  1
  Al  Al145  1  0.36673718  0.24846310  0.63304722  1
  Al  Al146  1  0.36259802  0.74964398  0.13047764  1
  Al  Al147  1  0.36767312  0.75119754  0.63408490  1
  Al  Al148  1  0.86147864  0.25036609  0.12987324  1
  Al  Al149  1  0.86863229  0.25232000  0.63204209  1
  Al  Al150  1  0.86728323  0.74425816  0.13233743  1
  Al  Al151  1  0.86208599  0.74882788  0.63195538  1
  Al  Al152  1  0.36677715  0.25012777  0.36566272  1
  Al  Al153  1  0.36786072  0.25136657  0.86244880  1
  Al  Al154  1  0.36399459  0.74841516  0.36921721  1
  Al  Al155  1  0.36573839  0.75056204  0.86901951  1
  Al  Al156  1  0.86198736  0.25373682  0.37123931  1
  Al  Al157  1  0.86511068  0.25470424  0.86869024  1
  Al  Al158  1  0.86518323  0.74559459  0.36611350  1
  Al  Al159  1  0.86556052  0.74575626  0.86597538  1
  Al  Al160  1  0.13767759  0.13537193  0.25204052  1
  Al  Al161  1  0.13510319  0.13377149  0.74597531  1
  Al  Al162  1  0.13479049  0.63598863  0.24511793  1
  Al  Al163  1  0.13816024  0.63927574  0.75110697  1
  Al  Al164  1  0.63475306  0.13534552  0.24525674  1
  Al  Al165  1  0.63456354  0.13936697  0.74719664  1
  Al  Al166  1  0.63913445  0.63302219  0.25405443  1
  Al  Al167  1  0.63256594  0.63635023  0.74647093  1
  Al  Al168  1  0.36653510  0.12986984  0.25067140  1
  Al  Al169  1  0.36643024  0.12999436  0.74857612  1
  Al  Al170  1  0.36391408  0.63758681  0.24807653  1
  Al  Al171  1  0.37192288  0.63899961  0.74743950  1
  Al  Al172  1  0.86223565  0.13894191  0.24715019  1
  Al  Al173  1  0.86574243  0.13978116  0.74774638  1
  Al  Al174  1  0.86327637  0.62895260  0.24835987  1
  Al  Al175  1  0.86112234  0.62928329  0.74993201  1
  Al  Al176  1  0.13481813  0.36513152  0.24895947  1
  Al  Al177  1  0.13091189  0.36304733  0.74664135  1
  Al  Al178  1  0.13661270  0.86341525  0.24978019  1
  Al  Al179  1  0.13856248  0.86521564  0.74956907  1
  Al  Al180  1  0.63490060  0.36884833  0.25598688  1
  Al  Al181  1  0.63386563  0.36498985  0.74704093  1
  Al  Al182  1  0.63717200  0.86424431  0.24705205  1
  Al  Al183  1  0.63123657  0.86185593  0.74463932  1
  Al  Al184  1  0.36951896  0.36449353  0.25311224  1
  Al  Al185  1  0.36965116  0.36244499  0.74470710  1
  Al  Al186  1  0.36104455  0.87057645  0.25441061  1
  Al  Al187  1  0.36411949  0.86663925  0.74578618  1
  Al  Al188  1  0.86084207  0.36821097  0.25454654  1
  Al  Al189  1  0.86764076  0.36616436  0.74692472  1
  Al  Al190  1  0.86691438  0.86099488  0.24960756  1
  Al  Al191  1  0.86465091  0.86163400  0.74747576  1
  Al  Al192  1  0.68603430  0.49993797  0.68091010  1
  Al  Al193  1  0.82791075  0.00012749  0.82554193  1
  Al  Al194  1  0.67024409  0.00075930  0.67049286  1
  Al  Al195  1  0.49752830  0.81879069  0.81256281  1
  Al  Al196  1  0.67020700  0.81512396  -0.00202699  1
  Al  Al197  1  0.50169597  0.31338991  0.18815077  1
  Al  Al198  1  0.00131630  0.17869219  0.82082858  1
  Al  Al199  1  0.31903785  0.31327664  0.49956435  1
  Al  Al200  1  0.68329571  0.18085354  0.50011798  1
  Al  Al201  1  0.68532114  0.49961895  0.18490413  1
  Al  Al202  1  0.18935858  -0.00034176  0.67274355  1
  Al  Al203  1  0.50039131  0.82816205  0.17329358  1
  Al  Al204  1  0.50276068  0.67028738  0.17449591  1
  Al  Al205  1  0.82386249  0.81599792  -0.00060569  1
  Al  Al206  1  0.18923583  0.18212808  0.50009037  1
  Al  Al207  1  0.49566372  0.82465871  0.33445690  1
  Al  Al208  1  0.66666946  0.00007937  0.33228636  1
  Al  Al209  1  0.67341847  0.67891200  0.49871252  1
  Al  Al210  1  0.18004212  -0.00122390  0.17446455  1
  Al  Al211  1  0.18047977  0.00053729  0.32837007  1
  Al  Al212  1  0.17942602  0.49985108  0.82544262  1
  Al  Al213  1  0.33038302  0.50036124  0.32481596  1
  Al  Al214  1  0.16915491  0.32839989  0.00104459  1
  Al  Al215  1  0.00132893  0.82072847  0.82034109  1
  Al  Al216  1  -0.00334558  0.31895493  0.18113709  1
  Al  Al217  1  0.82486785  0.00080467  0.67008834  1
  Al  Al218  1  -0.00070026  0.67428888  0.31510302  1
  Al  Al219  1  0.50263393  0.32036421  0.82235614  1
  Al  Al220  1  0.81704885  0.82444782  0.49909038  1
  Al  Al221  1  0.18711206  0.00040065  0.82404056  1
  Al  Al222  1  0.17517125  0.50115014  0.32199183  1
  Al  Al223  1  0.00220160  0.81479624  0.17864805  1
  Al  Al224  1  0.82452529  0.00176057  0.32231436  1
  Al  Al225  1  0.18560052  0.68017747  0.49898536  1
  Al  Al226  1  0.50021956  0.66885359  0.32881925  1
  Al  Al227  1  0.32443996  0.32234726  0.00159182  1
  Al  Al228  1  0.17482393  0.17404285  -0.00049154  1
  Al  Al229  1  0.33302572  0.50159952  0.67371626  1
  Al  Al230  1  0.32862701  0.17116665  -0.00040015  1
  Al  Al231  1  -0.00103121  0.68061006  0.67965980  1
  Al  Al232  1  0.68404709  0.31337085  -0.00059477  1
  Al  Al233  1  0.67574737  0.00465992  0.17016246  1
  Al  Al234  1  -0.00156540  0.18363009  0.31954294  1
  Al  Al235  1  0.50078198  0.19375463  0.30803184  1
  Al  Al236  1  0.50021553  0.18145344  0.67399743  1
  Al  Al237  1  0.17182816  0.50235139  0.66741391  1
  Al  Al238  1  0.67199893  0.00105947  0.82523341  1
  Au  Au239  1  0.16375678  0.66581393  0.00189366  1
  Au  Au240  1  0.67158250  -0.00055256  0.34769731  1
  Au  Au241  1  -0.00164842  0.33554196  0.32922480  1
  Au  Au242  1  0.50297846  0.66017028  0.82148756  1
  Au  Au243  1  0.16012551  0.50271175  0.67234295  1
  Au  Au244  1  -0.00024878  0.66034754  0.32407464  1
  Au  Au245  1  0.84050858  0.00028793  0.82243198  1
  Au  Au246  1  0.32736567  0.50216561  0.83713221  1
  Au  Au247  1  0.17026899  0.32949933  0.50070864  1
  Au  Au248  1  0.66134684  0.32882978  0.49998810  1
  Au  Au249  1  0.50562081  0.32177352  0.17922388  1
  Au  Au250  1  0.50394084  0.33285443  0.82447033  1
  Au  Au251  1  0.83135940  0.49880671  0.81963489  1
  Au  Au252  1  0.33347632  0.83605963  -0.00334564  1
  Au  Au253  1  0.49771456  0.83381144  0.81992515  1
  Au  Au254  1  0.83758032  0.65794298  0.50190448  1
  Au  Au255  1  -0.00094408  0.17523984  0.65592750  1
  Au  Au256  1  0.49781821  0.16815859  0.84130660  1
  Au  Au257  1  0.50012240  0.17271398  0.65992469  1
  Au  Au258  1  0.00236007  0.82314989  0.16395494  1
  Au  Au259  1  0.00113155  0.82827891  0.65716077  1
  Au  Au260  1  0.50230459  0.82178327  0.15745475  1
  Au  Au261  1  0.66654983  0.00106633  0.16253263  1
  Au  Au262  1  0.65905363  0.67107004  0.49981320  1
  Au  Au263  1  0.65630283  0.00298187  0.82865904  1
  Au  Au264  1  0.32940556  0.00249894  0.16643594  1
  Au  Au265  1  0.50098118  0.82788886  0.34531484  1
  Au  Au266  1  0.66697629  0.50140867  0.82976346  1
  Au  Au267  1  0.83979773  0.00051949  0.17557917  1
  Au  Au268  1  0.00115872  0.34010883  0.82190514  1
  Au  Au269  1  0.82251009  0.84052680  0.49903992  1
  Au  Au270  1  0.83329909  0.32599060  0.50266619  1
  Au  Au271  1  0.15831113  0.49926396  0.17367044  1
  Au  Au272  1  0.00088785  0.65637079  0.82559755  1
  Au  Au273  1  0.33672390  0.66788172  0.00193155  1
  Au  Au274  1  0.17934881  0.82780036  0.50009632  1
  Au  Au275  1  0.16986312  0.83556062  0.00017108  1
  Au  Au276  1  0.33648225  0.49749363  0.66227144  1
  Au  Au277  1  0.82423570  0.66127736  0.00222233  1
  Au  Au278  1  0.81857949  0.16849663  -0.00029558  1
  Au  Au279  1  0.82691789  0.82821647  0.00048900  1
  Au  Au280  1  0.33731518  0.50179786  0.17574830  1
  Au  Au281  1  0.00157096  0.16896251  0.83418802  1
  Au  Au282  1  0.33312993  0.33123728  0.00541512  1
  Au  Au283  1  0.32982962  0.00041866  0.34302905  1
  Au  Au284  1  0.00392314  0.17059448  0.16917854  1
  Au  Au285  1  0.82883153  0.33763706  0.00336392  1
  Au  Au286  1  0.00187997  0.83151938  0.83323398  1
  Au  Au287  1  0.00055196  0.83989714  0.33869472  1
