# generated using pymatgen
data_Ca24Ti8Al207Au49
_symmetry_space_group_name_H-M   'P 1'
_cell_length_a   17.31920322
_cell_length_b   17.32229812
_cell_length_c   17.31938106
_cell_angle_alpha   89.99616845
_cell_angle_beta   89.99739362
_cell_angle_gamma   90.00520036
_symmetry_Int_Tables_number   1
_chemical_formula_structural   Ca24Ti8Al207Au49
_chemical_formula_sum   'Ca24 Ti8 Al207 Au49'
_cell_volume   5195.95978493
_cell_formula_units_Z   1
loop_
 _symmetry_equiv_pos_site_id
 _symmetry_equiv_pos_as_xyz
  1  'x, y, z'
loop_
 _atom_site_type_symbol
 _atom_site_label
 _atom_site_symmetry_multiplicity
 _atom_site_fract_x
 _atom_site_fract_y
 _atom_site_fract_z
 _atom_site_occupancy
  Ca  Ca0  1  0.24671980  0.00022910  0.00059261  1
  Ca  Ca1  1  0.25222660  0.00539886  0.50049958  1
  Ca  Ca2  1  0.24751331  0.50000591  -0.00211325  1
  Ca  Ca3  1  0.25344797  0.49645399  0.50469321  1
  Ca  Ca4  1  0.75547267  -0.00206217  -0.00162126  1
  Ca  Ca5  1  0.74930206  0.00264813  0.50072615  1
  Ca  Ca6  1  0.75387679  0.50179349  0.00891241  1
  Ca  Ca7  1  0.74800856  0.49410382  0.49248117  1
  Ca  Ca8  1  -0.00297518  0.25072106  0.00464761  1
  Ca  Ca9  1  -0.00403006  0.24506105  0.49786099  1
  Ca  Ca10  1  -0.00104248  0.74948411  0.00141670  1
  Ca  Ca11  1  0.00413211  0.75108180  0.49670149  1
  Ca  Ca12  1  0.50177594  0.25156100  0.00056171  1
  Ca  Ca13  1  0.50399633  0.24698200  0.49677520  1
  Ca  Ca14  1  0.49954080  0.74808565  -0.00385183  1
  Ca  Ca15  1  0.49636020  0.74927321  0.50583032  1
  Ca  Ca16  1  0.00147938  -0.00001031  0.24475866  1
  Ca  Ca17  1  -0.00641672  0.00141717  0.75020575  1
  Ca  Ca18  1  -0.00470986  0.49943698  0.24399749  1
  Ca  Ca19  1  0.00441345  0.50132327  0.75501708  1
  Ca  Ca20  1  0.49758243  0.00215593  0.24953267  1
  Ca  Ca21  1  0.50005156  0.00206172  0.74679642  1
  Ca  Ca22  1  0.50397391  0.49960327  0.24991652  1
  Ca  Ca23  1  0.49774243  0.50083152  0.75264902  1
  Ti  Ti24  1  0.25171383  0.25050298  0.24752455  1
  Ti  Ti25  1  0.25099576  0.25081058  0.75209872  1
  Ti  Ti26  1  0.24766470  0.74828913  0.24635249  1
  Ti  Ti27  1  0.25222352  0.74738059  0.75262380  1
  Ti  Ti28  1  0.74797430  0.24996385  0.25108307  1
  Ti  Ti29  1  0.74892134  0.24853235  0.74744187  1
  Ti  Ti30  1  0.75211910  0.74892293  0.24923793  1
  Ti  Ti31  1  0.74754683  0.75006726  0.75196653  1
  Al  Al32  1  0.08491857  0.08101922  0.09067459  1
  Al  Al33  1  0.09810041  0.08840190  0.58051886  1
  Al  Al34  1  0.07716444  0.59207275  0.07908196  1
  Al  Al35  1  0.08925371  0.57646840  0.59217724  1
  Al  Al36  1  0.57619902  0.08619580  0.07868059  1
  Al  Al37  1  0.59238926  0.08719488  0.57844970  1
  Al  Al38  1  0.59270744  0.57575654  0.08438785  1
  Al  Al39  1  0.57488798  0.57518780  0.58598986  1
  Al  Al40  1  0.42446053  0.41025426  0.08307202  1
  Al  Al41  1  0.42002579  0.42570550  0.59289191  1
  Al  Al42  1  0.41225662  0.91056391  0.08705491  1
  Al  Al43  1  0.40655701  0.91993231  0.58558611  1
  Al  Al44  1  0.90935635  0.41280243  0.09617921  1
  Al  Al45  1  0.92276552  0.41597150  0.57474409  1
  Al  Al46  1  0.91690110  0.91157986  0.07992679  1
  Al  Al47  1  0.91185363  0.92593232  0.59116437  1
  Al  Al48  1  0.42450100  0.09047903  0.41858349  1
  Al  Al49  1  0.41856893  0.07933550  0.91914773  1
  Al  Al50  1  0.41361320  0.58557523  0.43005514  1
  Al  Al51  1  0.41865678  0.58718786  0.90771647  1
  Al  Al52  1  0.92063268  0.08308132  0.42065398  1
  Al  Al53  1  0.90498695  0.08012664  0.91856491  1
  Al  Al54  1  0.91093492  0.57770032  0.40205262  1
  Al  Al55  1  0.92091068  0.57961876  0.92781085  1
  Al  Al56  1  0.07301140  0.41875270  0.41757922  1
  Al  Al57  1  0.08713224  0.42405339  0.91446755  1
  Al  Al58  1  0.08065140  0.92710335  0.41379987  1
  Al  Al59  1  0.07732386  0.91714618  0.92444832  1
  Al  Al60  1  0.59246301  0.41296630  0.40549927  1
  Al  Al61  1  0.58738018  0.42838223  0.91232766  1
  Al  Al62  1  0.57583454  0.92746013  0.41313093  1
  Al  Al63  1  0.58862876  0.92183480  0.91143495  1
  Al  Al64  1  0.09085850  0.08869166  0.41776550  1
  Al  Al65  1  0.07820794  0.07961281  0.92527886  1
  Al  Al66  1  0.07820982  0.58283179  0.41524912  1
  Al  Al67  1  0.09573450  0.58544618  0.91806175  1
  Al  Al68  1  0.58675062  0.09229597  0.41391541  1
  Al  Al69  1  0.58989779  0.07746665  0.90992516  1
  Al  Al70  1  0.58582636  0.57019937  0.41096476  1
  Al  Al71  1  0.58543014  0.58864952  0.90807864  1
  Al  Al72  1  0.42973640  0.42111050  0.41630431  1
  Al  Al73  1  0.41344225  0.42325214  0.91672103  1
  Al  Al74  1  0.41988128  0.91291522  0.42329309  1
  Al  Al75  1  0.41444681  0.91624145  0.92182757  1
  Al  Al76  1  0.90948111  0.41852723  0.40297739  1
  Al  Al77  1  0.92397413  0.41655645  0.93140656  1
  Al  Al78  1  0.92113640  0.92159475  0.41520358  1
  Al  Al79  1  0.90566835  0.91519050  0.91694519  1
  Al  Al80  1  0.07138627  0.41618099  0.07997629  1
  Al  Al81  1  0.09029060  0.42035774  0.59121422  1
  Al  Al82  1  0.08465671  0.91636352  0.08998816  1
  Al  Al83  1  0.08217445  0.93083930  0.58408283  1
  Al  Al84  1  0.58380618  0.41664560  0.10240552  1
  Al  Al85  1  0.58179558  0.41512515  0.58558386  1
  Al  Al86  1  0.57190739  0.90906591  0.08579869  1
  Al  Al87  1  0.58099650  0.92696138  0.58825226  1
  Al  Al88  1  0.41561893  0.08171939  0.08719291  1
  Al  Al89  1  0.40944229  0.08072914  0.58386949  1
  Al  Al90  1  0.42025068  0.58027078  0.07415688  1
  Al  Al91  1  0.40505482  0.58551778  0.58976442  1
  Al  Al92  1  0.91411093  0.08767551  0.08024248  1
  Al  Al93  1  0.90911654  0.08219997  0.58774543  1
  Al  Al94  1  0.91400423  0.58634909  0.09662335  1
  Al  Al95  1  0.92849822  0.57771544  0.57311836  1
  Al  Al96  1  0.24999732  0.13967459  0.13033964  1
  Al  Al97  1  0.25020340  0.13648210  0.63617690  1
  Al  Al98  1  0.24887453  0.63262230  0.12689783  1
  Al  Al99  1  0.25667728  0.63151495  0.63577273  1
  Al  Al100  1  0.75350096  0.14127594  0.13535220  1
  Al  Al101  1  0.75006982  0.13622285  0.62983379  1
  Al  Al102  1  0.75375470  0.63046234  0.13736999  1
  Al  Al103  1  0.74299405  0.63805975  0.63929049  1
  Al  Al104  1  0.25094715  0.36435745  0.13468707  1
  Al  Al105  1  0.25231624  0.36434764  0.63423072  1
  Al  Al106  1  0.24511251  0.86408660  0.13368327  1
  Al  Al107  1  0.25291340  0.86308483  0.63620682  1
  Al  Al108  1  0.74817786  0.36858196  0.14004005  1
  Al  Al109  1  0.74861541  0.36057390  0.62805187  1
  Al  Al110  1  0.75943981  0.86240582  0.13270956  1
  Al  Al111  1  0.75098931  0.86567971  0.63496449  1
  Al  Al112  1  0.24910231  0.13867595  0.36277151  1
  Al  Al113  1  0.25406114  0.13591355  0.87006102  1
  Al  Al114  1  0.24908695  0.63474835  0.36243511  1
  Al  Al115  1  0.25172263  0.62903828  0.86816899  1
  Al  Al116  1  0.74638961  0.14025333  0.37042618  1
  Al  Al117  1  0.74857126  0.13385122  0.86000676  1
  Al  Al118  1  0.75148843  0.63091544  0.36166158  1
  Al  Al119  1  0.74704696  0.63159165  0.86443814  1
  Al  Al120  1  0.25226482  0.36516060  0.35824415  1
  Al  Al121  1  0.24886415  0.37214464  0.86373132  1
  Al  Al122  1  0.24911539  0.86198429  0.36043366  1
  Al  Al123  1  0.24979523  0.86522451  0.86585132  1
  Al  Al124  1  0.74761521  0.36543731  0.36572337  1
  Al  Al125  1  0.74589928  0.36202670  0.86443094  1
  Al  Al126  1  0.75500251  0.86406950  0.36363182  1
  Al  Al127  1  0.74965334  0.86391692  0.86576976  1
  Al  Al128  1  0.12714945  0.24851263  0.13631527  1
  Al  Al129  1  0.13270911  0.24833987  0.63598015  1
  Al  Al130  1  0.13487722  0.74669707  0.12804037  1
  Al  Al131  1  0.14136529  0.74262547  0.63796086  1
  Al  Al132  1  0.62749289  0.25230084  0.13806426  1
  Al  Al133  1  0.63490556  0.24777319  0.63051214  1
  Al  Al134  1  0.63967311  0.75225820  0.13632685  1
  Al  Al135  1  0.62754186  0.75306720  0.63959703  1
  Al  Al136  1  0.13475042  0.24923059  0.36209613  1
  Al  Al137  1  0.13577443  0.24734866  0.86427190  1
  Al  Al138  1  0.12760603  0.74507394  0.35871938  1
  Al  Al139  1  0.13883427  0.74760428  0.87249009  1
  Al  Al140  1  0.63066763  0.25157128  0.36749733  1
  Al  Al141  1  0.62843266  0.24567843  0.86315397  1
  Al  Al142  1  0.63955509  0.74833448  0.36016872  1
  Al  Al143  1  0.63025626  0.74477707  0.86484953  1
  Al  Al144  1  0.37143795  0.24814637  0.13545626  1
  Al  Al145  1  0.36519218  0.24740911  0.63813987  1
  Al  Al146  1  0.36542903  0.74800992  0.13325014  1
  Al  Al147  1  0.36903294  0.74539630  0.63788538  1
  Al  Al148  1  0.87020726  0.25276890  0.14162350  1
  Al  Al149  1  0.86820533  0.24898423  0.62991934  1
  Al  Al150  1  0.86525245  0.74626532  0.13119002  1
  Al  Al151  1  0.86039836  0.74801142  0.63438615  1
  Al  Al152  1  0.37245146  0.25148778  0.36270380  1
  Al  Al153  1  0.37103327  0.24972573  0.86036794  1
  Al  Al154  1  0.36215986  0.74967917  0.36234564  1
  Al  Al155  1  0.36824658  0.74423076  0.86362868  1
  Al  Al156  1  0.86329464  0.25226535  0.36777850  1
  Al  Al157  1  0.86020348  0.24698718  0.86472236  1
  Al  Al158  1  0.87151983  0.74514216  0.36120139  1
  Al  Al159  1  0.86021603  0.74985381  0.87288057  1
  Al  Al160  1  0.13646518  0.13481122  0.24459027  1
  Al  Al161  1  0.13388133  0.13441827  0.75062973  1
  Al  Al162  1  0.13010377  0.63286645  0.24432801  1
  Al  Al163  1  0.13801856  0.63376497  0.75638499  1
  Al  Al164  1  0.62795263  0.13823798  0.25200965  1
  Al  Al165  1  0.63002035  0.13514436  0.74807355  1
  Al  Al166  1  0.63795290  0.62840366  0.24470536  1
  Al  Al167  1  0.62732299  0.63385345  0.75385033  1
  Al  Al168  1  0.37095572  0.13770521  0.25023144  1
  Al  Al169  1  0.36923187  0.13360929  0.74793275  1
  Al  Al170  1  0.36057025  0.63275501  0.24688548  1
  Al  Al171  1  0.36707824  0.62898818  0.75138300  1
  Al  Al172  1  0.86177943  0.13599066  0.25258856  1
  Al  Al173  1  0.86514603  0.13458120  0.74442834  1
  Al  Al174  1  0.86804826  0.63344446  0.24665654  1
  Al  Al175  1  0.86442485  0.63726293  0.75543457  1
  Al  Al176  1  0.13381705  0.36632835  0.24445213  1
  Al  Al177  1  0.13570561  0.36418712  0.74970006  1
  Al  Al178  1  0.13483329  0.86345460  0.24688658  1
  Al  Al179  1  0.13862484  0.86153310  0.75132100  1
  Al  Al180  1  0.63264185  0.36597714  0.25117464  1
  Al  Al181  1  0.63558293  0.36178933  0.75098247  1
  Al  Al182  1  0.63778347  0.86369334  0.24779325  1
  Al  Al183  1  0.63337956  0.86797248  0.75482921  1
  Al  Al184  1  0.37372092  0.36522153  0.24713813  1
  Al  Al185  1  0.36316928  0.37191955  0.75220168  1
  Al  Al186  1  0.36509543  0.86209426  0.24435885  1
  Al  Al187  1  0.36623084  0.86441452  0.74706702  1
  Al  Al188  1  0.85984174  0.37026212  0.24965882  1
  Al  Al189  1  0.86326993  0.36241158  0.74811346  1
  Al  Al190  1  0.86716394  0.86365049  0.25115179  1
  Al  Al191  1  0.86267848  0.86340546  0.75054774  1
  Al  Al192  1  0.80974789  -0.00064462  0.81125948  1
  Al  Al193  1  0.00118068  0.67062573  0.83182353  1
  Al  Al194  1  0.32990214  0.49713607  0.17620294  1
  Al  Al195  1  0.17109647  0.32235082  -0.00006828  1
  Al  Al196  1  0.50070667  0.82743625  0.31505201  1
  Al  Al197  1  0.31743625  0.81646604  -0.00057181  1
  Al  Al198  1  0.31636286  0.17591872  0.49860148  1
  Al  Al199  1  -0.00394966  0.17113587  0.82671930  1
  Al  Al200  1  0.68291631  0.67385169  0.00077240  1
  Al  Al201  1  0.50388843  0.68282194  0.17070912  1
  Al  Al202  1  0.31814488  -0.00008276  0.81261946  1
  Al  Al203  1  0.33240273  0.32878498  0.49998239  1
  Al  Al204  1  0.82594129  0.31383348  0.00299826  1
  Al  Al205  1  0.67052130  0.33226187  0.00408728  1
  Al  Al206  1  0.19024285  -0.00014394  0.68172702  1
  Al  Al207  1  0.00062637  0.67136607  0.67681022  1
  Al  Al208  1  0.68366598  0.83286119  0.00080922  1
  Al  Al209  1  0.31216219  0.00029836  0.17267282  1
  Al  Al210  1  0.67478271  -0.00089657  0.16608286  1
  Al  Al211  1  0.17531357  0.49603283  0.32109287  1
  Al  Al212  1  0.68878524  0.17408887  -0.00226726  1
  Al  Al213  1  0.18708093  0.67128061  0.50012217  1
  Al  Al214  1  0.19391560  0.49960443  0.69525520  1
  Al  Al215  1  0.50145130  0.82378006  0.82598624  1
  Al  Al216  1  0.83236619  0.67859313  0.49739357  1
  Al  Al217  1  0.68217756  0.00243802  0.32599413  1
  Al  Al218  1  0.81777296  0.49619470  0.83108048  1
  Al  Al219  1  -0.00196100  0.82321552  0.82944322  1
  Al  Al220  1  0.49956903  0.31982862  0.68234079  1
  Al  Al221  1  0.67294648  0.49786106  0.68652367  1
  Al  Al222  1  0.69223611  0.00046517  0.69089712  1
  Al  Al223  1  0.00207298  0.82199273  0.66843840  1
  Al  Al224  1  -0.00221848  0.32590023  0.31185938  1
  Al  Al225  1  -0.00040515  0.81335382  0.17727892  1
  Al  Al226  1  0.67373224  0.83013592  0.49716013  1
  Al  Al227  1  0.82711161  0.00022815  0.17689182  1
  Al  Al228  1  0.17132199  0.83107148  0.49928858  1
  Al  Al229  1  0.32602059  0.32177691  -0.00183381  1
  Al  Al230  1  -0.00046554  0.32776197  0.82472544  1
  Al  Al231  1  0.32454037  0.00048706  0.32376924  1
  Al  Al232  1  0.49933910  0.67070613  0.32872119  1
  Al  Al233  1  0.00039563  0.17366863  0.32072062  1
  Al  Al234  1  0.16994920  0.31634844  0.49776191  1
  Al  Al235  1  0.67160290  0.66763498  0.49832245  1
  Al  Al236  1  0.32611144  0.81318624  0.50033774  1
  Al  Al237  1  0.17417325  0.00125729  0.31216041  1
  Al  Al238  1  0.82879157  0.50194690  0.67062139  1
  Au  Au239  1  0.82336882  0.16340183  0.49956023  1
  Au  Au240  1  0.68048607  0.00345509  0.67867640  1
  Au  Au241  1  -0.00314175  0.17238288  0.17085340  1
  Au  Au242  1  -0.00058876  0.33990252  0.67579973  1
  Au  Au243  1  0.49587232  0.83593193  0.66969935  1
  Au  Au244  1  0.34729614  0.32768383  0.50551128  1
  Au  Au245  1  0.00342095  0.16451911  0.66293258  1
  Au  Au246  1  0.33549006  0.49743513  0.16487985  1
  Au  Au247  1  0.68017210  0.16000604  -0.00331639  1
  Au  Au248  1  0.16635659  0.17098161  0.00283869  1
  Au  Au249  1  0.32991449  -0.00086741  0.82479168  1
  Au  Au250  1  0.33655089  0.17336474  0.00022089  1
  Au  Au251  1  0.00196410  0.83686284  0.67654308  1
  Au  Au252  1  0.33623831  0.00061084  0.33513822  1
  Au  Au253  1  0.83376628  0.67103889  0.00331239  1
  Au  Au254  1  0.82160973  0.50231735  0.65541673  1
  Au  Au255  1  0.32102438  0.50077216  0.82106104  1
  Au  Au256  1  0.15521979  -0.00282654  0.82559830  1
  Au  Au257  1  0.16836025  0.82844650  0.00098807  1
  Au  Au258  1  0.83291763  0.00365232  0.32904534  1
  Au  Au259  1  0.49960976  0.17121575  0.65802991  1
  Au  Au260  1  0.49760818  0.66216932  0.67641351  1
  Au  Au261  1  0.32992708  0.50189298  0.34008353  1
  Au  Au262  1  0.00291235  0.83421653  0.32483604  1
  Au  Au263  1  -0.00137911  0.66392949  0.31795631  1
  Au  Au264  1  0.49920584  0.83182464  0.83527198  1
  Au  Au265  1  0.65691325  0.83262601  0.49710601  1
  Au  Au266  1  0.49914569  0.17261177  0.17383330  1
  Au  Au267  1  0.50113208  0.16533314  0.83178063  1
  Au  Au268  1  0.15470558  0.32244019  0.49827380  1
  Au  Au269  1  0.49867397  0.67760128  0.34414166  1
  Au  Au270  1  0.50698084  0.67540593  0.15581955  1
  Au  Au271  1  -0.00484726  0.17409485  0.83915706  1
  Au  Au272  1  0.66761617  0.82683719  0.00050746  1
  Au  Au273  1  0.32812024  0.66849687  -0.00414307  1
  Au  Au274  1  0.82770783  0.49374212  0.84406098  1
  Au  Au275  1  0.66389189  0.32621393  0.50086794  1
  Au  Au276  1  0.50187290  0.32908428  0.32194274  1
  Au  Au277  1  0.66026027  -0.00212403  0.17471903  1
  Au  Au278  1  0.66970856  0.65612041  0.50308117  1
  Au  Au279  1  0.50126151  0.33971076  0.83041027  1
  Au  Au280  1  0.17835925  0.84678965  0.49847444  1
  Au  Au281  1  0.83315276  0.33060072  0.49502237  1
  Au  Au282  1  0.15874235  0.50187316  0.16344494  1
  Au  Au283  1  0.16683694  0.49791655  0.33021868  1
  Au  Au284  1  0.17533165  0.65932842  0.50251282  1
  Au  Au285  1  0.83572598  0.66659036  0.49847714  1
  Au  Au286  1  0.67306714  0.34470946  0.00524321  1
  Au  Au287  1  0.83725347  0.83836935  0.50071252  1
