# generated using pymatgen
data_Ca24Ti8Al207Au49
_symmetry_space_group_name_H-M   'P 1'
_cell_length_a   17.31945797
_cell_length_b   17.32143748
_cell_length_c   17.31779279
_cell_angle_alpha   89.99784092
_cell_angle_beta   90.00148112
_cell_angle_gamma   90.00092354
_symmetry_Int_Tables_number   1
_chemical_formula_structural   Ca24Ti8Al207Au49
_chemical_formula_sum   'Ca24 Ti8 Al207 Au49'
_cell_volume   5195.30160631
_cell_formula_units_Z   1
loop_
 _symmetry_equiv_pos_site_id
 _symmetry_equiv_pos_as_xyz
  1  'x, y, z'
loop_
 _atom_site_type_symbol
 _atom_site_label
 _atom_site_symmetry_multiplicity
 _atom_site_fract_x
 _atom_site_fract_y
 _atom_site_fract_z
 _atom_site_occupancy
  Ca  Ca0  1  0.25342742  -0.00305387  0.00059119  1
  Ca  Ca1  1  0.24369236  0.00003296  0.49920100  1
  Ca  Ca2  1  0.24622243  0.50469370  0.00344290  1
  Ca  Ca3  1  0.24351421  0.49760007  0.49645389  1
  Ca  Ca4  1  0.74158398  -0.00039914  0.00096259  1
  Ca  Ca5  1  0.75246150  0.00407792  0.49649991  1
  Ca  Ca6  1  0.74586549  0.50393875  0.00158860  1
  Ca  Ca7  1  0.75180502  0.49657223  0.49610490  1
  Ca  Ca8  1  -0.00184448  0.24633164  -0.00129609  1
  Ca  Ca9  1  -0.00081346  0.24869234  0.50189112  1
  Ca  Ca10  1  0.00247031  0.75118269  0.00098478  1
  Ca  Ca11  1  0.00509991  0.74662756  0.50090678  1
  Ca  Ca12  1  0.50275072  0.24439953  0.00208673  1
  Ca  Ca13  1  0.50154101  0.24980627  0.49418534  1
  Ca  Ca14  1  0.49924635  0.75711348  0.00098224  1
  Ca  Ca15  1  0.50051775  0.75356707  0.49922322  1
  Ca  Ca16  1  -0.00589715  0.00071261  0.25558745  1
  Ca  Ca17  1  -0.00078282  -0.00025938  0.74433067  1
  Ca  Ca18  1  0.00588317  0.49872583  0.25702372  1
  Ca  Ca19  1  0.00590622  0.50240607  0.74141449  1
  Ca  Ca20  1  0.50493884  0.00113736  0.25008235  1
  Ca  Ca21  1  0.49970276  0.00108719  0.75187393  1
  Ca  Ca22  1  0.49682803  0.49744407  0.25041540  1
  Ca  Ca23  1  0.49504026  0.49870395  0.74939664  1
  Ti  Ti24  1  0.24972574  0.25077555  0.25196445  1
  Ti  Ti25  1  0.24763593  0.24907512  0.74939134  1
  Ti  Ti26  1  0.24992387  0.75063622  0.24978269  1
  Ti  Ti27  1  0.24934927  0.75209392  0.74979694  1
  Ti  Ti28  1  0.74939755  0.24873096  0.25220825  1
  Ti  Ti29  1  0.75183331  0.24747004  0.74914921  1
  Ti  Ti30  1  0.75014154  0.75158021  0.25185843  1
  Ti  Ti31  1  0.74938329  0.75293149  0.74648172  1
  Al  Al32  1  0.08722092  0.07538959  0.09444902  1
  Al  Al33  1  0.08654371  0.09483917  0.58516447  1
  Al  Al34  1  0.09612446  0.58559514  0.07824290  1
  Al  Al35  1  0.09111222  0.58942925  0.58871461  1
  Al  Al36  1  0.58617034  0.08468462  0.08444374  1
  Al  Al37  1  0.59033833  0.07609267  0.57997382  1
  Al  Al38  1  0.57653758  0.58107234  0.08359400  1
  Al  Al39  1  0.58285833  0.57859208  0.57390413  1
  Al  Al40  1  0.41767822  0.42039739  0.08818876  1
  Al  Al41  1  0.42140657  0.41811887  0.57551982  1
  Al  Al42  1  0.41739151  0.91567450  0.09394115  1
  Al  Al43  1  0.40604297  0.91875193  0.58695720  1
  Al  Al44  1  0.92314855  0.42356512  0.08268185  1
  Al  Al45  1  0.92308278  0.40741541  0.58246223  1
  Al  Al46  1  0.91220798  0.92211268  0.08901605  1
  Al  Al47  1  0.92179179  0.92241742  0.57992322  1
  Al  Al48  1  0.42575986  0.09027903  0.41075485  1
  Al  Al49  1  0.41141162  0.07204561  0.90840759  1
  Al  Al50  1  0.40368277  0.57267341  0.41338460  1
  Al  Al51  1  0.41323888  0.59196787  0.92618969  1
  Al  Al52  1  0.91160613  0.09133507  0.41267709  1
  Al  Al53  1  0.92055815  0.08139975  0.91695536  1
  Al  Al54  1  0.91185085  0.57365231  0.41521210  1
  Al  Al55  1  0.93137740  0.58523408  0.91609645  1
  Al  Al56  1  0.08530286  0.41896428  0.41495656  1
  Al  Al57  1  0.08351737  0.42244482  0.90936244  1
  Al  Al58  1  0.08679136  0.91008346  0.42178341  1
  Al  Al59  1  0.09175622  0.91888064  0.91499573  1
  Al  Al60  1  0.58246225  0.41235480  0.40607160  1
  Al  Al61  1  0.58195010  0.41004894  0.92267033  1
  Al  Al62  1  0.59500331  0.92355165  0.41952691  1
  Al  Al63  1  0.57948310  0.91333125  0.91269397  1
  Al  Al64  1  0.07745754  0.09340921  0.41958330  1
  Al  Al65  1  0.08666707  0.07580856  0.90379521  1
  Al  Al66  1  0.09284745  0.58322686  0.42384362  1
  Al  Al67  1  0.09040932  0.59008560  0.91294901  1
  Al  Al68  1  0.58872657  0.08686225  0.40829948  1
  Al  Al69  1  0.58972046  0.08257429  0.92159791  1
  Al  Al70  1  0.59616882  0.57325978  0.41115566  1
  Al  Al71  1  0.57430132  0.58309003  0.92124643  1
  Al  Al72  1  0.41900913  0.41225583  0.40251192  1
  Al  Al73  1  0.42277079  0.42024634  0.92250725  1
  Al  Al74  1  0.41839317  0.92151751  0.42563665  1
  Al  Al75  1  0.41644146  0.91344911  0.90386053  1
  Al  Al76  1  0.91137190  0.41367851  0.41526983  1
  Al  Al77  1  0.92693634  0.41779276  0.91661695  1
  Al  Al78  1  0.91411683  0.92457239  0.41335914  1
  Al  Al79  1  0.91853718  0.92310026  0.91927827  1
  Al  Al80  1  0.08512391  0.42598987  0.08602435  1
  Al  Al81  1  0.08441619  0.41463557  0.59252832  1
  Al  Al82  1  0.09063654  0.91890342  0.08555811  1
  Al  Al83  1  0.09075265  0.91396981  0.58177609  1
  Al  Al84  1  0.58209478  0.41240298  0.08227775  1
  Al  Al85  1  0.57840359  0.41963958  0.57653381  1
  Al  Al86  1  0.57999193  0.91518997  0.08863074  1
  Al  Al87  1  0.59448016  0.91657816  0.58229471  1
  Al  Al88  1  0.41748464  0.07413818  0.09354625  1
  Al  Al89  1  0.40986224  0.07438417  0.58566101  1
  Al  Al90  1  0.40778886  0.58766881  0.08429154  1
  Al  Al91  1  0.41560710  0.58077318  0.57472599  1
  Al  Al92  1  0.91279508  0.07866614  0.09035023  1
  Al  Al93  1  0.91283934  0.09588568  0.58284646  1
  Al  Al94  1  0.92406527  0.58078047  0.08279178  1
  Al  Al95  1  0.92944791  0.58415296  0.58434076  1
  Al  Al96  1  0.24942106  0.12983325  0.13710046  1
  Al  Al97  1  0.24804943  0.13558769  0.63406732  1
  Al  Al98  1  0.25085614  0.63520149  0.13614452  1
  Al  Al99  1  0.24389309  0.63303077  0.63235525  1
  Al  Al100  1  0.74946417  0.13292272  0.13953018  1
  Al  Al101  1  0.75295345  0.13582991  0.63367615  1
  Al  Al102  1  0.74857726  0.63775548  0.13489909  1
  Al  Al103  1  0.74844844  0.63592730  0.63047859  1
  Al  Al104  1  0.25124611  0.36507198  0.13340091  1
  Al  Al105  1  0.24280635  0.36211841  0.62847938  1
  Al  Al106  1  0.25089985  0.86674751  0.13346483  1
  Al  Al107  1  0.24827439  0.86698763  0.63734587  1
  Al  Al108  1  0.74635130  0.36289384  0.13934268  1
  Al  Al109  1  0.75389770  0.36191192  0.63716011  1
  Al  Al110  1  0.75172080  0.86389444  0.13508130  1
  Al  Al111  1  0.74531991  0.86790409  0.62928099  1
  Al  Al112  1  0.24413995  0.13515804  0.36666977  1
  Al  Al113  1  0.24943777  0.13265933  0.86437438  1
  Al  Al114  1  0.24810304  0.63261208  0.36415653  1
  Al  Al115  1  0.24595371  0.63875024  0.86343178  1
  Al  Al116  1  0.75056037  0.13380562  0.36493905  1
  Al  Al117  1  0.74605600  0.13632869  0.86516326  1
  Al  Al118  1  0.74850504  0.63538380  0.36916070  1
  Al  Al119  1  0.74773869  0.64270625  0.86570558  1
  Al  Al120  1  0.24995021  0.36392434  0.37126363  1
  Al  Al121  1  0.24635810  0.36011266  0.86643764  1
  Al  Al122  1  0.24719412  0.86876345  0.36250983  1
  Al  Al123  1  0.25217630  0.86891313  0.86572660  1
  Al  Al124  1  0.75102453  0.36411825  0.36555344  1
  Al  Al125  1  0.75167114  0.35718808  0.86171836  1
  Al  Al126  1  0.74592394  0.86876206  0.36725080  1
  Al  Al127  1  0.74721755  0.86413127  0.86445129  1
  Al  Al128  1  0.13869966  0.24965645  0.13488960  1
  Al  Al129  1  0.13255872  0.24753693  0.63060857  1
  Al  Al130  1  0.13438979  0.74777127  0.13385700  1
  Al  Al131  1  0.13671072  0.75029016  0.63259514  1
  Al  Al132  1  0.63512032  0.24675551  0.14045655  1
  Al  Al133  1  0.63685417  0.24743322  0.63531300  1
  Al  Al134  1  0.63077531  0.75060581  0.13910402  1
  Al  Al135  1  0.63503690  0.75514176  0.62635333  1
  Al  Al136  1  0.13611261  0.25060945  0.37192591  1
  Al  Al137  1  0.12819850  0.24956450  0.86216909  1
  Al  Al138  1  0.13675183  0.74842815  0.36677687  1
  Al  Al139  1  0.13620322  0.74989850  0.86576439  1
  Al  Al140  1  0.63234373  0.24808466  0.36513206  1
  Al  Al141  1  0.62995216  0.24504201  0.86246737  1
  Al  Al142  1  0.63697446  0.75372838  0.37274153  1
  Al  Al143  1  0.62867599  0.75372100  0.86137196  1
  Al  Al144  1  0.36265421  0.25156732  0.13771948  1
  Al  Al145  1  0.36195035  0.25048302  0.63207270  1
  Al  Al146  1  0.36769264  0.75145148  0.13819040  1
  Al  Al147  1  0.36346011  0.75332096  0.63484641  1
  Al  Al148  1  0.86598412  0.24370648  0.13774322  1
  Al  Al149  1  0.86993624  0.24673806  0.63444029  1
  Al  Al150  1  0.87175467  0.74896233  0.13753300  1
  Al  Al151  1  0.86380740  0.74888925  0.62909825  1
  Al  Al152  1  0.36755689  0.25063185  0.36473373  1
  Al  Al153  1  0.36616227  0.24841843  0.86415726  1
  Al  Al154  1  0.36424698  0.75406543  0.36185320  1
  Al  Al155  1  0.36711859  0.75544633  0.86221099  1
  Al  Al156  1  0.86530781  0.24412787  0.36656185  1
  Al  Al157  1  0.87438726  0.24608776  0.86059092  1
  Al  Al158  1  0.86241160  0.75131578  0.36675096  1
  Al  Al159  1  0.86535109  0.75336578  0.86392016  1
  Al  Al160  1  0.12999513  0.13944968  0.25212583  1
  Al  Al161  1  0.12940213  0.13673525  0.74724886  1
  Al  Al162  1  0.13594506  0.63413370  0.25162809  1
  Al  Al163  1  0.13395809  0.63678681  0.74385406  1
  Al  Al164  1  0.63392737  0.13169712  0.25678028  1
  Al  Al165  1  0.63775431  0.12603981  0.74868545  1
  Al  Al166  1  0.63609172  0.63747985  0.25401868  1
  Al  Al167  1  0.63596258  0.63926971  0.74880250  1
  Al  Al168  1  0.36247172  0.13616381  0.25151633  1
  Al  Al169  1  0.36355055  0.13302428  0.74998176  1
  Al  Al170  1  0.36224929  0.63086369  0.25111717  1
  Al  Al171  1  0.36296014  0.63847057  0.74927982  1
  Al  Al172  1  0.86804965  0.13459629  0.25241330  1
  Al  Al173  1  0.87083274  0.13393941  0.74616271  1
  Al  Al174  1  0.86566371  0.63615408  0.25616502  1
  Al  Al175  1  0.86451970  0.63920615  0.74600657  1
  Al  Al176  1  0.13843635  0.36490591  0.25635408  1
  Al  Al177  1  0.12985200  0.36223599  0.74341941  1
  Al  Al178  1  0.13640600  0.86498039  0.24604313  1
  Al  Al179  1  0.13390603  0.86733251  0.75327662  1
  Al  Al180  1  0.63261488  0.36486612  0.25903756  1
  Al  Al181  1  0.63551828  0.35962591  0.75106233  1
  Al  Al182  1  0.63496452  0.86505724  0.24955258  1
  Al  Al183  1  0.63489811  0.87039786  0.74890920  1
  Al  Al184  1  0.36096401  0.37211656  0.25555605  1
  Al  Al185  1  0.36059135  0.36245639  0.74767068  1
  Al  Al186  1  0.36755345  0.86803893  0.24362589  1
  Al  Al187  1  0.36550096  0.86993176  0.75006768  1
  Al  Al188  1  0.86401033  0.36409606  0.25438214  1
  Al  Al189  1  0.87378321  0.36116194  0.74731214  1
  Al  Al190  1  0.86313729  0.86619739  0.24780520  1
  Al  Al191  1  0.86533384  0.86590566  0.74559837  1
  Al  Al192  1  0.00147932  0.81313376  0.67765188  1
  Al  Al193  1  0.31312681  0.82838080  0.49925543  1
  Al  Al194  1  0.67419021  0.82183244  0.00130104  1
  Al  Al195  1  0.32758661  0.00034828  0.31615788  1
  Al  Al196  1  0.81900895  0.00104935  0.82331086  1
  Al  Al197  1  0.67227757  0.49979662  0.82976668  1
  Al  Al198  1  0.49975538  0.17055027  0.18509084  1
  Al  Al199  1  0.31128837  0.49769477  0.67119484  1
  Al  Al200  1  0.17401337  0.50018594  0.81026357  1
  Al  Al201  1  0.50060433  0.17046402  0.67533252  1
  Al  Al202  1  0.00137012  0.68288444  0.81108113  1
  Al  Al203  1  0.32025966  0.17552964  0.49889499  1
  Al  Al204  1  0.83000733  0.49899883  0.66785947  1
  Al  Al205  1  0.82026619  0.00085771  0.67005924  1
  Al  Al206  1  0.49999294  0.83279825  0.68016003  1
  Al  Al207  1  0.30638719  0.68787257  0.00021760  1
  Al  Al208  1  0.68541602  0.17480165  0.49947893  1
  Al  Al209  1  0.00007077  0.31650249  0.32931145  1
  Al  Al210  1  0.82472553  0.82623588  0.49919054  1
  Al  Al211  1  0.33068910  0.17250964  0.00238881  1
  Al  Al212  1  -0.00056404  0.82488306  0.32331952  1
  Al  Al213  1  0.67123840  0.49952424  0.18953380  1
  Al  Al214  1  0.67351234  0.31002984  0.00112518  1
  Al  Al215  1  0.67469041  0.49801376  0.67121052  1
  Al  Al216  1  0.81213570  0.00053402  0.31156495  1
  Al  Al217  1  0.82509729  0.50057461  0.18706209  1
  Al  Al218  1  0.30930973  0.67387045  0.49803967  1
  Al  Al219  1  0.18159660  0.49973339  0.18713398  1
  Al  Al220  1  0.81420424  0.17178931  0.00031210  1
  Al  Al221  1  0.50183833  0.82883315  0.32155055  1
  Al  Al222  1  0.83136763  0.50268307  0.82566527  1
  Al  Al223  1  0.50096472  0.67392030  0.67901238  1
  Al  Al224  1  0.49918082  0.32592592  0.19052136  1
  Al  Al225  1  0.16893044  0.17557031  -0.00142647  1
  Al  Al226  1  0.18384195  0.82123885  -0.00007656  1
  Al  Al227  1  0.82744390  0.32854623  0.00117986  1
  Al  Al228  1  0.49950695  0.32554041  0.67687152  1
  Al  Al229  1  0.32783851  0.50213604  0.82779936  1
  Al  Al230  1  0.49846994  0.66764918  0.32427537  1
  Al  Al231  1  0.67210256  0.32765178  0.49992421  1
  Al  Al232  1  0.00176515  0.66768459  0.32638501  1
  Al  Al233  1  0.18286846  0.00177613  0.68539227  1
  Al  Al234  1  0.82434637  0.31218207  0.50056338  1
  Al  Al235  1  0.16710370  0.00185588  0.31676421  1
  Al  Al236  1  0.00068228  0.31754067  0.17357888  1
  Al  Al237  1  0.82596480  0.67984935  -0.00039311  1
  Al  Al238  1  0.68572483  -0.00033039  0.18802116  1
  Au  Au239  1  0.00039239  0.67022514  0.33864549  1
  Au  Au240  1  0.66515004  0.67294232  0.49831457  1
  Au  Au241  1  -0.00092843  0.15748572  0.17938329  1
  Au  Au242  1  0.50019614  0.16693304  0.65942169  1
  Au  Au243  1  0.33810268  0.16078823  0.00256010  1
  Au  Au244  1  -0.00032478  0.16125728  0.82009287  1
  Au  Au245  1  0.49717689  0.67910380  0.16008312  1
  Au  Au246  1  0.66583624  0.49934828  0.17282817  1
  Au  Au247  1  0.66897729  -0.00221154  0.82775291  1
  Au  Au248  1  0.00131856  0.82328098  0.66404279  1
  Au  Au249  1  0.49996214  0.83779705  0.66859257  1
  Au  Au250  1  0.82423273  0.83860079  0.50166843  1
  Au  Au251  1  0.84163765  0.50357133  0.18379521  1
  Au  Au252  1  0.82343901  0.84541898  0.00075090  1
  Au  Au253  1  0.17133722  0.81874724  0.00139841  1
  Au  Au254  1  0.49871630  0.65206744  0.32909823  1
  Au  Au255  1  0.50105256  0.65832647  0.67068471  1
  Au  Au256  1  0.15986923  0.16283119  -0.00079829  1
  Au  Au257  1  0.00000132  0.84308811  0.17458569  1
  Au  Au258  1  0.34229223  0.83154405  0.00047428  1
  Au  Au259  1  0.00472689  0.33394154  0.17627984  1
  Au  Au260  1  0.32308062  0.15837639  0.49760861  1
  Au  Au261  1  0.16705146  0.34178038  -0.00110137  1
  Au  Au262  1  0.32605892  0.67793121  0.49574082  1
  Au  Au263  1  0.81978731  0.15586424  0.00201865  1
  Au  Au264  1  0.34233602  0.00075748  0.32295812  1
  Au  Au265  1  0.50072225  0.16539832  0.83867928  1
  Au  Au266  1  0.84705952  0.50372395  0.81940668  1
  Au  Au267  1  0.49948384  0.32021094  0.17432419  1
  Au  Au268  1  0.00841756  0.66899848  0.16280353  1
  Au  Au269  1  0.32817454  0.50095543  0.17776875  1
  Au  Au270  1  0.65636657  0.49934730  0.82385583  1
  Au  Au271  1  0.49691128  0.33368889  0.82715459  1
  Au  Au272  1  0.67602161  -0.00137080  0.17422446  1
  Au  Au273  1  0.83324794  0.66249925  0.50245525  1
  Au  Au274  1  -0.00099562  0.82986198  0.83921968  1
  Au  Au275  1  0.15630270  0.00293457  0.32897459  1
  Au  Au276  1  0.83407408  0.66496899  -0.00137755  1
  Au  Au277  1  0.50452732  0.84064207  0.33332204  1
  Au  Au278  1  0.32175215  0.50391413  0.84405947  1
  Au  Au279  1  0.33255168  0.33553665  0.00119448  1
  Au  Au280  1  0.66030592  0.67417344  0.00115241  1
  Au  Au281  1  0.49637365  0.68065197  0.84073569  1
  Au  Au282  1  0.16093855  0.32751613  0.50216344  1
  Au  Au283  1  0.00324831  0.33018442  0.82214949  1
  Au  Au284  1  0.33512827  0.33342033  0.49488124  1
  Au  Au285  1  0.32409735  0.49558354  0.66023009  1
  Au  Au286  1  0.17325995  0.00308784  0.67126868  1
  Au  Au287  1  0.82163506  0.34483020  0.00075021  1
