# generated using pymatgen
data_Ca24Ti8Al207Au49
_symmetry_space_group_name_H-M   'P 1'
_cell_length_a   17.32156541
_cell_length_b   17.32061369
_cell_length_c   17.32127103
_cell_angle_alpha   89.99526854
_cell_angle_beta   89.99771314
_cell_angle_gamma   90.00249709
_symmetry_Int_Tables_number   1
_chemical_formula_structural   Ca24Ti8Al207Au49
_chemical_formula_sum   'Ca24 Ti8 Al207 Au49'
_cell_volume   5196.73018381
_cell_formula_units_Z   1
loop_
 _symmetry_equiv_pos_site_id
 _symmetry_equiv_pos_as_xyz
  1  'x, y, z'
loop_
 _atom_site_type_symbol
 _atom_site_label
 _atom_site_symmetry_multiplicity
 _atom_site_fract_x
 _atom_site_fract_y
 _atom_site_fract_z
 _atom_site_occupancy
  Ca  Ca0  1  0.24958465  -0.00238437  -0.00031480  1
  Ca  Ca1  1  0.25080204  -0.00074033  0.50368036  1
  Ca  Ca2  1  0.25148742  0.50177597  0.00243426  1
  Ca  Ca3  1  0.25539251  0.49959554  0.50026008  1
  Ca  Ca4  1  0.74855140  0.00276665  0.00033987  1
  Ca  Ca5  1  0.75127718  -0.00201292  0.49972081  1
  Ca  Ca6  1  0.75176181  0.50212688  0.00010094  1
  Ca  Ca7  1  0.75538241  0.50070487  0.50078708  1
  Ca  Ca8  1  0.00041765  0.25082853  -0.00044351  1
  Ca  Ca9  1  0.00167603  0.25132734  0.50305368  1
  Ca  Ca10  1  0.00340022  0.75335362  -0.00188685  1
  Ca  Ca11  1  0.00343089  0.75230833  0.50062989  1
  Ca  Ca12  1  0.49895160  0.25118143  -0.00118777  1
  Ca  Ca13  1  0.49776824  0.24824449  0.49961032  1
  Ca  Ca14  1  0.49356273  0.75160009  0.00292716  1
  Ca  Ca15  1  0.49409267  0.75225329  0.49904830  1
  Ca  Ca16  1  0.00186490  0.00114117  0.25175178  1
  Ca  Ca17  1  0.00420385  -0.00026782  0.74861746  1
  Ca  Ca18  1  0.00040155  0.49536928  0.25468492  1
  Ca  Ca19  1  -0.00260027  0.49847734  0.74713481  1
  Ca  Ca20  1  0.49842974  -0.00097396  0.25104152  1
  Ca  Ca21  1  0.49745342  -0.00367714  0.74618004  1
  Ca  Ca22  1  0.50149887  0.49858328  0.25377301  1
  Ca  Ca23  1  0.49850173  0.50111702  0.74970867  1
  Ti  Ti24  1  0.25012943  0.24954906  0.25067436  1
  Ti  Ti25  1  0.25061675  0.24822746  0.74880257  1
  Ti  Ti26  1  0.24955589  0.75050476  0.25099128  1
  Ti  Ti27  1  0.24933519  0.75156613  0.74933510  1
  Ti  Ti28  1  0.75059820  0.24874002  0.25149888  1
  Ti  Ti29  1  0.74997311  0.25044409  0.74866550  1
  Ti  Ti30  1  0.74949074  0.75136172  0.25152224  1
  Ti  Ti31  1  0.75117918  0.74921317  0.74769253  1
  Al  Al32  1  0.08384163  0.08649669  0.07995845  1
  Al  Al33  1  0.08429552  0.08794620  0.58950063  1
  Al  Al34  1  0.08101571  0.58769058  0.07732446  1
  Al  Al35  1  0.07928809  0.58621501  0.57769348  1
  Al  Al36  1  0.57689936  0.07955393  0.08128816  1
  Al  Al37  1  0.57587709  0.07493142  0.57583632  1
  Al  Al38  1  0.57181671  0.58934352  0.08873930  1
  Al  Al39  1  0.57501972  0.59162930  0.58687559  1
  Al  Al40  1  0.41821183  0.40684407  0.08242689  1
  Al  Al41  1  0.41760746  0.41206208  0.57600280  1
  Al  Al42  1  0.41590407  0.90231740  0.08697592  1
  Al  Al43  1  0.41011307  0.91342609  0.58579533  1
  Al  Al44  1  0.91770123  0.41036906  0.09142640  1
  Al  Al45  1  0.91231558  0.41221143  0.59128833  1
  Al  Al46  1  0.92264190  0.92213888  0.07896755  1
  Al  Al47  1  0.92085966  0.90829519  0.58236069  1
  Al  Al48  1  0.41355974  0.09155786  0.42026832  1
  Al  Al49  1  0.41732912  0.08618753  0.90871102  1
  Al  Al50  1  0.40540066  0.58780877  0.41614617  1
  Al  Al51  1  0.41637450  0.59108651  0.92037700  1
  Al  Al52  1  0.92443110  0.08639203  0.41804098  1
  Al  Al53  1  0.91521106  0.07983222  0.91083925  1
  Al  Al54  1  0.92126672  0.58136995  0.41814591  1
  Al  Al55  1  0.92567388  0.57631314  0.91058575  1
  Al  Al56  1  0.08111365  0.41063654  0.41142980  1
  Al  Al57  1  0.07998175  0.41805516  0.91572374  1
  Al  Al58  1  0.08340928  0.91445212  0.41371692  1
  Al  Al59  1  0.09739753  0.91644449  0.91365240  1
  Al  Al60  1  0.57736512  0.41623526  0.41935890  1
  Al  Al61  1  0.58066505  0.42024853  0.91569845  1
  Al  Al62  1  0.58139860  0.91009605  0.42328270  1
  Al  Al63  1  0.58841176  0.91413691  0.92774927  1
  Al  Al64  1  0.08398446  0.08310777  0.41587288  1
  Al  Al65  1  0.08775956  0.07928099  0.91559411  1
  Al  Al66  1  0.08572818  0.58523173  0.41869142  1
  Al  Al67  1  0.08469308  0.58450147  0.91602788  1
  Al  Al68  1  0.57261308  0.08886630  0.41268292  1
  Al  Al69  1  0.57560989  0.08666611  0.91055871  1
  Al  Al70  1  0.57671695  0.58313478  0.42143475  1
  Al  Al71  1  0.57746755  0.58051305  0.91383485  1
  Al  Al72  1  0.40896949  0.41785550  0.41303091  1
  Al  Al73  1  0.41607214  0.41438953  0.92062669  1
  Al  Al74  1  0.41650456  0.91264898  0.42354312  1
  Al  Al75  1  0.40748758  0.91523395  0.92547821  1
  Al  Al76  1  0.92109054  0.40832833  0.41767354  1
  Al  Al77  1  0.91877610  0.41450318  0.91578187  1
  Al  Al78  1  0.92168323  0.90652590  0.41814655  1
  Al  Al79  1  0.91449474  0.92425900  0.91025762  1
  Al  Al80  1  0.07509348  0.40783663  0.08544674  1
  Al  Al81  1  0.07383305  0.41041672  0.58398695  1
  Al  Al82  1  0.08972589  0.91123091  0.07633530  1
  Al  Al83  1  0.08315789  0.91212208  0.58688020  1
  Al  Al84  1  0.57543048  0.41058136  0.08651878  1
  Al  Al85  1  0.57725834  0.41706743  0.58184863  1
  Al  Al86  1  0.57942226  0.89924764  0.08700861  1
  Al  Al87  1  0.58201490  0.91083413  0.58148384  1
  Al  Al88  1  0.41751370  0.08304991  0.08151023  1
  Al  Al89  1  0.40798006  0.07992919  0.58238360  1
  Al  Al90  1  0.41512012  0.59722111  0.08378106  1
  Al  Al91  1  0.41406824  0.59966314  0.58051276  1
  Al  Al92  1  0.92332641  0.08497136  0.08243468  1
  Al  Al93  1  0.92416264  0.09009819  0.58792047  1
  Al  Al94  1  0.92603605  0.57133379  0.08841033  1
  Al  Al95  1  0.91318997  0.57614231  0.59096279  1
  Al  Al96  1  0.25343306  0.13716914  0.13643049  1
  Al  Al97  1  0.25082528  0.12745738  0.63581542  1
  Al  Al98  1  0.24861133  0.63570954  0.13424583  1
  Al  Al99  1  0.25616989  0.63548121  0.63212901  1
  Al  Al100  1  0.74763961  0.13272956  0.13936797  1
  Al  Al101  1  0.75138022  0.13740343  0.62978328  1
  Al  Al102  1  0.74919532  0.63863646  0.13685016  1
  Al  Al103  1  0.75556988  0.63588635  0.63226842  1
  Al  Al104  1  0.24815927  0.36459986  0.13677040  1
  Al  Al105  1  0.25273794  0.36404979  0.63510812  1
  Al  Al106  1  0.25092403  0.86398693  0.13069708  1
  Al  Al107  1  0.24992810  0.87017805  0.63385638  1
  Al  Al108  1  0.75086475  0.36194076  0.13852141  1
  Al  Al109  1  0.75174321  0.36599232  0.63515339  1
  Al  Al110  1  0.74824237  0.86719311  0.13510399  1
  Al  Al111  1  0.75059578  0.86318343  0.63303868  1
  Al  Al112  1  0.25468005  0.13574301  0.36723305  1
  Al  Al113  1  0.24911391  0.13310265  0.86440249  1
  Al  Al114  1  0.25345815  0.63201091  0.36535663  1
  Al  Al115  1  0.25153914  0.63644258  0.86419522  1
  Al  Al116  1  0.75156810  0.13483732  0.37041645  1
  Al  Al117  1  0.75315864  0.13522329  0.86198732  1
  Al  Al118  1  0.74794308  0.63287766  0.36517256  1
  Al  Al119  1  0.75135238  0.63598864  0.86345682  1
  Al  Al120  1  0.25090400  0.36821514  0.36196379  1
  Al  Al121  1  0.25122022  0.36245998  0.86290121  1
  Al  Al122  1  0.25471539  0.86415404  0.36607096  1
  Al  Al123  1  0.24820654  0.86773180  0.86695195  1
  Al  Al124  1  0.74822415  0.36721119  0.36270063  1
  Al  Al125  1  0.75049352  0.36301354  0.86282342  1
  Al  Al126  1  0.74916414  0.86547604  0.36549932  1
  Al  Al127  1  0.75034344  0.86469009  0.86201344  1
  Al  Al128  1  0.12942509  0.25318103  0.13791277  1
  Al  Al129  1  0.13293598  0.24602187  0.63692909  1
  Al  Al130  1  0.13692081  0.75189112  0.12924100  1
  Al  Al131  1  0.13273301  0.75275259  0.63627823  1
  Al  Al132  1  0.63315228  0.25317651  0.13506619  1
  Al  Al133  1  0.63593669  0.24937302  0.63016168  1
  Al  Al134  1  0.63261453  0.75278727  0.13368319  1
  Al  Al135  1  0.63490533  0.75074033  0.63421012  1
  Al  Al136  1  0.13504871  0.25386909  0.36515127  1
  Al  Al137  1  0.13568701  0.24904746  0.86206781  1
  Al  Al138  1  0.13261050  0.75063040  0.36530081  1
  Al  Al139  1  0.13858447  0.75399614  0.87013983  1
  Al  Al140  1  0.63428604  0.24833769  0.36907647  1
  Al  Al141  1  0.62954824  0.25001300  0.86282328  1
  Al  Al142  1  0.63329944  0.75319151  0.36545266  1
  Al  Al143  1  0.63813155  0.75265753  0.86439746  1
  Al  Al144  1  0.36784836  0.25061815  0.13704423  1
  Al  Al145  1  0.36344892  0.24361661  0.63357304  1
  Al  Al146  1  0.36697626  0.75209313  0.13614560  1
  Al  Al147  1  0.36135813  0.75135591  0.62991575  1
  Al  Al148  1  0.87005375  0.25012683  0.13881213  1
  Al  Al149  1  0.86968966  0.25132178  0.63695163  1
  Al  Al150  1  0.86385564  0.75343329  0.13759818  1
  Al  Al151  1  0.87151703  0.74968754  0.63799032  1
  Al  Al152  1  0.36689590  0.24784558  0.36563980  1
  Al  Al153  1  0.37011059  0.24822261  0.86074203  1
  Al  Al154  1  0.36274129  0.74825535  0.37052400  1
  Al  Al155  1  0.36101309  0.75447083  0.86355522  1
  Al  Al156  1  0.86651900  0.25005924  0.36472787  1
  Al  Al157  1  0.86522455  0.25069014  0.86186864  1
  Al  Al158  1  0.87056203  0.75072147  0.36272212  1
  Al  Al159  1  0.86496275  0.75000237  0.86345294  1
  Al  Al160  1  0.13606565  0.13657073  0.24803890  1
  Al  Al161  1  0.13819664  0.12835891  0.74753816  1
  Al  Al162  1  0.13683318  0.63488274  0.25601269  1
  Al  Al163  1  0.13735027  0.63847852  0.74674993  1
  Al  Al164  1  0.63360878  0.13469596  0.25280442  1
  Al  Al165  1  0.63619122  0.13609123  0.75217113  1
  Al  Al166  1  0.63176109  0.63958231  0.24748302  1
  Al  Al167  1  0.63570023  0.63771282  0.74605552  1
  Al  Al168  1  0.36840354  0.13176591  0.25402823  1
  Al  Al169  1  0.36390386  0.13179674  0.75020240  1
  Al  Al170  1  0.36375622  0.63616282  0.24835345  1
  Al  Al171  1  0.36366104  0.63403777  0.74653786  1
  Al  Al172  1  0.86450252  0.13053225  0.25004132  1
  Al  Al173  1  0.86660737  0.13603055  0.74786613  1
  Al  Al174  1  0.86490283  0.63478519  0.25576162  1
  Al  Al175  1  0.86461092  0.62872657  0.74784670  1
  Al  Al176  1  0.13222664  0.36569838  0.25260765  1
  Al  Al177  1  0.13536296  0.36225293  0.74619510  1
  Al  Al178  1  0.13738191  0.86344909  0.25121628  1
  Al  Al179  1  0.13980059  0.87081948  0.74899663  1
  Al  Al180  1  0.63293470  0.36392862  0.25104512  1
  Al  Al181  1  0.63456457  0.36449787  0.75016131  1
  Al  Al182  1  0.63251369  0.86579274  0.24553563  1
  Al  Al183  1  0.63748054  0.86443424  0.74572265  1
  Al  Al184  1  0.36519539  0.36459598  0.25111531  1
  Al  Al185  1  0.36361265  0.36885454  0.75129700  1
  Al  Al186  1  0.36523811  0.86393130  0.24817925  1
  Al  Al187  1  0.36099927  0.86781987  0.74297654  1
  Al  Al188  1  0.86881713  0.36221952  0.25286983  1
  Al  Al189  1  0.86383717  0.37024246  0.74580969  1
  Al  Al190  1  0.86248506  0.87012658  0.25216109  1
  Al  Al191  1  0.86458304  0.86392450  0.74954427  1
  Al  Al192  1  0.49824920  0.81330679  0.67363989  1
  Al  Al193  1  0.50127450  0.18572338  0.18519089  1
  Al  Al194  1  0.67302598  0.18256967  -0.00141376  1
  Al  Al195  1  0.66836486  0.68187460  -0.00024377  1
  Al  Al196  1  0.67814591  0.68724673  0.50017673  1
  Al  Al197  1  0.82805219  0.17320630  0.00049521  1
  Al  Al198  1  0.31720793  0.68978604  0.00030461  1
  Al  Al199  1  0.49851169  0.82707205  0.31831383  1
  Al  Al200  1  0.81691443  0.81740511  0.49972957  1
  Al  Al201  1  0.81718745  0.82910382  -0.00179771  1
  Al  Al202  1  0.50132127  0.16576710  0.68515471  1
  Al  Al203  1  0.00093417  0.83077715  0.18346896  1
  Al  Al204  1  0.17947435  0.49986754  0.82594409  1
  Al  Al205  1  0.83080871  -0.00072359  0.68329791  1
  Al  Al206  1  0.68045626  0.50207138  0.66703160  1
  Al  Al207  1  0.82442668  0.49935637  0.18151497  1
  Al  Al208  1  0.49714416  0.67684057  0.31805308  1
  Al  Al209  1  0.82028885  0.32113366  0.49982007  1
  Al  Al210  1  0.00183548  0.67649136  0.81659199  1
  Al  Al211  1  0.68201962  0.50139295  0.82457958  1
  Al  Al212  1  0.32223449  -0.00462524  0.17572454  1
  Al  Al213  1  0.31802929  0.31283736  0.49845813  1
  Al  Al214  1  0.18202602  0.82752342  0.49971999  1
  Al  Al215  1  0.00143016  0.18575074  0.31854202  1
  Al  Al216  1  0.00066067  0.67342106  0.18275522  1
  Al  Al217  1  0.00294718  0.16928117  0.81649172  1
  Al  Al218  1  -0.00044904  0.32448590  0.81158577  1
  Al  Al219  1  0.31634511  0.31719275  0.00009218  1
  Al  Al220  1  0.17073493  0.50060362  0.17767689  1
  Al  Al221  1  0.49918749  0.67403309  0.81291322  1
  Al  Al222  1  0.18258805  0.18166677  0.00064019  1
  Al  Al223  1  0.49995072  0.83126858  0.82482467  1
  Al  Al224  1  0.33320931  0.49906249  0.17870046  1
  Al  Al225  1  0.49841129  0.32236273  0.68156301  1
  Al  Al226  1  0.18366587  0.17734929  0.49967772  1
  Al  Al227  1  0.18573126  0.67639677  0.50027326  1
  Al  Al228  1  0.83191823  0.66907734  0.00233557  1
  Al  Al229  1  0.49940175  0.31464686  0.31719566  1
  Al  Al230  1  0.68304971  -0.00043075  0.83199356  1
  Al  Al231  1  0.18039245  0.00022977  0.31956048  1
  Al  Al232  1  0.66965551  0.50078463  0.18109244  1
  Al  Al233  1  0.67466320  0.00061544  0.67210486  1
  Al  Al234  1  0.31435970  -0.00119066  0.81724855  1
  Al  Al235  1  0.00437961  0.83223437  0.81435716  1
  Al  Al236  1  0.17616122  0.50069257  0.67024013  1
  Al  Al237  1  0.67562963  -0.00071350  0.32570788  1
  Al  Al238  1  0.82339482  0.32629831  0.00133475  1
  Au  Au239  1  0.66660520  -0.00098583  0.82684960  1
  Au  Au240  1  0.17012623  0.33281367  0.50111969  1
  Au  Au241  1  0.49957173  0.32795511  0.83233890  1
  Au  Au242  1  -0.00071726  0.67240972  0.66732140  1
  Au  Au243  1  0.83980319  0.49492773  0.33054818  1
  Au  Au244  1  0.00146473  0.82465974  0.16743513  1
  Au  Au245  1  0.66495311  0.16550380  0.49932026  1
  Au  Au246  1  0.16716897  -0.00168582  0.67285065  1
  Au  Au247  1  0.49994469  0.17157149  0.17525200  1
  Au  Au248  1  0.17676413  0.49930429  0.34112928  1
  Au  Au249  1  0.83861296  0.17341609  0.50093982  1
  Au  Au250  1  0.67100038  0.50089098  0.34176756  1
  Au  Au251  1  0.67106419  0.33390739  0.50117347  1
  Au  Au252  1  0.66652081  0.50120321  0.16443004  1
  Au  Au253  1  0.17411629  0.16917513  0.50168951  1
  Au  Au254  1  0.66266467  0.68048797  0.50047408  1
  Au  Au255  1  0.00223834  0.67341932  0.33236103  1
  Au  Au256  1  0.34862289  0.49928452  0.17271524  1
  Au  Au257  1  0.34282491  0.50137905  0.66413592  1
  Au  Au258  1  0.83250331  0.49770205  0.82677992  1
  Au  Au259  1  0.84807989  0.66423478  0.00290603  1
  Au  Au260  1  0.83869966  0.67099330  0.50179797  1
  Au  Au261  1  0.84245701  -0.00215979  0.33466168  1
  Au  Au262  1  0.00150304  0.17258096  0.82885582  1
  Au  Au263  1  0.49777843  0.16752246  0.66856407  1
  Au  Au264  1  0.32906278  -0.00056316  0.34274031  1
  Au  Au265  1  0.33096204  -0.00184955  0.16722669  1
  Au  Au266  1  0.83580505  -0.00172949  0.66730030  1
  Au  Au267  1  0.16031673  0.49710616  0.67176888  1
  Au  Au268  1  0.49746768  0.32843442  0.32714972  1
  Au  Au269  1  0.67158334  0.16562997  -0.00129216  1
  Au  Au270  1  0.16588754  0.00040743  0.16824872  1
  Au  Au271  1  0.66274764  -0.00085220  0.33581459  1
  Au  Au272  1  0.33269568  0.17028505  -0.00354934  1
  Au  Au273  1  0.66452027  0.50210133  0.67313597  1
  Au  Au274  1  0.83359201  0.00382898  0.16639175  1
  Au  Au275  1  0.67397318  0.34257120  -0.00085838  1
  Au  Au276  1  0.82216514  0.84550376  -0.00350701  1
  Au  Au277  1  0.00099813  0.17782661  0.17048679  1
  Au  Au278  1  0.16589444  0.33040914  -0.00148068  1
  Au  Au279  1  0.00176936  0.83205524  0.83122637  1
  Au  Au280  1  0.15699589  0.49948879  0.16922810  1
  Au  Au281  1  0.66585942  -0.00590680  0.16023470  1
  Au  Au282  1  0.16912456  0.67824960  -0.00188927  1
  Au  Au283  1  0.65234931  0.67686240  -0.00149089  1
  Au  Au284  1  0.32860166  0.50252474  0.84122807  1
  Au  Au285  1  0.49994195  0.82279415  0.83954747  1
  Au  Au286  1  0.49680971  0.66726748  0.32837983  1
  Au  Au287  1  0.32868283  -0.00242859  0.82638193  1
