# generated using pymatgen
data_Ca24Ti8Al207Au49
_symmetry_space_group_name_H-M   'P 1'
_cell_length_a   17.32124017
_cell_length_b   17.32338726
_cell_length_c   17.32324012
_cell_angle_alpha   90.00045993
_cell_angle_beta   89.99911430
_cell_angle_gamma   89.99935146
_symmetry_Int_Tables_number   1
_chemical_formula_structural   Ca24Ti8Al207Au49
_chemical_formula_sum   'Ca24 Ti8 Al207 Au49'
_cell_volume   5198.05562990
_cell_formula_units_Z   1
loop_
 _symmetry_equiv_pos_site_id
 _symmetry_equiv_pos_as_xyz
  1  'x, y, z'
loop_
 _atom_site_type_symbol
 _atom_site_label
 _atom_site_symmetry_multiplicity
 _atom_site_fract_x
 _atom_site_fract_y
 _atom_site_fract_z
 _atom_site_occupancy
  Ca  Ca0  1  0.25084416  -0.00169217  -0.00015892  1
  Ca  Ca1  1  0.25109893  -0.00112942  0.49691348  1
  Ca  Ca2  1  0.25226042  0.50187157  -0.00101179  1
  Ca  Ca3  1  0.25214743  0.50191193  0.50242024  1
  Ca  Ca4  1  0.74991072  -0.00670859  0.00019359  1
  Ca  Ca5  1  0.75074092  -0.00372599  0.49824961  1
  Ca  Ca6  1  0.75518963  0.50803572  -0.00168882  1
  Ca  Ca7  1  0.75184699  0.50485763  0.50316880  1
  Ca  Ca8  1  -0.00181624  0.24863300  0.00190956  1
  Ca  Ca9  1  -0.00601808  0.24913436  0.49980318  1
  Ca  Ca10  1  -0.00576803  0.75025149  -0.00258636  1
  Ca  Ca11  1  -0.00073075  0.74779467  0.50103256  1
  Ca  Ca12  1  0.49480198  0.24429410  0.00241896  1
  Ca  Ca13  1  0.49782442  0.24925062  0.49898293  1
  Ca  Ca14  1  0.49970228  0.75513986  -0.00432687  1
  Ca  Ca15  1  0.50388180  0.74905044  0.50412908  1
  Ca  Ca16  1  0.00074445  -0.00188174  0.24641632  1
  Ca  Ca17  1  -0.00440053  -0.00756616  0.75377210  1
  Ca  Ca18  1  0.00296566  0.50168664  0.24944704  1
  Ca  Ca19  1  -0.00300363  0.50938617  0.74920867  1
  Ca  Ca20  1  0.49891768  -0.00192991  0.24632833  1
  Ca  Ca21  1  0.50014333  -0.00642477  0.75535560  1
  Ca  Ca22  1  0.49811419  0.50163055  0.24752045  1
  Ca  Ca23  1  0.50257039  0.50550081  0.75016658  1
  Ti  Ti24  1  0.25202330  0.24814179  0.24917607  1
  Ti  Ti25  1  0.25174281  0.24774896  0.74968536  1
  Ti  Ti26  1  0.25144875  0.75254188  0.24909915  1
  Ti  Ti27  1  0.25188890  0.75130544  0.74993232  1
  Ti  Ti28  1  0.74997414  0.24835389  0.24810730  1
  Ti  Ti29  1  0.75138173  0.25189984  0.75005851  1
  Ti  Ti30  1  0.74846171  0.75179532  0.24786375  1
  Ti  Ti31  1  0.74902864  0.74843710  0.75080163  1
  Al  Al32  1  0.09165449  0.08508635  0.08218484  1
  Al  Al33  1  0.08527724  0.07610143  0.57936816  1
  Al  Al34  1  0.07890028  0.57897858  0.07617447  1
  Al  Al35  1  0.07476904  0.59035682  0.59065330  1
  Al  Al36  1  0.57579274  0.08552891  0.08973822  1
  Al  Al37  1  0.58071881  0.07626808  0.58128991  1
  Al  Al38  1  0.59239812  0.59098233  0.07151576  1
  Al  Al39  1  0.58768708  0.59003252  0.59596967  1
  Al  Al40  1  0.41840175  0.41838969  0.08212774  1
  Al  Al41  1  0.41502129  0.42690922  0.59048208  1
  Al  Al42  1  0.40855679  0.92214911  0.08689800  1
  Al  Al43  1  0.41932976  0.91508323  0.58789705  1
  Al  Al44  1  0.92358606  0.41550501  0.08717200  1
  Al  Al45  1  0.91519789  0.42691965  0.58145816  1
  Al  Al46  1  0.90447291  0.91368141  0.07577109  1
  Al  Al47  1  0.91223157  0.91561667  0.59287117  1
  Al  Al48  1  0.41030071  0.07493089  0.40379323  1
  Al  Al49  1  0.40940052  0.07362025  0.91807288  1
  Al  Al50  1  0.42260653  0.57626147  0.42066842  1
  Al  Al51  1  0.42417713  0.59219488  0.90586756  1
  Al  Al52  1  0.91941935  0.07750580  0.41918786  1
  Al  Al53  1  0.91181245  0.06902163  0.91474291  1
  Al  Al54  1  0.90950259  0.58738462  0.42563490  1
  Al  Al55  1  0.90893529  0.59530309  0.90762247  1
  Al  Al56  1  0.08426733  0.41502288  0.41616215  1
  Al  Al57  1  0.08048456  0.42381550  0.92865773  1
  Al  Al58  1  0.08654057  0.92105005  0.41153346  1
  Al  Al59  1  0.08501414  0.91030820  0.91748563  1
  Al  Al60  1  0.58028778  0.41989507  0.42463374  1
  Al  Al61  1  0.58133261  0.42652354  0.91751043  1
  Al  Al62  1  0.58000259  0.91345749  0.40683062  1
  Al  Al63  1  0.58522055  0.90531344  0.91293342  1
  Al  Al64  1  0.09001803  0.07793621  0.41169864  1
  Al  Al65  1  0.09152672  0.08266868  0.92366920  1
  Al  Al66  1  0.07746477  0.57750219  0.42453419  1
  Al  Al67  1  0.07319181  0.59300024  0.91265304  1
  Al  Al68  1  0.58060923  0.07573043  0.41376449  1
  Al  Al69  1  0.57864393  0.06933058  0.91990011  1
  Al  Al70  1  0.58416962  0.58347410  0.42831914  1
  Al  Al71  1  0.58725378  0.59928360  0.91086073  1
  Al  Al72  1  0.41819103  0.41887157  0.41737216  1
  Al  Al73  1  0.41738735  0.42692106  0.91988649  1
  Al  Al74  1  0.41758955  0.91386781  0.39973183  1
  Al  Al75  1  0.41341294  0.91076247  0.90856746  1
  Al  Al76  1  0.91974561  0.42284642  0.41591892  1
  Al  Al77  1  0.91364111  0.43421169  0.91528701  1
  Al  Al78  1  0.91825320  0.91753337  0.42097746  1
  Al  Al79  1  0.90566974  0.90701187  0.91290407  1
  Al  Al80  1  0.08217893  0.40858954  0.08991775  1
  Al  Al81  1  0.08262842  0.42422390  0.57828673  1
  Al  Al82  1  0.09259758  0.91612162  0.07758744  1
  Al  Al83  1  0.07791275  0.91882986  0.58645835  1
  Al  Al84  1  0.57801739  0.42132486  0.08141715  1
  Al  Al85  1  0.58814865  0.42816515  0.58563489  1
  Al  Al86  1  0.58742048  0.91297000  0.07887380  1
  Al  Al87  1  0.58009150  0.91486269  0.58740631  1
  Al  Al88  1  0.41077516  0.08551756  0.09403634  1
  Al  Al89  1  0.41672536  0.07651281  0.58177642  1
  Al  Al90  1  0.42128623  0.57776002  0.07436150  1
  Al  Al91  1  0.42283786  0.58710926  0.60069219  1
  Al  Al92  1  0.91566972  0.07339277  0.08727469  1
  Al  Al93  1  0.90948783  0.07321530  0.58995027  1
  Al  Al94  1  0.91389046  0.58876632  0.07149943  1
  Al  Al95  1  0.91156355  0.59581683  0.58913568  1
  Al  Al96  1  0.25220073  0.12692339  0.13804211  1
  Al  Al97  1  0.25631904  0.13288444  0.63310245  1
  Al  Al98  1  0.24705401  0.63830056  0.13544089  1
  Al  Al99  1  0.25475127  0.63100917  0.64311958  1
  Al  Al100  1  0.75087217  0.12866888  0.13565559  1
  Al  Al101  1  0.75299640  0.13571346  0.63274903  1
  Al  Al102  1  0.74898714  0.63744895  0.12722155  1
  Al  Al103  1  0.74900179  0.62951166  0.64059930  1
  Al  Al104  1  0.24637382  0.36319934  0.13608861  1
  Al  Al105  1  0.25131177  0.36980694  0.63558387  1
  Al  Al106  1  0.25268751  0.87299222  0.13782821  1
  Al  Al107  1  0.25663374  0.86217557  0.63679812  1
  Al  Al108  1  0.75221753  0.36595094  0.13315028  1
  Al  Al109  1  0.75259223  0.37268349  0.63652655  1
  Al  Al110  1  0.74674694  0.86919874  0.13505157  1
  Al  Al111  1  0.75213000  0.85988433  0.64052515  1
  Al  Al112  1  0.25298770  0.12949464  0.36184398  1
  Al  Al113  1  0.24887255  0.12812254  0.86406952  1
  Al  Al114  1  0.25203606  0.63964438  0.36426511  1
  Al  Al115  1  0.25164688  0.63914577  0.86156110  1
  Al  Al116  1  0.75025459  0.13450057  0.36617524  1
  Al  Al117  1  0.75370751  0.13260224  0.86359509  1
  Al  Al118  1  0.75119546  0.63769803  0.36532082  1
  Al  Al119  1  0.75056067  0.63629261  0.86870475  1
  Al  Al120  1  0.25023206  0.36472070  0.36320664  1
  Al  Al121  1  0.24944741  0.36400351  0.86459064  1
  Al  Al122  1  0.25416908  0.87167421  0.36232673  1
  Al  Al123  1  0.25144363  0.86826398  0.86265537  1
  Al  Al124  1  0.75226446  0.36563729  0.36152129  1
  Al  Al125  1  0.75236975  0.37012351  0.86757019  1
  Al  Al126  1  0.75199666  0.86523845  0.36323216  1
  Al  Al127  1  0.75374486  0.86068472  0.86680884  1
  Al  Al128  1  0.13803048  0.24520187  0.13928689  1
  Al  Al129  1  0.13323259  0.24692620  0.64086111  1
  Al  Al130  1  0.13841598  0.75935268  0.13778609  1
  Al  Al131  1  0.13649933  0.74906541  0.63770912  1
  Al  Al132  1  0.63055597  0.24753927  0.13552723  1
  Al  Al133  1  0.63448797  0.25113366  0.63642115  1
  Al  Al134  1  0.63033137  0.74997937  0.13289032  1
  Al  Al135  1  0.63086171  0.74813789  0.63797893  1
  Al  Al136  1  0.13634365  0.25047306  0.35555696  1
  Al  Al137  1  0.13442461  0.24461577  0.86259507  1
  Al  Al138  1  0.13767294  0.75366260  0.36146398  1
  Al  Al139  1  0.13649496  0.75114575  0.86381664  1
  Al  Al140  1  0.63302317  0.24631820  0.36263946  1
  Al  Al141  1  0.63440208  0.25122200  0.86183014  1
  Al  Al142  1  0.63510036  0.75368154  0.36523199  1
  Al  Al143  1  0.63477152  0.74725509  0.86589213  1
  Al  Al144  1  0.36753978  0.24474913  0.13633619  1
  Al  Al145  1  0.36627030  0.25191371  0.63265029  1
  Al  Al146  1  0.36925965  0.75481348  0.13525758  1
  Al  Al147  1  0.37668603  0.74797450  0.64051910  1
  Al  Al148  1  0.86466925  0.24896826  0.13123196  1
  Al  Al149  1  0.86374459  0.25294358  0.63452004  1
  Al  Al150  1  0.85902048  0.75378781  0.12725126  1
  Al  Al151  1  0.86554574  0.74230165  0.63875841  1
  Al  Al152  1  0.36655349  0.24591016  0.36636980  1
  Al  Al153  1  0.36522466  0.24455113  0.86364436  1
  Al  Al154  1  0.37042353  0.75628816  0.35824010  1
  Al  Al155  1  0.36983270  0.75290240  0.86368314  1
  Al  Al156  1  0.86283762  0.25206180  0.36738848  1
  Al  Al157  1  0.86242929  0.25090204  0.86797161  1
  Al  Al158  1  0.86372278  0.74864940  0.36279435  1
  Al  Al159  1  0.86382090  0.74635784  0.86749166  1
  Al  Al160  1  0.13917319  0.12341953  0.24875491  1
  Al  Al161  1  0.13455238  0.13092015  0.75178917  1
  Al  Al162  1  0.13671407  0.63326227  0.25013466  1
  Al  Al163  1  0.12912471  0.63790590  0.74896066  1
  Al  Al164  1  0.63116391  0.13347293  0.24652806  1
  Al  Al165  1  0.63667525  0.13388364  0.74992411  1
  Al  Al166  1  0.63527927  0.63875768  0.24851749  1
  Al  Al167  1  0.63241473  0.63510852  0.74957794  1
  Al  Al168  1  0.36782362  0.13103890  0.24794553  1
  Al  Al169  1  0.36256646  0.12570318  0.75236032  1
  Al  Al170  1  0.36848054  0.63701425  0.24714464  1
  Al  Al171  1  0.37246987  0.63805720  0.75217745  1
  Al  Al172  1  0.86341443  0.12765702  0.24866210  1
  Al  Al173  1  0.86578870  0.13362729  0.74877992  1
  Al  Al174  1  0.86204738  0.63942299  0.24398725  1
  Al  Al175  1  0.86338617  0.63089024  0.75368988  1
  Al  Al176  1  0.13256885  0.36915892  0.24821199  1
  Al  Al177  1  0.13651741  0.36578649  0.74758847  1
  Al  Al178  1  0.14094710  0.87669256  0.25300126  1
  Al  Al179  1  0.13343967  0.86531421  0.75354925  1
  Al  Al180  1  0.63410181  0.36462492  0.24638511  1
  Al  Al181  1  0.63877875  0.37061613  0.74845451  1
  Al  Al182  1  0.62747813  0.86341156  0.24655813  1
  Al  Al183  1  0.62779687  0.85935622  0.75409961  1
  Al  Al184  1  0.36544796  0.36343125  0.24741794  1
  Al  Al185  1  0.36473326  0.36516228  0.74947002  1
  Al  Al186  1  0.36748866  0.87062014  0.24708796  1
  Al  Al187  1  0.37118107  0.86760656  0.75310098  1
  Al  Al188  1  0.86975712  0.36236132  0.24641262  1
  Al  Al189  1  0.86321337  0.37524931  0.75067628  1
  Al  Al190  1  0.86082924  0.86988435  0.24651004  1
  Al  Al191  1  0.86481040  0.86230453  0.75256781  1
  Al  Al192  1  0.68458697  -0.00459341  0.82652335  1
  Al  Al193  1  0.49851648  0.17209489  0.82665269  1
  Al  Al194  1  -0.00185202  0.17238225  0.83181065  1
  Al  Al195  1  0.31558272  0.82776376  0.00024281  1
  Al  Al196  1  0.17034492  0.82979884  0.50107166  1
  Al  Al197  1  0.68639045  0.67510548  0.50359245  1
  Al  Al198  1  0.32626548  0.82585992  0.49306329  1
  Al  Al199  1  0.68568709  0.81156861  -0.00006298  1
  Al  Al200  1  0.33113001  0.66795477  0.50748452  1
  Al  Al201  1  0.82604369  0.50270512  0.31955053  1
  Al  Al202  1  -0.00052974  0.18077641  0.17058768  1
  Al  Al203  1  0.68451983  0.50329259  0.81737585  1
  Al  Al204  1  0.32690843  0.67437364  -0.00157985  1
  Al  Al205  1  0.32262925  0.50154493  0.32396175  1
  Al  Al206  1  -0.00082078  0.83075182  0.17457243  1
  Al  Al207  1  0.67740961  0.17222249  0.49910874  1
  Al  Al208  1  0.00027454  0.82496977  0.32579131  1
  Al  Al209  1  0.68003886  0.32834738  0.50114490  1
  Al  Al210  1  0.32082685  0.50104906  0.17094947  1
  Al  Al211  1  -0.00016922  0.81525040  0.67576427  1
  Al  Al212  1  0.82772601  0.81045637  0.50126101  1
  Al  Al213  1  0.69183490  -0.00156045  0.67194379  1
  Al  Al214  1  0.17022207  0.69361544  0.00181861  1
  Al  Al215  1  0.50354317  0.32288427  0.32124274  1
  Al  Al216  1  0.00033089  0.17861523  0.32799118  1
  Al  Al217  1  0.50265108  0.68127798  0.32300027  1
  Al  Al218  1  -0.00127749  0.81381021  0.82781286  1
  Al  Al219  1  0.17698693  0.31954144  0.50084557  1
  Al  Al220  1  0.00028977  0.67418785  0.17236312  1
  Al  Al221  1  0.17820444  0.17389186  0.49819662  1
  Al  Al222  1  0.67865328  0.50295791  0.17415786  1
  Al  Al223  1  0.50354171  0.32656348  0.67589890  1
  Al  Al224  1  0.17157984  0.67540389  0.50155342  1
  Al  Al225  1  0.32656385  0.32486080  -0.00034008  1
  Al  Al226  1  0.67222915  0.50141476  0.32989480  1
  Al  Al227  1  0.67145830  0.82769046  0.50066073  1
  Al  Al228  1  0.68217500  -0.00161308  0.31541634  1
  Al  Al229  1  0.18219713  -0.00250070  0.68262573  1
  Al  Al230  1  0.16893034  0.50247430  0.82025268  1
  Al  Al231  1  -0.00049773  0.67069231  0.32853708  1
  Al  Al232  1  0.68024156  0.32771948  -0.00035505  1
  Al  Al233  1  -0.00129491  0.33353975  0.82652918  1
  Al  Al234  1  -0.00153591  0.33018006  0.67408146  1
  Al  Al235  1  0.67470983  0.17098840  0.00033691  1
  Al  Al236  1  0.16962555  0.30578950  -0.00019009  1
  Al  Al237  1  0.32684332  0.50220595  0.81593369  1
  Al  Al238  1  0.31444588  0.17046253  0.00059239  1
  Au  Au239  1  0.49967520  0.67119992  0.15572754  1
  Au  Au240  1  0.49648206  0.33654051  0.83158490  1
  Au  Au241  1  0.67092265  0.00014822  0.16746667  1
  Au  Au242  1  -0.00559701  0.82861099  0.15924339  1
  Au  Au243  1  0.00001932  0.15582409  0.66888031  1
  Au  Au244  1  0.33521067  0.16261783  0.49571157  1
  Au  Au245  1  0.49743142  0.32237370  0.16359782  1
  Au  Au246  1  0.66372058  0.16730937  -0.00435291  1
  Au  Au247  1  0.17346439  -0.00355080  0.83420383  1
  Au  Au248  1  0.00079384  0.33021663  0.66148728  1
  Au  Au249  1  0.17460603  0.50458982  0.33765392  1
  Au  Au250  1  0.67506338  -0.00402569  0.67484496  1
  Au  Au251  1  0.32191585  0.67213318  0.49990503  1
  Au  Au252  1  0.49838921  0.16264961  0.67098413  1
  Au  Au253  1  0.33027959  -0.00260716  0.67551085  1
  Au  Au254  1  0.82560117  0.82682217  0.50433022  1
  Au  Au255  1  0.84234158  0.50415304  0.17092225  1
  Au  Au256  1  0.17051813  0.50104988  0.16480642  1
  Au  Au257  1  0.49957500  0.15841840  0.31988026  1
  Au  Au258  1  0.17666489  -0.00097178  0.16906321  1
  Au  Au259  1  -0.00128947  0.33827921  0.32206898  1
  Au  Au260  1  0.17453303  0.32225587  0.00090831  1
  Au  Au261  1  -0.00054002  0.16926033  0.16574360  1
  Au  Au262  1  0.66856106  0.33233392  -0.00020863  1
  Au  Au263  1  0.49892370  0.16131067  0.83304360  1
  Au  Au264  1  0.50262652  0.67263504  0.33756077  1
  Au  Au265  1  -0.00061998  0.16013973  0.82977602  1
  Au  Au266  1  0.16920810  0.16558997  0.49789561  1
  Au  Au267  1  0.82767469  0.34033164  0.49773234  1
  Au  Au268  1  0.33101033  0.83584462  0.49855763  1
  Au  Au269  1  0.17489891  0.50372826  0.83613593  1
  Au  Au270  1  0.49704327  0.83831417  0.17002685  1
  Au  Au271  1  0.83616941  0.33838665  -0.00126425  1
  Au  Au272  1  0.16775234  0.32769273  0.50017374  1
  Au  Au273  1  0.83259351  0.16337136  0.50250412  1
  Au  Au274  1  0.16889657  0.67682468  0.00000888  1
  Au  Au275  1  0.50196041  0.82331522  0.67545015  1
  Au  Au276  1  -0.00328293  0.33669664  0.83850518  1
  Au  Au277  1  0.82953505  0.50477242  0.67379047  1
  Au  Au278  1  0.17479886  0.50496563  0.66089685  1
  Au  Au279  1  0.33122891  0.34145927  0.50355766  1
  Au  Au280  1  0.82920628  0.15521628  0.00088729  1
  Au  Au281  1  0.50325709  0.33705643  0.66924669  1
  Au  Au282  1  0.50136024  0.33143913  0.33007675  1
  Au  Au283  1  0.67238684  0.50602343  0.82896156  1
  Au  Au284  1  0.66530507  0.16893673  0.49812013  1
  Au  Au285  1  0.83224779  -0.00223921  0.32534364  1
  Au  Au286  1  0.00058464  0.16647661  0.32530860  1
  Au  Au287  1  0.66663229  0.50162621  0.17024432  1
