# generated using pymatgen
data_Ca24Ti8Al207Au49
_symmetry_space_group_name_H-M   'P 1'
_cell_length_a   17.32492059
_cell_length_b   17.32642262
_cell_length_c   17.32557057
_cell_angle_alpha   89.99969851
_cell_angle_beta   90.00000106
_cell_angle_gamma   89.99702893
_symmetry_Int_Tables_number   1
_chemical_formula_structural   Ca24Ti8Al207Au49
_chemical_formula_sum   'Ca24 Ti8 Al207 Au49'
_cell_volume   5200.77063889
_cell_formula_units_Z   1
loop_
 _symmetry_equiv_pos_site_id
 _symmetry_equiv_pos_as_xyz
  1  'x, y, z'
loop_
 _atom_site_type_symbol
 _atom_site_label
 _atom_site_symmetry_multiplicity
 _atom_site_fract_x
 _atom_site_fract_y
 _atom_site_fract_z
 _atom_site_occupancy
  Ca  Ca0  1  0.25223456  0.00252379  -0.00127105  1
  Ca  Ca1  1  0.25649510  0.00048715  0.50225453  1
  Ca  Ca2  1  0.25501986  0.49619223  -0.00372224  1
  Ca  Ca3  1  0.25264321  0.49981487  0.50376672  1
  Ca  Ca4  1  0.74971545  0.00158231  -0.00397146  1
  Ca  Ca5  1  0.74435997  -0.00279630  0.50482720  1
  Ca  Ca6  1  0.75138555  0.49529662  -0.00168206  1
  Ca  Ca7  1  0.74958344  0.50630467  0.50298262  1
  Ca  Ca8  1  0.00251574  0.25008303  0.00016863  1
  Ca  Ca9  1  0.00019681  0.25236045  0.50117499  1
  Ca  Ca10  1  0.00110286  0.74996161  -0.00215278  1
  Ca  Ca11  1  -0.00212719  0.74289610  0.50228584  1
  Ca  Ca12  1  0.49508678  0.25324846  -0.00150221  1
  Ca  Ca13  1  0.49867010  0.24903547  0.50098365  1
  Ca  Ca14  1  0.49851924  0.75067644  -0.00465133  1
  Ca  Ca15  1  0.49959869  0.74813050  0.50584387  1
  Ca  Ca16  1  0.00421015  0.00167968  0.24463183  1
  Ca  Ca17  1  0.00377984  -0.00231343  0.74863732  1
  Ca  Ca18  1  -0.00126239  0.50121893  0.25204326  1
  Ca  Ca19  1  -0.00111788  0.50290183  0.74402361  1
  Ca  Ca20  1  0.49802779  0.00039922  0.25237823  1
  Ca  Ca21  1  0.49669162  -0.00007817  0.75018057  1
  Ca  Ca22  1  0.49998149  0.49577213  0.25182004  1
  Ca  Ca23  1  0.49985660  0.50113992  0.74757314  1
  Ti  Ti24  1  0.24998751  0.25119099  0.24994938  1
  Ti  Ti25  1  0.25077828  0.25042880  0.74912091  1
  Ti  Ti26  1  0.24990662  0.74882451  0.25129648  1
  Ti  Ti27  1  0.25222881  0.74928479  0.74906460  1
  Ti  Ti28  1  0.74988692  0.25143762  0.25039997  1
  Ti  Ti29  1  0.74794950  0.25028307  0.74872862  1
  Ti  Ti30  1  0.75008372  0.74759734  0.25147556  1
  Ti  Ti31  1  0.74718553  0.75029431  0.74998615  1
  Al  Al32  1  0.09282067  0.08850674  0.07694959  1
  Al  Al33  1  0.08869873  0.07869878  0.58318469  1
  Al  Al34  1  0.08302901  0.58020997  0.08162891  1
  Al  Al35  1  0.08585017  0.58662245  0.58411786  1
  Al  Al36  1  0.57463690  0.08513771  0.07952471  1
  Al  Al37  1  0.58218852  0.07386332  0.58994994  1
  Al  Al38  1  0.57300116  0.57251113  0.07598842  1
  Al  Al39  1  0.58855285  0.59640444  0.58459522  1
  Al  Al40  1  0.40723543  0.40975048  0.07973772  1
  Al  Al41  1  0.40798798  0.41941392  0.58585641  1
  Al  Al42  1  0.41986232  0.92520097  0.07296750  1
  Al  Al43  1  0.42193266  0.91893763  0.59750203  1
  Al  Al44  1  0.90663649  0.41512174  0.08121536  1
  Al  Al45  1  0.91000225  0.42710667  0.58351995  1
  Al  Al46  1  0.91836644  0.92121466  0.08143502  1
  Al  Al47  1  0.91575591  0.91619636  0.58488998  1
  Al  Al48  1  0.40931964  0.08258774  0.41802922  1
  Al  Al49  1  0.40322580  0.08701418  0.91173272  1
  Al  Al50  1  0.42396217  0.58603386  0.41343399  1
  Al  Al51  1  0.42011378  0.58410024  0.90971841  1
  Al  Al52  1  0.92082745  0.08601567  0.42559764  1
  Al  Al53  1  0.91110706  0.07705875  0.92090873  1
  Al  Al54  1  0.90692860  0.58300170  0.42117555  1
  Al  Al55  1  0.91683377  0.57760705  0.91941401  1
  Al  Al56  1  0.08149380  0.41793255  0.42338177  1
  Al  Al57  1  0.09383456  0.41751869  0.92303274  1
  Al  Al58  1  0.08241033  0.91746982  0.41959725  1
  Al  Al59  1  0.08428604  0.92039256  0.91459255  1
  Al  Al60  1  0.58169256  0.42118259  0.41830097  1
  Al  Al61  1  0.57950758  0.40980130  0.91196140  1
  Al  Al62  1  0.57721832  0.91240877  0.42957035  1
  Al  Al63  1  0.57595470  0.91913960  0.90896279  1
  Al  Al64  1  0.08402251  0.08183881  0.42120060  1
  Al  Al65  1  0.09924618  0.08530986  0.92186866  1
  Al  Al66  1  0.08244701  0.58628474  0.42742744  1
  Al  Al67  1  0.08253830  0.57666276  0.91658550  1
  Al  Al68  1  0.57450986  0.08369282  0.42447508  1
  Al  Al69  1  0.57930525  0.08237766  0.91344835  1
  Al  Al70  1  0.58823892  0.59482148  0.41846877  1
  Al  Al71  1  0.57533089  0.58230379  0.90592963  1
  Al  Al72  1  0.41082868  0.41262448  0.42269522  1
  Al  Al73  1  0.41488695  0.40752736  0.91498548  1
  Al  Al74  1  0.41550898  0.92359605  0.41176447  1
  Al  Al75  1  0.41136367  0.92276171  0.90367831  1
  Al  Al76  1  0.91093689  0.42460178  0.41530441  1
  Al  Al77  1  0.90606517  0.41548854  0.92370866  1
  Al  Al78  1  0.92143704  0.91685820  0.42482039  1
  Al  Al79  1  0.91846655  0.92027677  0.91118697  1
  Al  Al80  1  0.08838386  0.41368301  0.07957087  1
  Al  Al81  1  0.08739171  0.42046584  0.58251805  1
  Al  Al82  1  0.08320424  0.92307675  0.07546308  1
  Al  Al83  1  0.08520014  0.91790013  0.58540809  1
  Al  Al84  1  0.58027111  0.41279631  0.07467233  1
  Al  Al85  1  0.58279566  0.42431013  0.58171744  1
  Al  Al86  1  0.57852743  0.92515069  0.07813577  1
  Al  Al87  1  0.58439361  0.90934327  0.59464481  1
  Al  Al88  1  0.41071874  0.09426749  0.07415154  1
  Al  Al89  1  0.41258280  0.08093508  0.58542277  1
  Al  Al90  1  0.40894050  0.57106624  0.08699651  1
  Al  Al91  1  0.41602266  0.58401301  0.59560479  1
  Al  Al92  1  0.91699483  0.08154425  0.08106905  1
  Al  Al93  1  0.91306178  0.08071046  0.58240909  1
  Al  Al94  1  0.91399158  0.57747332  0.08106391  1
  Al  Al95  1  0.90758475  0.58696213  0.58482610  1
  Al  Al96  1  0.25186455  0.13894974  0.12997271  1
  Al  Al97  1  0.25465016  0.13458071  0.63560745  1
  Al  Al98  1  0.25287149  0.63365575  0.13493215  1
  Al  Al99  1  0.25217495  0.63098652  0.63365526  1
  Al  Al100  1  0.75165051  0.13880247  0.13449618  1
  Al  Al101  1  0.74586577  0.12925600  0.63845912  1
  Al  Al102  1  0.75064816  0.63547323  0.13733848  1
  Al  Al103  1  0.74685704  0.63356060  0.63382557  1
  Al  Al104  1  0.25576070  0.36516844  0.13107483  1
  Al  Al105  1  0.25035213  0.36932417  0.63324103  1
  Al  Al106  1  0.25190291  0.86391198  0.13632205  1
  Al  Al107  1  0.25862952  0.86535499  0.63396603  1
  Al  Al108  1  0.75167384  0.36364458  0.13456721  1
  Al  Al109  1  0.74684064  0.37310757  0.63747361  1
  Al  Al110  1  0.74995674  0.86269764  0.13708041  1
  Al  Al111  1  0.74511255  0.86848259  0.63722739  1
  Al  Al112  1  0.25116032  0.13575929  0.36541930  1
  Al  Al113  1  0.25337610  0.13873393  0.86981637  1
  Al  Al114  1  0.24861983  0.63481171  0.36960366  1
  Al  Al115  1  0.25314784  0.63455290  0.86259497  1
  Al  Al116  1  0.74525024  0.13695059  0.36536156  1
  Al  Al117  1  0.74785123  0.13760556  0.86621638  1
  Al  Al118  1  0.75060630  0.63657576  0.37052547  1
  Al  Al119  1  0.74853739  0.63651333  0.86002477  1
  Al  Al120  1  0.25166184  0.36503523  0.36955198  1
  Al  Al121  1  0.25516557  0.36238520  0.86688180  1
  Al  Al122  1  0.25305934  0.86318333  0.36870510  1
  Al  Al123  1  0.25597342  0.86452596  0.86111870  1
  Al  Al124  1  0.75062178  0.36726681  0.36558996  1
  Al  Al125  1  0.74946328  0.36468447  0.86188456  1
  Al  Al126  1  0.74709629  0.85859825  0.36565705  1
  Al  Al127  1  0.74420890  0.86500212  0.85942516  1
  Al  Al128  1  0.13380575  0.24821552  0.13387489  1
  Al  Al129  1  0.13587015  0.25092772  0.63100748  1
  Al  Al130  1  0.13258788  0.74650190  0.13678896  1
  Al  Al131  1  0.13949103  0.74826365  0.63403831  1
  Al  Al132  1  0.63372482  0.25115525  0.13519378  1
  Al  Al133  1  0.63599527  0.25168906  0.63060834  1
  Al  Al134  1  0.63516124  0.74753589  0.13443151  1
  Al  Al135  1  0.63048968  0.74876729  0.63803043  1
  Al  Al136  1  0.13686185  0.25169186  0.37077645  1
  Al  Al137  1  0.13540948  0.24679893  0.86629504  1
  Al  Al138  1  0.13425965  0.74599008  0.36662662  1
  Al  Al139  1  0.13835348  0.74855954  0.86159152  1
  Al  Al140  1  0.63118912  0.25160469  0.37000189  1
  Al  Al141  1  0.62617150  0.24931752  0.86071533  1
  Al  Al142  1  0.62969012  0.74581610  0.36681816  1
  Al  Al143  1  0.62531340  0.74682770  0.86135109  1
  Al  Al144  1  0.36319570  0.25070671  0.13051216  1
  Al  Al145  1  0.36333285  0.25351439  0.63438761  1
  Al  Al146  1  0.36421293  0.75133642  0.13718284  1
  Al  Al147  1  0.37012182  0.74803152  0.63473036  1
  Al  Al148  1  0.86970817  0.25389474  0.13279956  1
  Al  Al149  1  0.86584770  0.25068645  0.63639706  1
  Al  Al150  1  0.86879483  0.74825655  0.13760263  1
  Al  Al151  1  0.85875981  0.74635186  0.63425874  1
  Al  Al152  1  0.36905998  0.25350090  0.36407529  1
  Al  Al153  1  0.36834786  0.24992883  0.86520193  1
  Al  Al154  1  0.36885041  0.74604663  0.36665379  1
  Al  Al155  1  0.37357469  0.74658880  0.86008481  1
  Al  Al156  1  0.86619598  0.25046115  0.36537498  1
  Al  Al157  1  0.86469633  0.25545592  0.86630563  1
  Al  Al158  1  0.86638248  0.74261061  0.36744393  1
  Al  Al159  1  0.86223432  0.75249408  0.86123635  1
  Al  Al160  1  0.13395648  0.13836285  0.25013633  1
  Al  Al161  1  0.13818411  0.13590658  0.74820559  1
  Al  Al162  1  0.13050447  0.63354002  0.24948248  1
  Al  Al163  1  0.13550003  0.63402708  0.74524853  1
  Al  Al164  1  0.63403833  0.13636600  0.25100381  1
  Al  Al165  1  0.63413239  0.12947776  0.75219874  1
  Al  Al166  1  0.63309551  0.63700962  0.25509953  1
  Al  Al167  1  0.62979103  0.63509964  0.74533254  1
  Al  Al168  1  0.36172157  0.13703685  0.25295994  1
  Al  Al169  1  0.36256972  0.13127266  0.75276454  1
  Al  Al170  1  0.36369464  0.63353207  0.25184646  1
  Al  Al171  1  0.36880761  0.63458077  0.74568980  1
  Al  Al172  1  0.86910236  0.14002749  0.24750460  1
  Al  Al173  1  0.86566063  0.13730803  0.74807479  1
  Al  Al174  1  0.86717940  0.63382006  0.25370509  1
  Al  Al175  1  0.86269205  0.63289264  0.74473211  1
  Al  Al176  1  0.13508170  0.36387994  0.24831794  1
  Al  Al177  1  0.13501912  0.36202178  0.74641186  1
  Al  Al178  1  0.13699694  0.86256140  0.25114004  1
  Al  Al179  1  0.13957311  0.86482364  0.74685694  1
  Al  Al180  1  0.63562073  0.36412914  0.25425104  1
  Al  Al181  1  0.63277980  0.36458668  0.75029251  1
  Al  Al182  1  0.63284087  0.86079538  0.25252072  1
  Al  Al183  1  0.62601281  0.86649731  0.74790720  1
  Al  Al184  1  0.36197294  0.36718064  0.24853156  1
  Al  Al185  1  0.36490013  0.36444255  0.74991243  1
  Al  Al186  1  0.36510917  0.86700583  0.25751496  1
  Al  Al187  1  0.37180828  0.86448047  0.74768216  1
  Al  Al188  1  0.86570713  0.36560291  0.25162579  1
  Al  Al189  1  0.86562257  0.36613913  0.74475503  1
  Al  Al190  1  0.86600416  0.86116594  0.25035873  1
  Al  Al191  1  0.86394837  0.86538247  0.74453718  1
  Al  Al192  1  0.00095658  0.16716301  0.82516948  1
  Al  Al193  1  0.66816077  0.66919776  -0.00311737  1
  Al  Al194  1  0.82604969  0.81732639  0.49938049  1
  Al  Al195  1  0.32409891  0.50072111  0.32193154  1
  Al  Al196  1  0.32304784  0.18506370  0.50002504  1
  Al  Al197  1  0.66871221  -0.00298181  0.32221175  1
  Al  Al198  1  0.17615161  0.00097475  0.17335236  1
  Al  Al199  1  0.18746999  -0.00078671  0.67510066  1
  Al  Al200  1  0.18684743  0.49833279  0.17973362  1
  Al  Al201  1  0.68482271  0.50297919  0.32567483  1
  Al  Al202  1  0.18772935  0.31252356  0.00000196  1
  Al  Al203  1  0.18859728  0.00090742  0.82645307  1
  Al  Al204  1  0.68664102  0.31969300  -0.00278608  1
  Al  Al205  1  0.33041164  0.49928852  0.81711548  1
  Al  Al206  1  0.49789367  0.82888422  0.18099416  1
  Al  Al207  1  0.82117388  0.32948607  0.50160024  1
  Al  Al208  1  0.81838897  0.17600377  0.50154402  1
  Al  Al209  1  -0.00271200  0.32547746  0.32526217  1
  Al  Al210  1  0.67247780  0.81134651  0.50301121  1
  Al  Al211  1  0.00037119  0.33215108  0.82554607  1
  Al  Al212  1  0.00173912  0.82431167  0.81959384  1
  Al  Al213  1  0.49848519  0.66915464  0.18033344  1
  Al  Al214  1  0.32570999  0.67335971  0.00150469  1
  Al  Al215  1  0.67252270  0.49932033  0.81882565  1
  Al  Al216  1  0.33164825  0.00174381  0.18231074  1
  Al  Al217  1  0.17990350  0.81393194  0.50030655  1
  Al  Al218  1  0.82005921  0.00028428  0.17377851  1
  Al  Al219  1  0.17541429  0.82206239  -0.00085432  1
  Al  Al220  1  0.82305243  0.50025648  0.18597775  1
  Al  Al221  1  -0.00094729  0.68102245  0.67302322  1
  Al  Al222  1  0.82960711  0.00268944  0.32971252  1
  Al  Al223  1  0.49860739  0.32891987  0.17802467  1
  Al  Al224  1  0.32883997  0.67651628  0.50147819  1
  Al  Al225  1  0.32786382  0.82911684  -0.00279341  1
  Al  Al226  1  0.81639368  0.00075602  0.81697721  1
  Al  Al227  1  -0.00161905  0.67057240  0.82678471  1
  Al  Al228  1  -0.00142340  0.82160298  0.32298277  1
  Al  Al229  1  0.68128782  0.82995053  -0.00129215  1
  Al  Al230  1  0.82550604  0.67908864  -0.00095305  1
  Al  Al231  1  0.17788187  0.49818225  0.81863349  1
  Al  Al232  1  0.82564126  0.50002592  0.81805564  1
  Al  Al233  1  0.49893998  0.32795651  0.67918039  1
  Al  Al234  1  0.67141152  0.49795469  0.17039658  1
  Al  Al235  1  0.49707314  0.17578932  0.17788919  1
  Al  Al236  1  0.49913161  0.17200392  0.68093033  1
  Al  Al237  1  0.18767658  -0.00056991  0.32933306  1
  Al  Al238  1  0.81886247  0.17995743  -0.00034080  1
  Au  Au239  1  0.00174333  0.16764660  0.66043075  1
  Au  Au240  1  0.18075752  0.33391186  0.50108860  1
  Au  Au241  1  -0.00392522  0.33554514  0.66010843  1
  Au  Au242  1  0.16820647  0.50405360  0.34079420  1
  Au  Au243  1  0.66981455  0.16193413  0.50682146  1
  Au  Au244  1  0.00363283  0.16322619  0.16531470  1
  Au  Au245  1  0.33727411  0.66957639  -0.00233857  1
  Au  Au246  1  0.66460248  0.83331072  -0.00280508  1
  Au  Au247  1  0.67256982  0.33432314  0.50016695  1
  Au  Au248  1  0.84272043  0.82820341  -0.00266242  1
  Au  Au249  1  0.16555115  0.82298904  0.50095396  1
  Au  Au250  1  0.66124510  -0.00387264  0.33725918  1
  Au  Au251  1  0.00060703  0.34402637  0.83627519  1
  Au  Au252  1  0.33029731  0.00337185  0.16553217  1
  Au  Au253  1  -0.00046865  0.33423346  0.33392887  1
  Au  Au254  1  0.67218803  0.00585818  0.15882814  1
  Au  Au255  1  0.17913350  0.49824365  0.16464433  1
  Au  Au256  1  0.82042353  0.82875018  0.50135325  1
  Au  Au257  1  0.49857435  0.82201687  0.34155172  1
  Au  Au258  1  0.00191623  0.17028793  0.33563936  1
  Au  Au259  1  0.67306392  0.50485147  0.66939288  1
  Au  Au260  1  0.00221856  0.15349265  0.83354966  1
  Au  Au261  1  0.49735373  0.82611760  0.82376202  1
  Au  Au262  1  0.33992530  0.83977681  0.50432959  1
  Au  Au263  1  0.00040600  0.83027643  0.33200866  1
  Au  Au264  1  0.66801031  -0.00047831  0.82356768  1
  Au  Au265  1  0.00156317  0.83069006  0.67221949  1
  Au  Au266  1  0.00479493  0.83736307  0.16718902  1
  Au  Au267  1  0.49522628  0.16322125  0.32716378  1
  Au  Au268  1  -0.00165401  0.33260496  0.16042421  1
  Au  Au269  1  0.33613419  0.50017319  0.32831817  1
  Au  Au270  1  0.67281717  0.50299700  0.33039862  1
  Au  Au271  1  0.83143242  0.18188659  0.00069172  1
  Au  Au272  1  0.17643726  0.16743067  0.50228079  1
  Au  Au273  1  0.16187501  0.67326099  -0.00419747  1
  Au  Au274  1  -0.00226472  0.66536681  0.33795305  1
  Au  Au275  1  -0.00373471  0.66494453  0.16540818  1
  Au  Au276  1  0.49887898  0.33174976  0.66701872  1
  Au  Au277  1  0.49843525  0.83082342  0.16331703  1
  Au  Au278  1  0.84581549  0.00368752  0.32478156  1
  Au  Au279  1  0.32588429  0.66379355  0.50139674  1
  Au  Au280  1  0.17040519  -0.00044706  0.32912161  1
  Au  Au281  1  0.67087766  0.65657543  -0.00306866  1
  Au  Au282  1  0.17500258  0.50239910  0.67077423  1
  Au  Au283  1  0.49852646  0.65223986  0.17769906  1
  Au  Au284  1  0.49490070  0.17156467  0.83115103  1
  Au  Au285  1  0.82499804  0.00078994  0.66995257  1
  Au  Au286  1  0.65838705  0.17621354  -0.00081155  1
  Au  Au287  1  0.49892397  0.33315490  0.33060351  1
