# generated using pymatgen
data_Ca24Ti8Al207Au49
_symmetry_space_group_name_H-M   'P 1'
_cell_length_a   17.31941439
_cell_length_b   17.32096793
_cell_length_c   17.31953138
_cell_angle_alpha   90.00156816
_cell_angle_beta   90.00320472
_cell_angle_gamma   89.99742919
_symmetry_Int_Tables_number   1
_chemical_formula_structural   Ca24Ti8Al207Au49
_chemical_formula_sum   'Ca24 Ti8 Al207 Au49'
_cell_volume   5195.66925046
_cell_formula_units_Z   1
loop_
 _symmetry_equiv_pos_site_id
 _symmetry_equiv_pos_as_xyz
  1  'x, y, z'
loop_
 _atom_site_type_symbol
 _atom_site_label
 _atom_site_symmetry_multiplicity
 _atom_site_fract_x
 _atom_site_fract_y
 _atom_site_fract_z
 _atom_site_occupancy
  Ca  Ca0  1  0.25141364  -0.00599867  0.00093907  1
  Ca  Ca1  1  0.25592758  0.00563843  0.49785843  1
  Ca  Ca2  1  0.24677937  0.50267415  0.00613038  1
  Ca  Ca3  1  0.25445114  0.49753576  0.49690951  1
  Ca  Ca4  1  0.74415802  0.00292776  -0.00005762  1
  Ca  Ca5  1  0.74247083  0.00016981  0.50162928  1
  Ca  Ca6  1  0.75166460  0.49837628  -0.00001693  1
  Ca  Ca7  1  0.74948584  0.49863316  0.50042553  1
  Ca  Ca8  1  0.00095590  0.24898102  0.00619212  1
  Ca  Ca9  1  0.00038776  0.25081394  0.49762368  1
  Ca  Ca10  1  0.00289702  0.75207930  -0.00109314  1
  Ca  Ca11  1  -0.00445740  0.74694999  0.50297283  1
  Ca  Ca12  1  0.50212143  0.24596309  0.00291694  1
  Ca  Ca13  1  0.50152385  0.24721763  0.49840842  1
  Ca  Ca14  1  0.49632064  0.75887220  -0.00333587  1
  Ca  Ca15  1  0.50731038  0.75302076  0.50107379  1
  Ca  Ca16  1  -0.00058994  0.00091090  0.24955086  1
  Ca  Ca17  1  -0.00082134  0.00054804  0.74928389  1
  Ca  Ca18  1  -0.00227247  0.49578043  0.25107072  1
  Ca  Ca19  1  -0.00239589  0.50227041  0.74608652  1
  Ca  Ca20  1  0.50280554  0.00289006  0.25600100  1
  Ca  Ca21  1  0.50298772  -0.00342156  0.74669487  1
  Ca  Ca22  1  0.50511628  0.49635161  0.25592451  1
  Ca  Ca23  1  0.50255778  0.50008105  0.74290510  1
  Ti  Ti24  1  0.25424815  0.24915835  0.25145776  1
  Ti  Ti25  1  0.25217727  0.24976694  0.74728906  1
  Ti  Ti26  1  0.24969301  0.74992430  0.24838726  1
  Ti  Ti27  1  0.24934775  0.75167275  0.75024438  1
  Ti  Ti28  1  0.74769888  0.25030482  0.25134551  1
  Ti  Ti29  1  0.74632383  0.25006841  0.74702096  1
  Ti  Ti30  1  0.75058500  0.74791933  0.25142215  1
  Ti  Ti31  1  0.74980422  0.74869412  0.74912465  1
  Al  Al32  1  0.08098069  0.07304478  0.09225612  1
  Al  Al33  1  0.08936142  0.07248441  0.57343337  1
  Al  Al34  1  0.08663263  0.58741342  0.09531684  1
  Al  Al35  1  0.06345061  0.58329407  0.59305499  1
  Al  Al36  1  0.58170753  0.08909499  0.09649038  1
  Al  Al37  1  0.58818829  0.08740288  0.58874407  1
  Al  Al38  1  0.58515680  0.57231559  0.09048993  1
  Al  Al39  1  0.60253077  0.58614562  0.57984789  1
  Al  Al40  1  0.41705963  0.42256561  0.10012850  1
  Al  Al41  1  0.41257038  0.40992103  0.57289235  1
  Al  Al42  1  0.40208784  0.91677287  0.08073567  1
  Al  Al43  1  0.42622662  0.91756609  0.58373762  1
  Al  Al44  1  0.91605348  0.42342141  0.08446421  1
  Al  Al45  1  0.90928583  0.42936245  0.58447853  1
  Al  Al46  1  0.92676757  0.92720584  0.08086261  1
  Al  Al47  1  0.91689340  0.90745972  0.58906967  1
  Al  Al48  1  0.41634014  0.08608945  0.41448185  1
  Al  Al49  1  0.42748512  0.06734851  0.91666465  1
  Al  Al50  1  0.42734651  0.56684388  0.41799579  1
  Al  Al51  1  0.42097431  0.58886674  0.92233413  1
  Al  Al52  1  0.91570120  0.09521006  0.41280854  1
  Al  Al53  1  0.90009770  0.08793344  0.92526394  1
  Al  Al54  1  0.89774948  0.58538621  0.42118095  1
  Al  Al55  1  0.92153069  0.57641225  0.90904164  1
  Al  Al56  1  0.08481466  0.41430626  0.41525987  1
  Al  Al57  1  0.07455065  0.42277196  0.91733186  1
  Al  Al58  1  0.08048942  0.93181712  0.41824683  1
  Al  Al59  1  0.09079190  0.90703236  0.92280489  1
  Al  Al60  1  0.58552162  0.41687197  0.40959290  1
  Al  Al61  1  0.58396794  0.42090370  0.91552110  1
  Al  Al62  1  0.58646907  0.92526734  0.41766035  1
  Al  Al63  1  0.57953865  0.91392674  0.90134307  1
  Al  Al64  1  0.08082524  0.09271475  0.40761023  1
  Al  Al65  1  0.07752293  0.06860982  0.92503775  1
  Al  Al66  1  0.07343590  0.57127021  0.41725589  1
  Al  Al67  1  0.08020066  0.58310338  0.92186416  1
  Al  Al68  1  0.59151408  0.08789715  0.41678456  1
  Al  Al69  1  0.59215855  0.07476921  0.90861635  1
  Al  Al70  1  0.60102543  0.58231847  0.41604720  1
  Al  Al71  1  0.58185053  0.57905867  0.90863425  1
  Al  Al72  1  0.41911101  0.40165379  0.41066840  1
  Al  Al73  1  0.42537194  0.42474718  0.92243962  1
  Al  Al74  1  0.41855917  0.92578703  0.41749646  1
  Al  Al75  1  0.41382781  0.90786294  0.91241490  1
  Al  Al76  1  0.90783552  0.42276394  0.41068395  1
  Al  Al77  1  0.91666664  0.41862088  0.91228283  1
  Al  Al78  1  0.91431788  0.92237025  0.42701624  1
  Al  Al79  1  0.92324840  0.92882543  0.91399258  1
  Al  Al80  1  0.08841603  0.42605806  0.09041238  1
  Al  Al81  1  0.08009309  0.42017622  0.57544255  1
  Al  Al82  1  0.10042312  0.91322524  0.08552016  1
  Al  Al83  1  0.07644755  0.91587932  0.59735526  1
  Al  Al84  1  0.58511929  0.41671390  0.09883954  1
  Al  Al85  1  0.58933465  0.42231914  0.58397585  1
  Al  Al86  1  0.58080191  0.93059888  0.07780747  1
  Al  Al87  1  0.58767784  0.92014153  0.59203513  1
  Al  Al88  1  0.41970452  0.07741758  0.10447282  1
  Al  Al89  1  0.42437788  0.09083909  0.58688644  1
  Al  Al90  1  0.40676593  0.58028384  0.08444147  1
  Al  Al91  1  0.43233281  0.57287273  0.57821230  1
  Al  Al92  1  0.91605486  0.09232116  0.08281242  1
  Al  Al93  1  0.90773543  0.08011103  0.57151867  1
  Al  Al94  1  0.92567519  0.58338253  0.10260703  1
  Al  Al95  1  0.90202709  0.59250508  0.58589173  1
  Al  Al96  1  0.25347596  0.12998117  0.13880513  1
  Al  Al97  1  0.25639716  0.13652950  0.63238747  1
  Al  Al98  1  0.24779674  0.63336047  0.13590800  1
  Al  Al99  1  0.24603612  0.63850216  0.63622444  1
  Al  Al100  1  0.74616586  0.13902144  0.13322884  1
  Al  Al101  1  0.74161184  0.12976271  0.63175192  1
  Al  Al102  1  0.74920260  0.62587773  0.13708041  1
  Al  Al103  1  0.75035286  0.63304907  0.63137677  1
  Al  Al104  1  0.25368690  0.36663484  0.13783588  1
  Al  Al105  1  0.25483466  0.36354745  0.63457874  1
  Al  Al106  1  0.24923677  0.86484266  0.13076624  1
  Al  Al107  1  0.25176680  0.86366255  0.63817581  1
  Al  Al108  1  0.74544945  0.37171826  0.14095645  1
  Al  Al109  1  0.74629228  0.36711297  0.63381530  1
  Al  Al110  1  0.75194838  0.86281632  0.13746115  1
  Al  Al111  1  0.74672091  0.86548492  0.63530518  1
  Al  Al112  1  0.25499571  0.13758127  0.36267437  1
  Al  Al113  1  0.24900750  0.13674950  0.86563558  1
  Al  Al114  1  0.24956745  0.63345239  0.36193826  1
  Al  Al115  1  0.24991639  0.64033428  0.86326812  1
  Al  Al116  1  0.74219461  0.13398218  0.36524681  1
  Al  Al117  1  0.74386281  0.13354310  0.86500180  1
  Al  Al118  1  0.74932885  0.63044958  0.36874098  1
  Al  Al119  1  0.75003275  0.62662129  0.85809738  1
  Al  Al120  1  0.25833186  0.36551152  0.36463241  1
  Al  Al121  1  0.25165532  0.36329310  0.86429133  1
  Al  Al122  1  0.24651592  0.86587756  0.36245184  1
  Al  Al123  1  0.24923694  0.86476851  0.86754632  1
  Al  Al124  1  0.74521442  0.36825037  0.36494470  1
  Al  Al125  1  0.74693481  0.37204544  0.86116733  1
  Al  Al126  1  0.75015425  0.86490577  0.36682162  1
  Al  Al127  1  0.74982080  0.87095415  0.85978252  1
  Al  Al128  1  0.14241937  0.24994992  0.13685684  1
  Al  Al129  1  0.13477515  0.25186257  0.63317830  1
  Al  Al130  1  0.13153682  0.75334229  0.13939892  1
  Al  Al131  1  0.12858519  0.75125142  0.63689512  1
  Al  Al132  1  0.62742139  0.24882184  0.13825489  1
  Al  Al133  1  0.62886453  0.24793795  0.63292306  1
  Al  Al134  1  0.63820639  0.74762130  0.14064569  1
  Al  Al135  1  0.63887447  0.74559946  0.63450487  1
  Al  Al136  1  0.13277188  0.25023019  0.36153742  1
  Al  Al137  1  0.13742295  0.25156677  0.86670871  1
  Al  Al138  1  0.13302522  0.74742521  0.35906282  1
  Al  Al139  1  0.13347344  0.75254810  0.86527790  1
  Al  Al140  1  0.62876729  0.24911586  0.36566721  1
  Al  Al141  1  0.63415898  0.24937131  0.86365040  1
  Al  Al142  1  0.63918496  0.74522413  0.36619395  1
  Al  Al143  1  0.63574750  0.75336335  0.86056226  1
  Al  Al144  1  0.37328997  0.25034827  0.13858416  1
  Al  Al145  1  0.37052706  0.25020847  0.62829452  1
  Al  Al146  1  0.36218359  0.75184205  0.13422317  1
  Al  Al147  1  0.36474423  0.75031359  0.63491129  1
  Al  Al148  1  0.86074575  0.25072031  0.13843945  1
  Al  Al149  1  0.86422611  0.25076449  0.63666131  1
  Al  Al150  1  0.87061686  0.74493645  0.14061423  1
  Al  Al151  1  0.86349262  0.74562855  0.63473888  1
  Al  Al152  1  0.37321707  0.24972740  0.36700693  1
  Al  Al153  1  0.36790238  0.25122278  0.86414334  1
  Al  Al154  1  0.36277007  0.75148066  0.35879654  1
  Al  Al155  1  0.36680830  0.75793763  0.86599950  1
  Al  Al156  1  0.86426598  0.25238468  0.36235108  1
  Al  Al157  1  0.85722377  0.24888646  0.86134158  1
  Al  Al158  1  0.86254482  0.74435801  0.36718009  1
  Al  Al159  1  0.86386883  0.74391450  0.86037629  1
  Al  Al160  1  0.13823678  0.13234564  0.25152397  1
  Al  Al161  1  0.13585918  0.13644297  0.74736027  1
  Al  Al162  1  0.13201904  0.63052805  0.24435195  1
  Al  Al163  1  0.13099442  0.63790181  0.74918629  1
  Al  Al164  1  0.63000101  0.13647930  0.25237781  1
  Al  Al165  1  0.63374104  0.13130738  0.74537687  1
  Al  Al166  1  0.63785085  0.62776819  0.25296214  1
  Al  Al167  1  0.63518350  0.62874760  0.74746444  1
  Al  Al168  1  0.37438807  0.13664892  0.24978503  1
  Al  Al169  1  0.36926715  0.13576942  0.74344263  1
  Al  Al170  1  0.36197887  0.62823729  0.24731026  1
  Al  Al171  1  0.36590371  0.63970741  0.74849838  1
  Al  Al172  1  0.86298315  0.13523275  0.25228949  1
  Al  Al173  1  0.85730551  0.13302791  0.74902194  1
  Al  Al174  1  0.85810996  0.62498099  0.25251517  1
  Al  Al175  1  0.86623486  0.62917729  0.74397665  1
  Al  Al176  1  0.13832618  0.36628325  0.24939546  1
  Al  Al177  1  0.13697849  0.36359518  0.74642161  1
  Al  Al178  1  0.13703162  0.87413774  0.24558500  1
  Al  Al179  1  0.13319035  0.86636416  0.75003293  1
  Al  Al180  1  0.63008744  0.36235006  0.25282469  1
  Al  Al181  1  0.63072252  0.36558290  0.74599203  1
  Al  Al182  1  0.63757436  0.86566729  0.25483153  1
  Al  Al183  1  0.63600331  0.86856011  0.74985919  1
  Al  Al184  1  0.37091608  0.36503424  0.25146778  1
  Al  Al185  1  0.37337886  0.35964166  0.74361445  1
  Al  Al186  1  0.36166090  0.86842602  0.24394443  1
  Al  Al187  1  0.36732378  0.86585806  0.75159859  1
  Al  Al188  1  0.86069073  0.37219528  0.25420438  1
  Al  Al189  1  0.86073546  0.36848771  0.74597072  1
  Al  Al190  1  0.86621439  0.86485144  0.24851056  1
  Al  Al191  1  0.86698350  0.86408195  0.74439144  1
  Al  Al192  1  0.82418051  0.81498568  0.50167869  1
  Al  Al193  1  -0.00139372  0.32650550  0.18277767  1
  Al  Al194  1  0.50084066  0.82800769  0.16869181  1
  Al  Al195  1  0.67932081  0.32219868  0.49884213  1
  Al  Al196  1  0.67273564  0.31980019  0.00314782  1
  Al  Al197  1  0.67030399  0.82868896  -0.00164128  1
  Al  Al198  1  0.33197265  0.16558571  0.00233826  1
  Al  Al199  1  0.33334767  0.66794792  0.49718674  1
  Al  Al200  1  0.18065627  0.17481089  0.49741881  1
  Al  Al201  1  0.50062109  0.17438613  0.81695527  1
  Al  Al202  1  0.80733482  0.18557463  0.49862217  1
  Al  Al203  1  0.32531690  0.68601742  -0.00069152  1
  Al  Al204  1  0.00071797  0.17173386  0.66630979  1
  Al  Al205  1  0.00020331  0.83034219  0.32122535  1
  Al  Al206  1  -0.00253706  0.16892529  0.83180088  1
  Al  Al207  1  0.32011850  0.00089091  0.81850867  1
  Al  Al208  1  0.18091287  0.49963095  0.32076950  1
  Al  Al209  1  -0.00106728  0.32526555  0.81767700  1
  Al  Al210  1  0.67132001  0.67117926  -0.00142135  1
  Al  Al211  1  0.49715203  0.68621547  0.81900477  1
  Al  Al212  1  0.18523436  0.00127505  0.68233697  1
  Al  Al213  1  0.18453277  0.32688080  0.49860628  1
  Al  Al214  1  0.17178356  0.50115007  0.82455238  1
  Al  Al215  1  0.00178866  0.17290191  0.18498320  1
  Al  Al216  1  0.82735505  0.31636751  -0.00104752  1
  Al  Al217  1  0.50218991  0.81603477  0.68766854  1
  Al  Al218  1  -0.00463118  0.66922913  0.31585542  1
  Al  Al219  1  0.33071805  0.49947768  0.82210144  1
  Al  Al220  1  0.68034620  0.00098051  0.18797831  1
  Al  Al221  1  -0.00124251  0.81855786  0.82206652  1
  Al  Al222  1  0.17212360  0.50090506  0.67027300  1
  Al  Al223  1  0.31993687  0.00149871  0.31289832  1
  Al  Al224  1  0.83339359  0.66795207  0.00412170  1
  Al  Al225  1  0.32773623  0.82713421  0.49791242  1
  Al  Al226  1  0.49824357  0.67381838  0.17399200  1
  Al  Al227  1  0.16641420  0.66833444  0.50256349  1
  Al  Al228  1  0.32349352  0.33059943  0.00354429  1
  Al  Al229  1  0.16898755  0.17179235  0.00403486  1
  Al  Al230  1  0.50202317  0.67171396  0.33173134  1
  Al  Al231  1  0.17152460  0.68891973  0.00363897  1
  Al  Al232  1  0.83012950  0.83009590  -0.00219944  1
  Al  Al233  1  0.50045627  0.82774426  0.32857638  1
  Al  Al234  1  0.67220237  0.82139826  0.50012845  1
  Al  Al235  1  0.82228076  -0.00116361  0.67768058  1
  Al  Al236  1  0.16878373  0.83172970  0.50242044  1
  Al  Al237  1  0.81672580  0.00044894  0.32364165  1
  Al  Al238  1  0.32720447  0.50074929  0.66987884  1
  Au  Au239  1  0.83493970  0.33089645  0.50147914  1
  Au  Au240  1  0.82173851  0.00262728  0.33922114  1
  Au  Au241  1  0.49993747  0.67766731  0.82819322  1
  Au  Au242  1  0.16810947  0.50166084  0.32064237  1
  Au  Au243  1  0.16126688  0.33664915  -0.00184879  1
  Au  Au244  1  0.50028030  0.33413447  0.82919807  1
  Au  Au245  1  0.17191807  0.00445393  0.32281012  1
  Au  Au246  1  0.50049851  0.84040103  0.17176025  1
  Au  Au247  1  0.66652042  0.49771465  0.81800173  1
  Au  Au248  1  0.66653206  0.33621507  0.00398190  1
  Au  Au249  1  0.34847597  0.67391047  0.49622766  1
  Au  Au250  1  0.15215831  0.66090468  0.50417569  1
  Au  Au251  1  0.50664730  0.66771157  0.66333907  1
  Au  Au252  1  0.33607959  -0.00016504  0.66740635  1
  Au  Au253  1  0.82589672  0.00555855  0.16100274  1
  Au  Au254  1  0.00052958  0.66344998  0.81832815  1
  Au  Au255  1  0.81858307  0.00404924  0.83104313  1
  Au  Au256  1  0.67060127  0.15972780  0.00105582  1
  Au  Au257  1  0.65521009  0.67132224  0.00344984  1
  Au  Au258  1  0.00367359  0.32587139  0.16669271  1
  Au  Au259  1  0.33833507  0.49611501  0.32221166  1
  Au  Au260  1  0.17159922  -0.00199923  0.83238864  1
  Au  Au261  1  0.82438708  0.84549673  -0.00151194  1
  Au  Au262  1  -0.00335252  0.34413441  0.66997334  1
  Au  Au263  1  0.84884150  0.66284270  0.00441639  1
  Au  Au264  1  0.00292273  0.82837806  0.15904205  1
  Au  Au265  1  0.66703860  0.31909820  0.49736203  1
  Au  Au266  1  0.00210104  0.16370144  0.65217583  1
  Au  Au267  1  -0.00168839  0.83599608  0.82218117  1
  Au  Au268  1  0.84260628  0.32375690  -0.00194975  1
  Au  Au269  1  0.17358478  0.84790791  0.50591824  1
  Au  Au270  1  0.82250116  0.00055483  0.66508561  1
  Au  Au271  1  0.17288135  0.67208212  0.00180069  1
  Au  Au272  1  -0.00153031  0.83423109  0.33786575  1
  Au  Au273  1  0.49785013  0.66126686  0.17697035  1
  Au  Au274  1  -0.00743397  0.65606720  0.32604084  1
  Au  Au275  1  0.50024791  0.32831223  0.17942450  1
  Au  Au276  1  -0.00396927  0.32487309  0.33973253  1
  Au  Au277  1  0.32335321  0.50684531  0.83574687  1
  Au  Au278  1  0.50135108  0.15878795  0.82315520  1
  Au  Au279  1  0.33700396  0.33995790  0.00512816  1
  Au  Au280  1  0.83202937  0.49869018  0.81893569  1
  Au  Au281  1  0.17149635  0.15945110  0.00473909  1
  Au  Au282  1  0.33130007  0.17582621  0.49964926  1
  Au  Au283  1  0.50030238  0.32987464  0.65969845  1
  Au  Au284  1  0.82458389  0.49860116  0.17579644  1
  Au  Au285  1  0.34198505  0.15117041  0.00396106  1
  Au  Au286  1  0.50251367  0.17045530  0.32948258  1
  Au  Au287  1  -0.00379211  0.17554200  0.84728372  1
