# generated using pymatgen
data_Ca24Ti8Al207Au49
_symmetry_space_group_name_H-M   'P 1'
_cell_length_a   17.32386935
_cell_length_b   17.32458475
_cell_length_c   17.32414669
_cell_angle_alpha   89.99668292
_cell_angle_beta   89.99737302
_cell_angle_gamma   89.99643091
_symmetry_Int_Tables_number   1
_chemical_formula_structural   Ca24Ti8Al207Au49
_chemical_formula_sum   'Ca24 Ti8 Al207 Au49'
_cell_volume   5199.47607173
_cell_formula_units_Z   1
loop_
 _symmetry_equiv_pos_site_id
 _symmetry_equiv_pos_as_xyz
  1  'x, y, z'
loop_
 _atom_site_type_symbol
 _atom_site_label
 _atom_site_symmetry_multiplicity
 _atom_site_fract_x
 _atom_site_fract_y
 _atom_site_fract_z
 _atom_site_occupancy
  Ca  Ca0  1  0.25237272  0.00335954  0.00355211  1
  Ca  Ca1  1  0.24890515  -0.00107442  0.49689163  1
  Ca  Ca2  1  0.24837340  0.49510044  0.00458457  1
  Ca  Ca3  1  0.24532065  0.50048131  0.49781468  1
  Ca  Ca4  1  0.74598881  0.00247181  -0.00297034  1
  Ca  Ca5  1  0.75046860  0.00120508  0.50275657  1
  Ca  Ca6  1  0.74901712  0.49848928  -0.00392170  1
  Ca  Ca7  1  0.75234232  0.49667008  0.50240222  1
  Ca  Ca8  1  0.00055526  0.25204026  -0.00175796  1
  Ca  Ca9  1  -0.00332896  0.25171175  0.50245592  1
  Ca  Ca10  1  0.00066055  0.74726426  -0.00181395  1
  Ca  Ca11  1  0.00512057  0.75374702  0.50042805  1
  Ca  Ca12  1  0.50038358  0.24996123  0.00091647  1
  Ca  Ca13  1  0.50171468  0.24858171  0.50348058  1
  Ca  Ca14  1  0.50220478  0.75188327  0.00354678  1
  Ca  Ca15  1  0.49774931  0.75427610  0.49391166  1
  Ca  Ca16  1  0.00437111  -0.00185778  0.25120879  1
  Ca  Ca17  1  -0.00223867  0.00045963  0.74892281  1
  Ca  Ca18  1  0.00209221  0.49936975  0.24432853  1
  Ca  Ca19  1  -0.00074704  0.49515186  0.75006703  1
  Ca  Ca20  1  0.49571298  0.00201879  0.24674393  1
  Ca  Ca21  1  0.50213720  0.00509365  0.75125653  1
  Ca  Ca22  1  0.49910446  0.49654413  0.24388288  1
  Ca  Ca23  1  0.50490551  0.49263394  0.75361159  1
  Ti  Ti24  1  0.25055982  0.24994617  0.24809390  1
  Ti  Ti25  1  0.24983821  0.24907966  0.75250495  1
  Ti  Ti26  1  0.24996042  0.75031305  0.25015113  1
  Ti  Ti27  1  0.24720673  0.75090086  0.74899385  1
  Ti  Ti28  1  0.74851309  0.24999508  0.24925691  1
  Ti  Ti29  1  0.74985680  0.24999649  0.75184664  1
  Ti  Ti30  1  0.74935309  0.75085469  0.24804542  1
  Ti  Ti31  1  0.75201010  0.75060350  0.75146962  1
  Al  Al32  1  0.08927816  0.08374056  0.08684778  1
  Al  Al33  1  0.08028938  0.08554554  0.58178918  1
  Al  Al34  1  0.08868471  0.57266647  0.08493596  1
  Al  Al35  1  0.07766348  0.57979671  0.58219114  1
  Al  Al36  1  0.57409896  0.09395593  0.08441763  1
  Al  Al37  1  0.58128065  0.08922388  0.59265102  1
  Al  Al38  1  0.58703853  0.58740816  0.07615714  1
  Al  Al39  1  0.58364862  0.57766859  0.58407789  1
  Al  Al40  1  0.41276242  0.40930169  0.09235073  1
  Al  Al41  1  0.42606722  0.41013955  0.58434597  1
  Al  Al42  1  0.41123387  0.92874340  0.08948416  1
  Al  Al43  1  0.40968214  0.92322627  0.58146251  1
  Al  Al44  1  0.91444729  0.41781381  0.07957292  1
  Al  Al45  1  0.91440934  0.40624316  0.59098052  1
  Al  Al46  1  0.92672373  0.92051271  0.08057527  1
  Al  Al47  1  0.92278058  0.91701240  0.58797903  1
  Al  Al48  1  0.41371484  0.07695246  0.40942413  1
  Al  Al49  1  0.41562766  0.09414078  0.92252365  1
  Al  Al50  1  0.41667531  0.58034492  0.41272938  1
  Al  Al51  1  0.42511504  0.57511188  0.92803358  1
  Al  Al52  1  0.91131926  0.08241338  0.42569790  1
  Al  Al53  1  0.91023312  0.09042202  0.91835286  1
  Al  Al54  1  0.92178571  0.58135115  0.41818285  1
  Al  Al55  1  0.91605433  0.58430624  0.91626988  1
  Al  Al56  1  0.08926038  0.41579197  0.42671930  1
  Al  Al57  1  0.08241440  0.40708677  0.91655401  1
  Al  Al58  1  0.08604989  0.91538783  0.40548102  1
  Al  Al59  1  0.07985881  0.91917346  0.91784355  1
  Al  Al60  1  0.58261259  0.41287382  0.41860390  1
  Al  Al61  1  0.58539098  0.41463726  0.91081414  1
  Al  Al62  1  0.57762200  0.91770520  0.41939649  1
  Al  Al63  1  0.58952650  0.92266830  0.91533032  1
  Al  Al64  1  0.09176974  0.07609045  0.41671465  1
  Al  Al65  1  0.08150602  0.08456100  0.92118367  1
  Al  Al66  1  0.08429236  0.58307208  0.41323051  1
  Al  Al67  1  0.07539231  0.57821215  0.91858698  1
  Al  Al68  1  0.58053757  0.08385169  0.41802106  1
  Al  Al69  1  0.58479744  0.08505739  0.90898328  1
  Al  Al70  1  0.57701612  0.58053498  0.41760587  1
  Al  Al71  1  0.59476033  0.57835172  0.91571723  1
  Al  Al72  1  0.41690540  0.41705560  0.41294773  1
  Al  Al73  1  0.42312665  0.40680780  0.91712193  1
  Al  Al74  1  0.40918480  0.91844417  0.41156815  1
  Al  Al75  1  0.42356693  0.92608377  0.92495053  1
  Al  Al76  1  0.91272064  0.41179521  0.42650743  1
  Al  Al77  1  0.91926685  0.40939299  0.91029285  1
  Al  Al78  1  0.92552388  0.91721865  0.41364730  1
  Al  Al79  1  0.91738615  0.92031555  0.91424525  1
  Al  Al80  1  0.09605318  0.41304425  0.07921670  1
  Al  Al81  1  0.07919969  0.40490772  0.58799488  1
  Al  Al82  1  0.08668618  0.92121138  0.08940492  1
  Al  Al83  1  0.08103362  0.91340903  0.58550439  1
  Al  Al84  1  0.57598827  0.40908673  0.08205851  1
  Al  Al85  1  0.58452401  0.40888339  0.58746791  1
  Al  Al86  1  0.57993463  0.91757301  0.07758167  1
  Al  Al87  1  0.58614997  0.92601904  0.58183716  1
  Al  Al88  1  0.41038597  0.09290412  0.08945827  1
  Al  Al89  1  0.41594749  0.08382347  0.59249293  1
  Al  Al90  1  0.41032036  0.57382402  0.09032937  1
  Al  Al91  1  0.42132845  0.58125958  0.57680010  1
  Al  Al92  1  0.91300800  0.09079041  0.07768913  1
  Al  Al93  1  0.91089367  0.09241807  0.58253510  1
  Al  Al94  1  0.91259369  0.57904279  0.07861510  1
  Al  Al95  1  0.91716677  0.57729491  0.58566347  1
  Al  Al96  1  0.25406139  0.13599628  0.12790802  1
  Al  Al97  1  0.25067268  0.13469376  0.63773973  1
  Al  Al98  1  0.24969712  0.63076486  0.13651464  1
  Al  Al99  1  0.24681240  0.63660853  0.63032205  1
  Al  Al100  1  0.74932845  0.13666510  0.13255081  1
  Al  Al101  1  0.75559856  0.13756246  0.63478342  1
  Al  Al102  1  0.74612797  0.63571168  0.13417460  1
  Al  Al103  1  0.74978776  0.63400325  0.63533153  1
  Al  Al104  1  0.25370996  0.36304496  0.12897249  1
  Al  Al105  1  0.24552015  0.35965543  0.63482299  1
  Al  Al106  1  0.25159566  0.86732638  0.13835690  1
  Al  Al107  1  0.24677376  0.86592331  0.63408962  1
  Al  Al108  1  0.74798612  0.36341663  0.13422958  1
  Al  Al109  1  0.75169197  0.36215493  0.63690546  1
  Al  Al110  1  0.75076418  0.86886168  0.13489307  1
  Al  Al111  1  0.75417867  0.86571978  0.63759900  1
  Al  Al112  1  0.25193999  0.13012381  0.36037313  1
  Al  Al113  1  0.25293809  0.13985764  0.87182443  1
  Al  Al114  1  0.24804238  0.63462527  0.36860572  1
  Al  Al115  1  0.24767003  0.63512365  0.86431789  1
  Al  Al116  1  0.74770307  0.13637022  0.36510725  1
  Al  Al117  1  0.74837886  0.13384950  0.86148787  1
  Al  Al118  1  0.74971102  0.63318389  0.36435991  1
  Al  Al119  1  0.75089600  0.62855090  0.86300035  1
  Al  Al120  1  0.25157262  0.36547545  0.36356292  1
  Al  Al121  1  0.25076649  0.35955364  0.87309837  1
  Al  Al122  1  0.24862797  0.87124335  0.36196806  1
  Al  Al123  1  0.25042349  0.86505626  0.86314240  1
  Al  Al124  1  0.75213705  0.36424028  0.36347789  1
  Al  Al125  1  0.75264983  0.37056062  0.86241206  1
  Al  Al126  1  0.74561969  0.86420648  0.36290022  1
  Al  Al127  1  0.75095897  0.87369193  0.86367881  1
  Al  Al128  1  0.14069421  0.25102002  0.12612635  1
  Al  Al129  1  0.13103589  0.25066403  0.63211853  1
  Al  Al130  1  0.13796230  0.75232357  0.13728902  1
  Al  Al131  1  0.13085286  0.75045005  0.63180291  1
  Al  Al132  1  0.63135115  0.24946589  0.13383070  1
  Al  Al133  1  0.63582721  0.24760663  0.63833126  1
  Al  Al134  1  0.62926308  0.74839496  0.13687252  1
  Al  Al135  1  0.64022859  0.75052314  0.63849971  1
  Al  Al136  1  0.13757487  0.25034595  0.36854464  1
  Al  Al137  1  0.13236887  0.25211316  0.87153188  1
  Al  Al138  1  0.13553633  0.75249753  0.36786466  1
  Al  Al139  1  0.13422356  0.75358065  0.86354380  1
  Al  Al140  1  0.63293745  0.25041791  0.36410408  1
  Al  Al141  1  0.62848890  0.25193507  0.86305764  1
  Al  Al142  1  0.63447689  0.74849087  0.36135745  1
  Al  Al143  1  0.63860033  0.74555280  0.86368049  1
  Al  Al144  1  0.36652583  0.24913920  0.13001835  1
  Al  Al145  1  0.36713184  0.24729936  0.63598117  1
  Al  Al146  1  0.36953471  0.75043250  0.14054982  1
  Al  Al147  1  0.36077790  0.74987812  0.63257257  1
  Al  Al148  1  0.86273874  0.25246067  0.12763071  1
  Al  Al149  1  0.86804522  0.25287396  0.63649384  1
  Al  Al150  1  0.86658566  0.75341815  0.13489605  1
  Al  Al151  1  0.87332074  0.75073219  0.64059523  1
  Al  Al152  1  0.36638403  0.25079697  0.36027143  1
  Al  Al153  1  0.36967590  0.24913879  0.86964963  1
  Al  Al154  1  0.36247721  0.75034776  0.36052147  1
  Al  Al155  1  0.36393919  0.75114721  0.86410992  1
  Al  Al156  1  0.86535868  0.24847629  0.37044948  1
  Al  Al157  1  0.86423192  0.25059258  0.86834465  1
  Al  Al158  1  0.86605351  0.75614568  0.36094696  1
  Al  Al159  1  0.86335762  0.75249531  0.86362565  1
  Al  Al160  1  0.13826385  0.13787812  0.24937576  1
  Al  Al161  1  0.13236988  0.13885081  0.74997273  1
  Al  Al162  1  0.13546580  0.63306530  0.24816754  1
  Al  Al163  1  0.13342499  0.63531816  0.74689201  1
  Al  Al164  1  0.63262664  0.13195001  0.24653837  1
  Al  Al165  1  0.62955237  0.13765474  0.75278115  1
  Al  Al166  1  0.63498098  0.63140868  0.24671027  1
  Al  Al167  1  0.64049929  0.62403038  0.75167784  1
  Al  Al168  1  0.36629851  0.13417328  0.24328878  1
  Al  Al169  1  0.37120021  0.13836892  0.75306422  1
  Al  Al170  1  0.36144392  0.62922621  0.24756637  1
  Al  Al171  1  0.36051039  0.63610360  0.75229340  1
  Al  Al172  1  0.86198753  0.13970495  0.24842189  1
  Al  Al173  1  0.86531803  0.13186518  0.75063511  1
  Al  Al174  1  0.86626919  0.63591173  0.25194571  1
  Al  Al175  1  0.86533547  0.63257875  0.75088641  1
  Al  Al176  1  0.13619800  0.36641154  0.24128187  1
  Al  Al177  1  0.13085098  0.36000971  0.75217540  1
  Al  Al178  1  0.13293176  0.86902510  0.25519018  1
  Al  Al179  1  0.12874630  0.86432681  0.74625576  1
  Al  Al180  1  0.63012417  0.36438598  0.24737382  1
  Al  Al181  1  0.63723002  0.36875502  0.75308365  1
  Al  Al182  1  0.63459872  0.86943305  0.24550709  1
  Al  Al183  1  0.63561218  0.86619814  0.75305186  1
  Al  Al184  1  0.36600974  0.36658260  0.24402275  1
  Al  Al185  1  0.36489479  0.36123305  0.75297885  1
  Al  Al186  1  0.36158867  0.87281586  0.24997611  1
  Al  Al187  1  0.36296801  0.86720764  0.74521410  1
  Al  Al188  1  0.86586861  0.36042857  0.24906644  1
  Al  Al189  1  0.87012742  0.36241546  0.75152642  1
  Al  Al190  1  0.86834419  0.86797895  0.25038003  1
  Al  Al191  1  0.86864189  0.86999433  0.75192238  1
  Al  Al192  1  0.00216617  0.81618969  0.18049373  1
  Al  Al193  1  0.68146505  0.00288121  0.68791092  1
  Al  Al194  1  0.32885782  0.49787879  0.67450085  1
  Al  Al195  1  0.33092595  0.00230188  0.81631865  1
  Al  Al196  1  0.00105860  0.18218775  0.17170872  1
  Al  Al197  1  0.82383136  0.00231731  0.17082445  1
  Al  Al198  1  0.81246543  0.67296195  -0.00082240  1
  Al  Al199  1  -0.00032921  0.68261553  0.81892691  1
  Al  Al200  1  0.49825292  0.67450060  0.31821319  1
  Al  Al201  1  0.68180213  0.17702994  0.50199758  1
  Al  Al202  1  0.67290204  0.81409172  -0.00062468  1
  Al  Al203  1  0.67932960  0.32466763  -0.00292326  1
  Al  Al204  1  0.67922147  0.17262716  -0.00283086  1
  Al  Al205  1  0.67696219  0.50135308  0.32237739  1
  Al  Al206  1  0.49836700  0.82810263  0.31949442  1
  Al  Al207  1  -0.00029855  0.16979677  0.32823205  1
  Al  Al208  1  0.18771146  0.00247434  0.18603845  1
  Al  Al209  1  0.17060942  0.49635196  0.67409122  1
  Al  Al210  1  0.17411056  0.00252624  0.82744816  1
  Al  Al211  1  0.17428260  0.82859890  0.00067899  1
  Al  Al212  1  0.50240732  0.66890802  0.82383935  1
  Al  Al213  1  0.68583686  0.32608877  0.50029626  1
  Al  Al214  1  0.49963095  0.82529603  0.66870558  1
  Al  Al215  1  0.81890453  0.49997986  0.18084684  1
  Al  Al216  1  0.32779516  0.49667580  0.82784583  1
  Al  Al217  1  0.81924680  0.49739235  0.68192892  1
  Al  Al218  1  0.82350153  0.67798136  0.50089714  1
  Al  Al219  1  0.17064472  0.49702325  0.82817010  1
  Al  Al220  1  0.00244475  0.32852647  0.32529083  1
  Al  Al221  1  -0.00083647  0.17807180  0.82101049  1
  Al  Al222  1  0.82751237  0.82963947  0.00408837  1
  Al  Al223  1  0.31686027  0.32641292  0.49993186  1
  Al  Al224  1  0.31857487  0.82255194  0.49762716  1
  Al  Al225  1  0.49998707  0.82937974  0.82961803  1
  Al  Al226  1  0.16868056  0.67254323  0.00001270  1
  Al  Al227  1  0.32226661  0.16976667  0.50074761  1
  Al  Al228  1  0.50216881  0.30891992  0.69184618  1
  Al  Al229  1  -0.00172470  0.68451432  0.31965016  1
  Al  Al230  1  0.17791409  0.49537238  0.31844135  1
  Al  Al231  1  0.17970359  0.00078286  0.67457262  1
  Al  Al232  1  0.50078995  0.68023111  0.67940475  1
  Al  Al233  1  0.83253306  0.82147028  0.50062845  1
  Al  Al234  1  0.67311272  0.82126269  0.50054396  1
  Al  Al235  1  0.49872155  0.17870100  0.31995682  1
  Al  Al236  1  0.32785691  0.83150522  0.00143925  1
  Al  Al237  1  0.82037545  0.00072342  0.32730074  1
  Al  Al238  1  0.32251650  0.67708640  0.00240601  1
  Au  Au239  1  0.16902307  0.83553890  0.49626078  1
  Au  Au240  1  0.67004736  0.49546314  0.67284149  1
  Au  Au241  1  0.00339125  0.33226962  0.16065262  1
  Au  Au242  1  0.16747983  0.00086665  0.67039182  1
  Au  Au243  1  0.66814702  0.49903007  0.33105329  1
  Au  Au244  1  0.82971274  0.83358214  0.49955846  1
  Au  Au245  1  0.16872858  0.49776701  0.32671730  1
  Au  Au246  1  0.50013953  0.66977526  0.67280846  1
  Au  Au247  1  -0.00255371  0.17980720  0.66645710  1
  Au  Au248  1  0.67102801  0.49630593  0.15655320  1
  Au  Au249  1  0.82233130  0.82088330  -0.00343944  1
  Au  Au250  1  0.50003781  0.17945065  0.82564191  1
  Au  Au251  1  0.00000273  0.67045783  0.67094662  1
  Au  Au252  1  0.00241845  0.82862238  0.17819339  1
  Au  Au253  1  0.00069166  0.66209363  0.16382317  1
  Au  Au254  1  0.83136315  0.49908323  0.83061950  1
  Au  Au255  1  0.83174012  0.66873366  0.50143238  1
  Au  Au256  1  0.65833460  0.67271430  0.49813335  1
  Au  Au257  1  0.33246238  0.32479428  0.00060921  1
  Au  Au258  1  0.33273654  0.66690672  0.00257252  1
  Au  Au259  1  0.32966094  0.00126545  0.83315848  1
  Au  Au260  1  0.32846412  0.33134225  0.50034549  1
  Au  Au261  1  0.66039999  0.00437341  0.16429764  1
  Au  Au262  1  0.00115682  0.83283542  0.82487292  1
  Au  Au263  1  0.32581465  0.49786067  0.66196242  1
  Au  Au264  1  0.49614213  0.83732488  0.17017218  1
  Au  Au265  1  0.32796607  0.49942446  0.84040562  1
  Au  Au266  1  0.17420213  0.16953495  0.00000850  1
  Au  Au267  1  0.49951466  0.33162146  0.32226131  1
  Au  Au268  1  0.50024405  0.66100258  0.17054319  1
  Au  Au269  1  0.49938086  0.83773696  0.67143894  1
  Au  Au270  1  0.82881454  0.00093894  0.66639493  1
  Au  Au271  1  0.33330974  0.16589467  0.49648657  1
  Au  Au272  1  0.50264210  0.67115069  0.83636775  1
  Au  Au273  1  0.00102893  0.17914437  0.83345868  1
  Au  Au274  1  0.16556147  0.17511098  0.49854450  1
  Au  Au275  1  0.33802027  0.67445401  0.49591811  1
  Au  Au276  1  0.00571019  0.32990526  0.33742643  1
  Au  Au277  1  -0.00056652  0.15867757  0.32791040  1
  Au  Au278  1  0.67095095  -0.00292724  0.33740434  1
  Au  Au279  1  0.84049897  0.49627734  0.32867922  1
  Au  Au280  1  0.49683923  0.16625395  0.31862611  1
  Au  Au281  1  0.16840407  0.66521576  0.50271306  1
  Au  Au282  1  0.83640450  0.00013026  0.17088055  1
  Au  Au283  1  0.82195642  0.00395483  0.83483596  1
  Au  Au284  1  0.67092291  0.16807593  0.50219422  1
  Au  Au285  1  0.82968526  0.32614140  -0.00254923  1
  Au  Au286  1  0.00097991  0.67661305  0.32931716  1
  Au  Au287  1  0.33399571  0.49934744  0.31842595  1
