# generated using pymatgen
data_Ca24Ti8Al207Au49
_symmetry_space_group_name_H-M   'P 1'
_cell_length_a   17.32105475
_cell_length_b   17.32320936
_cell_length_c   17.32127761
_cell_angle_alpha   90.00098499
_cell_angle_beta   89.99603520
_cell_angle_gamma   89.99920399
_symmetry_Int_Tables_number   1
_chemical_formula_structural   Ca24Ti8Al207Au49
_chemical_formula_sum   'Ca24 Ti8 Al207 Au49'
_cell_volume   5197.35772209
_cell_formula_units_Z   1
loop_
 _symmetry_equiv_pos_site_id
 _symmetry_equiv_pos_as_xyz
  1  'x, y, z'
loop_
 _atom_site_type_symbol
 _atom_site_label
 _atom_site_symmetry_multiplicity
 _atom_site_fract_x
 _atom_site_fract_y
 _atom_site_fract_z
 _atom_site_occupancy
  Ca  Ca0  1  0.25137945  -0.00612894  0.00248336  1
  Ca  Ca1  1  0.25185826  0.00009271  0.49581599  1
  Ca  Ca2  1  0.24823061  0.50622095  -0.00006732  1
  Ca  Ca3  1  0.24974531  0.49827060  0.50009914  1
  Ca  Ca4  1  0.74762563  -0.00104084  0.00208577  1
  Ca  Ca5  1  0.75282294  -0.00186359  0.50086126  1
  Ca  Ca6  1  0.74552470  0.49923056  -0.00037442  1
  Ca  Ca7  1  0.74935266  0.49871937  0.50527507  1
  Ca  Ca8  1  -0.00003325  0.25373717  0.00181470  1
  Ca  Ca9  1  0.00326759  0.25459603  0.49912329  1
  Ca  Ca10  1  0.00499891  0.74695269  -0.00568612  1
  Ca  Ca11  1  -0.00045087  0.75023975  0.50432259  1
  Ca  Ca12  1  0.50325652  0.25308473  0.00015389  1
  Ca  Ca13  1  0.49744771  0.25279024  0.49750373  1
  Ca  Ca14  1  0.49743020  0.74668751  0.00106206  1
  Ca  Ca15  1  0.50086727  0.74866504  0.50007044  1
  Ca  Ca16  1  0.00474970  -0.00119288  0.25190534  1
  Ca  Ca17  1  0.00365744  -0.00399310  0.75028166  1
  Ca  Ca18  1  0.00190724  0.50024336  0.24948183  1
  Ca  Ca19  1  0.00350719  0.50216620  0.74955767  1
  Ca  Ca20  1  0.49436786  0.00069957  0.25305499  1
  Ca  Ca21  1  0.49244026  -0.00094352  0.74709840  1
  Ca  Ca22  1  0.49859397  0.50034282  0.24784897  1
  Ca  Ca23  1  0.50028081  0.50141429  0.74743595  1
  Ti  Ti24  1  0.24848105  0.24960363  0.25121226  1
  Ti  Ti25  1  0.25172288  0.25165225  0.74774984  1
  Ti  Ti26  1  0.25129114  0.74983348  0.25049493  1
  Ti  Ti27  1  0.25113005  0.74950437  0.74909087  1
  Ti  Ti28  1  0.75132780  0.25313952  0.25023602  1
  Ti  Ti29  1  0.74812776  0.25377834  0.74930485  1
  Ti  Ti30  1  0.75007218  0.74796631  0.25185964  1
  Ti  Ti31  1  0.74871461  0.74721630  0.74938194  1
  Al  Al32  1  0.08388104  0.07495269  0.09441470  1
  Al  Al33  1  0.08584686  0.08247728  0.57999668  1
  Al  Al34  1  0.09997518  0.58302041  0.07687670  1
  Al  Al35  1  0.08449315  0.57921641  0.59545435  1
  Al  Al36  1  0.58058498  0.08968314  0.07834678  1
  Al  Al37  1  0.57583382  0.08516201  0.57500841  1
  Al  Al38  1  0.57263973  0.58661380  0.08962509  1
  Al  Al39  1  0.58894551  0.57900434  0.59071371  1
  Al  Al40  1  0.42160864  0.42478633  0.08633208  1
  Al  Al41  1  0.41839382  0.41531672  0.58825405  1
  Al  Al42  1  0.40881475  0.91517248  0.09037053  1
  Al  Al43  1  0.41047986  0.90595192  0.58434559  1
  Al  Al44  1  0.92208133  0.40972962  0.08981711  1
  Al  Al45  1  0.91308734  0.42693581  0.58937885  1
  Al  Al46  1  0.92333480  0.91922983  0.08310607  1
  Al  Al47  1  0.92711478  0.91089609  0.57203095  1
  Al  Al48  1  0.41117841  0.08390259  0.41063100  1
  Al  Al49  1  0.42272973  0.07596687  0.92047062  1
  Al  Al50  1  0.42343121  0.58434843  0.42183495  1
  Al  Al51  1  0.40927402  0.58890540  0.92236707  1
  Al  Al52  1  0.91165090  0.07492124  0.40860335  1
  Al  Al53  1  0.92180557  0.07926963  0.92734812  1
  Al  Al54  1  0.91665380  0.57783218  0.42397747  1
  Al  Al55  1  0.92526213  0.58800844  0.90714022  1
  Al  Al56  1  0.09100900  0.41243413  0.42041712  1
  Al  Al57  1  0.08298049  0.43408420  0.90950372  1
  Al  Al58  1  0.08080280  0.91547361  0.40535570  1
  Al  Al59  1  0.08773720  0.90494516  0.91335598  1
  Al  Al60  1  0.58285994  0.41720736  0.40308169  1
  Al  Al61  1  0.59470170  0.41461056  0.91498113  1
  Al  Al62  1  0.57946369  0.92112249  0.42506694  1
  Al  Al63  1  0.57850928  0.91892993  0.91846774  1
  Al  Al64  1  0.08907808  0.07836236  0.41302281  1
  Al  Al65  1  0.07908095  0.06738262  0.92048029  1
  Al  Al66  1  0.08306406  0.57502179  0.41936330  1
  Al  Al67  1  0.09089559  0.59357961  0.90808958  1
  Al  Al68  1  0.57300698  0.08945661  0.41737708  1
  Al  Al69  1  0.58708630  0.08446930  0.92146346  1
  Al  Al70  1  0.58830812  0.57774238  0.41151324  1
  Al  Al71  1  0.58793740  0.57471986  0.90775013  1
  Al  Al72  1  0.42255987  0.40948189  0.41610224  1
  Al  Al73  1  0.42029997  0.42499910  0.91819497  1
  Al  Al74  1  0.40756771  0.91932180  0.42170416  1
  Al  Al75  1  0.41675877  0.91218585  0.92026440  1
  Al  Al76  1  0.92099167  0.41954036  0.41634157  1
  Al  Al77  1  0.91811741  0.42386765  0.92003413  1
  Al  Al78  1  0.91586467  0.91183060  0.40560305  1
  Al  Al79  1  0.92961925  0.90603494  0.91286484  1
  Al  Al80  1  0.08322710  0.42298125  0.09774454  1
  Al  Al81  1  0.09562855  0.41748583  0.58444369  1
  Al  Al82  1  0.09355047  0.91457795  0.08299297  1
  Al  Al83  1  0.08372718  0.91687089  0.58449885  1
  Al  Al84  1  0.58784529  0.41088691  0.07957657  1
  Al  Al85  1  0.58106508  0.41734277  0.59744370  1
  Al  Al86  1  0.57062528  0.91436256  0.07934209  1
  Al  Al87  1  0.57133785  0.90548509  0.58614222  1
  Al  Al88  1  0.41190970  0.07587918  0.09134787  1
  Al  Al89  1  0.41446019  0.08015061  0.57765221  1
  Al  Al90  1  0.40934367  0.59367980  0.08657144  1
  Al  Al91  1  0.41660022  0.58022572  0.58412337  1
  Al  Al92  1  0.92005410  0.08293273  0.08756640  1
  Al  Al93  1  0.92738093  0.08450711  0.57012552  1
  Al  Al94  1  0.92406944  0.57043789  0.07008994  1
  Al  Al95  1  0.91420460  0.58523497  0.59237936  1
  Al  Al96  1  0.24879167  0.13531808  0.13574492  1
  Al  Al97  1  0.24894081  0.13784456  0.63349758  1
  Al  Al98  1  0.24914085  0.63782325  0.13071136  1
  Al  Al99  1  0.24821254  0.63643415  0.63137472  1
  Al  Al100  1  0.75257689  0.13556076  0.13807515  1
  Al  Al101  1  0.74908876  0.13997468  0.63489566  1
  Al  Al102  1  0.74885690  0.63185379  0.13747637  1
  Al  Al103  1  0.74735473  0.63070363  0.63846538  1
  Al  Al104  1  0.24667464  0.36570012  0.13585978  1
  Al  Al105  1  0.24911109  0.36497363  0.62806669  1
  Al  Al106  1  0.24932316  0.86446493  0.13380063  1
  Al  Al107  1  0.25227920  0.86135997  0.63092252  1
  Al  Al108  1  0.74622705  0.36854601  0.13626497  1
  Al  Al109  1  0.74814294  0.36968615  0.63538520  1
  Al  Al110  1  0.75469353  0.86366437  0.14090647  1
  Al  Al111  1  0.74780923  0.86107108  0.63764060  1
  Al  Al112  1  0.24883809  0.13437239  0.36434801  1
  Al  Al113  1  0.25275726  0.13682131  0.86431730  1
  Al  Al114  1  0.24852963  0.63744788  0.36971957  1
  Al  Al115  1  0.24633327  0.63459053  0.86734112  1
  Al  Al116  1  0.75378402  0.13850897  0.36350868  1
  Al  Al117  1  0.74924451  0.13848305  0.86242950  1
  Al  Al118  1  0.74564920  0.62864098  0.36445160  1
  Al  Al119  1  0.74797670  0.63361853  0.86275856  1
  Al  Al120  1  0.24703201  0.36296909  0.37138572  1
  Al  Al121  1  0.24964818  0.36832884  0.86470765  1
  Al  Al122  1  0.25503608  0.86668349  0.36636647  1
  Al  Al123  1  0.25103820  0.86150910  0.86217888  1
  Al  Al124  1  0.75032516  0.37126263  0.36430389  1
  Al  Al125  1  0.74371123  0.37073834  0.86547650  1
  Al  Al126  1  0.74963996  0.86682134  0.36248484  1
  Al  Al127  1  0.74813914  0.86005616  0.85728655  1
  Al  Al128  1  0.13017902  0.25359638  0.13441321  1
  Al  Al129  1  0.13741566  0.25394844  0.62888911  1
  Al  Al130  1  0.13526122  0.75028512  0.13327419  1
  Al  Al131  1  0.13418135  0.74816023  0.63365474  1
  Al  Al132  1  0.63537143  0.25375927  0.13658148  1
  Al  Al133  1  0.62720645  0.25402752  0.63804826  1
  Al  Al134  1  0.63547773  0.74672216  0.13726269  1
  Al  Al135  1  0.63200955  0.74563479  0.63245809  1
  Al  Al136  1  0.13373263  0.25015443  0.36964781  1
  Al  Al137  1  0.13827029  0.25446598  0.86376671  1
  Al  Al138  1  0.13417180  0.75448028  0.36253642  1
  Al  Al139  1  0.13224916  0.74624093  0.86302209  1
  Al  Al140  1  0.63622247  0.25491713  0.36253646  1
  Al  Al141  1  0.63376278  0.25425541  0.86493437  1
  Al  Al142  1  0.63764940  0.74576538  0.37168509  1
  Al  Al143  1  0.63351311  0.74904329  0.86479049  1
  Al  Al144  1  0.36171288  0.25103392  0.13119446  1
  Al  Al145  1  0.36907733  0.25437856  0.63450535  1
  Al  Al146  1  0.36188840  0.74740057  0.12897740  1
  Al  Al147  1  0.36808871  0.75044048  0.62993497  1
  Al  Al148  1  0.86880836  0.25256199  0.13622892  1
  Al  Al149  1  0.86243039  0.25449164  0.63091326  1
  Al  Al150  1  0.86932844  0.75201171  0.14169821  1
  Al  Al151  1  0.86471487  0.74859101  0.63531031  1
  Al  Al152  1  0.36351996  0.25320021  0.36651478  1
  Al  Al153  1  0.36546469  0.25317215  0.86833664  1
  Al  Al154  1  0.36395391  0.74836565  0.37125457  1
  Al  Al155  1  0.36263106  0.74630400  0.87143164  1
  Al  Al156  1  0.86515608  0.25419453  0.37014820  1
  Al  Al157  1  0.86190556  0.25496165  0.86496467  1
  Al  Al158  1  0.86544607  0.75404465  0.36444689  1
  Al  Al159  1  0.86769659  0.74601084  0.86158796  1
  Al  Al160  1  0.13371993  0.13486155  0.24805863  1
  Al  Al161  1  0.13799788  0.13742826  0.74802242  1
  Al  Al162  1  0.13639003  0.63460306  0.24556579  1
  Al  Al163  1  0.13804070  0.63043927  0.75148225  1
  Al  Al164  1  0.63527767  0.13681329  0.25039857  1
  Al  Al165  1  0.62969007  0.14027127  0.74927454  1
  Al  Al166  1  0.63235087  0.63283465  0.24975266  1
  Al  Al167  1  0.63195608  0.63064087  0.75094233  1
  Al  Al168  1  0.36297343  0.13543189  0.25275889  1
  Al  Al169  1  0.37005346  0.13925954  0.74785739  1
  Al  Al170  1  0.37044012  0.64041715  0.24777387  1
  Al  Al171  1  0.36358363  0.63768562  0.74649604  1
  Al  Al172  1  0.86515451  0.13167484  0.25042599  1
  Al  Al173  1  0.86213543  0.13834378  0.74737738  1
  Al  Al174  1  0.86454263  0.63167378  0.25673468  1
  Al  Al175  1  0.86518273  0.63200137  0.74808761  1
  Al  Al176  1  0.13244144  0.36263865  0.25108964  1
  Al  Al177  1  0.13898371  0.37030686  0.74569265  1
  Al  Al178  1  0.13603924  0.86432259  0.24725987  1
  Al  Al179  1  0.12913736  0.85873152  0.75073652  1
  Al  Al180  1  0.63371342  0.37251781  0.25303242  1
  Al  Al181  1  0.63459983  0.37155451  0.74709421  1
  Al  Al182  1  0.63458830  0.86351673  0.25028286  1
  Al  Al183  1  0.62868943  0.86049910  0.74679541  1
  Al  Al184  1  0.36355134  0.36256953  0.25183085  1
  Al  Al185  1  0.36581134  0.36735681  0.74745209  1
  Al  Al186  1  0.36150299  0.86290427  0.24966541  1
  Al  Al187  1  0.36968645  0.86009834  0.74752243  1
  Al  Al188  1  0.87007150  0.36523469  0.25046916  1
  Al  Al189  1  0.86293273  0.36787792  0.74820559  1
  Al  Al190  1  0.87018595  0.86804673  0.25371027  1
  Al  Al191  1  0.87122244  0.86060013  0.74994453  1
  Al  Al192  1  0.30782608  -0.00079820  0.19186260  1
  Al  Al193  1  0.17285498  0.33511381  -0.00028212  1
  Al  Al194  1  0.32730795  -0.00108782  0.82696746  1
  Al  Al195  1  0.00004914  0.67949890  0.32913916  1
  Al  Al196  1  0.67743285  0.17626397  0.49910873  1
  Al  Al197  1  0.82584454  0.50238252  0.17823831  1
  Al  Al198  1  0.32228926  0.50085783  0.32277745  1
  Al  Al199  1  0.68115325  0.00352675  0.32951354  1
  Al  Al200  1  0.31857036  0.18066022  0.49922441  1
  Al  Al201  1  -0.00321258  0.17542611  0.32186783  1
  Al  Al202  1  0.00128609  0.33222724  0.67138763  1
  Al  Al203  1  0.66667875  0.00044694  0.66907538  1
  Al  Al204  1  0.17343498  0.49936793  0.31437717  1
  Al  Al205  1  0.67199486  0.82384604  0.00072252  1
  Al  Al206  1  0.66980884  0.66851861  0.00068128  1
  Al  Al207  1  0.00093526  0.33149972  0.82514835  1
  Al  Al208  1  0.18894720  -0.00136854  0.30982178  1
  Al  Al209  1  0.82169747  0.67331396  0.50106783  1
  Al  Al210  1  0.83183125  -0.00090661  0.66584050  1
  Al  Al211  1  0.00049698  0.17805400  0.67119976  1
  Al  Al212  1  0.50143969  0.32472705  0.81713509  1
  Al  Al213  1  0.67432617  -0.00016272  0.82590032  1
  Al  Al214  1  0.81509608  0.50101207  0.81569864  1
  Al  Al215  1  0.82574638  0.66933075  -0.00082009  1
  Al  Al216  1  0.67728180  -0.00226654  0.17076250  1
  Al  Al217  1  0.82264102  0.82707158  -0.00083344  1
  Al  Al218  1  0.83232592  -0.00225800  0.82769992  1
  Al  Al219  1  0.17513317  0.16622178  0.00002906  1
  Al  Al220  1  0.18199770  0.81105137  -0.00238744  1
  Al  Al221  1  0.81271543  0.32346173  0.00063926  1
  Al  Al222  1  0.17500600  0.82343474  0.49647523  1
  Al  Al223  1  0.31313148  0.50254965  0.17275229  1
  Al  Al224  1  0.49805814  0.32124475  0.18454954  1
  Al  Al225  1  0.67406828  0.32989220  0.50083282  1
  Al  Al226  1  0.50132036  0.67758478  0.82280028  1
  Al  Al227  1  0.49852164  0.82215300  0.32928853  1
  Al  Al228  1  -0.00080831  0.17754771  0.82115251  1
  Al  Al229  1  0.82053374  0.82654128  0.49851696  1
  Al  Al230  1  0.31928881  -0.00071855  0.67342756  1
  Al  Al231  1  0.49885290  0.19073073  0.32069817  1
  Al  Al232  1  0.00093673  0.67213736  0.16736571  1
  Al  Al233  1  0.31547606  0.50354106  0.82345906  1
  Al  Al234  1  0.67988915  0.18912297  0.00053908  1
  Al  Al235  1  0.00121648  0.67846665  0.68886022  1
  Al  Al236  1  0.17566935  -0.00281285  0.81947354  1
  Al  Al237  1  0.49789524  0.81342360  0.17405451  1
  Al  Al238  1  0.31405042  0.50030150  0.67312549  1
  Au  Au239  1  0.66168195  0.50195437  0.17181723  1
  Au  Au240  1  0.32879902  0.82339694  0.00090648  1
  Au  Au241  1  0.00186333  0.16892783  0.83580551  1
  Au  Au242  1  0.00092479  0.17864779  0.16581021  1
  Au  Au243  1  0.49996888  0.83490857  0.82337054  1
  Au  Au244  1  0.82679793  -0.00453675  0.84349747  1
  Au  Au245  1  0.84058903  -0.00118423  0.17988209  1
  Au  Au246  1  0.16942058  0.65927616  0.50334246  1
  Au  Au247  1  0.00583193  0.83958134  0.17633707  1
  Au  Au248  1  0.16924092  0.00063840  0.67200321  1
  Au  Au249  1  0.49757981  0.16347365  0.17575977  1
  Au  Au250  1  -0.00016441  0.82507166  0.67483387  1
  Au  Au251  1  0.82683361  0.16184837  0.49663696  1
  Au  Au252  1  0.50368520  0.66191003  0.32266138  1
  Au  Au253  1  0.17113724  0.15070867  0.00095889  1
  Au  Au254  1  0.49778064  0.66997607  0.83190177  1
  Au  Au255  1  0.67097528  0.83219455  0.50282845  1
  Au  Au256  1  0.82994767  0.50140733  0.82406974  1
  Au  Au257  1  0.82358492  0.16039475  0.00318535  1
  Au  Au258  1  0.16103986  0.34586654  -0.00081270  1
  Au  Au259  1  0.50032092  0.67206969  0.66639691  1
  Au  Au260  1  0.33187451  0.32971407  0.50233630  1
  Au  Au261  1  0.84040613  0.33293838  0.50327245  1
  Au  Au262  1  0.67245793  0.00715146  0.34356967  1
  Au  Au263  1  0.00201061  0.16529403  0.32662271  1
  Au  Au264  1  0.16957631  0.17262231  0.49869835  1
  Au  Au265  1  0.50066039  0.33005811  0.17542861  1
  Au  Au266  1  0.65832617  0.33343251  0.50091493  1
  Au  Au267  1  -0.00101867  0.67397196  0.34478104  1
  Au  Au268  1  0.49401095  0.83831838  0.32712901  1
  Au  Au269  1  0.49593626  0.17712223  0.65777297  1
  Au  Au270  1  0.33800773  0.33563541  0.00283528  1
  Au  Au271  1  0.82224027  0.50055129  0.33681994  1
  Au  Au272  1  0.66651198  -0.00297232  0.15779229  1
  Au  Au273  1  0.50087972  0.16109524  0.82842974  1
  Au  Au274  1  0.33446632  0.50013908  0.33392155  1
  Au  Au275  1  0.33666136  0.67554177  0.50134034  1
  Au  Au276  1  0.83831727  0.82026698  0.00089962  1
  Au  Au277  1  0.32590429  0.50339792  0.83288435  1
  Au  Au278  1  0.34177836  0.16808107  0.00001114  1
  Au  Au279  1  0.17690936  0.83587450  0.49502217  1
  Au  Au280  1  0.00314956  0.66693988  0.15223774  1
  Au  Au281  1  0.84815506  -0.00080162  0.66218323  1
  Au  Au282  1  0.82760846  0.33177474  0.00021424  1
  Au  Au283  1  0.83469768  0.50040640  0.16955313  1
  Au  Au284  1  0.00301372  0.33886505  0.32488652  1
  Au  Au285  1  0.65080563  -0.00002273  0.67469424  1
  Au  Au286  1  0.67353360  0.65885462  0.50074898  1
  Au  Au287  1  0.50208945  0.33946210  0.82504852  1
