# generated using pymatgen
data_Ca24Ti8Al207Au49
_symmetry_space_group_name_H-M   'P 1'
_cell_length_a   17.32450651
_cell_length_b   17.32510178
_cell_length_c   17.32669218
_cell_angle_alpha   89.99778934
_cell_angle_beta   89.99735867
_cell_angle_gamma   90.00225364
_symmetry_Int_Tables_number   1
_chemical_formula_structural   Ca24Ti8Al207Au49
_chemical_formula_sum   'Ca24 Ti8 Al207 Au49'
_cell_volume   5200.58652205
_cell_formula_units_Z   1
loop_
 _symmetry_equiv_pos_site_id
 _symmetry_equiv_pos_as_xyz
  1  'x, y, z'
loop_
 _atom_site_type_symbol
 _atom_site_label
 _atom_site_symmetry_multiplicity
 _atom_site_fract_x
 _atom_site_fract_y
 _atom_site_fract_z
 _atom_site_occupancy
  Ca  Ca0  1  0.24685787  0.00137774  -0.00072825  1
  Ca  Ca1  1  0.24841782  -0.00209470  0.50053610  1
  Ca  Ca2  1  0.25522495  0.49867865  -0.00270810  1
  Ca  Ca3  1  0.24643112  0.50179266  0.50052704  1
  Ca  Ca4  1  0.75948854  0.00059395  0.00041566  1
  Ca  Ca5  1  0.75464058  0.00586923  0.50007427  1
  Ca  Ca6  1  0.75250942  0.50257046  0.00705011  1
  Ca  Ca7  1  0.75154014  0.49782752  0.49311181  1
  Ca  Ca8  1  0.00113750  0.24695300  -0.00119052  1
  Ca  Ca9  1  -0.00252067  0.24947610  0.50113091  1
  Ca  Ca10  1  -0.00261267  0.75317684  0.00373618  1
  Ca  Ca11  1  0.00452682  0.75196175  0.49901615  1
  Ca  Ca12  1  0.49665116  0.25230913  -0.00076856  1
  Ca  Ca13  1  0.50139336  0.24983799  0.49900529  1
  Ca  Ca14  1  0.50057348  0.74169871  -0.00251640  1
  Ca  Ca15  1  0.49556053  0.74782570  0.50167380  1
  Ca  Ca16  1  -0.00163299  -0.00005975  0.24924191  1
  Ca  Ca17  1  0.00083245  0.00121341  0.75061061  1
  Ca  Ca18  1  -0.00216558  0.49887438  0.24918129  1
  Ca  Ca19  1  -0.00409228  0.49780336  0.74373854  1
  Ca  Ca20  1  0.49920030  0.00060405  0.25244291  1
  Ca  Ca21  1  0.49513023  0.00006106  0.74984759  1
  Ca  Ca22  1  0.50542290  0.49736176  0.24514470  1
  Ca  Ca23  1  0.50636908  0.49917241  0.74866168  1
  Ti  Ti24  1  0.24820514  0.24955195  0.25156030  1
  Ti  Ti25  1  0.24945094  0.24676830  0.74850754  1
  Ti  Ti26  1  0.24625786  0.75150353  0.25059979  1
  Ti  Ti27  1  0.24673925  0.75354803  0.74928212  1
  Ti  Ti28  1  0.75248272  0.24998219  0.24982566  1
  Ti  Ti29  1  0.75093427  0.24913159  0.75029627  1
  Ti  Ti30  1  0.75455058  0.74974978  0.24923223  1
  Ti  Ti31  1  0.75368861  0.75091656  0.75130552  1
  Al  Al32  1  0.07453334  0.07912614  0.07890446  1
  Al  Al33  1  0.07832464  0.08251569  0.58681276  1
  Al  Al34  1  0.07693713  0.58849523  0.08340957  1
  Al  Al35  1  0.09082965  0.58821733  0.57478212  1
  Al  Al36  1  0.58587058  0.08086875  0.08043697  1
  Al  Al37  1  0.58152442  0.09151799  0.57758516  1
  Al  Al38  1  0.59050789  0.57864595  0.08747838  1
  Al  Al39  1  0.58370724  0.58019242  0.57704436  1
  Al  Al40  1  0.40546775  0.41487570  0.08772679  1
  Al  Al41  1  0.41751392  0.42111433  0.57940925  1
  Al  Al42  1  0.41399141  0.92076480  0.07222553  1
  Al  Al43  1  0.39730216  0.91630107  0.58755770  1
  Al  Al44  1  0.91319856  0.42017336  0.09385401  1
  Al  Al45  1  0.91940697  0.41181536  0.57388204  1
  Al  Al46  1  0.91143780  0.90991557  0.08706540  1
  Al  Al47  1  0.91758376  0.92424091  0.57920019  1
  Al  Al48  1  0.42389731  0.07726187  0.42381033  1
  Al  Al49  1  0.40399346  0.08316170  0.91290159  1
  Al  Al50  1  0.41243863  0.58454107  0.42371203  1
  Al  Al51  1  0.42337932  0.58282806  0.92647842  1
  Al  Al52  1  0.91107792  0.09264735  0.42026080  1
  Al  Al53  1  0.91679552  0.08084360  0.90438958  1
  Al  Al54  1  0.92273746  0.58136393  0.40480868  1
  Al  Al55  1  0.91802101  0.58322779  0.92431033  1
  Al  Al56  1  0.07622003  0.40629739  0.41908147  1
  Al  Al57  1  0.08038514  0.40421436  0.92025820  1
  Al  Al58  1  0.08782786  0.90505753  0.41929039  1
  Al  Al59  1  0.07811075  0.92590276  0.92031667  1
  Al  Al60  1  0.59472275  0.41716068  0.40818264  1
  Al  Al61  1  0.57724957  0.42182011  0.92295812  1
  Al  Al62  1  0.58434627  0.92548749  0.42167629  1
  Al  Al63  1  0.58899640  0.92259266  0.91797407  1
  Al  Al64  1  0.07556412  0.08075059  0.41910215  1
  Al  Al65  1  0.07708914  0.08807126  0.90781566  1
  Al  Al66  1  0.08194045  0.59980462  0.41683482  1
  Al  Al67  1  0.08032289  0.58562220  0.92616808  1
  Al  Al68  1  0.58955958  0.09149828  0.42251383  1
  Al  Al69  1  0.58450920  0.07944236  0.91465687  1
  Al  Al70  1  0.59422659  0.57511544  0.41411042  1
  Al  Al71  1  0.58134110  0.58218251  0.92359119  1
  Al  Al72  1  0.42002164  0.41651963  0.42038484  1
  Al  Al73  1  0.41293916  0.40910661  0.92821375  1
  Al  Al74  1  0.40348575  0.91328131  0.42890987  1
  Al  Al75  1  0.40355639  0.92344574  0.91404284  1
  Al  Al76  1  0.91500793  0.40956693  0.41003222  1
  Al  Al77  1  0.92383087  0.41210489  0.91701290  1
  Al  Al78  1  0.92111190  0.91650715  0.41553853  1
  Al  Al79  1  0.90798047  0.91840251  0.92197169  1
  Al  Al80  1  0.07882565  0.41111360  0.08073659  1
  Al  Al81  1  0.08695626  0.41126508  0.57737084  1
  Al  Al82  1  0.07117163  0.91179744  0.08840938  1
  Al  Al83  1  0.09333429  0.91074458  0.57920623  1
  Al  Al84  1  0.58757833  0.42274813  0.08893190  1
  Al  Al85  1  0.58513297  0.41845151  0.57553656  1
  Al  Al86  1  0.58731450  0.92197594  0.07869672  1
  Al  Al87  1  0.57847287  0.92102429  0.57677493  1
  Al  Al88  1  0.41291736  0.08382033  0.07458719  1
  Al  Al89  1  0.41493706  0.07639162  0.59086350  1
  Al  Al90  1  0.41290959  0.57460061  0.08856203  1
  Al  Al91  1  0.41083100  0.58770598  0.58030951  1
  Al  Al92  1  0.91587707  0.07299586  0.08920029  1
  Al  Al93  1  0.91351082  0.09080649  0.58531578  1
  Al  Al94  1  0.91074779  0.58361291  0.09379924  1
  Al  Al95  1  0.92644870  0.57588798  0.57806693  1
  Al  Al96  1  0.24906547  0.13068533  0.13672563  1
  Al  Al97  1  0.25097476  0.12682060  0.63520672  1
  Al  Al98  1  0.25066502  0.63523372  0.13893713  1
  Al  Al99  1  0.24418553  0.63816577  0.63381071  1
  Al  Al100  1  0.75759936  0.13367534  0.13048928  1
  Al  Al101  1  0.75245348  0.13794805  0.63192821  1
  Al  Al102  1  0.75523994  0.63235216  0.13831980  1
  Al  Al103  1  0.75545996  0.63600612  0.63809925  1
  Al  Al104  1  0.25442281  0.36753561  0.13599871  1
  Al  Al105  1  0.24882413  0.36354042  0.62971996  1
  Al  Al106  1  0.24691011  0.86946413  0.13606502  1
  Al  Al107  1  0.24750543  0.86876455  0.63405243  1
  Al  Al108  1  0.75061792  0.37168295  0.13895679  1
  Al  Al109  1  0.75091961  0.36151977  0.63280765  1
  Al  Al110  1  0.75997130  0.86901898  0.13060778  1
  Al  Al111  1  0.75251697  0.86415861  0.63700030  1
  Al  Al112  1  0.24572448  0.13129364  0.36753041  1
  Al  Al113  1  0.25122074  0.12885187  0.86323036  1
  Al  Al114  1  0.24444260  0.63494164  0.36533143  1
  Al  Al115  1  0.24826204  0.63795851  0.86344782  1
  Al  Al116  1  0.75351428  0.13465942  0.36914800  1
  Al  Al117  1  0.75408379  0.13631604  0.87010527  1
  Al  Al118  1  0.75246363  0.62498874  0.35731969  1
  Al  Al119  1  0.75700376  0.63770286  0.86525738  1
  Al  Al120  1  0.24836782  0.36445524  0.37040332  1
  Al  Al121  1  0.25413078  0.36132932  0.86508934  1
  Al  Al122  1  0.24528954  0.86694380  0.36859955  1
  Al  Al123  1  0.24655167  0.87051362  0.86211836  1
  Al  Al124  1  0.75197369  0.37315206  0.36089976  1
  Al  Al125  1  0.75229674  0.35977451  0.86791365  1
  Al  Al126  1  0.75405172  0.87092436  0.36135611  1
  Al  Al127  1  0.75915169  0.86637626  0.86740834  1
  Al  Al128  1  0.13691709  0.25326610  0.13679251  1
  Al  Al129  1  0.13702887  0.25087263  0.63157955  1
  Al  Al130  1  0.12856258  0.74979088  0.13854001  1
  Al  Al131  1  0.13299862  0.75386937  0.63139080  1
  Al  Al132  1  0.64040024  0.24784287  0.13644104  1
  Al  Al133  1  0.63641270  0.24940066  0.62884242  1
  Al  Al134  1  0.64154838  0.75056452  0.13715130  1
  Al  Al135  1  0.63546135  0.75236678  0.63604899  1
  Al  Al136  1  0.13413194  0.25385775  0.36836107  1
  Al  Al137  1  0.13668377  0.24529914  0.86313849  1
  Al  Al138  1  0.13281788  0.75010826  0.36819557  1
  Al  Al139  1  0.12931872  0.75424275  0.86298579  1
  Al  Al140  1  0.64169953  0.25140862  0.36934362  1
  Al  Al141  1  0.63126368  0.24918562  0.86702436  1
  Al  Al142  1  0.63980611  0.75135728  0.36063170  1
  Al  Al143  1  0.63716256  0.75101768  0.86481084  1
  Al  Al144  1  0.36100442  0.25087768  0.13531248  1
  Al  Al145  1  0.36109941  0.24688917  0.62941110  1
  Al  Al146  1  0.36027623  0.75074314  0.13802902  1
  Al  Al147  1  0.35946348  0.75595482  0.63128446  1
  Al  Al148  1  0.86409067  0.25463690  0.13246472  1
  Al  Al149  1  0.86590715  0.24632030  0.63271452  1
  Al  Al150  1  0.87125961  0.74927180  0.13550912  1
  Al  Al151  1  0.87260017  0.75297196  0.63641213  1
  Al  Al152  1  0.36244544  0.25031286  0.36896462  1
  Al  Al153  1  0.36942967  0.24814473  0.86157403  1
  Al  Al154  1  0.36038703  0.75433532  0.36545334  1
  Al  Al155  1  0.36128434  0.75030155  0.86199501  1
  Al  Al156  1  0.86362406  0.25095731  0.36207747  1
  Al  Al157  1  0.86674964  0.24571846  0.87035848  1
  Al  Al158  1  0.86796100  0.74675726  0.35943656  1
  Al  Al159  1  0.86965140  0.75113746  0.87169644  1
  Al  Al160  1  0.13444087  0.13150109  0.25063890  1
  Al  Al161  1  0.13671900  0.12729647  0.75071237  1
  Al  Al162  1  0.12652779  0.63613309  0.25330566  1
  Al  Al163  1  0.13003192  0.64000856  0.74896949  1
  Al  Al164  1  0.64192412  0.13399034  0.25144755  1
  Al  Al165  1  0.63734471  0.13839958  0.75323971  1
  Al  Al166  1  0.63881988  0.63033882  0.24851177  1
  Al  Al167  1  0.63942442  0.63656293  0.74818409  1
  Al  Al168  1  0.36023551  0.13099925  0.25266009  1
  Al  Al169  1  0.36281409  0.13118568  0.75068175  1
  Al  Al170  1  0.36479654  0.63790214  0.25185056  1
  Al  Al171  1  0.36164237  0.64042472  0.74430749  1
  Al  Al172  1  0.86410828  0.13046352  0.25104217  1
  Al  Al173  1  0.86568296  0.13571605  0.75437207  1
  Al  Al174  1  0.87014335  0.62996759  0.24835631  1
  Al  Al175  1  0.87470384  0.64054722  0.75017800  1
  Al  Al176  1  0.12884609  0.36376469  0.25214328  1
  Al  Al177  1  0.13710937  0.36043375  0.74841761  1
  Al  Al178  1  0.13378854  0.87000301  0.25040976  1
  Al  Al179  1  0.13028978  0.87044179  0.74701990  1
  Al  Al180  1  0.63799431  0.36562281  0.25114456  1
  Al  Al181  1  0.63749687  0.36242567  0.74996830  1
  Al  Al182  1  0.64032881  0.86659228  0.24726578  1
  Al  Al183  1  0.63614938  0.86409697  0.75370504  1
  Al  Al184  1  0.36313121  0.36367070  0.24970951  1
  Al  Al185  1  0.36429232  0.35954345  0.74555443  1
  Al  Al186  1  0.35779853  0.87276201  0.25306522  1
  Al  Al187  1  0.36190900  0.87106405  0.74936467  1
  Al  Al188  1  0.86878337  0.36762722  0.25020062  1
  Al  Al189  1  0.86564737  0.36173618  0.74714333  1
  Al  Al190  1  0.86893414  0.86957182  0.24808985  1
  Al  Al191  1  0.87151972  0.86427385  0.75353401  1
  Al  Al192  1  0.18831137  0.32126818  0.00052376  1
  Al  Al193  1  0.00160169  0.18180912  0.68961033  1
  Al  Al194  1  0.67868708  0.00324861  0.67643309  1
  Al  Al195  1  0.67342073  0.50081365  0.82883408  1
  Al  Al196  1  0.68223750  0.00099670  0.18027484  1
  Al  Al197  1  0.31892226  0.81798807  -0.00145359  1
  Al  Al198  1  0.31066032  0.68558372  0.49907621  1
  Al  Al199  1  -0.00110705  0.17970544  0.17416094  1
  Al  Al200  1  0.50160799  0.33000884  0.67701227  1
  Al  Al201  1  0.49785561  0.82959732  0.82862506  1
  Al  Al202  1  0.49982216  0.17330473  0.18022192  1
  Al  Al203  1  0.18066070  0.49992620  0.16988638  1
  Al  Al204  1  0.50137272  0.67162245  0.17142734  1
  Al  Al205  1  0.17177168  0.49965050  0.67216483  1
  Al  Al206  1  0.00071836  0.81996878  0.31553478  1
  Al  Al207  1  0.16859887  0.17051980  0.00040864  1
  Al  Al208  1  0.81979881  0.31234230  0.49653399  1
  Al  Al209  1  0.49785494  0.82972234  0.16856566  1
  Al  Al210  1  0.16745020  0.50062904  0.33228612  1
  Al  Al211  1  0.16713663  0.82973910  0.00123265  1
  Al  Al212  1  -0.00035458  0.18412930  0.32668623  1
  Al  Al213  1  0.50120384  0.67370049  0.81966832  1
  Al  Al214  1  0.49591299  0.82279034  0.66867889  1
  Al  Al215  1  0.68742421  0.82511871  -0.00042461  1
  Al  Al216  1  0.50164515  0.32680310  0.32664886  1
  Al  Al217  1  0.67927489  0.49930300  0.67286328  1
  Al  Al218  1  0.69160782  0.00067470  0.82603244  1
  Al  Al219  1  0.31926713  0.18944192  -0.00155482  1
  Al  Al220  1  0.82036377  0.82762376  0.49892398  1
  Al  Al221  1  0.32357710  0.50035971  0.67309069  1
  Al  Al222  1  0.67577663  0.68098153  0.49887934  1
  Al  Al223  1  0.17596912  0.17495192  0.50028803  1
  Al  Al224  1  0.49691862  0.82981610  0.32972109  1
  Al  Al225  1  0.18150092  0.67856918  0.00142099  1
  Al  Al226  1  0.32656767  0.50083655  0.31339766  1
  Al  Al227  1  0.33230515  0.50090109  0.82787836  1
  Al  Al228  1  0.50118655  0.17496497  0.32953638  1
  Al  Al229  1  0.00031858  0.30795479  0.81727012  1
  Al  Al230  1  0.82885053  0.49987327  0.81877350  1
  Al  Al231  1  0.50086956  0.32853074  0.17333788  1
  Al  Al232  1  0.82900863  0.00042873  0.68647374  1
  Al  Al233  1  0.68205958  0.67308120  0.00171553  1
  Al  Al234  1  0.50415633  0.67012973  0.32750624  1
  Al  Al235  1  0.49909128  0.17438970  0.67894599  1
  Al  Al236  1  0.82641871  0.66791238  0.49695057  1
  Al  Al237  1  0.16723103  0.49857630  0.82989112  1
  Al  Al238  1  0.67810210  0.32682860  0.00129275  1
  Au  Au239  1  0.82586093  0.49552731  0.65451815  1
  Au  Au240  1  0.16039030  -0.00011806  0.16748013  1
  Au  Au241  1  0.17527309  -0.00125053  0.66495877  1
  Au  Au242  1  0.67083991  0.83129256  0.49866127  1
  Au  Au243  1  0.50785765  0.65849572  0.33071127  1
  Au  Au244  1  0.83191380  0.49831176  0.32255353  1
  Au  Au245  1  0.50112945  0.33016310  0.83803303  1
  Au  Au246  1  0.49647646  0.83337862  0.34500428  1
  Au  Au247  1  0.49479355  0.83199094  0.84060784  1
  Au  Au248  1  0.17434858  0.00095923  0.83377885  1
  Au  Au249  1  0.50230159  0.65855047  0.67102072  1
  Au  Au250  1  0.67116462  0.00527468  0.33397245  1
  Au  Au251  1  0.00010527  0.82055701  0.32822128  1
  Au  Au252  1  0.84031122  0.16099694  0.00028899  1
  Au  Au253  1  0.66619272  0.00405686  0.66572876  1
  Au  Au254  1  0.17517495  0.50014865  0.15436940  1
  Au  Au255  1  0.83184997  0.67366002  0.00502128  1
  Au  Au256  1  0.15660927  0.49639490  0.33690782  1
  Au  Au257  1  -0.00053675  0.67355645  0.17726830  1
  Au  Au258  1  0.33697126  0.16691122  0.50223495  1
  Au  Au259  1  0.32332174  0.33761538  0.49999424  1
  Au  Au260  1  -0.00106182  0.32916031  0.17673956  1
  Au  Au261  1  0.00139220  0.32960968  0.66997951  1
  Au  Au262  1  0.33058743  0.66869470  0.00465632  1
  Au  Au263  1  0.83846013  0.00206993  0.32845614  1
  Au  Au264  1  0.67934784  0.00065162  0.16777507  1
  Au  Au265  1  0.16504061  -0.00082334  0.33645997  1
  Au  Au266  1  0.67530130  0.82947462  -0.00047815  1
  Au  Au267  1  0.49697059  0.82414315  0.15259535  1
  Au  Au268  1  0.16361345  0.17758780  0.49888572  1
  Au  Au269  1  -0.00006855  0.83431845  0.66193777  1
  Au  Au270  1  0.00484973  0.66488354  0.66708937  1
  Au  Au271  1  0.50034594  0.32678875  0.66471456  1
  Au  Au272  1  0.49590621  0.83525119  0.67058483  1
  Au  Au273  1  0.66784531  0.16985424  -0.00347754  1
  Au  Au274  1  0.00035057  0.67143618  0.83683990  1
  Au  Au275  1  0.67377098  0.32626462  0.49790803  1
  Au  Au276  1  0.49736526  0.15777158  0.82744512  1
  Au  Au277  1  0.33257456  0.00192775  0.33479747  1
  Au  Au278  1  0.83334331  0.33490160  0.00310740  1
  Au  Au279  1  0.84113284  0.67572439  0.49580672  1
  Au  Au280  1  -0.00313771  0.83832910  0.83574427  1
  Au  Au281  1  0.34863589  0.49975747  0.82431460  1
  Au  Au282  1  0.49579763  0.17240124  0.16370272  1
  Au  Au283  1  0.67382804  0.33741996  0.00586138  1
  Au  Au284  1  0.32936767  -0.00010410  0.16376785  1
  Au  Au285  1  0.82805359  0.49581036  0.83520834  1
  Au  Au286  1  0.33764455  0.49880048  0.32543272  1
  Au  Au287  1  0.15094192  0.49744622  0.82620254  1
