# generated using pymatgen
data_Ca24Ti8Al207Au49
_symmetry_space_group_name_H-M   'P 1'
_cell_length_a   17.32458897
_cell_length_b   17.32543448
_cell_length_c   17.32505075
_cell_angle_alpha   89.99647818
_cell_angle_beta   90.00133693
_cell_angle_gamma   89.99778687
_symmetry_Int_Tables_number   1
_chemical_formula_structural   Ca24Ti8Al207Au49
_chemical_formula_sum   'Ca24 Ti8 Al207 Au49'
_cell_volume   5200.21845669
_cell_formula_units_Z   1
loop_
 _symmetry_equiv_pos_site_id
 _symmetry_equiv_pos_as_xyz
  1  'x, y, z'
loop_
 _atom_site_type_symbol
 _atom_site_label
 _atom_site_symmetry_multiplicity
 _atom_site_fract_x
 _atom_site_fract_y
 _atom_site_fract_z
 _atom_site_occupancy
  Ca  Ca0  1  0.25032937  0.00053855  -0.00469364  1
  Ca  Ca1  1  0.24832938  0.00127043  0.50061801  1
  Ca  Ca2  1  0.25535048  0.49900837  -0.00035793  1
  Ca  Ca3  1  0.25039600  0.50278544  0.49889607  1
  Ca  Ca4  1  0.75189368  0.00147766  0.00491164  1
  Ca  Ca5  1  0.75593494  -0.00268858  0.49400131  1
  Ca  Ca6  1  0.75235875  0.49917797  0.00524773  1
  Ca  Ca7  1  0.75109910  0.50400689  0.49765345  1
  Ca  Ca8  1  -0.00104712  0.24860291  0.00120631  1
  Ca  Ca9  1  -0.00297247  0.25264084  0.49733377  1
  Ca  Ca10  1  -0.00232031  0.75016483  -0.00112796  1
  Ca  Ca11  1  -0.00058390  0.74586712  0.49945789  1
  Ca  Ca12  1  0.49952477  0.25326361  0.00420235  1
  Ca  Ca13  1  0.50086377  0.25191047  0.49638801  1
  Ca  Ca14  1  0.50124518  0.74540385  0.00027739  1
  Ca  Ca15  1  0.49777660  0.74191977  0.49995304  1
  Ca  Ca16  1  -0.00714237  0.00033277  0.24958027  1
  Ca  Ca17  1  -0.00389668  -0.00081637  0.75191813  1
  Ca  Ca18  1  -0.00314017  0.49793913  0.25190585  1
  Ca  Ca19  1  0.00421371  0.50143970  0.75104685  1
  Ca  Ca20  1  0.50569208  0.00172835  0.24827984  1
  Ca  Ca21  1  0.49998887  -0.00281725  0.75306062  1
  Ca  Ca22  1  0.49761260  0.49939183  0.25230065  1
  Ca  Ca23  1  0.49622437  0.50421558  0.75406878  1
  Ti  Ti24  1  0.25139764  0.25024367  0.24933423  1
  Ti  Ti25  1  0.25057979  0.25129352  0.75053585  1
  Ti  Ti26  1  0.25013120  0.74895155  0.25097046  1
  Ti  Ti27  1  0.24861868  0.74927351  0.75071764  1
  Ti  Ti28  1  0.74932799  0.25019669  0.25055378  1
  Ti  Ti29  1  0.75046459  0.25086014  0.75044305  1
  Ti  Ti30  1  0.74976255  0.74922522  0.25095567  1
  Ti  Ti31  1  0.75132243  0.74840161  0.75063567  1
  Al  Al32  1  0.07590087  0.08040697  0.07993663  1
  Al  Al33  1  0.08210138  0.07658671  0.58253247  1
  Al  Al34  1  0.07748399  0.58003829  0.08587140  1
  Al  Al35  1  0.08379462  0.59064232  0.58162214  1
  Al  Al36  1  0.59834496  0.08702421  0.08781984  1
  Al  Al37  1  0.57684543  0.07491557  0.57268884  1
  Al  Al38  1  0.58556805  0.57806481  0.08303880  1
  Al  Al39  1  0.57497623  0.59372506  0.58264343  1
  Al  Al40  1  0.40499819  0.41292186  0.08412617  1
  Al  Al41  1  0.41574430  0.43002298  0.58450065  1
  Al  Al42  1  0.42874302  0.92134766  0.07534532  1
  Al  Al43  1  0.42041959  0.91251840  0.58516698  1
  Al  Al44  1  0.91090295  0.42002384  0.08997139  1
  Al  Al45  1  0.92514068  0.41665859  0.57337257  1
  Al  Al46  1  0.90900514  0.92082445  0.08593233  1
  Al  Al47  1  0.91547778  0.91478444  0.58467880  1
  Al  Al48  1  0.42791836  0.09219054  0.41288026  1
  Al  Al49  1  0.42070631  0.08622478  0.92137637  1
  Al  Al50  1  0.41405972  0.58652284  0.40812933  1
  Al  Al51  1  0.41273297  0.58315493  0.90547486  1
  Al  Al52  1  0.91374926  0.08271993  0.40238948  1
  Al  Al53  1  0.91084193  0.07827221  0.91215250  1
  Al  Al54  1  0.90567176  0.58035903  0.41334511  1
  Al  Al55  1  0.92214389  0.58418793  0.92344259  1
  Al  Al56  1  0.07767050  0.41549153  0.41280297  1
  Al  Al57  1  0.08617843  0.41787024  0.91623965  1
  Al  Al58  1  0.07823973  0.91507523  0.42222721  1
  Al  Al59  1  0.07203907  0.91094167  0.90977733  1
  Al  Al60  1  0.58037977  0.41771200  0.41245928  1
  Al  Al61  1  0.57591659  0.42081281  0.92405124  1
  Al  Al62  1  0.59199730  0.92263896  0.41497199  1
  Al  Al63  1  0.58270722  0.91796536  0.92103026  1
  Al  Al64  1  0.07314403  0.09092962  0.41494577  1
  Al  Al65  1  0.07475009  0.07788408  0.91842097  1
  Al  Al66  1  0.08725251  0.58090293  0.42196840  1
  Al  Al67  1  0.08484574  0.58208822  0.91317905  1
  Al  Al68  1  0.58590750  0.08494418  0.40167659  1
  Al  Al69  1  0.58470091  0.09225572  0.92751254  1
  Al  Al70  1  0.57971271  0.58727951  0.41126042  1
  Al  Al71  1  0.57352743  0.59388949  0.91073683  1
  Al  Al72  1  0.41503047  0.42409129  0.40664560  1
  Al  Al73  1  0.40534115  0.41918032  0.91895669  1
  Al  Al74  1  0.42664503  0.92103879  0.42561241  1
  Al  Al75  1  0.42144743  0.91841857  0.91678063  1
  Al  Al76  1  0.91536060  0.41738246  0.40221672  1
  Al  Al77  1  0.92226747  0.41556026  0.92611456  1
  Al  Al78  1  0.90996885  0.92115627  0.41101583  1
  Al  Al79  1  0.91107705  0.91564173  0.90781469  1
  Al  Al80  1  0.08230489  0.41631251  0.08279692  1
  Al  Al81  1  0.08146436  0.41943178  0.57879499  1
  Al  Al82  1  0.07484895  0.91899052  0.07729922  1
  Al  Al83  1  0.08300226  0.91502466  0.58520118  1
  Al  Al84  1  0.58164038  0.42084879  0.08734735  1
  Al  Al85  1  0.57738967  0.41923641  0.57069232  1
  Al  Al86  1  0.59028453  0.92525600  0.09075749  1
  Al  Al87  1  0.57748029  0.90970122  0.57660569  1
  Al  Al88  1  0.42602498  0.08741375  0.07933955  1
  Al  Al89  1  0.41724755  0.07749605  0.57818122  1
  Al  Al90  1  0.41231836  0.57434906  0.08575965  1
  Al  Al91  1  0.41408024  0.58932092  0.59311288  1
  Al  Al92  1  0.90542203  0.07937961  0.09056753  1
  Al  Al93  1  0.91787749  0.07480298  0.58229635  1
  Al  Al94  1  0.91225192  0.58174883  0.09154225  1
  Al  Al95  1  0.92056899  0.59384695  0.57339459  1
  Al  Al96  1  0.25241335  0.13422995  0.13828696  1
  Al  Al97  1  0.25246528  0.13648332  0.63172249  1
  Al  Al98  1  0.25274390  0.63258198  0.13835644  1
  Al  Al99  1  0.24684154  0.63504998  0.63654975  1
  Al  Al100  1  0.74886331  0.13350146  0.13283719  1
  Al  Al101  1  0.75077675  0.13622443  0.63330435  1
  Al  Al102  1  0.75092016  0.63353778  0.13799367  1
  Al  Al103  1  0.75176684  0.63555557  0.62977390  1
  Al  Al104  1  0.25512363  0.36438806  0.13055812  1
  Al  Al105  1  0.24848883  0.36612219  0.63624636  1
  Al  Al106  1  0.24832076  0.86539816  0.13702593  1
  Al  Al107  1  0.24975918  0.86195949  0.63798999  1
  Al  Al108  1  0.75119528  0.36351449  0.13778813  1
  Al  Al109  1  0.75272840  0.36788782  0.63643343  1
  Al  Al110  1  0.74766374  0.87135447  0.13796880  1
  Al  Al111  1  0.75258414  0.85867378  0.63644065  1
  Al  Al112  1  0.24727829  0.13765989  0.36838481  1
  Al  Al113  1  0.25255026  0.13154234  0.86304339  1
  Al  Al114  1  0.25210030  0.63342477  0.36475798  1
  Al  Al115  1  0.25077503  0.62929861  0.86248492  1
  Al  Al116  1  0.75502292  0.13310402  0.36585205  1
  Al  Al117  1  0.75253747  0.13798916  0.87241867  1
  Al  Al118  1  0.75004592  0.62975082  0.36814403  1
  Al  Al119  1  0.74764582  0.63026174  0.86244380  1
  Al  Al120  1  0.25411200  0.36379897  0.36266079  1
  Al  Al121  1  0.25385700  0.37031601  0.86851458  1
  Al  Al122  1  0.24734146  0.86416766  0.36304446  1
  Al  Al123  1  0.24963962  0.86914328  0.85933142  1
  Al  Al124  1  0.75179968  0.37370475  0.36090894  1
  Al  Al125  1  0.74601608  0.36967688  0.86367241  1
  Al  Al126  1  0.75194209  0.86357151  0.36374693  1
  Al  Al127  1  0.75120133  0.86646953  0.86306516  1
  Al  Al128  1  0.13583460  0.25519753  0.13545541  1
  Al  Al129  1  0.13623234  0.24776001  0.63666343  1
  Al  Al130  1  0.13563764  0.74788822  0.13644952  1
  Al  Al131  1  0.13393604  0.74873589  0.63464644  1
  Al  Al132  1  0.63131925  0.24555528  0.13649497  1
  Al  Al133  1  0.63560286  0.25348872  0.63396156  1
  Al  Al134  1  0.63816995  0.74885033  0.13212465  1
  Al  Al135  1  0.63533738  0.74388833  0.63473188  1
  Al  Al136  1  0.13402052  0.25107597  0.36257539  1
  Al  Al137  1  0.13772916  0.25692809  0.86478700  1
  Al  Al138  1  0.13286660  0.74562661  0.36789719  1
  Al  Al139  1  0.13134515  0.74698167  0.86318613  1
  Al  Al140  1  0.63585150  0.24661133  0.36125731  1
  Al  Al141  1  0.63713668  0.25076124  0.86827516  1
  Al  Al142  1  0.63640909  0.74447216  0.36423890  1
  Al  Al143  1  0.63944430  0.74781012  0.87186965  1
  Al  Al144  1  0.37154773  0.25246359  0.13799179  1
  Al  Al145  1  0.36491391  0.25429118  0.63543690  1
  Al  Al146  1  0.36398897  0.74660876  0.13664105  1
  Al  Al147  1  0.36451576  0.74475193  0.63791026  1
  Al  Al148  1  0.86477640  0.24659816  0.13861221  1
  Al  Al149  1  0.86362823  0.25030410  0.63058110  1
  Al  Al150  1  0.86084896  0.75198942  0.13785547  1
  Al  Al151  1  0.86718007  0.74977451  0.63555196  1
  Al  Al152  1  0.36566266  0.24710271  0.36385236  1
  Al  Al153  1  0.36286190  0.25495482  0.86603367  1
  Al  Al154  1  0.36796286  0.74423812  0.36335970  1
  Al  Al155  1  0.36398932  0.74562800  0.86349651  1
  Al  Al156  1  0.86176247  0.25354993  0.36782037  1
  Al  Al157  1  0.86377210  0.24965032  0.86525308  1
  Al  Al158  1  0.86687402  0.74531373  0.36334557  1
  Al  Al159  1  0.86998093  0.75187376  0.86537768  1
  Al  Al160  1  0.13676589  0.13261977  0.24970517  1
  Al  Al161  1  0.13648767  0.13591267  0.75288587  1
  Al  Al162  1  0.13573788  0.63493375  0.25238126  1
  Al  Al163  1  0.13485491  0.62863208  0.75274854  1
  Al  Al164  1  0.63520491  0.13243066  0.24803057  1
  Al  Al165  1  0.63742489  0.13788497  0.75351835  1
  Al  Al166  1  0.63410074  0.63320884  0.25328689  1
  Al  Al167  1  0.63195458  0.63652508  0.75083695  1
  Al  Al168  1  0.37281818  0.13470932  0.24818556  1
  Al  Al169  1  0.36373257  0.13032741  0.74949966  1
  Al  Al170  1  0.36518578  0.62971615  0.25332577  1
  Al  Al171  1  0.36810248  0.63540088  0.75214680  1
  Al  Al172  1  0.85904700  0.12874893  0.24910332  1
  Al  Al173  1  0.86226833  0.13536362  0.75269194  1
  Al  Al174  1  0.86127068  0.62825638  0.25307676  1
  Al  Al175  1  0.86512303  0.63521832  0.75488138  1
  Al  Al176  1  0.13292993  0.36553030  0.25217273  1
  Al  Al177  1  0.13872113  0.37212734  0.75311228  1
  Al  Al178  1  0.13483523  0.86774732  0.25081649  1
  Al  Al179  1  0.12829207  0.86205183  0.75125003  1
  Al  Al180  1  0.63415027  0.36516234  0.25005868  1
  Al  Al181  1  0.62906116  0.36418373  0.75263572  1
  Al  Al182  1  0.63647636  0.86512672  0.24998607  1
  Al  Al183  1  0.63545545  0.86008647  0.75070795  1
  Al  Al184  1  0.36355183  0.37002984  0.24749029  1
  Al  Al185  1  0.36878775  0.36613912  0.75369011  1
  Al  Al186  1  0.36570855  0.86425070  0.25066028  1
  Al  Al187  1  0.36520598  0.86867691  0.75078827  1
  Al  Al188  1  0.86540875  0.36780103  0.25344909  1
  Al  Al189  1  0.86385672  0.36686619  0.75436740  1
  Al  Al190  1  0.86106766  0.87073161  0.24944203  1
  Al  Al191  1  0.86971274  0.86290443  0.75341152  1
  Al  Al192  1  -0.00134548  0.17015230  0.67289198  1
  Al  Al193  1  0.82444817  0.31641059  0.00188163  1
  Al  Al194  1  0.68912239  -0.00040745  0.31215919  1
  Al  Al195  1  0.32414578  -0.00147821  0.16702735  1
  Al  Al196  1  0.83456650  0.50368446  0.67565633  1
  Al  Al197  1  0.82500313  -0.00145337  0.68648831  1
  Al  Al198  1  0.50125584  0.80989299  0.82963940  1
  Al  Al199  1  0.31682841  0.67126442  0.50051692  1
  Al  Al200  1  0.68457417  0.00430396  0.82897842  1
  Al  Al201  1  0.82847152  0.81852534  0.49861488  1
  Al  Al202  1  0.66993417  0.32075009  0.00357821  1
  Al  Al203  1  0.67399750  0.17330110  0.49735036  1
  Al  Al204  1  0.82107329  0.67384093  0.00078048  1
  Al  Al205  1  0.49883576  0.66809731  0.18459233  1
  Al  Al206  1  -0.00379620  0.82165669  0.32041241  1
  Al  Al207  1  0.17949094  -0.00040584  0.67936093  1
  Al  Al208  1  0.68627929  0.49929769  0.18240272  1
  Al  Al209  1  -0.00257152  0.67957340  0.18240175  1
  Al  Al210  1  0.67079653  -0.00511374  0.67060177  1
  Al  Al211  1  0.17267130  0.32096804  0.49839033  1
  Al  Al212  1  0.33051878  0.32745879  0.49935815  1
  Al  Al213  1  0.17127893  0.17917785  -0.00125810  1
  Al  Al214  1  0.00072169  0.68213875  0.68287165  1
  Al  Al215  1  0.82117320  0.82782983  -0.00038036  1
  Al  Al216  1  0.32923801  0.82378411  0.49907690  1
  Al  Al217  1  0.50259414  0.81455747  0.33176008  1
  Al  Al218  1  0.50114629  0.17511363  0.67132584  1
  Al  Al219  1  -0.00321835  0.19249658  0.31594979  1
  Al  Al220  1  0.50006908  0.18176526  0.82866841  1
  Al  Al221  1  0.32303152  0.67010884  -0.00058522  1
  Al  Al222  1  0.31789631  0.50087601  0.69053944  1
  Al  Al223  1  -0.00474114  0.32037393  0.18221288  1
  Al  Al224  1  0.49929895  0.31611238  0.32089271  1
  Al  Al225  1  0.17745943  0.81507255  0.50035454  1
  Al  Al226  1  0.67595550  0.81863937  0.49909838  1
  Al  Al227  1  0.66897496  0.50063787  0.67601344  1
  Al  Al228  1  0.00135999  0.32416498  0.68112225  1
  Al  Al229  1  0.32156818  0.00169173  0.32976387  1
  Al  Al230  1  0.32770140  0.18623843  0.00156631  1
  Al  Al231  1  0.18488071  0.49822597  0.32848931  1
  Al  Al232  1  0.32998274  0.82469168  -0.00025620  1
  Al  Al233  1  0.50128407  0.82446856  0.17402994  1
  Al  Al234  1  0.18222381  0.49818364  0.17374094  1
  Al  Al235  1  0.17427795  0.82039495  -0.00205367  1
  Al  Al236  1  0.00001036  0.18004024  0.82588872  1
  Al  Al237  1  0.68161575  0.32812630  0.49683366  1
  Al  Al238  1  0.50042172  0.81132041  0.67372231  1
  Au  Au239  1  0.83227249  0.49830217  0.84367088  1
  Au  Au240  1  0.66303950  0.50247858  0.83805135  1
  Au  Au241  1  -0.00205509  0.83100481  0.32861930  1
  Au  Au242  1  -0.00276061  0.16360569  0.17286971  1
  Au  Au243  1  0.17296156  0.82715812  0.50029960  1
  Au  Au244  1  0.67552671  0.33217837  0.00167584  1
  Au  Au245  1  0.50146021  0.82606476  0.82373149  1
  Au  Au246  1  0.17417103  0.83680877  -0.00620427  1
  Au  Au247  1  0.67145243  0.50069522  0.32884783  1
  Au  Au248  1  -0.00000274  0.65703210  0.33089201  1
  Au  Au249  1  0.33661760  0.17177720  0.49800500  1
  Au  Au250  1  0.67012950  0.67070851  0.49772370  1
  Au  Au251  1  0.67683351  -0.00855540  0.65484242  1
  Au  Au252  1  0.49650060  0.33838024  0.17442106  1
  Au  Au253  1  -0.00089323  0.32945298  0.83114289  1
  Au  Au254  1  -0.00464371  0.82735454  0.16319097  1
  Au  Au255  1  0.50502465  0.16524522  0.17578093  1
  Au  Au256  1  0.18024431  0.49897485  0.83031205  1
  Au  Au257  1  0.83696636  0.16291093  0.49914466  1
  Au  Au258  1  0.16060743  0.17189276  0.50182527  1
  Au  Au259  1  0.17207689  0.50168367  0.66015781  1
  Au  Au260  1  0.17077400  0.50030690  0.17932002  1
  Au  Au261  1  0.82994846  0.33956423  0.49479563  1
  Au  Au262  1  0.15826277  0.00275560  0.33469919  1
  Au  Au263  1  0.32710800  0.33988789  0.49945131  1
  Au  Au264  1  -0.00135339  0.83147859  0.67554423  1
  Au  Au265  1  0.84733824  0.50345076  0.66560849  1
  Au  Au266  1  0.16037050  -0.00146555  0.16919747  1
  Au  Au267  1  0.32683215  -0.00419643  0.66242617  1
  Au  Au268  1  0.67193666  0.83591537  0.00604794  1
  Au  Au269  1  0.17680192  0.16316126  -0.00135572  1
  Au  Au270  1  0.15705414  -0.00177446  0.82451548  1
  Au  Au271  1  0.65695116  0.50105710  0.66517410  1
  Au  Au272  1  0.17284808  0.65877870  0.00328057  1
  Au  Au273  1  0.33466208  -0.00166076  0.16039407  1
  Au  Au274  1  0.49464347  0.33178992  0.83936031  1
  Au  Au275  1  0.82818050  0.16561608  0.00043614  1
  Au  Au276  1  0.67175478  0.66314205  -0.00141397  1
  Au  Au277  1  0.33698546  0.00149456  0.33661357  1
  Au  Au278  1  0.49888798  0.33838152  0.66633448  1
  Au  Au279  1  -0.00089541  0.67400722  0.83235119  1
  Au  Au280  1  -0.00206672  0.32918261  0.17332334  1
  Au  Au281  1  0.66149496  0.17142101  0.50003800  1
  Au  Au282  1  0.50126746  0.15920400  0.67782322  1
  Au  Au283  1  0.49829430  0.66590684  0.16821135  1
  Au  Au284  1  0.33279314  0.00336762  0.83606966  1
  Au  Au285  1  0.17920760  0.33823155  0.00047280  1
  Au  Au286  1  0.50307855  0.83151800  0.33236673  1
  Au  Au287  1  0.67512715  0.00763134  0.84264866  1
