# generated using pymatgen
data_Ca24Ti8Al207Au49
_symmetry_space_group_name_H-M   'P 1'
_cell_length_a   17.32006423
_cell_length_b   17.31983143
_cell_length_c   17.32222417
_cell_angle_alpha   89.99960194
_cell_angle_beta   89.99849244
_cell_angle_gamma   89.99955223
_symmetry_Int_Tables_number   1
_chemical_formula_structural   Ca24Ti8Al207Au49
_chemical_formula_sum   'Ca24 Ti8 Al207 Au49'
_cell_volume   5196.33107309
_cell_formula_units_Z   1
loop_
 _symmetry_equiv_pos_site_id
 _symmetry_equiv_pos_as_xyz
  1  'x, y, z'
loop_
 _atom_site_type_symbol
 _atom_site_label
 _atom_site_symmetry_multiplicity
 _atom_site_fract_x
 _atom_site_fract_y
 _atom_site_fract_z
 _atom_site_occupancy
  Ca  Ca0  1  0.24903369  0.00370333  -0.00289674  1
  Ca  Ca1  1  0.24171343  0.00401713  0.50503665  1
  Ca  Ca2  1  0.24486939  0.49614620  0.00455660  1
  Ca  Ca3  1  0.24265120  0.49846083  0.49689938  1
  Ca  Ca4  1  0.74929838  0.00613642  0.00323062  1
  Ca  Ca5  1  0.75207174  0.00421195  0.49939986  1
  Ca  Ca6  1  0.75041090  0.49658320  -0.00010583  1
  Ca  Ca7  1  0.75334100  0.49512577  0.49815241  1
  Ca  Ca8  1  -0.00083843  0.24738712  0.00031008  1
  Ca  Ca9  1  -0.00008838  0.25086027  0.49888231  1
  Ca  Ca10  1  0.00060695  0.75283770  -0.00159529  1
  Ca  Ca11  1  -0.00054115  0.75032041  0.50075607  1
  Ca  Ca12  1  0.50249092  0.24966148  0.00234791  1
  Ca  Ca13  1  0.49983967  0.24589586  0.49398919  1
  Ca  Ca14  1  0.50558680  0.74866077  -0.00168022  1
  Ca  Ca15  1  0.49820910  0.75326144  0.49923188  1
  Ca  Ca16  1  0.00108359  0.00579635  0.25140967  1
  Ca  Ca17  1  0.00457572  -0.00089947  0.74539597  1
  Ca  Ca18  1  -0.00009708  0.49455899  0.25418762  1
  Ca  Ca19  1  -0.00632420  0.50111151  0.74527780  1
  Ca  Ca20  1  0.49633448  -0.00026133  0.25001820  1
  Ca  Ca21  1  0.49783766  -0.00107007  0.75178597  1
  Ca  Ca22  1  0.50063699  0.49924375  0.24947284  1
  Ca  Ca23  1  0.50396597  0.49743738  0.75011858  1
  Ti  Ti24  1  0.24661826  0.24953781  0.24958048  1
  Ti  Ti25  1  0.24865498  0.24755196  0.75072615  1
  Ti  Ti26  1  0.24949431  0.75165876  0.24907107  1
  Ti  Ti27  1  0.24855447  0.75348806  0.75031166  1
  Ti  Ti28  1  0.75360243  0.25060365  0.24920297  1
  Ti  Ti29  1  0.75184762  0.25270260  0.75141339  1
  Ti  Ti30  1  0.75034257  0.75121774  0.24950272  1
  Ti  Ti31  1  0.75172056  0.74891698  0.75086757  1
  Al  Al32  1  0.09440124  0.08752034  0.08738017  1
  Al  Al33  1  0.08714455  0.09130395  0.58801962  1
  Al  Al34  1  0.07968909  0.57493346  0.08099245  1
  Al  Al35  1  0.07537382  0.57572308  0.57740300  1
  Al  Al36  1  0.58215709  0.09339058  0.08122526  1
  Al  Al37  1  0.57761437  0.08640945  0.57625555  1
  Al  Al38  1  0.59004348  0.58670471  0.07916763  1
  Al  Al39  1  0.58076047  0.57578577  0.58674492  1
  Al  Al40  1  0.41810901  0.41367447  0.08405807  1
  Al  Al41  1  0.41957064  0.42095398  0.57054741  1
  Al  Al42  1  0.41268492  0.91379580  0.07766026  1
  Al  Al43  1  0.41150573  0.92550874  0.59305670  1
  Al  Al44  1  0.91574381  0.40395094  0.08677359  1
  Al  Al45  1  0.90680218  0.40845511  0.58431512  1
  Al  Al46  1  0.92230193  0.91896094  0.07712259  1
  Al  Al47  1  0.92893296  0.91363078  0.58557576  1
  Al  Al48  1  0.42120558  0.08489604  0.42478922  1
  Al  Al49  1  0.40596384  0.08634946  0.91943568  1
  Al  Al50  1  0.41470511  0.57788197  0.41366427  1
  Al  Al51  1  0.42140664  0.58007271  0.92636019  1
  Al  Al52  1  0.91751546  0.10024859  0.41594949  1
  Al  Al53  1  0.91247059  0.08461343  0.92364354  1
  Al  Al54  1  0.92465634  0.57456427  0.41613415  1
  Al  Al55  1  0.91492336  0.58074800  0.91439547  1
  Al  Al56  1  0.09071174  0.40980069  0.41339394  1
  Al  Al57  1  0.08330211  0.42029118  0.92488229  1
  Al  Al58  1  0.07727974  0.92771158  0.42419834  1
  Al  Al59  1  0.08660369  0.92031434  0.91502145  1
  Al  Al60  1  0.58670682  0.40529428  0.41664724  1
  Al  Al61  1  0.59690255  0.41771919  0.91790830  1
  Al  Al62  1  0.59297395  0.92149904  0.41143309  1
  Al  Al63  1  0.58700833  0.91009448  0.92441743  1
  Al  Al64  1  0.08234843  0.09858295  0.41713678  1
  Al  Al65  1  0.09419349  0.08317397  0.92395452  1
  Al  Al66  1  0.08538204  0.57498669  0.40855291  1
  Al  Al67  1  0.07780933  0.57952363  0.91658142  1
  Al  Al68  1  0.59303286  0.08269309  0.41202852  1
  Al  Al69  1  0.58465179  0.08921661  0.92431218  1
  Al  Al70  1  0.57384732  0.57433654  0.42064182  1
  Al  Al71  1  0.59977520  0.58181650  0.91813411  1
  Al  Al72  1  0.41820045  0.41375671  0.40929209  1
  Al  Al73  1  0.42133208  0.41660762  0.92829584  1
  Al  Al74  1  0.42716202  0.92182255  0.42382255  1
  Al  Al75  1  0.40696020  0.91690836  0.91956099  1
  Al  Al76  1  0.91200127  0.40624599  0.42120726  1
  Al  Al77  1  0.90774546  0.41655268  0.92324955  1
  Al  Al78  1  0.91762947  0.92351074  0.42042120  1
  Al  Al79  1  0.92080754  0.92011280  0.91823858  1
  Al  Al80  1  0.07863158  0.40725457  0.09032011  1
  Al  Al81  1  0.08257904  0.40319600  0.57578029  1
  Al  Al82  1  0.09358038  0.92479507  0.08906017  1
  Al  Al83  1  0.08929631  0.92247240  0.59618827  1
  Al  Al84  1  0.58856525  0.41507852  0.07841230  1
  Al  Al85  1  0.59962519  0.41237773  0.57484858  1
  Al  Al86  1  0.58885774  0.90875160  0.07999268  1
  Al  Al87  1  0.57757336  0.91966821  0.57332193  1
  Al  Al88  1  0.41598601  0.09105592  0.08039672  1
  Al  Al89  1  0.40847330  0.08358351  0.59081676  1
  Al  Al90  1  0.42129879  0.58099394  0.08231288  1
  Al  Al91  1  0.42573719  0.58506518  0.57443994  1
  Al  Al92  1  0.91925703  0.09355930  0.07982901  1
  Al  Al93  1  0.92213725  0.09646742  0.57979594  1
  Al  Al94  1  0.91548923  0.57904033  0.08206705  1
  Al  Al95  1  0.91121568  0.57163319  0.59045245  1
  Al  Al96  1  0.24424054  0.13511229  0.13296750  1
  Al  Al97  1  0.24723129  0.13283216  0.63274204  1
  Al  Al98  1  0.25048614  0.63611049  0.13620992  1
  Al  Al99  1  0.24597719  0.63659830  0.63582158  1
  Al  Al100  1  0.75472167  0.13583444  0.13696484  1
  Al  Al101  1  0.75429952  0.13454929  0.63398840  1
  Al  Al102  1  0.74667559  0.63704807  0.13124164  1
  Al  Al103  1  0.75739556  0.63226185  0.63269500  1
  Al  Al104  1  0.24488573  0.35933744  0.12821716  1
  Al  Al105  1  0.24027631  0.36160099  0.62876758  1
  Al  Al106  1  0.25150845  0.86778130  0.13469884  1
  Al  Al107  1  0.24755894  0.87293619  0.64057341  1
  Al  Al108  1  0.75518003  0.36058201  0.12852367  1
  Al  Al109  1  0.75360399  0.36691589  0.63104788  1
  Al  Al110  1  0.74677038  0.86762827  0.13083168  1
  Al  Al111  1  0.74949108  0.86748902  0.64027985  1
  Al  Al112  1  0.24254620  0.14000500  0.37200329  1
  Al  Al113  1  0.25030583  0.13390373  0.86601051  1
  Al  Al114  1  0.24693223  0.63522413  0.36296449  1
  Al  Al115  1  0.25191803  0.63788108  0.86359169  1
  Al  Al116  1  0.75607126  0.13682117  0.36538066  1
  Al  Al117  1  0.75261781  0.13703825  0.86486460  1
  Al  Al118  1  0.75477094  0.63456859  0.36423550  1
  Al  Al119  1  0.74800761  0.62766690  0.86552241  1
  Al  Al120  1  0.24031950  0.36224924  0.36666115  1
  Al  Al121  1  0.24810405  0.35857559  0.87291246  1
  Al  Al122  1  0.24784919  0.87093236  0.36043409  1
  Al  Al123  1  0.25186052  0.86858867  0.86300351  1
  Al  Al124  1  0.75434478  0.36101484  0.36785680  1
  Al  Al125  1  0.75385385  0.36790972  0.87091745  1
  Al  Al126  1  0.75123742  0.87291077  0.36192502  1
  Al  Al127  1  0.74653216  0.86244397  0.86832550  1
  Al  Al128  1  0.13042110  0.24808037  0.13175668  1
  Al  Al129  1  0.13328284  0.24438625  0.62997370  1
  Al  Al130  1  0.13687619  0.75079192  0.13459400  1
  Al  Al131  1  0.13082366  0.75400029  0.63674375  1
  Al  Al132  1  0.63637211  0.25227117  0.13574321  1
  Al  Al133  1  0.64110935  0.25464472  0.63376919  1
  Al  Al134  1  0.63621461  0.75218088  0.13311270  1
  Al  Al135  1  0.63847149  0.74925799  0.63680193  1
  Al  Al136  1  0.12635715  0.24916343  0.36458812  1
  Al  Al137  1  0.13537772  0.24241024  0.87168686  1
  Al  Al138  1  0.13536874  0.75346846  0.36199772  1
  Al  Al139  1  0.13578707  0.75636861  0.86384626  1
  Al  Al140  1  0.63826713  0.25286456  0.36795567  1
  Al  Al141  1  0.63615434  0.25253456  0.86664418  1
  Al  Al142  1  0.63817486  0.75304195  0.36320166  1
  Al  Al143  1  0.63699873  0.74729207  0.86829431  1
  Al  Al144  1  0.36020926  0.24699665  0.13029546  1
  Al  Al145  1  0.35994800  0.24833688  0.63007730  1
  Al  Al146  1  0.36446323  0.75582268  0.13578018  1
  Al  Al147  1  0.36323840  0.75476322  0.63940146  1
  Al  Al148  1  0.87117848  0.24812179  0.13166620  1
  Al  Al149  1  0.86121638  0.25234148  0.62883169  1
  Al  Al150  1  0.86434216  0.75468943  0.13129863  1
  Al  Al151  1  0.86392559  0.75152661  0.63144008  1
  Al  Al152  1  0.36271267  0.24761820  0.36502505  1
  Al  Al153  1  0.36608708  0.24622617  0.86956245  1
  Al  Al154  1  0.36365310  0.75199810  0.36116353  1
  Al  Al155  1  0.36620628  0.75781330  0.86596936  1
  Al  Al156  1  0.87020466  0.25024700  0.36843570  1
  Al  Al157  1  0.86436839  0.24971801  0.87196482  1
  Al  Al158  1  0.86059255  0.75343717  0.37080328  1
  Al  Al159  1  0.86271516  0.75268324  0.86536876  1
  Al  Al160  1  0.12964385  0.13639395  0.24821537  1
  Al  Al161  1  0.13319260  0.13448549  0.74406871  1
  Al  Al162  1  0.13429904  0.63457246  0.25107671  1
  Al  Al163  1  0.13404303  0.63638685  0.74844129  1
  Al  Al164  1  0.63874684  0.13814416  0.25400133  1
  Al  Al165  1  0.63858403  0.13806867  0.74879337  1
  Al  Al166  1  0.63681172  0.63635090  0.24915368  1
  Al  Al167  1  0.63976096  0.63296827  0.74911185  1
  Al  Al168  1  0.35917391  0.13399900  0.25079678  1
  Al  Al169  1  0.35915276  0.12959830  0.74915055  1
  Al  Al170  1  0.36402512  0.63547514  0.25007782  1
  Al  Al171  1  0.36464820  0.63865945  0.74992504  1
  Al  Al172  1  0.87583531  0.13982981  0.25296669  1
  Al  Al173  1  0.86884914  0.14173261  0.74512281  1
  Al  Al174  1  0.86297551  0.63552645  0.24417590  1
  Al  Al175  1  0.86367710  0.63066658  0.75137973  1
  Al  Al176  1  0.12672439  0.35888077  0.24974838  1
  Al  Al177  1  0.13696987  0.35750733  0.74884311  1
  Al  Al178  1  0.13503651  0.87372177  0.24423032  1
  Al  Al179  1  0.12872552  0.86734070  0.74767954  1
  Al  Al180  1  0.64028430  0.36387634  0.24909104  1
  Al  Al181  1  0.64168458  0.36985448  0.75758309  1
  Al  Al182  1  0.63134261  0.86492806  0.25062348  1
  Al  Al183  1  0.62952354  0.86137281  0.75246809  1
  Al  Al184  1  0.36026218  0.36074740  0.24865833  1
  Al  Al185  1  0.36129457  0.35894968  0.75070382  1
  Al  Al186  1  0.37035488  0.86808949  0.25019138  1
  Al  Al187  1  0.36782932  0.87089180  0.74992335  1
  Al  Al188  1  0.87224792  0.35829462  0.24910719  1
  Al  Al189  1  0.86110919  0.37059715  0.74899956  1
  Al  Al190  1  0.86698287  0.86605090  0.25228911  1
  Al  Al191  1  0.87134631  0.86350176  0.74767143  1
  Al  Al192  1  0.31689649  0.00218132  0.17352072  1
  Al  Al193  1  0.50215219  0.32507401  0.83082281  1
  Al  Al194  1  0.50093923  0.68077113  0.67408879  1
  Al  Al195  1  0.31708084  0.32180620  0.49915472  1
  Al  Al196  1  0.69079213  0.19166248  0.00164946  1
  Al  Al197  1  0.00100271  0.16786801  0.82203946  1
  Al  Al198  1  0.50398632  0.67190546  0.83018161  1
  Al  Al199  1  0.67339362  0.66872015  0.49925270  1
  Al  Al200  1  -0.00073997  0.32972871  0.82746414  1
  Al  Al201  1  0.82855808  0.00029829  0.82405584  1
  Al  Al202  1  0.50025217  0.67816531  0.32653492  1
  Al  Al203  1  0.32304674  0.50202695  0.66651399  1
  Al  Al204  1  0.17128251  0.67309210  -0.00166039  1
  Al  Al205  1  0.81404461  0.68091823  -0.00240060  1
  Al  Al206  1  0.16899091  0.82792373  0.50119750  1
  Al  Al207  1  0.49986820  0.31568349  0.31643542  1
  Al  Al208  1  0.50228220  0.33023920  0.66858090  1
  Al  Al209  1  0.32397527  0.67297937  0.49934917  1
  Al  Al210  1  0.17093796  0.49659447  0.18960372  1
  Al  Al211  1  0.82639907  0.49635545  0.32023435  1
  Al  Al212  1  0.16895821  0.67187350  0.49815527  1
  Al  Al213  1  0.68271057  0.49900748  0.17373014  1
  Al  Al214  1  0.32754622  0.49670043  0.82896218  1
  Al  Al215  1  0.67241711  0.49896613  0.32900668  1
  Al  Al216  1  0.00443883  0.82256618  0.17520092  1
  Al  Al217  1  0.68381440  0.82727133  0.49960769  1
  Al  Al218  1  -0.00244483  0.31338181  0.67248907  1
  Al  Al219  1  -0.00070870  0.68282273  0.82792140  1
  Al  Al220  1  0.17162714  0.49882008  0.81850595  1
  Al  Al221  1  0.68996911  0.49936196  0.68136549  1
  Al  Al222  1  0.32757066  0.49875063  0.17290641  1
  Al  Al223  1  0.83100984  0.00191526  0.18089854  1
  Al  Al224  1  0.32920642  0.69107810  0.00120067  1
  Al  Al225  1  0.49796742  0.18297907  0.18192817  1
  Al  Al226  1  0.83025226  0.00214707  0.66808205  1
  Al  Al227  1  0.31290287  0.49724543  0.32473034  1
  Al  Al228  1  0.68921146  0.18602744  0.49954131  1
  Al  Al229  1  0.18425160  0.82868662  -0.00013160  1
  Al  Al230  1  0.49863009  0.17339849  0.68175872  1
  Al  Al231  1  0.66823089  0.00210424  0.18350379  1
  Al  Al232  1  -0.00233624  0.68004611  0.32060802  1
  Al  Al233  1  0.67314232  0.00117026  0.82446927  1
  Al  Al234  1  0.50113908  0.67555351  0.17286958  1
  Al  Al235  1  0.17512939  0.00498828  0.32744030  1
  Al  Al236  1  -0.00269810  0.68131276  0.67195170  1
  Al  Al237  1  0.32502316  0.82450865  0.50021110  1
  Al  Al238  1  0.17944074  0.00111590  0.81337681  1
  Au  Au239  1  0.32450965  0.67443910  0.00308406  1
  Au  Au240  1  0.83704963  0.00327942  0.16611609  1
  Au  Au241  1  0.65754799  0.67468786  0.49937892  1
  Au  Au242  1  0.50154260  0.16534161  0.32915579  1
  Au  Au243  1  0.82842864  0.00787604  0.34117721  1
  Au  Au244  1  0.49773596  0.83456874  0.83759347  1
  Au  Au245  1  0.17508618  0.49647052  0.17317694  1
  Au  Au246  1  0.32559660  0.33116664  0.49687715  1
  Au  Au247  1  0.33417239  0.00172544  0.33709332  1
  Au  Au248  1  -0.00239528  0.66904859  0.66823950  1
  Au  Au249  1  0.67393529  -0.00149795  0.84058463  1
  Au  Au250  1  0.16251085  0.00295750  0.32662736  1
  Au  Au251  1  0.00082370  0.82975391  0.16574682  1
  Au  Au252  1  0.31987727  0.16465597  0.50219070  1
  Au  Au253  1  0.83238959  0.83522599  0.50366002  1
  Au  Au254  1  0.83632684  0.65829999  0.49728791  1
  Au  Au255  1  0.50431300  0.33277455  0.16920885  1
  Au  Au256  1  0.82444788  0.66767934  -0.00160517  1
  Au  Au257  1  0.83280455  0.49407014  0.17164583  1
  Au  Au258  1  0.00102426  0.66582652  0.17086684  1
  Au  Au259  1  0.50650929  0.65544047  0.82590719  1
  Au  Au260  1  0.32056685  0.49637657  0.84510760  1
  Au  Au261  1  0.49845234  0.82393964  0.15855884  1
  Au  Au262  1  0.82205337  0.31639316  0.00111285  1
  Au  Au263  1  0.00093016  0.82831683  0.33978491  1
  Au  Au264  1  0.65504281  0.00254008  0.17381406  1
  Au  Au265  1  0.32429859  0.00339705  0.15884907  1
  Au  Au266  1  0.32622502  0.00055481  0.82559063  1
  Au  Au267  1  0.67520350  0.17614623  0.50072481  1
  Au  Au268  1  0.49738640  0.16183692  0.83121750  1
  Au  Au269  1  0.81969993  0.84178145  -0.00207382  1
  Au  Au270  1  0.50343274  0.32272630  0.65268094  1
  Au  Au271  1  0.00340708  0.17401946  0.16798034  1
  Au  Au272  1  -0.00043029  0.32828546  0.32995784  1
  Au  Au273  1  0.67408677  0.49873793  0.67445307  1
  Au  Au274  1  0.50227544  0.33769114  0.82903415  1
  Au  Au275  1  0.84261195  0.00375007  0.67106810  1
  Au  Au276  1  0.50168400  0.82990610  0.66271663  1
  Au  Au277  1  0.82549546  0.50014636  0.82665440  1
  Au  Au278  1  0.00244064  0.15428485  0.83064131  1
  Au  Au279  1  0.50379596  0.82883843  0.33599993  1
  Au  Au280  1  0.00026939  0.83363777  0.82829691  1
  Au  Au281  1  0.15682941  0.49261605  0.66843524  1
  Au  Au282  1  0.32238916  0.84006468  0.50483330  1
  Au  Au283  1  0.00016849  0.34482744  0.82318669  1
  Au  Au284  1  0.16217777  0.32036143  0.00027567  1
  Au  Au285  1  0.33929944  0.50744465  0.66626801  1
  Au  Au286  1  0.33273809  0.31995642  0.00171692  1
  Au  Au287  1  0.66530254  0.00033999  0.66105348  1
