# generated using pymatgen
data_Ca24Ti8Al207Au49
_symmetry_space_group_name_H-M   'P 1'
_cell_length_a   17.32376006
_cell_length_b   17.32505682
_cell_length_c   17.32368552
_cell_angle_alpha   89.99701342
_cell_angle_beta   89.99884648
_cell_angle_gamma   89.99626631
_symmetry_Int_Tables_number   1
_chemical_formula_structural   Ca24Ti8Al207Au49
_chemical_formula_sum   'Ca24 Ti8 Al207 Au49'
_cell_volume   5199.44654080
_cell_formula_units_Z   1
loop_
 _symmetry_equiv_pos_site_id
 _symmetry_equiv_pos_as_xyz
  1  'x, y, z'
loop_
 _atom_site_type_symbol
 _atom_site_label
 _atom_site_symmetry_multiplicity
 _atom_site_fract_x
 _atom_site_fract_y
 _atom_site_fract_z
 _atom_site_occupancy
  Ca  Ca0  1  0.24980882  0.00250164  0.00814984  1
  Ca  Ca1  1  0.24787734  -0.00181504  0.49382980  1
  Ca  Ca2  1  0.25336810  0.50081419  -0.00438166  1
  Ca  Ca3  1  0.24842081  0.50141032  0.50341412  1
  Ca  Ca4  1  0.74766975  0.00282066  0.00075828  1
  Ca  Ca5  1  0.75250757  -0.00059835  0.50253540  1
  Ca  Ca6  1  0.74724521  0.49776119  0.00004578  1
  Ca  Ca7  1  0.74980610  0.49924558  0.49827182  1
  Ca  Ca8  1  -0.00210425  0.24926334  0.00208015  1
  Ca  Ca9  1  -0.00325343  0.25651306  0.49796915  1
  Ca  Ca10  1  -0.00254984  0.75527704  -0.00009660  1
  Ca  Ca11  1  0.00113060  0.75108443  0.50026347  1
  Ca  Ca12  1  0.50243206  0.24867491  -0.00166802  1
  Ca  Ca13  1  0.50351638  0.25382402  0.50314483  1
  Ca  Ca14  1  0.50002965  0.74986970  0.00136655  1
  Ca  Ca15  1  0.50033810  0.74776721  0.49973098  1
  Ca  Ca16  1  0.00095720  -0.00151512  0.24766053  1
  Ca  Ca17  1  -0.00410851  -0.00372552  0.74814025  1
  Ca  Ca18  1  -0.00292504  0.49891783  0.25218069  1
  Ca  Ca19  1  0.00297406  0.50333825  0.74784972  1
  Ca  Ca20  1  0.50067146  0.00293510  0.24779190  1
  Ca  Ca21  1  0.50403466  0.00059531  0.74876198  1
  Ca  Ca22  1  0.50466640  0.49838850  0.25089323  1
  Ca  Ca23  1  0.49799932  0.49845827  0.74898291  1
  Ti  Ti24  1  0.24873314  0.25019120  0.24832537  1
  Ti  Ti25  1  0.25054502  0.25186829  0.75146907  1
  Ti  Ti26  1  0.25115677  0.74991988  0.25048265  1
  Ti  Ti27  1  0.25020021  0.74814172  0.75026551  1
  Ti  Ti28  1  0.75122521  0.24999208  0.24880709  1
  Ti  Ti29  1  0.75069373  0.25114518  0.75045708  1
  Ti  Ti30  1  0.75019368  0.75076020  0.25081439  1
  Ti  Ti31  1  0.75020789  0.74904666  0.74951575  1
  Al  Al32  1  0.08377575  0.08533067  0.09665648  1
  Al  Al33  1  0.07695496  0.06712470  0.57697566  1
  Al  Al34  1  0.07878781  0.57599490  0.08273523  1
  Al  Al35  1  0.08468525  0.58227514  0.58863498  1
  Al  Al36  1  0.57952794  0.09118533  0.08547255  1
  Al  Al37  1  0.58750665  0.08396778  0.58913255  1
  Al  Al38  1  0.58676652  0.57568223  0.08798827  1
  Al  Al39  1  0.58198316  0.58024265  0.58452957  1
  Al  Al40  1  0.41900362  0.41867025  0.08028978  1
  Al  Al41  1  0.41745693  0.42061283  0.59300869  1
  Al  Al42  1  0.41307218  0.91939198  0.09946550  1
  Al  Al43  1  0.42651392  0.91695991  0.57577316  1
  Al  Al44  1  0.90659264  0.41232914  0.08422243  1
  Al  Al45  1  0.90908257  0.42494409  0.58447052  1
  Al  Al46  1  0.92344716  0.92174694  0.08062164  1
  Al  Al47  1  0.91830833  0.91265914  0.59354512  1
  Al  Al48  1  0.42209967  0.08520683  0.40097960  1
  Al  Al49  1  0.42569932  0.08566991  0.92488077  1
  Al  Al50  1  0.41422108  0.58043178  0.40668246  1
  Al  Al51  1  0.41745853  0.58413856  0.90001180  1
  Al  Al52  1  0.92147383  0.07860706  0.42069577  1
  Al  Al53  1  0.90494553  0.07961340  0.92291414  1
  Al  Al54  1  0.91088274  0.58299199  0.41746428  1
  Al  Al55  1  0.92257542  0.58061813  0.92017231  1
  Al  Al56  1  0.08112953  0.42294911  0.41798885  1
  Al  Al57  1  0.09398778  0.42052385  0.91762327  1
  Al  Al58  1  0.08511306  0.91101476  0.40849356  1
  Al  Al59  1  0.07958482  0.91466005  0.92230949  1
  Al  Al60  1  0.59567848  0.41543365  0.41812993  1
  Al  Al61  1  0.58616552  0.41786170  0.92435931  1
  Al  Al62  1  0.57743776  0.92155403  0.41711285  1
  Al  Al63  1  0.58200128  0.92223411  0.91895811  1
  Al  Al64  1  0.08170004  0.07203906  0.41052808  1
  Al  Al65  1  0.08169422  0.07724299  0.92819091  1
  Al  Al66  1  0.08137184  0.58311580  0.41753368  1
  Al  Al67  1  0.08375924  0.57723896  0.90733317  1
  Al  Al68  1  0.57881705  0.08827183  0.41080166  1
  Al  Al69  1  0.58869242  0.09113927  0.92188197  1
  Al  Al70  1  0.58354422  0.57587263  0.41035323  1
  Al  Al71  1  0.57691567  0.58322166  0.91269660  1
  Al  Al72  1  0.41338607  0.42399715  0.41005387  1
  Al  Al73  1  0.41430809  0.42509574  0.91177668  1
  Al  Al74  1  0.41523561  0.92047362  0.41114995  1
  Al  Al75  1  0.42186448  0.91563708  0.92609777  1
  Al  Al76  1  0.90760195  0.42337254  0.41366009  1
  Al  Al77  1  0.90845469  0.41205182  0.92352993  1
  Al  Al78  1  0.92472829  0.91429886  0.41296626  1
  Al  Al79  1  0.91483015  0.92071807  0.91125308  1
  Al  Al80  1  0.08369047  0.41463988  0.08056666  1
  Al  Al81  1  0.08786700  0.42579008  0.58929903  1
  Al  Al82  1  0.09100622  0.92314767  0.08880885  1
  Al  Al83  1  0.08010479  0.90849270  0.58546390  1
  Al  Al84  1  0.59459280  0.41623297  0.08493337  1
  Al  Al85  1  0.58765143  0.40942471  0.58144700  1
  Al  Al86  1  0.57403553  0.91666560  0.08529026  1
  Al  Al87  1  0.58553504  0.92253252  0.58716228  1
  Al  Al88  1  0.41680066  0.08321776  0.09946441  1
  Al  Al89  1  0.43193212  0.08788109  0.58543418  1
  Al  Al90  1  0.41990784  0.57861304  0.08115364  1
  Al  Al91  1  0.41221626  0.57943067  0.58951463  1
  Al  Al92  1  0.92003819  0.09344468  0.08609183  1
  Al  Al93  1  0.90800941  0.07179026  0.58552784  1
  Al  Al94  1  0.91454266  0.57792351  0.08655895  1
  Al  Al95  1  0.91242417  0.58298601  0.58430775  1
  Al  Al96  1  0.24947320  0.13368154  0.13355484  1
  Al  Al97  1  0.24582514  0.13778146  0.63631987  1
  Al  Al98  1  0.25477968  0.63471895  0.13452563  1
  Al  Al99  1  0.24749371  0.63334266  0.63520278  1
  Al  Al100  1  0.75001116  0.13872266  0.12866898  1
  Al  Al101  1  0.75361209  0.13532936  0.63314547  1
  Al  Al102  1  0.74912637  0.63367648  0.13650948  1
  Al  Al103  1  0.74871216  0.62691901  0.63799064  1
  Al  Al104  1  0.25379204  0.36456421  0.13573837  1
  Al  Al105  1  0.24946606  0.36622174  0.63332550  1
  Al  Al106  1  0.25149363  0.87107662  0.14120570  1
  Al  Al107  1  0.24924157  0.86141774  0.63678646  1
  Al  Al108  1  0.75082708  0.36357874  0.13480691  1
  Al  Al109  1  0.74995816  0.36858889  0.63192669  1
  Al  Al110  1  0.74997625  0.86520106  0.13970927  1
  Al  Al111  1  0.75417162  0.86654575  0.63438600  1
  Al  Al112  1  0.24901101  0.13347260  0.36079654  1
  Al  Al113  1  0.24881738  0.13770914  0.87219768  1
  Al  Al114  1  0.25152400  0.63021808  0.36319494  1
  Al  Al115  1  0.25620819  0.63198639  0.86327476  1
  Al  Al116  1  0.74943103  0.13745552  0.36473614  1
  Al  Al117  1  0.75024967  0.13761412  0.87165950  1
  Al  Al118  1  0.75009460  0.63470519  0.36375036  1
  Al  Al119  1  0.75071429  0.63437594  0.86242816  1
  Al  Al120  1  0.25036908  0.36611614  0.36614829  1
  Al  Al121  1  0.25406730  0.36706492  0.86350659  1
  Al  Al122  1  0.25169375  0.86582991  0.36037829  1
  Al  Al123  1  0.25066777  0.86390818  0.86544845  1
  Al  Al124  1  0.75172005  0.36438118  0.36709015  1
  Al  Al125  1  0.75176677  0.36559144  0.86520349  1
  Al  Al126  1  0.75096022  0.86370719  0.36671189  1
  Al  Al127  1  0.74913297  0.86453133  0.86228298  1
  Al  Al128  1  0.12941446  0.24762505  0.13683535  1
  Al  Al129  1  0.13297702  0.25763738  0.63636356  1
  Al  Al130  1  0.13492504  0.75113562  0.13778066  1
  Al  Al131  1  0.13312466  0.75132923  0.63585004  1
  Al  Al132  1  0.63447361  0.24427119  0.13257490  1
  Al  Al133  1  0.63854713  0.25078060  0.63230271  1
  Al  Al134  1  0.63383449  0.75347597  0.13689400  1
  Al  Al135  1  0.63852759  0.74589761  0.63322413  1
  Al  Al136  1  0.13454584  0.25225320  0.36402552  1
  Al  Al137  1  0.13455732  0.25251025  0.86400674  1
  Al  Al138  1  0.13108268  0.75076220  0.36224502  1
  Al  Al139  1  0.13679891  0.75019787  0.86321047  1
  Al  Al140  1  0.63696475  0.25169742  0.36490058  1
  Al  Al141  1  0.63688893  0.24803172  0.86637613  1
  Al  Al142  1  0.63697843  0.75157833  0.36659343  1
  Al  Al143  1  0.63269544  0.74611118  0.86358263  1
  Al  Al144  1  0.36685542  0.24543777  0.13463753  1
  Al  Al145  1  0.36229967  0.25195731  0.63376552  1
  Al  Al146  1  0.36560082  0.75484627  0.13358156  1
  Al  Al147  1  0.36432347  0.74491398  0.63476205  1
  Al  Al148  1  0.86630568  0.25133493  0.13079772  1
  Al  Al149  1  0.86346427  0.25580982  0.62984066  1
  Al  Al150  1  0.86406325  0.74933929  0.13722018  1
  Al  Al151  1  0.86524196  0.75351290  0.63491559  1
  Al  Al152  1  0.36494504  0.24696824  0.35878262  1
  Al  Al153  1  0.36461739  0.24721924  0.87190025  1
  Al  Al154  1  0.36390426  0.75090310  0.36531949  1
  Al  Al155  1  0.36653260  0.74841895  0.87003274  1
  Al  Al156  1  0.86548227  0.25245699  0.36972622  1
  Al  Al157  1  0.86304724  0.25224640  0.87140600  1
  Al  Al158  1  0.86915244  0.75124176  0.36422552  1
  Al  Al159  1  0.86392952  0.75162951  0.86266761  1
  Al  Al160  1  0.13321754  0.13302238  0.24484060  1
  Al  Al161  1  0.13464281  0.13576077  0.75275853  1
  Al  Al162  1  0.13290156  0.63395560  0.25199019  1
  Al  Al163  1  0.13513513  0.63467492  0.74835832  1
  Al  Al164  1  0.63288944  0.13784988  0.24796615  1
  Al  Al165  1  0.63626656  0.13768008  0.74840357  1
  Al  Al166  1  0.63546179  0.63345506  0.24699417  1
  Al  Al167  1  0.62802987  0.63474054  0.74761450  1
  Al  Al168  1  0.36341209  0.13049932  0.24677916  1
  Al  Al169  1  0.36549961  0.13795527  0.74907106  1
  Al  Al170  1  0.36623797  0.63204013  0.24834334  1
  Al  Al171  1  0.37097065  0.63526680  0.75212208  1
  Al  Al172  1  0.86616561  0.13872413  0.24570391  1
  Al  Al173  1  0.86376428  0.13850701  0.74951786  1
  Al  Al174  1  0.86656461  0.63223929  0.25524820  1
  Al  Al175  1  0.86469874  0.63210845  0.74486656  1
  Al  Al176  1  0.12935218  0.36351307  0.24914373  1
  Al  Al177  1  0.13176535  0.36618412  0.74973463  1
  Al  Al178  1  0.13178073  0.86439561  0.24865606  1
  Al  Al179  1  0.12923861  0.86252156  0.75114476  1
  Al  Al180  1  0.63507444  0.36461983  0.24678200  1
  Al  Al181  1  0.63710933  0.36421179  0.74611453  1
  Al  Al182  1  0.62832311  0.86455656  0.25014641  1
  Al  Al183  1  0.63512282  0.86410409  0.75042531  1
  Al  Al184  1  0.36615505  0.36858480  0.25246679  1
  Al  Al185  1  0.36457969  0.36514729  0.75076781  1
  Al  Al186  1  0.37026140  0.86946757  0.24936030  1
  Al  Al187  1  0.36514188  0.86285476  0.75357047  1
  Al  Al188  1  0.86812534  0.36225162  0.24987985  1
  Al  Al189  1  0.86757370  0.36516103  0.74951635  1
  Al  Al190  1  0.87121193  0.86352629  0.25046214  1
  Al  Al191  1  0.87114518  0.86435939  0.74766029  1
  Al  Al192  1  0.50105332  0.17787800  0.81515424  1
  Al  Al193  1  0.33150179  0.00039247  0.66999391  1
  Al  Al194  1  0.18951614  0.49986638  0.80909512  1
  Al  Al195  1  0.67651193  0.82521678  0.49854115  1
  Al  Al196  1  0.67205317  0.67107143  -0.00042473  1
  Al  Al197  1  0.00247885  0.67878100  0.17839629  1
  Al  Al198  1  -0.00064725  0.68000790  0.82402309  1
  Al  Al199  1  0.17366701  -0.00255538  0.67943188  1
  Al  Al200  1  0.68886600  0.00046858  0.68463511  1
  Al  Al201  1  0.69038429  0.49842379  0.31133137  1
  Al  Al202  1  0.18006415  0.49796316  0.17682998  1
  Al  Al203  1  0.31957483  0.00228366  0.83121869  1
  Al  Al204  1  0.32241626  0.67436889  0.49509556  1
  Al  Al205  1  0.81790224  0.00072375  0.80971448  1
  Al  Al206  1  0.00026165  0.17814467  0.31630989  1
  Al  Al207  1  0.17497973  0.66869757  -0.00137206  1
  Al  Al208  1  0.81007445  0.49917051  0.19087816  1
  Al  Al209  1  0.67417959  0.00126285  0.32465734  1
  Al  Al210  1  -0.00273518  0.17700441  0.83129850  1
  Al  Al211  1  0.82757347  -0.00011371  0.32561022  1
  Al  Al212  1  0.31052327  0.50051216  0.69193533  1
  Al  Al213  1  0.82804875  0.49980337  0.81890014  1
  Al  Al214  1  0.67611301  0.17461846  0.49859889  1
  Al  Al215  1  0.67205394  0.49994065  0.81736430  1
  Al  Al216  1  0.82602337  0.82911802  0.00067826  1
  Al  Al217  1  0.18052880  -0.00138498  0.31012913  1
  Al  Al218  1  0.50105184  0.68245721  0.32648525  1
  Al  Al219  1  0.50056006  0.31302312  0.67587912  1
  Al  Al220  1  0.82687680  0.00183787  0.17252826  1
  Al  Al221  1  0.17877934  0.82139194  0.49810326  1
  Al  Al222  1  -0.00014723  0.17701197  0.66579335  1
  Al  Al223  1  -0.00172925  0.68032136  0.67163534  1
  Al  Al224  1  0.82588672  0.67376739  -0.00001433  1
  Al  Al225  1  0.50036914  0.81610493  0.82708104  1
  Al  Al226  1  0.18067496  0.82665894  0.00305921  1
  Al  Al227  1  0.16874197  0.17512153  0.49998812  1
  Al  Al228  1  0.33274847  0.17669791  0.49763902  1
  Al  Al229  1  0.50050550  0.31705648  0.32941986  1
  Al  Al230  1  0.81834820  0.67969915  0.50123413  1
  Al  Al231  1  0.18106755  0.31827244  0.00086402  1
  Al  Al232  1  0.50131234  0.31567624  0.17222058  1
  Al  Al233  1  0.67297532  0.82659338  0.00123848  1
  Al  Al234  1  0.50080619  0.67965170  0.17091708  1
  Al  Al235  1  0.50079358  0.81806779  0.67412460  1
  Al  Al236  1  0.68894358  0.31250706  -0.00017695  1
  Al  Al237  1  0.50147602  0.33142254  0.82803581  1
  Al  Al238  1  0.67191639  0.00172645  0.17143357  1
  Au  Au239  1  0.83163406  0.16601676  0.49905273  1
  Au  Au240  1  0.16997225  0.49827533  0.16963345  1
  Au  Au241  1  0.49880253  0.66737951  0.67321014  1
  Au  Au242  1  0.67265749  0.49607329  0.66715152  1
  Au  Au243  1  -0.00294400  0.33926477  0.33038729  1
  Au  Au244  1  -0.00286417  0.34321441  0.66877856  1
  Au  Au245  1  0.67304800  0.00317644  0.83320057  1
  Au  Au246  1  0.00002238  0.16241978  0.32250976  1
  Au  Au247  1  0.83157078  0.50128601  0.83109213  1
  Au  Au248  1  0.33860726  0.66470833  -0.00488556  1
  Au  Au249  1  0.82332989  0.33923507  0.50033808  1
  Au  Au250  1  0.50332502  0.32349402  0.15815627  1
  Au  Au251  1  0.32777840  0.33920646  -0.00462557  1
  Au  Au252  1  0.33276700  0.00201582  0.84167814  1
  Au  Au253  1  -0.00302382  0.67328652  0.33506022  1
  Au  Au254  1  0.00207390  0.33890525  0.83859123  1
  Au  Au255  1  0.32735396  0.00315542  0.65388959  1
  Au  Au256  1  0.00006141  0.67022713  0.16959723  1
  Au  Au257  1  0.16540842  0.17025290  0.00586128  1
  Au  Au258  1  0.50172095  0.32701515  0.34235372  1
  Au  Au259  1  0.82165296  0.17780877  0.00213776  1
  Au  Au260  1  0.81882589  0.49810859  0.17639243  1
  Au  Au261  1  -0.00326450  0.16388152  0.84081647  1
  Au  Au262  1  -0.00097930  0.82834447  0.82799999  1
  Au  Au263  1  0.50319654  0.66699542  0.17184326  1
  Au  Au264  1  0.32913003  0.83827279  0.00919041  1
  Au  Au265  1  0.16469668  0.33630011  0.50182641  1
  Au  Au266  1  0.33618663  0.49895251  0.17753367  1
  Au  Au267  1  0.67074755  0.66006087  0.49589257  1
  Au  Au268  1  0.84215270  0.82884325  0.49916428  1
  Au  Au269  1  0.50072983  0.82837138  0.83111850  1
  Au  Au270  1  0.33050502  0.34555129  0.50113276  1
  Au  Au271  1  0.33590909  0.16649365  0.00824810  1
  Au  Au272  1  0.50100313  0.17328624  0.82721346  1
  Au  Au273  1  0.34904672  0.17279272  0.49678052  1
  Au  Au274  1  0.00177599  0.83622181  0.17319858  1
  Au  Au275  1  0.32790396  0.83771997  0.49983835  1
  Au  Au276  1  -0.00039857  0.16095331  0.66288727  1
  Au  Au277  1  -0.00167591  0.32433193  0.15914679  1
  Au  Au278  1  0.49957515  0.83198071  0.32581634  1
  Au  Au279  1  0.15791950  -0.00245966  0.82811126  1
  Au  Au280  1  0.17820324  0.49967044  0.33361164  1
  Au  Au281  1  0.66779868  0.83406695  0.50074040  1
  Au  Au282  1  0.33117630  0.66627612  0.49892492  1
  Au  Au283  1  0.15908962  0.67430340  -0.00328501  1
  Au  Au284  1  0.16667785  0.15818826  0.49789168  1
  Au  Au285  1  0.66363291  0.17554505  0.49687279  1
  Au  Au286  1  0.16426873  0.67225099  0.50172973  1
  Au  Au287  1  0.32750659  0.00175392  0.32035612  1
