# generated using pymatgen
data_Ca24Ti8Al207Au49
_symmetry_space_group_name_H-M   'P 1'
_cell_length_a   17.32312278
_cell_length_b   17.32361059
_cell_length_c   17.32244046
_cell_angle_alpha   89.99846806
_cell_angle_beta   90.00194804
_cell_angle_gamma   89.99682632
_symmetry_Int_Tables_number   1
_chemical_formula_structural   Ca24Ti8Al207Au49
_chemical_formula_sum   'Ca24 Ti8 Al207 Au49'
_cell_volume   5198.44762290
_cell_formula_units_Z   1
loop_
 _symmetry_equiv_pos_site_id
 _symmetry_equiv_pos_as_xyz
  1  'x, y, z'
loop_
 _atom_site_type_symbol
 _atom_site_label
 _atom_site_symmetry_multiplicity
 _atom_site_fract_x
 _atom_site_fract_y
 _atom_site_fract_z
 _atom_site_occupancy
  Ca  Ca0  1  0.25260058  0.00004883  -0.00064622  1
  Ca  Ca1  1  0.24289076  0.00082140  0.50510896  1
  Ca  Ca2  1  0.25413502  0.50058969  0.00348295  1
  Ca  Ca3  1  0.24852413  0.49942795  0.49928446  1
  Ca  Ca4  1  0.74465294  0.00154803  -0.00085126  1
  Ca  Ca5  1  0.74714339  0.00032017  0.50255048  1
  Ca  Ca6  1  0.74915198  0.49891773  0.00085461  1
  Ca  Ca7  1  0.75116379  0.50066489  0.50145566  1
  Ca  Ca8  1  -0.00019643  0.25297795  0.00128678  1
  Ca  Ca9  1  -0.00232833  0.24998424  0.50117826  1
  Ca  Ca10  1  0.00120861  0.74922226  -0.00285108  1
  Ca  Ca11  1  -0.00012346  0.74966912  0.50037632  1
  Ca  Ca12  1  0.49989969  0.25354920  0.00324882  1
  Ca  Ca13  1  0.50177329  0.24945179  0.49798471  1
  Ca  Ca14  1  0.49868991  0.74925300  0.00586740  1
  Ca  Ca15  1  0.50231535  0.74805271  0.49677088  1
  Ca  Ca16  1  -0.00048343  0.00029507  0.25071185  1
  Ca  Ca17  1  -0.00231982  0.00318362  0.74306248  1
  Ca  Ca18  1  0.00114800  0.50175728  0.25025029  1
  Ca  Ca19  1  0.00000160  0.49828200  0.74735865  1
  Ca  Ca20  1  0.50114152  0.00076159  0.24825826  1
  Ca  Ca21  1  0.50061260  -0.00353501  0.74391620  1
  Ca  Ca22  1  0.49620443  0.49796822  0.24678326  1
  Ca  Ca23  1  0.50119566  0.50150673  0.74572636  1
  Ti  Ti24  1  0.24969608  0.25000870  0.25008512  1
  Ti  Ti25  1  0.24663032  0.25027847  0.74939620  1
  Ti  Ti26  1  0.25117803  0.75086968  0.25008950  1
  Ti  Ti27  1  0.24924450  0.74963520  0.74893573  1
  Ti  Ti28  1  0.75064390  0.25148455  0.24812270  1
  Ti  Ti29  1  0.75149057  0.25150046  0.75138671  1
  Ti  Ti30  1  0.74835786  0.74801915  0.24898671  1
  Ti  Ti31  1  0.75019623  0.74720901  0.74943818  1
  Al  Al32  1  0.08153464  0.08467443  0.09136205  1
  Al  Al33  1  0.08023286  0.08667186  0.59594224  1
  Al  Al34  1  0.08163971  0.57747582  0.08279434  1
  Al  Al35  1  0.08812209  0.58597236  0.57985123  1
  Al  Al36  1  0.58200939  0.08500702  0.08873227  1
  Al  Al37  1  0.59053721  0.08150730  0.58291622  1
  Al  Al38  1  0.57720007  0.58057772  0.08381869  1
  Al  Al39  1  0.58554796  0.58396009  0.59526076  1
  Al  Al40  1  0.41677297  0.41425166  0.09465277  1
  Al  Al41  1  0.42146016  0.42280857  0.57810722  1
  Al  Al42  1  0.42074965  0.90594258  0.08871982  1
  Al  Al43  1  0.40981721  0.92481323  0.58849048  1
  Al  Al44  1  0.92033318  0.41026454  0.08785629  1
  Al  Al45  1  0.91344098  0.40065153  0.58776444  1
  Al  Al46  1  0.92360408  0.91982214  0.07868324  1
  Al  Al47  1  0.92212386  0.91791649  0.58214467  1
  Al  Al48  1  0.42244607  0.08140536  0.41939620  1
  Al  Al49  1  0.41961006  0.07364343  0.92419037  1
  Al  Al50  1  0.41411711  0.57555645  0.40789815  1
  Al  Al51  1  0.41705624  0.58416284  0.92144534  1
  Al  Al52  1  0.91224638  0.09359825  0.42475805  1
  Al  Al53  1  0.92379968  0.09323046  0.91286374  1
  Al  Al54  1  0.91808504  0.57953026  0.42064451  1
  Al  Al55  1  0.90991137  0.57436939  0.91365237  1
  Al  Al56  1  0.07844159  0.42042439  0.42117686  1
  Al  Al57  1  0.07833704  0.41416811  0.91518194  1
  Al  Al58  1  0.08045569  0.91763456  0.42020151  1
  Al  Al59  1  0.08362117  0.92014543  0.91819820  1
  Al  Al60  1  0.57748666  0.41418891  0.41544311  1
  Al  Al61  1  0.59677503  0.41577041  0.92445856  1
  Al  Al62  1  0.58877629  0.91824938  0.41224703  1
  Al  Al63  1  0.58734856  0.91254454  0.93162909  1
  Al  Al64  1  0.07488561  0.08119891  0.41941452  1
  Al  Al65  1  0.07794591  0.08823726  0.91112409  1
  Al  Al66  1  0.08983199  0.58725698  0.42063826  1
  Al  Al67  1  0.07923368  0.57760847  0.91845868  1
  Al  Al68  1  0.59138318  0.08087539  0.41454019  1
  Al  Al69  1  0.58223045  0.07806715  0.92488589  1
  Al  Al70  1  0.57614648  0.57650967  0.41986204  1
  Al  Al71  1  0.58509727  0.57844704  0.91287762  1
  Al  Al72  1  0.41497075  0.41621382  0.40362866  1
  Al  Al73  1  0.42077317  0.42585887  0.92884271  1
  Al  Al74  1  0.42513062  0.91923355  0.41955237  1
  Al  Al75  1  0.41102068  0.91151300  0.92900283  1
  Al  Al76  1  0.91029042  0.40928140  0.42371095  1
  Al  Al77  1  0.91290265  0.41593825  0.90805020  1
  Al  Al78  1  0.91963413  0.91744798  0.42092836  1
  Al  Al79  1  0.92267178  0.91951768  0.91870094  1
  Al  Al80  1  0.08017151  0.41156212  0.09082062  1
  Al  Al81  1  0.07697344  0.40939061  0.58716761  1
  Al  Al82  1  0.08510005  0.92147022  0.08504954  1
  Al  Al83  1  0.08694374  0.92245121  0.59052393  1
  Al  Al84  1  0.58036738  0.40520639  0.08568701  1
  Al  Al85  1  0.59019515  0.42404238  0.58580001  1
  Al  Al86  1  0.58373298  0.90745197  0.09155107  1
  Al  Al87  1  0.59084947  0.92291188  0.58218010  1
  Al  Al88  1  0.42343230  0.08349460  0.08651364  1
  Al  Al89  1  0.41420595  0.07927983  0.58749162  1
  Al  Al90  1  0.41113589  0.57971221  0.08926387  1
  Al  Al91  1  0.42564509  0.58540253  0.58975941  1
  Al  Al92  1  0.92387814  0.09251335  0.08634227  1
  Al  Al93  1  0.91671461  0.10086013  0.58753348  1
  Al  Al94  1  0.91941173  0.57787647  0.07743913  1
  Al  Al95  1  0.91762044  0.57808409  0.58215160  1
  Al  Al96  1  0.25059925  0.13760040  0.13764151  1
  Al  Al97  1  0.24649628  0.13253067  0.63714592  1
  Al  Al98  1  0.25175781  0.63048347  0.13862566  1
  Al  Al99  1  0.24403708  0.63440340  0.63614870  1
  Al  Al100  1  0.74873606  0.13993363  0.12997775  1
  Al  Al101  1  0.75509788  0.13382065  0.63661065  1
  Al  Al102  1  0.74884009  0.63059728  0.13592035  1
  Al  Al103  1  0.74688587  0.62934545  0.63819990  1
  Al  Al104  1  0.24896266  0.36935245  0.13786069  1
  Al  Al105  1  0.24590338  0.36378441  0.63670289  1
  Al  Al106  1  0.25450405  0.86291723  0.12998613  1
  Al  Al107  1  0.24769266  0.86570972  0.63305708  1
  Al  Al108  1  0.74584753  0.36821989  0.13137565  1
  Al  Al109  1  0.75465822  0.36421136  0.63320451  1
  Al  Al110  1  0.74418548  0.86296355  0.13314285  1
  Al  Al111  1  0.75366411  0.86876659  0.63686251  1
  Al  Al112  1  0.25015891  0.12902507  0.36192411  1
  Al  Al113  1  0.24647633  0.13603443  0.86207454  1
  Al  Al114  1  0.25252950  0.63361496  0.36131928  1
  Al  Al115  1  0.24767314  0.63670032  0.86092171  1
  Al  Al116  1  0.75184455  0.13744297  0.36332166  1
  Al  Al117  1  0.75173325  0.13875902  0.86994450  1
  Al  Al118  1  0.74895109  0.63435325  0.36232282  1
  Al  Al119  1  0.74841687  0.62787938  0.86213721  1
  Al  Al120  1  0.25429195  0.36901614  0.36024290  1
  Al  Al121  1  0.24121420  0.36295267  0.86345517  1
  Al  Al122  1  0.25071095  0.87056262  0.36437908  1
  Al  Al123  1  0.25202274  0.86297011  0.86915223  1
  Al  Al124  1  0.75267002  0.36365429  0.36420452  1
  Al  Al125  1  0.75369769  0.37033830  0.86229054  1
  Al  Al126  1  0.74681198  0.86664639  0.36219001  1
  Al  Al127  1  0.74426167  0.86221689  0.86542350  1
  Al  Al128  1  0.13310907  0.24977814  0.13387271  1
  Al  Al129  1  0.12902373  0.24985378  0.63568263  1
  Al  Al130  1  0.13778481  0.75002747  0.13564346  1
  Al  Al131  1  0.13614136  0.74886675  0.63123971  1
  Al  Al132  1  0.63445722  0.25183248  0.13028187  1
  Al  Al133  1  0.63904306  0.25105314  0.63694284  1
  Al  Al134  1  0.62734992  0.75321674  0.13528897  1
  Al  Al135  1  0.63507669  0.74425997  0.63694864  1
  Al  Al136  1  0.13547391  0.25132992  0.36466470  1
  Al  Al137  1  0.12446674  0.24685177  0.86123033  1
  Al  Al138  1  0.13968858  0.74869343  0.37035779  1
  Al  Al139  1  0.12899646  0.75272013  0.86049023  1
  Al  Al140  1  0.63621520  0.25004247  0.36474846  1
  Al  Al141  1  0.63909230  0.25422506  0.87082818  1
  Al  Al142  1  0.63506307  0.75033109  0.36326224  1
  Al  Al143  1  0.63468095  0.74690140  0.86149656  1
  Al  Al144  1  0.36574299  0.25433049  0.13729279  1
  Al  Al145  1  0.36289668  0.25054554  0.63490150  1
  Al  Al146  1  0.37003205  0.75172046  0.13862047  1
  Al  Al147  1  0.36460291  0.74586646  0.63389387  1
  Al  Al148  1  0.86592289  0.25257931  0.13036556  1
  Al  Al149  1  0.86609399  0.24967850  0.63328515  1
  Al  Al150  1  0.86230675  0.74968656  0.13411544  1
  Al  Al151  1  0.86335096  0.74847671  0.63820044  1
  Al  Al152  1  0.36395629  0.25053231  0.36360089  1
  Al  Al153  1  0.36274526  0.25036645  0.86358433  1
  Al  Al154  1  0.36469258  0.75176473  0.36346503  1
  Al  Al155  1  0.36487513  0.75028884  0.86360922  1
  Al  Al156  1  0.86424108  0.25099308  0.37027664  1
  Al  Al157  1  0.87179256  0.25203682  0.86368758  1
  Al  Al158  1  0.86264897  0.74956013  0.36413249  1
  Al  Al159  1  0.86832170  0.74964004  0.86201801  1
  Al  Al160  1  0.12936735  0.13796731  0.25093802  1
  Al  Al161  1  0.12830977  0.13661994  0.74423139  1
  Al  Al162  1  0.13018967  0.63501324  0.25214297  1
  Al  Al163  1  0.12897450  0.63253329  0.74987955  1
  Al  Al164  1  0.63774436  0.13650296  0.25102399  1
  Al  Al165  1  0.64049154  0.13488636  0.74868209  1
  Al  Al166  1  0.63298160  0.63437045  0.24345665  1
  Al  Al167  1  0.63227575  0.62920129  0.75057366  1
  Al  Al168  1  0.36505229  0.13001233  0.25036171  1
  Al  Al169  1  0.36151756  0.13327018  0.74674095  1
  Al  Al170  1  0.36479405  0.63179225  0.24692379  1
  Al  Al171  1  0.36696885  0.63607939  0.75004942  1
  Al  Al172  1  0.87030557  0.14084620  0.24766223  1
  Al  Al173  1  0.87011942  0.13828947  0.74806995  1
  Al  Al174  1  0.87045296  0.63615508  0.24768632  1
  Al  Al175  1  0.86852951  0.63033386  0.75253535  1
  Al  Al176  1  0.13028321  0.36583281  0.24579651  1
  Al  Al177  1  0.12631696  0.36616437  0.74800568  1
  Al  Al178  1  0.13641153  0.86304475  0.25168764  1
  Al  Al179  1  0.13830048  0.86616832  0.74731052  1
  Al  Al180  1  0.63413960  0.36279066  0.24506699  1
  Al  Al181  1  0.64029504  0.37111189  0.75033638  1
  Al  Al182  1  0.63431087  0.86563761  0.24874968  1
  Al  Al183  1  0.63603618  0.86494969  0.74169008  1
  Al  Al184  1  0.36549228  0.36935117  0.24564717  1
  Al  Al185  1  0.36165482  0.36458513  0.75044313  1
  Al  Al186  1  0.36466608  0.87077351  0.24667979  1
  Al  Al187  1  0.36386858  0.86443374  0.74297925  1
  Al  Al188  1  0.86670056  0.36264433  0.24472860  1
  Al  Al189  1  0.87220156  0.36254796  0.74793753  1
  Al  Al190  1  0.86391139  0.86382596  0.24921912  1
  Al  Al191  1  0.86369329  0.86660737  0.75168909  1
  Al  Al192  1  0.81851632  0.00207824  0.33049370  1
  Al  Al193  1  0.16820944  0.17183497  0.50109572  1
  Al  Al194  1  0.32313763  0.50092699  0.67477637  1
  Al  Al195  1  0.66906717  0.66954503  0.49914497  1
  Al  Al196  1  0.66891284  0.68652668  0.00075517  1
  Al  Al197  1  0.32529952  0.17705293  0.50189683  1
  Al  Al198  1  0.67365582  0.00071397  0.18280677  1
  Al  Al199  1  0.50119974  0.17298135  0.82636944  1
  Al  Al200  1  0.00057376  0.82086744  0.32565886  1
  Al  Al201  1  0.68820680  0.17387956  0.50108583  1
  Al  Al202  1  0.81575216  0.83216671  -0.00123382  1
  Al  Al203  1  0.32840122  0.68351728  0.00197554  1
  Al  Al204  1  0.00063082  0.82287563  0.17278344  1
  Al  Al205  1  0.17369234  0.00281753  0.81123824  1
  Al  Al206  1  0.32160034  0.49967098  0.82881538  1
  Al  Al207  1  -0.00127088  0.32406910  0.31840832  1
  Al  Al208  1  0.82390972  0.67263840  -0.00257860  1
  Al  Al209  1  0.68263793  0.82407169  0.50132342  1
  Al  Al210  1  0.67164782  0.49888818  0.32122788  1
  Al  Al211  1  0.31879647  0.82951841  0.49895153  1
  Al  Al212  1  0.31714615  0.66635984  0.49998274  1
  Al  Al213  1  0.82180824  0.67781673  0.50107903  1
  Al  Al214  1  0.82549613  0.00418503  0.82066479  1
  Al  Al215  1  0.00096587  0.82185991  0.68005028  1
  Al  Al216  1  0.82659436  0.49913110  0.32303626  1
  Al  Al217  1  0.32868541  0.17397121  0.00033975  1
  Al  Al218  1  0.17612406  0.50098503  0.32180824  1
  Al  Al219  1  0.67067529  -0.00232838  0.81594896  1
  Al  Al220  1  0.32212048  0.32801455  0.00048230  1
  Al  Al221  1  0.17847597  0.32479267  0.49884121  1
  Al  Al222  1  0.49962892  0.31721168  0.30895813  1
  Al  Al223  1  0.18137532  0.00024888  0.18272880  1
  Al  Al224  1  0.50183020  0.32852700  0.67270825  1
  Al  Al225  1  0.49949578  0.67343296  0.32109247  1
  Al  Al226  1  0.50088122  0.33227070  0.82691748  1
  Al  Al227  1  0.81981024  0.32601081  0.00057070  1
  Al  Al228  1  0.68141213  0.32579917  0.49925125  1
  Al  Al229  1  0.82872977  0.00183367  0.17441107  1
  Al  Al230  1  0.17087410  0.17689723  -0.00063381  1
  Al  Al231  1  0.50016053  0.18865985  0.18354106  1
  Al  Al232  1  0.50053202  0.81764443  0.66849011  1
  Al  Al233  1  0.32746573  -0.00270795  0.81350616  1
  Al  Al234  1  0.50207331  0.17363579  0.67107347  1
  Al  Al235  1  0.17292180  0.68178284  -0.00147148  1
  Al  Al236  1  0.50001025  0.82721962  0.31646679  1
  Al  Al237  1  0.82132209  0.49946678  0.68186587  1
  Al  Al238  1  0.50041679  0.82286191  0.83102599  1
  Au  Au239  1  0.66956740  0.33393416  0.49955394  1
  Au  Au240  1  0.17234994  0.49880164  0.83291552  1
  Au  Au241  1  0.17726090  0.66586698  -0.00055110  1
  Au  Au242  1  0.50165143  0.34803611  0.83032448  1
  Au  Au243  1  0.83196682  0.82601921  -0.00130622  1
  Au  Au244  1  0.67923573  0.49816168  0.82615596  1
  Au  Au245  1  0.33546678  -0.00096508  0.33116249  1
  Au  Au246  1  0.82889547  0.00342357  0.65647718  1
  Au  Au247  1  0.83280526  0.82561716  0.50252258  1
  Au  Au248  1  0.66154990  0.49477346  0.17117867  1
  Au  Au249  1  0.33020829  0.83472494  0.49911413  1
  Au  Au250  1  0.15937662  0.82525918  0.50254264  1
  Au  Au251  1  0.82991679  0.49658073  0.67256915  1
  Au  Au252  1  0.66167765  -0.00676473  0.82998503  1
  Au  Au253  1  0.82799827  0.33516943  -0.00206813  1
  Au  Au254  1  -0.00113111  0.32902672  0.33010706  1
  Au  Au255  1  0.84107688  0.00531118  0.82861917  1
  Au  Au256  1  0.66247852  0.17538336  0.00170236  1
  Au  Au257  1  0.50534275  0.16963452  0.33074887  1
  Au  Au258  1  0.17789404  0.84158054  0.00119290  1
  Au  Au259  1  0.82296162  0.00204177  0.34626248  1
  Au  Au260  1  0.66869355  0.66944915  0.00035350  1
  Au  Au261  1  0.17198382  0.33802500  0.00186121  1
  Au  Au262  1  0.16393916  0.00125219  0.33033507  1
  Au  Au263  1  0.32850700  0.34153321  0.49771494  1
  Au  Au264  1  0.32257901  0.16450193  0.50246165  1
  Au  Au265  1  0.00065137  0.67393385  0.65916544  1
  Au  Au266  1  0.49606185  0.67230789  0.17267243  1
  Au  Au267  1  -0.00210615  0.67442778  0.16151806  1
  Au  Au268  1  -0.00462171  0.66227087  0.83215522  1
  Au  Au269  1  0.49643730  0.15704065  0.82470233  1
  Au  Au270  1  -0.00078127  0.32663674  0.82426863  1
  Au  Au271  1  0.32941716  -0.00214476  0.15931218  1
  Au  Au272  1  0.17337279  0.16421848  -0.00012121  1
  Au  Au273  1  0.49779991  0.65827132  0.82258778  1
  Au  Au274  1  -0.00169187  0.16828213  0.32502796  1
  Au  Au275  1  0.17206453  0.49728248  0.66098247  1
  Au  Au276  1  0.33482988  -0.00613822  0.82875342  1
  Au  Au277  1  0.83811491  0.50035657  0.17401583  1
  Au  Au278  1  0.00170252  0.83214268  0.82812389  1
  Au  Au279  1  0.82487660  0.00401065  0.15813867  1
  Au  Au280  1  0.00021598  0.67253837  0.33981780  1
  Au  Au281  1  0.33195103  0.65888005  0.50005726  1
  Au  Au282  1  0.15801122  0.00414410  0.81723785  1
  Au  Au283  1  0.50058810  0.82500010  0.84778272  1
  Au  Au284  1  0.17508754  0.49944577  0.16892235  1
  Au  Au285  1  0.17997209  0.50071869  0.33416480  1
  Au  Au286  1  0.50155016  0.83244802  0.66024862  1
  Au  Au287  1  0.83410220  0.17080007  -0.00155133  1
