# generated using pymatgen
data_Ca24Ti8Al207Au49
_symmetry_space_group_name_H-M   'P 1'
_cell_length_a   17.32157573
_cell_length_b   17.32188644
_cell_length_c   17.32036557
_cell_angle_alpha   90.00169906
_cell_angle_beta   89.99833424
_cell_angle_gamma   89.99734066
_symmetry_Int_Tables_number   1
_chemical_formula_structural   Ca24Ti8Al207Au49
_chemical_formula_sum   'Ca24 Ti8 Al207 Au49'
_cell_volume   5196.84348769
_cell_formula_units_Z   1
loop_
 _symmetry_equiv_pos_site_id
 _symmetry_equiv_pos_as_xyz
  1  'x, y, z'
loop_
 _atom_site_type_symbol
 _atom_site_label
 _atom_site_symmetry_multiplicity
 _atom_site_fract_x
 _atom_site_fract_y
 _atom_site_fract_z
 _atom_site_occupancy
  Ca  Ca0  1  0.25373810  0.00139095  -0.00597249  1
  Ca  Ca1  1  0.25434217  -0.00290218  0.50519178  1
  Ca  Ca2  1  0.25326978  0.49859582  -0.00218946  1
  Ca  Ca3  1  0.25080337  0.50533467  0.50335676  1
  Ca  Ca4  1  0.74740431  -0.00288164  -0.00083159  1
  Ca  Ca5  1  0.74229597  0.00337455  0.50208432  1
  Ca  Ca6  1  0.75276988  0.50091771  0.00424519  1
  Ca  Ca7  1  0.74386021  0.49809679  0.49473108  1
  Ca  Ca8  1  -0.00170027  0.25401182  0.00029607  1
  Ca  Ca9  1  -0.00125126  0.25205426  0.50058498  1
  Ca  Ca10  1  0.00170602  0.74792726  -0.00084360  1
  Ca  Ca11  1  0.00373693  0.74451682  0.50135968  1
  Ca  Ca12  1  0.50051691  0.24971081  0.00302693  1
  Ca  Ca13  1  0.50576033  0.25259391  0.49778269  1
  Ca  Ca14  1  0.50084010  0.75160702  0.00198035  1
  Ca  Ca15  1  0.49958292  0.74489491  0.49981228  1
  Ca  Ca16  1  -0.00430063  -0.00246657  0.25004876  1
  Ca  Ca17  1  0.00196297  -0.00233156  0.74932866  1
  Ca  Ca18  1  -0.00329497  0.50294138  0.25043519  1
  Ca  Ca19  1  0.00159966  0.50331145  0.75109278  1
  Ca  Ca20  1  0.50159449  0.00134517  0.25128037  1
  Ca  Ca21  1  0.49537067  0.00177957  0.74771264  1
  Ca  Ca22  1  0.50167981  0.49723772  0.25272121  1
  Ca  Ca23  1  0.49861209  0.50166972  0.74864805  1
  Ti  Ti24  1  0.25323275  0.25128835  0.25033862  1
  Ti  Ti25  1  0.25266491  0.25058442  0.74867909  1
  Ti  Ti26  1  0.24947794  0.74875921  0.25110018  1
  Ti  Ti27  1  0.24842226  0.74981599  0.74932873  1
  Ti  Ti28  1  0.74660339  0.25011729  0.25005137  1
  Ti  Ti29  1  0.74676727  0.24996219  0.74901238  1
  Ti  Ti30  1  0.74931834  0.74989930  0.24959315  1
  Ti  Ti31  1  0.75145461  0.74851228  0.74941907  1
  Al  Al32  1  0.07360093  0.07803616  0.07727719  1
  Al  Al33  1  0.08868496  0.07424094  0.58528370  1
  Al  Al34  1  0.07643396  0.58088045  0.08422434  1
  Al  Al35  1  0.09347177  0.59433149  0.59081464  1
  Al  Al36  1  0.58747410  0.08195671  0.10005163  1
  Al  Al37  1  0.59522356  0.08861887  0.58147418  1
  Al  Al38  1  0.58371344  0.58709811  0.09337215  1
  Al  Al39  1  0.57132908  0.57520518  0.58135038  1
  Al  Al40  1  0.42423677  0.40897853  0.08713561  1
  Al  Al41  1  0.41114988  0.42219907  0.58978080  1
  Al  Al42  1  0.42978002  0.90830983  0.07855361  1
  Al  Al43  1  0.41355686  0.92348674  0.58942158  1
  Al  Al44  1  0.91804837  0.42475453  0.08778374  1
  Al  Al45  1  0.91508505  0.42140584  0.57591889  1
  Al  Al46  1  0.92023529  0.90940991  0.08883689  1
  Al  Al47  1  0.91802967  0.92284231  0.59506988  1
  Al  Al48  1  0.42061743  0.09655710  0.42128432  1
  Al  Al49  1  0.41132276  0.07879348  0.90525961  1
  Al  Al50  1  0.41885316  0.58822618  0.42137416  1
  Al  Al51  1  0.41637159  0.57295131  0.91873322  1
  Al  Al52  1  0.91841638  0.08550519  0.42178863  1
  Al  Al53  1  0.91264277  0.07660210  0.91966678  1
  Al  Al54  1  0.92122859  0.57644049  0.40721517  1
  Al  Al55  1  0.91424343  0.59037478  0.92049614  1
  Al  Al56  1  0.08662957  0.43409967  0.41441666  1
  Al  Al57  1  0.09103759  0.42019813  0.91084394  1
  Al  Al58  1  0.08208341  0.91172978  0.41998722  1
  Al  Al59  1  0.08484677  0.91520883  0.90633380  1
  Al  Al60  1  0.59097387  0.40879990  0.41048524  1
  Al  Al61  1  0.57715113  0.41217409  0.91014960  1
  Al  Al62  1  0.57697566  0.91428819  0.40766565  1
  Al  Al63  1  0.57521063  0.92074575  0.91941060  1
  Al  Al64  1  0.07681638  0.08273306  0.42043840  1
  Al  Al65  1  0.09042199  0.07188917  0.90982352  1
  Al  Al66  1  0.09013481  0.59214717  0.41793372  1
  Al  Al67  1  0.08646090  0.57762438  0.90484664  1
  Al  Al68  1  0.58366286  0.09629061  0.41687667  1
  Al  Al69  1  0.57816452  0.08201249  0.91757464  1
  Al  Al70  1  0.58449089  0.57600277  0.40509383  1
  Al  Al71  1  0.57962361  0.57455460  0.92340817  1
  Al  Al72  1  0.42712043  0.41233257  0.41168492  1
  Al  Al73  1  0.41711534  0.41046177  0.90433028  1
  Al  Al74  1  0.42476928  0.91387211  0.41723670  1
  Al  Al75  1  0.40895873  0.91872309  0.90729027  1
  Al  Al76  1  0.90142494  0.42171542  0.41397436  1
  Al  Al77  1  0.92667066  0.42591250  0.92318674  1
  Al  Al78  1  0.92351970  0.92048628  0.41736016  1
  Al  Al79  1  0.92066576  0.91628345  0.91334176  1
  Al  Al80  1  0.07861965  0.41750586  0.07645732  1
  Al  Al81  1  0.08906137  0.43544326  0.59036076  1
  Al  Al82  1  0.07728804  0.90842863  0.08458797  1
  Al  Al83  1  0.08640219  0.91470281  0.58720321  1
  Al  Al84  1  0.58228706  0.41422332  0.09149652  1
  Al  Al85  1  0.58617224  0.41102097  0.57490837  1
  Al  Al86  1  0.58757370  0.91838538  0.09865830  1
  Al  Al87  1  0.58183915  0.92605294  0.58839188  1
  Al  Al88  1  0.43012235  0.09110779  0.08571447  1
  Al  Al89  1  0.40751168  0.08563235  0.58290642  1
  Al  Al90  1  0.42725788  0.59139408  0.08298743  1
  Al  Al91  1  0.40521604  0.58423001  0.58807386  1
  Al  Al92  1  0.91562771  0.08326630  0.07963338  1
  Al  Al93  1  0.90118776  0.07789022  0.58826518  1
  Al  Al94  1  0.90788173  0.58805869  0.08384733  1
  Al  Al95  1  0.92990980  0.58453058  0.58907403  1
  Al  Al96  1  0.25447595  0.13630951  0.13486591  1
  Al  Al97  1  0.25426525  0.12683423  0.63876893  1
  Al  Al98  1  0.24937965  0.63365480  0.13746901  1
  Al  Al99  1  0.24594106  0.63268908  0.63684194  1
  Al  Al100  1  0.74381888  0.13221214  0.13720589  1
  Al  Al101  1  0.74438465  0.13381458  0.63358693  1
  Al  Al102  1  0.75064438  0.63596616  0.13351565  1
  Al  Al103  1  0.75336239  0.63576001  0.63426532  1
  Al  Al104  1  0.25531746  0.36592706  0.13605847  1
  Al  Al105  1  0.25336966  0.36839051  0.63490987  1
  Al  Al106  1  0.24351269  0.85973681  0.13692137  1
  Al  Al107  1  0.24870491  0.87103508  0.63533581  1
  Al  Al108  1  0.74388855  0.36515523  0.13820165  1
  Al  Al109  1  0.74704510  0.36389326  0.63513252  1
  Al  Al110  1  0.74763767  0.86316821  0.13647101  1
  Al  Al111  1  0.74985674  0.86866106  0.63719404  1
  Al  Al112  1  0.25718083  0.13741340  0.36518479  1
  Al  Al113  1  0.25431921  0.13466081  0.86371121  1
  Al  Al114  1  0.24678446  0.63129908  0.36473736  1
  Al  Al115  1  0.24684394  0.62517930  0.85728940  1
  Al  Al116  1  0.74104296  0.13131105  0.36503399  1
  Al  Al117  1  0.74470965  0.13546785  0.86237244  1
  Al  Al118  1  0.75025254  0.63437439  0.36537034  1
  Al  Al119  1  0.75382406  0.63469024  0.86703850  1
  Al  Al120  1  0.24909713  0.36786806  0.36716280  1
  Al  Al121  1  0.25377674  0.37180805  0.86017560  1
  Al  Al122  1  0.24951788  0.86826845  0.36408120  1
  Al  Al123  1  0.24791849  0.86838712  0.86172762  1
  Al  Al124  1  0.74528578  0.36855286  0.36442354  1
  Al  Al125  1  0.75032408  0.36322069  0.86173243  1
  Al  Al126  1  0.74888923  0.87290728  0.35797320  1
  Al  Al127  1  0.75136634  0.86382842  0.86169106  1
  Al  Al128  1  0.13713508  0.25094073  0.13670345  1
  Al  Al129  1  0.13827684  0.24428871  0.63922018  1
  Al  Al130  1  0.12736072  0.74742495  0.13751177  1
  Al  Al131  1  0.12963377  0.74826852  0.63754156  1
  Al  Al132  1  0.63106371  0.24690022  0.13563420  1
  Al  Al133  1  0.63267370  0.25009594  0.62805015  1
  Al  Al134  1  0.63402808  0.74609273  0.13729167  1
  Al  Al135  1  0.63807156  0.74803928  0.63381274  1
  Al  Al136  1  0.13842969  0.24527103  0.36646038  1
  Al  Al137  1  0.13973352  0.25199366  0.85843372  1
  Al  Al138  1  0.13470003  0.74624175  0.36761503  1
  Al  Al139  1  0.13696648  0.74866502  0.86295359  1
  Al  Al140  1  0.63551540  0.25313049  0.36704083  1
  Al  Al141  1  0.62775987  0.25108854  0.86246514  1
  Al  Al142  1  0.63693140  0.75267099  0.36378201  1
  Al  Al143  1  0.63660115  0.74906722  0.86332767  1
  Al  Al144  1  0.36651459  0.25008025  0.13110298  1
  Al  Al145  1  0.36331287  0.24952385  0.62942659  1
  Al  Al146  1  0.36463826  0.74940143  0.13554189  1
  Al  Al147  1  0.36000642  0.75206576  0.63761894  1
  Al  Al148  1  0.86064487  0.24827833  0.13781777  1
  Al  Al149  1  0.86354784  0.25078390  0.63654619  1
  Al  Al150  1  0.86709185  0.74903387  0.13588700  1
  Al  Al151  1  0.87262568  0.74407119  0.63704001  1
  Al  Al152  1  0.36563376  0.25369912  0.36940132  1
  Al  Al153  1  0.36680216  0.25271586  0.86404519  1
  Al  Al154  1  0.36414891  0.74815941  0.36459244  1
  Al  Al155  1  0.35972047  0.74952373  0.86004267  1
  Al  Al156  1  0.85803509  0.24939377  0.36361762  1
  Al  Al157  1  0.86241312  0.24747488  0.86074438  1
  Al  Al158  1  0.86376489  0.75002535  0.36227566  1
  Al  Al159  1  0.86751546  0.74517929  0.86288933  1
  Al  Al160  1  0.13863718  0.13462462  0.24791852  1
  Al  Al161  1  0.13830559  0.12796730  0.75189400  1
  Al  Al162  1  0.13437326  0.63093930  0.25101603  1
  Al  Al163  1  0.12984731  0.63370704  0.74778121  1
  Al  Al164  1  0.63086523  0.13205525  0.25039291  1
  Al  Al165  1  0.63175709  0.13181802  0.74517632  1
  Al  Al166  1  0.63724761  0.62959573  0.25143763  1
  Al  Al167  1  0.63556367  0.63495980  0.75028641  1
  Al  Al168  1  0.36942864  0.13600537  0.24974424  1
  Al  Al169  1  0.36715195  0.13398332  0.75009205  1
  Al  Al170  1  0.36609031  0.63269610  0.24878360  1
  Al  Al171  1  0.36092034  0.62709925  0.74664018  1
  Al  Al172  1  0.86046599  0.13303626  0.25139139  1
  Al  Al173  1  0.86257635  0.13392185  0.74358839  1
  Al  Al174  1  0.86408843  0.63366006  0.24931889  1
  Al  Al175  1  0.86883642  0.62889910  0.75078861  1
  Al  Al176  1  0.13672299  0.36433780  0.25400082  1
  Al  Al177  1  0.13916736  0.37003498  0.74727566  1
  Al  Al178  1  0.12848165  0.85958717  0.25266639  1
  Al  Al179  1  0.13612661  0.87005358  0.74743683  1
  Al  Al180  1  0.63268773  0.37005056  0.25454742  1
  Al  Al181  1  0.63001639  0.36323209  0.74766489  1
  Al  Al182  1  0.63463367  0.87045485  0.24915497  1
  Al  Al183  1  0.63420312  0.86560243  0.74399932  1
  Al  Al184  1  0.36631546  0.36738129  0.25509909  1
  Al  Al185  1  0.36777905  0.36767708  0.74746195  1
  Al  Al186  1  0.36649647  0.86367234  0.25299547  1
  Al  Al187  1  0.36201486  0.86986952  0.74893540  1
  Al  Al188  1  0.86118537  0.36678630  0.25370067  1
  Al  Al189  1  0.86302841  0.37190552  0.74744886  1
  Al  Al190  1  0.86963408  0.86444670  0.24758011  1
  Al  Al191  1  0.86628229  0.86325826  0.74586459  1
  Al  Al192  1  0.81645144  -0.00163671  0.17718870  1
  Al  Al193  1  0.67391449  0.32198271  -0.00163865  1
  Al  Al194  1  0.67187245  -0.00205247  0.81720597  1
  Al  Al195  1  -0.00072383  0.17587554  0.31798066  1
  Al  Al196  1  0.00061638  0.32715840  0.82607203  1
  Al  Al197  1  0.81367477  0.17784579  0.49965980  1
  Al  Al198  1  -0.00116506  0.31990021  0.17600425  1
  Al  Al199  1  0.82597245  -0.00131694  0.81308697  1
  Al  Al200  1  0.82801951  0.82736272  0.50248422  1
  Al  Al201  1  0.32957096  0.67392288  -0.00285384  1
  Al  Al202  1  0.18947928  0.17147950  0.50183330  1
  Al  Al203  1  0.17893970  0.17288722  -0.00123629  1
  Al  Al204  1  0.00290260  0.32615806  0.66740488  1
  Al  Al205  1  0.81839787  0.17581547  -0.00093010  1
  Al  Al206  1  0.50187212  0.68855648  0.30983028  1
  Al  Al207  1  0.49776423  0.66963130  0.82974141  1
  Al  Al208  1  0.67695792  0.49966912  0.67064798  1
  Al  Al209  1  0.17416611  0.67525158  0.00003795  1
  Al  Al210  1  0.17501976  0.33211089  0.50247742  1
  Al  Al211  1  0.17785896  0.49668262  0.18096728  1
  Al  Al212  1  0.00039715  0.32640731  0.33697451  1
  Al  Al213  1  0.50149190  0.17794301  0.67250747  1
  Al  Al214  1  0.81172576  0.32781795  0.49944250  1
  Al  Al215  1  0.50086379  0.81027320  0.19047872  1
  Al  Al216  1  0.32908614  -0.00332597  0.16999056  1
  Al  Al217  1  0.18348649  0.80930616  0.50182139  1
  Al  Al218  1  0.66578551  0.82423171  0.49964430  1
  Al  Al219  1  0.68056099  0.67345976  -0.00077864  1
  Al  Al220  1  0.67699770  0.49911540  0.82481269  1
  Al  Al221  1  0.16616988  -0.00257237  0.17861350  1
  Al  Al222  1  0.49969918  0.30893235  0.19365559  1
  Al  Al223  1  0.82774762  0.66460710  0.49759869  1
  Al  Al224  1  0.31013026  0.68081169  0.50097413  1
  Al  Al225  1  -0.00106031  0.17115870  0.82287253  1
  Al  Al226  1  0.32607203  0.50050720  0.32629019  1
  Al  Al227  1  0.00121345  0.81709101  0.81778309  1
  Al  Al228  1  0.18073656  0.32737027  -0.00191464  1
  Al  Al229  1  0.49777926  0.68195455  0.67543217  1
  Al  Al230  1  0.82894290  0.81088572  -0.00123075  1
  Al  Al231  1  0.32549895  0.00120113  0.33201571  1
  Al  Al232  1  0.67181449  0.82926724  0.00094879  1
  Al  Al233  1  0.50006810  0.19294016  0.31404431  1
  Al  Al234  1  0.00026454  0.68034000  0.31735782  1
  Al  Al235  1  0.82987531  0.32873442  0.00105104  1
  Al  Al236  1  0.49861643  0.82320459  0.82139069  1
  Al  Al237  1  0.81652866  0.50018270  0.18547054  1
  Al  Al238  1  0.32230703  0.82672786  -0.00096293  1
  Au  Au239  1  0.32407755  0.49890281  0.33891340  1
  Au  Au240  1  0.82579225  -0.00149138  0.16307527  1
  Au  Au241  1  0.17585490  0.65890563  -0.00400594  1
  Au  Au242  1  0.82524090  0.16928125  0.50041521  1
  Au  Au243  1  0.17429081  0.16358173  0.50131621  1
  Au  Au244  1  0.83995462  0.66755142  0.49561167  1
  Au  Au245  1  0.33638299  0.00083230  0.33817076  1
  Au  Au246  1  0.33094079  0.33734436  -0.00175817  1
  Au  Au247  1  0.17185004  0.34807975  0.50201892  1
  Au  Au248  1  -0.00237532  0.17042601  0.16817097  1
  Au  Au249  1  0.49861520  0.83428662  0.67308783  1
  Au  Au250  1  0.49796934  0.17771833  0.83652155  1
  Au  Au251  1  0.82709888  0.49909095  0.84077549  1
  Au  Au252  1  0.34286212  0.50416274  0.16459137  1
  Au  Au253  1  0.66846555  0.66890660  -0.00090868  1
  Au  Au254  1  0.67034837  0.15835916  0.00459257  1
  Au  Au255  1  0.17722732  -0.00069473  0.67903178  1
  Au  Au256  1  0.34084691  0.16763989  -0.00134783  1
  Au  Au257  1  0.16273186  0.17021319  -0.00283523  1
  Au  Au258  1  0.50047700  0.67624124  0.32160720  1
  Au  Au259  1  -0.00219764  0.82900768  0.32570535  1
  Au  Au260  1  0.32803278  0.49963675  0.82255492  1
  Au  Au261  1  0.00015200  0.82623439  0.67068262  1
  Au  Au262  1  0.82741590  0.50228727  0.66423711  1
  Au  Au263  1  0.17323142  0.84125787  -0.00353990  1
  Au  Au264  1  0.34410681  -0.00299220  0.16104831  1
  Au  Au265  1  -0.00023327  0.66811948  0.82672351  1
  Au  Au266  1  0.50041043  0.34185229  0.67480569  1
  Au  Au267  1  0.16085168  0.00086959  0.33167103  1
  Au  Au268  1  -0.00024147  0.34159077  0.32916025  1
  Au  Au269  1  0.67209144  -0.00445832  0.82989095  1
  Au  Au270  1  0.17161427  0.82121334  0.50163530  1
  Au  Au271  1  0.16155745  0.49331785  0.17677005  1
  Au  Au272  1  0.66789404  0.83641697  0.49828611  1
  Au  Au273  1  0.65964508  0.00323025  0.32759172  1
  Au  Au274  1  0.34501319  0.32675580  0.50009287  1
  Au  Au275  1  0.66291841  0.65904027  0.50031993  1
  Au  Au276  1  0.34494039  0.82536522  0.50077515  1
  Au  Au277  1  0.83339560  0.82724302  -0.00225908  1
  Au  Au278  1  0.66825578  0.49976083  0.18046031  1
  Au  Au279  1  -0.00420738  0.67453907  0.16764825  1
  Au  Au280  1  -0.00109760  0.15946085  0.66262503  1
  Au  Au281  1  0.66975657  0.33398253  -0.00258663  1
  Au  Au282  1  0.83040579  0.00224112  0.33609820  1
  Au  Au283  1  -0.00053341  0.16740432  0.83874189  1
  Au  Au284  1  0.49745737  0.16971921  0.66415392  1
  Au  Au285  1  0.16904840  -0.00113861  0.16651609  1
  Au  Au286  1  0.00293572  0.34226233  0.67312266  1
  Au  Au287  1  0.82817613  0.84500295  0.50603678  1
