# generated using pymatgen
data_Ca24Ti8Al207Au49
_symmetry_space_group_name_H-M   'P 1'
_cell_length_a   17.32067487
_cell_length_b   17.31881423
_cell_length_c   17.31939503
_cell_angle_alpha   90.00204276
_cell_angle_beta   89.99650999
_cell_angle_gamma   89.99574822
_symmetry_Int_Tables_number   1
_chemical_formula_structural   Ca24Ti8Al207Au49
_chemical_formula_sum   'Ca24 Ti8 Al207 Au49'
_cell_volume   5195.36039146
_cell_formula_units_Z   1
loop_
 _symmetry_equiv_pos_site_id
 _symmetry_equiv_pos_as_xyz
  1  'x, y, z'
loop_
 _atom_site_type_symbol
 _atom_site_label
 _atom_site_symmetry_multiplicity
 _atom_site_fract_x
 _atom_site_fract_y
 _atom_site_fract_z
 _atom_site_occupancy
  Ca  Ca0  1  0.25217419  -0.00562407  -0.00311228  1
  Ca  Ca1  1  0.24302269  -0.00408192  0.50683713  1
  Ca  Ca2  1  0.25335957  0.50337229  -0.00503716  1
  Ca  Ca3  1  0.24634833  0.50492281  0.50196608  1
  Ca  Ca4  1  0.74512011  -0.00647200  -0.00146351  1
  Ca  Ca5  1  0.75244292  -0.00441355  0.50167451  1
  Ca  Ca6  1  0.74717620  0.50320204  0.00322252  1
  Ca  Ca7  1  0.74926373  0.50104581  0.49981925  1
  Ca  Ca8  1  0.00393169  0.25090503  -0.00125480  1
  Ca  Ca9  1  -0.00347424  0.25172713  0.50309717  1
  Ca  Ca10  1  0.00008495  0.75140404  -0.00215662  1
  Ca  Ca11  1  -0.00202986  0.75159346  0.49948132  1
  Ca  Ca12  1  0.50316099  0.25485820  -0.00595236  1
  Ca  Ca13  1  0.50165275  0.25492402  0.50510151  1
  Ca  Ca14  1  0.50138374  0.75139661  -0.00440377  1
  Ca  Ca15  1  0.50134876  0.75021030  0.50369692  1
  Ca  Ca16  1  -0.00638147  -0.00439351  0.25504207  1
  Ca  Ca17  1  -0.00246867  -0.00629084  0.74570455  1
  Ca  Ca18  1  -0.00086428  0.50342671  0.25340256  1
  Ca  Ca19  1  0.00030117  0.50255317  0.74642719  1
  Ca  Ca20  1  0.50675627  -0.00039629  0.24968431  1
  Ca  Ca21  1  0.50332051  -0.00104895  0.75222283  1
  Ca  Ca22  1  0.50471927  0.49863148  0.25118312  1
  Ca  Ca23  1  0.49880514  0.49842760  0.75013691  1
  Ti  Ti24  1  0.24948640  0.25196460  0.25188250  1
  Ti  Ti25  1  0.25086744  0.25005243  0.74936001  1
  Ti  Ti26  1  0.24696584  0.74997461  0.24985934  1
  Ti  Ti27  1  0.25027035  0.74983247  0.75033503  1
  Ti  Ti28  1  0.75011561  0.24984265  0.25292192  1
  Ti  Ti29  1  0.74860729  0.25101442  0.74767060  1
  Ti  Ti30  1  0.75175866  0.75125795  0.24940996  1
  Ti  Ti31  1  0.75017262  0.74958623  0.75040434  1
  Al  Al32  1  0.06820584  0.07741161  0.08042168  1
  Al  Al33  1  0.07530903  0.08685408  0.59134953  1
  Al  Al34  1  0.07830136  0.58868283  0.08137135  1
  Al  Al35  1  0.08061385  0.58536968  0.58377479  1
  Al  Al36  1  0.58284720  0.07255078  0.08809379  1
  Al  Al37  1  0.58839131  0.07876407  0.59741485  1
  Al  Al38  1  0.59115325  0.58337645  0.08657136  1
  Al  Al39  1  0.58018965  0.57774130  0.58050319  1
  Al  Al40  1  0.40954869  0.41559242  0.07713340  1
  Al  Al41  1  0.42120293  0.41537681  0.59769892  1
  Al  Al42  1  0.42107912  0.90628397  0.07006221  1
  Al  Al43  1  0.41804302  0.91595825  0.58578569  1
  Al  Al44  1  0.91286724  0.42616998  0.09304603  1
  Al  Al45  1  0.92626785  0.41107312  0.58766803  1
  Al  Al46  1  0.91868996  0.91677383  0.08403579  1
  Al  Al47  1  0.91199372  0.90859058  0.58388611  1
  Al  Al48  1  0.43336641  0.07694532  0.42107452  1
  Al  Al49  1  0.42517669  0.08451782  0.90825984  1
  Al  Al50  1  0.42299019  0.58417632  0.42294168  1
  Al  Al51  1  0.41950596  0.58624415  0.91108115  1
  Al  Al52  1  0.91621846  0.07707293  0.42030333  1
  Al  Al53  1  0.91850733  0.08016110  0.91709549  1
  Al  Al54  1  0.91554273  0.58982706  0.41115888  1
  Al  Al55  1  0.92391856  0.58305797  0.91535949  1
  Al  Al56  1  0.08503815  0.40361783  0.41874771  1
  Al  Al57  1  0.08760692  0.42466157  0.90450118  1
  Al  Al58  1  0.07794462  0.90323920  0.42061562  1
  Al  Al59  1  0.08881408  0.90615501  0.90883922  1
  Al  Al60  1  0.59532907  0.41560523  0.41970311  1
  Al  Al61  1  0.57625390  0.42251536  0.90012532  1
  Al  Al62  1  0.60110930  0.91462255  0.42199397  1
  Al  Al63  1  0.58573161  0.91040457  0.91108520  1
  Al  Al64  1  0.07385511  0.08169760  0.42345511  1
  Al  Al65  1  0.07797277  0.07061317  0.90807695  1
  Al  Al66  1  0.07762091  0.59192320  0.41383834  1
  Al  Al67  1  0.08880062  0.58606669  0.90983254  1
  Al  Al68  1  0.59100147  0.07471789  0.40917026  1
  Al  Al69  1  0.58565034  0.07524129  0.89919285  1
  Al  Al70  1  0.58690138  0.57673226  0.41243435  1
  Al  Al71  1  0.58453975  0.58609544  0.90803540  1
  Al  Al72  1  0.42504171  0.42281145  0.42079101  1
  Al  Al73  1  0.41428353  0.40715772  0.91226547  1
  Al  Al74  1  0.41770306  0.91704624  0.42892639  1
  Al  Al75  1  0.42057484  0.90612783  0.91099934  1
  Al  Al76  1  0.92195614  0.41724819  0.40923610  1
  Al  Al77  1  0.92545003  0.42073432  0.91298669  1
  Al  Al78  1  0.91210463  0.90363505  0.41765333  1
  Al  Al79  1  0.92320031  0.91175895  0.90824273  1
  Al  Al80  1  0.07815224  0.42325196  0.07976800  1
  Al  Al81  1  0.08899157  0.40479093  0.58347293  1
  Al  Al82  1  0.08376332  0.90568496  0.07250523  1
  Al  Al83  1  0.07872710  0.90371572  0.58494278  1
  Al  Al84  1  0.58111597  0.42614195  0.09351005  1
  Al  Al85  1  0.58426842  0.40682091  0.58384987  1
  Al  Al86  1  0.58949128  0.91088889  0.07837945  1
  Al  Al87  1  0.59631550  0.91337110  0.58720336  1
  Al  Al88  1  0.42952056  0.08067780  0.07207175  1
  Al  Al89  1  0.42809165  0.08221811  0.59206255  1
  Al  Al90  1  0.41742096  0.57979545  0.08102268  1
  Al  Al91  1  0.40839043  0.57602713  0.58611222  1
  Al  Al92  1  0.91425411  0.08257014  0.08287297  1
  Al  Al93  1  0.91727698  0.08146069  0.58710562  1
  Al  Al94  1  0.91631049  0.58345732  0.09438224  1
  Al  Al95  1  0.92089283  0.59063494  0.57891051  1
  Al  Al96  1  0.24930164  0.13781994  0.13683571  1
  Al  Al97  1  0.25168992  0.13256309  0.63855131  1
  Al  Al98  1  0.24775523  0.63770253  0.13183266  1
  Al  Al99  1  0.24862732  0.63544268  0.63666897  1
  Al  Al100  1  0.75044909  0.13550232  0.13751164  1
  Al  Al101  1  0.74434838  0.13733908  0.63741177  1
  Al  Al102  1  0.75387746  0.63491338  0.13836757  1
  Al  Al103  1  0.75044379  0.63062103  0.63701847  1
  Al  Al104  1  0.24936174  0.36532131  0.13507173  1
  Al  Al105  1  0.24853278  0.36512662  0.63751095  1
  Al  Al106  1  0.24534874  0.86352144  0.13106398  1
  Al  Al107  1  0.24893281  0.86751418  0.63490704  1
  Al  Al108  1  0.75106820  0.36613843  0.13592495  1
  Al  Al109  1  0.74631292  0.36878996  0.63474748  1
  Al  Al110  1  0.75131664  0.86416065  0.13026914  1
  Al  Al111  1  0.74829357  0.86394031  0.63321141  1
  Al  Al112  1  0.24606206  0.13676820  0.36421533  1
  Al  Al113  1  0.25306284  0.13530294  0.86244272  1
  Al  Al114  1  0.24896270  0.63662486  0.36623403  1
  Al  Al115  1  0.24964577  0.63053792  0.86405772  1
  Al  Al116  1  0.74778194  0.12841378  0.36542462  1
  Al  Al117  1  0.74673872  0.13393404  0.85771548  1
  Al  Al118  1  0.74991931  0.63550990  0.36445793  1
  Al  Al119  1  0.74551215  0.63534062  0.86319579  1
  Al  Al120  1  0.24368558  0.36453704  0.37059790  1
  Al  Al121  1  0.25175651  0.37129945  0.85983502  1
  Al  Al122  1  0.24624494  0.85967407  0.37380494  1
  Al  Al123  1  0.24940578  0.86274434  0.86735316  1
  Al  Al124  1  0.74518356  0.36878963  0.36726625  1
  Al  Al125  1  0.74377936  0.36665859  0.85880105  1
  Al  Al126  1  0.75271946  0.86698522  0.36767158  1
  Al  Al127  1  0.74769140  0.86331054  0.86894555  1
  Al  Al128  1  0.13481488  0.25262028  0.13385726  1
  Al  Al129  1  0.13342402  0.25413300  0.63614789  1
  Al  Al130  1  0.13343907  0.75180012  0.12946765  1
  Al  Al131  1  0.13377458  0.75492333  0.63544670  1
  Al  Al132  1  0.63629518  0.25592754  0.13717823  1
  Al  Al133  1  0.62766890  0.25304141  0.63695787  1
  Al  Al134  1  0.63814578  0.75022994  0.13521296  1
  Al  Al135  1  0.63579585  0.75280387  0.63722138  1
  Al  Al136  1  0.12669099  0.25256529  0.36675465  1
  Al  Al137  1  0.13337174  0.25199450  0.86196780  1
  Al  Al138  1  0.12893903  0.75073154  0.36528128  1
  Al  Al139  1  0.13245821  0.75174681  0.86754708  1
  Al  Al140  1  0.63774361  0.25423248  0.36816897  1
  Al  Al141  1  0.63275427  0.24810132  0.86344273  1
  Al  Al142  1  0.64036031  0.75437525  0.36571902  1
  Al  Al143  1  0.63362872  0.75495766  0.86289915  1
  Al  Al144  1  0.36402074  0.25638726  0.13268684  1
  Al  Al145  1  0.37421362  0.25347855  0.64080699  1
  Al  Al146  1  0.36402025  0.75264095  0.13243975  1
  Al  Al147  1  0.36721781  0.75394349  0.63877204  1
  Al  Al148  1  0.86295792  0.24962407  0.13890930  1
  Al  Al149  1  0.86441313  0.25221752  0.63537340  1
  Al  Al150  1  0.86776027  0.75591912  0.13571895  1
  Al  Al151  1  0.86449178  0.75626860  0.63389820  1
  Al  Al152  1  0.36535233  0.25483642  0.36647172  1
  Al  Al153  1  0.36324198  0.25409319  0.86189600  1
  Al  Al154  1  0.36484195  0.75182206  0.36560158  1
  Al  Al155  1  0.36377628  0.75313198  0.86581998  1
  Al  Al156  1  0.86783759  0.25239441  0.36356343  1
  Al  Al157  1  0.86517418  0.25065357  0.85943838  1
  Al  Al158  1  0.86673125  0.75331950  0.36409923  1
  Al  Al159  1  0.87002174  0.75288547  0.86237976  1
  Al  Al160  1  0.13328484  0.13416845  0.25360381  1
  Al  Al161  1  0.13129935  0.13486205  0.74390815  1
  Al  Al162  1  0.13266673  0.63590575  0.25376869  1
  Al  Al163  1  0.13341761  0.63641607  0.75313237  1
  Al  Al164  1  0.63592587  0.13588879  0.25197862  1
  Al  Al165  1  0.62881995  0.13596910  0.75023056  1
  Al  Al166  1  0.63708724  0.63627295  0.24937450  1
  Al  Al167  1  0.63537660  0.63057059  0.74853545  1
  Al  Al168  1  0.36598792  0.13739034  0.25072961  1
  Al  Al169  1  0.37160803  0.13303552  0.75058940  1
  Al  Al170  1  0.36402505  0.63838026  0.24860113  1
  Al  Al171  1  0.36136075  0.62888782  0.75106619  1
  Al  Al172  1  0.86339399  0.12852466  0.25669279  1
  Al  Al173  1  0.86807609  0.13371549  0.74411798  1
  Al  Al174  1  0.86692520  0.63726714  0.25332019  1
  Al  Al175  1  0.86630722  0.63541510  0.75147377  1
  Al  Al176  1  0.13498653  0.36671161  0.25284530  1
  Al  Al177  1  0.13256427  0.36649361  0.74913956  1
  Al  Al178  1  0.12763526  0.86146470  0.25150988  1
  Al  Al179  1  0.13130753  0.86256628  0.75012411  1
  Al  Al180  1  0.63030101  0.36629642  0.25391059  1
  Al  Al181  1  0.63254567  0.36885577  0.74574077  1
  Al  Al182  1  0.64067283  0.86561306  0.25163486  1
  Al  Al183  1  0.63711226  0.87027579  0.75208197  1
  Al  Al184  1  0.36910868  0.36584438  0.25181570  1
  Al  Al185  1  0.36401684  0.37328278  0.74804658  1
  Al  Al186  1  0.35614045  0.86329026  0.24919978  1
  Al  Al187  1  0.36535297  0.87031332  0.75250951  1
  Al  Al188  1  0.86281448  0.36635168  0.25270771  1
  Al  Al189  1  0.86788559  0.36710907  0.74636763  1
  Al  Al190  1  0.86675173  0.86900171  0.25267760  1
  Al  Al191  1  0.86460116  0.86519478  0.74965036  1
  Al  Al192  1  -0.00008870  0.18199866  0.82090549  1
  Al  Al193  1  0.82923478  0.33021833  -0.00037230  1
  Al  Al194  1  0.66835644  0.18044847  0.50104677  1
  Al  Al195  1  0.50167042  0.81788749  0.17254312  1
  Al  Al196  1  0.82601797  0.68713093  0.49960444  1
  Al  Al197  1  0.32555081  0.67967238  0.50183816  1
  Al  Al198  1  0.68004438  -0.00155467  0.18474844  1
  Al  Al199  1  0.50253862  0.82162727  0.68113925  1
  Al  Al200  1  0.67120222  0.68539711  0.50102472  1
  Al  Al201  1  0.31994673  0.50017768  0.17940627  1
  Al  Al202  1  0.81737014  -0.00177085  0.82668977  1
  Al  Al203  1  0.17158784  0.18517608  0.50283327  1
  Al  Al204  1  0.18372213  0.33056642  -0.00398550  1
  Al  Al205  1  0.81552606  0.49990111  0.82045003  1
  Al  Al206  1  0.18224732  -0.00146036  0.81648810  1
  Al  Al207  1  -0.00050157  0.68865387  0.67855930  1
  Al  Al208  1  0.32762347  0.00184853  0.32798413  1
  Al  Al209  1  0.17075953  -0.00311185  0.33111075  1
  Al  Al210  1  0.33040549  -0.00214027  0.16654230  1
  Al  Al211  1  0.50238965  0.17870953  0.32668213  1
  Al  Al212  1  0.81792614  0.32995629  0.49977590  1
  Al  Al213  1  0.82762275  0.67872738  -0.00043237  1
  Al  Al214  1  0.32817885  0.17237641  0.50043233  1
  Al  Al215  1  0.67230451  0.68306214  -0.00176729  1
  Al  Al216  1  0.50135226  0.17907009  0.17287701  1
  Al  Al217  1  0.82495071  0.17267867  0.50118419  1
  Al  Al218  1  0.17128158  0.68483513  0.50132034  1
  Al  Al219  1  0.32172441  0.68037191  0.00100727  1
  Al  Al220  1  0.18007211  0.50112401  0.68160486  1
  Al  Al221  1  0.50245332  0.67452491  0.32037483  1
  Al  Al222  1  0.49944941  0.68964504  0.81559493  1
  Al  Al223  1  -0.00154943  0.33212338  0.18976688  1
  Al  Al224  1  0.16858154  0.00022900  0.16986900  1
  Al  Al225  1  0.00020124  0.68110332  0.18652774  1
  Al  Al226  1  0.82389462  0.17388811  -0.00246477  1
  Al  Al227  1  0.50010289  0.83497095  0.32478849  1
  Al  Al228  1  0.17160636  0.16948050  -0.00163034  1
  Al  Al229  1  0.33056632  0.18317117  -0.00155857  1
  Al  Al230  1  0.81149359  0.50123244  0.31321984  1
  Al  Al231  1  0.66794680  0.33517897  -0.00359056  1
  Al  Al232  1  -0.00220447  0.17578371  0.18335142  1
  Al  Al233  1  0.32092775  0.33171501  0.50439548  1
  Al  Al234  1  0.17445030  0.49792848  0.32771777  1
  Al  Al235  1  0.69113671  0.50017930  0.19184213  1
  Al  Al236  1  0.49868109  0.31107794  0.80631966  1
  Al  Al237  1  0.66894785  0.16732982  -0.00036493  1
  Al  Al238  1  0.81327880  -0.00041379  0.67177840  1
  Au  Au239  1  0.50742528  0.82809818  0.33850210  1
  Au  Au240  1  0.50126356  0.17841021  0.68300668  1
  Au  Au241  1  0.15924538  -0.00493880  0.66932534  1
  Au  Au242  1  0.82849779  0.83747786  -0.00323589  1
  Au  Au243  1  0.66250635  0.35013987  -0.00431354  1
  Au  Au244  1  0.33107431  0.49904095  0.82917821  1
  Au  Au245  1  0.00000742  0.16982163  0.82493889  1
  Au  Au246  1  0.82682015  0.50131001  0.32070048  1
  Au  Au247  1  0.66764628  0.16391728  0.50029704  1
  Au  Au248  1  0.49397627  0.65885819  0.67216767  1
  Au  Au249  1  0.00165395  0.33560627  0.81655476  1
  Au  Au250  1  -0.00486743  0.17269272  0.33327460  1
  Au  Au251  1  0.33063165  0.00184962  0.66941520  1
  Au  Au252  1  0.17191088  0.50515830  0.16308338  1
  Au  Au253  1  0.50101532  0.66555361  0.16925084  1
  Au  Au254  1  0.34332566  0.16403763  0.50089329  1
  Au  Au255  1  0.00101212  0.33047058  0.17262462  1
  Au  Au256  1  0.33607539  0.00116111  0.33723737  1
  Au  Au257  1  0.49532813  0.32868385  0.16270310  1
  Au  Au258  1  0.82413360  -0.00363213  0.33884695  1
  Au  Au259  1  0.16285439  -0.00480090  0.34065944  1
  Au  Au260  1  0.50373496  0.83425489  0.68288258  1
  Au  Au261  1  0.34656804  0.17851495  -0.00376695  1
  Au  Au262  1  0.84564588  0.32563850  0.00211019  1
  Au  Au263  1  0.83689500  0.50290871  0.66144420  1
  Au  Au264  1  0.34064575  0.50510140  0.32649131  1
  Au  Au265  1  0.16564352  0.50184788  0.33552367  1
  Au  Au266  1  0.15743790  -0.00516513  0.16685961  1
  Au  Au267  1  0.32284723  0.82800689  0.50413359  1
  Au  Au268  1  0.67357526  0.66885614  0.49731295  1
  Au  Au269  1  0.33048422  0.67162875  -0.00152061  1
  Au  Au270  1  0.82641345  0.66309739  0.00425627  1
  Au  Au271  1  0.82965130  0.00000443  0.82310468  1
  Au  Au272  1  0.16737980  0.49938994  0.67057151  1
  Au  Au273  1  0.83478146  0.32940500  0.49782579  1
  Au  Au274  1  0.15636124  0.17791167  0.50391320  1
  Au  Au275  1  0.66298859  0.49658665  0.67182490  1
  Au  Au276  1  0.82317343  0.50038283  0.83585594  1
  Au  Au277  1  0.00032142  0.82745563  0.17285567  1
  Au  Au278  1  0.16007171  0.15819099  -0.00202579  1
  Au  Au279  1  0.34741351  -0.00353001  0.16384954  1
  Au  Au280  1  0.50506842  0.32779730  0.34014897  1
  Au  Au281  1  0.17475940  0.34494000  -0.00480219  1
  Au  Au282  1  0.82612322  0.00056570  0.16741287  1
  Au  Au283  1  0.16549925  0.67839305  -0.00208484  1
  Au  Au284  1  0.32571210  0.34793176  0.50515146  1
  Au  Au285  1  0.67003802  0.15175825  -0.00473727  1
  Au  Au286  1  0.00117193  0.67556833  0.82557739  1
  Au  Au287  1  0.33059918  -0.00272195  0.83766278  1
