# generated using pymatgen
data_Ca24Ti8Al207Au49
_symmetry_space_group_name_H-M   'P 1'
_cell_length_a   17.32606897
_cell_length_b   17.32608484
_cell_length_c   17.32412890
_cell_angle_alpha   89.99908287
_cell_angle_beta   90.00469291
_cell_angle_gamma   89.99795619
_symmetry_Int_Tables_number   1
_chemical_formula_structural   Ca24Ti8Al207Au49
_chemical_formula_sum   'Ca24 Ti8 Al207 Au49'
_cell_volume   5200.58118154
_cell_formula_units_Z   1
loop_
 _symmetry_equiv_pos_site_id
 _symmetry_equiv_pos_as_xyz
  1  'x, y, z'
loop_
 _atom_site_type_symbol
 _atom_site_label
 _atom_site_symmetry_multiplicity
 _atom_site_fract_x
 _atom_site_fract_y
 _atom_site_fract_z
 _atom_site_occupancy
  Ca  Ca0  1  0.25210862  0.00271816  0.00056152  1
  Ca  Ca1  1  0.24803868  0.00008379  0.49730348  1
  Ca  Ca2  1  0.25399114  0.49647562  -0.00105122  1
  Ca  Ca3  1  0.24646328  0.50378267  0.49854731  1
  Ca  Ca4  1  0.75102641  -0.00287748  0.00463041  1
  Ca  Ca5  1  0.75208439  0.00034308  0.49508120  1
  Ca  Ca6  1  0.74290077  0.50369786  -0.00268959  1
  Ca  Ca7  1  0.74778266  0.49629745  0.50458137  1
  Ca  Ca8  1  0.00428438  0.24680325  0.00326902  1
  Ca  Ca9  1  -0.00076958  0.24506611  0.49509633  1
  Ca  Ca10  1  0.00102508  0.75250571  0.00271850  1
  Ca  Ca11  1  0.00141489  0.75016045  0.50103200  1
  Ca  Ca12  1  0.49664406  0.25272486  0.00508924  1
  Ca  Ca13  1  0.50200434  0.24936857  0.49565898  1
  Ca  Ca14  1  0.50014833  0.75026928  0.00356229  1
  Ca  Ca15  1  0.49998964  0.74817143  0.49788204  1
  Ca  Ca16  1  0.00139113  0.00493282  0.25497706  1
  Ca  Ca17  1  -0.00257092  0.00303299  0.74859768  1
  Ca  Ca18  1  0.00278369  0.49749976  0.25536716  1
  Ca  Ca19  1  -0.00183043  0.49844597  0.74367735  1
  Ca  Ca20  1  0.49974229  -0.00429581  0.25000825  1
  Ca  Ca21  1  0.50181038  0.00183848  0.75408253  1
  Ca  Ca22  1  0.49470979  0.50438921  0.25275777  1
  Ca  Ca23  1  0.49986409  0.49868030  0.75114263  1
  Ti  Ti24  1  0.24955290  0.24934018  0.24969924  1
  Ti  Ti25  1  0.24868957  0.25061370  0.74955312  1
  Ti  Ti26  1  0.24996074  0.75094203  0.25208630  1
  Ti  Ti27  1  0.24990897  0.74737570  0.74809565  1
  Ti  Ti28  1  0.74978780  0.24959846  0.24994131  1
  Ti  Ti29  1  0.75073114  0.25015637  0.74900280  1
  Ti  Ti30  1  0.74867070  0.75077895  0.25086009  1
  Ti  Ti31  1  0.74954723  0.74997016  0.74961891  1
  Al  Al32  1  0.08672799  0.08454591  0.09575213  1
  Al  Al33  1  0.08170990  0.08477452  0.58128561  1
  Al  Al34  1  0.09328555  0.57110248  0.08671176  1
  Al  Al35  1  0.08591751  0.59169071  0.58545831  1
  Al  Al36  1  0.57962884  0.07565038  0.09130722  1
  Al  Al37  1  0.58777778  0.08659161  0.57455971  1
  Al  Al38  1  0.57270363  0.59108589  0.08835377  1
  Al  Al39  1  0.58963481  0.57352143  0.58400904  1
  Al  Al40  1  0.42001799  0.41426846  0.08893417  1
  Al  Al41  1  0.42089346  0.42354010  0.57783077  1
  Al  Al42  1  0.41738476  0.90646262  0.09005067  1
  Al  Al43  1  0.41772799  0.91993768  0.57436158  1
  Al  Al44  1  0.93078778  0.41324969  0.08383037  1
  Al  Al45  1  0.91885847  0.42363826  0.58120446  1
  Al  Al46  1  0.90813685  0.92064974  0.08476012  1
  Al  Al47  1  0.91937880  0.91966310  0.57770905  1
  Al  Al48  1  0.41474930  0.08511642  0.41870676  1
  Al  Al49  1  0.41976497  0.07890332  0.92260172  1
  Al  Al50  1  0.41051049  0.59493718  0.41335609  1
  Al  Al51  1  0.41392661  0.59423843  0.92278902  1
  Al  Al52  1  0.91834388  0.08766900  0.40896457  1
  Al  Al53  1  0.92324412  0.07928328  0.90560535  1
  Al  Al54  1  0.92458984  0.58262732  0.42953160  1
  Al  Al55  1  0.91819039  0.58107678  0.91848972  1
  Al  Al56  1  0.08253013  0.41111805  0.40815222  1
  Al  Al57  1  0.08040279  0.41542775  0.91751980  1
  Al  Al58  1  0.08639957  0.91647553  0.40405561  1
  Al  Al59  1  0.07428035  0.92818837  0.92329813  1
  Al  Al60  1  0.58225380  0.41548020  0.41926524  1
  Al  Al61  1  0.58065825  0.42302922  0.91283793  1
  Al  Al62  1  0.57857937  0.91381830  0.40695181  1
  Al  Al63  1  0.57803777  0.90842834  0.91500582  1
  Al  Al64  1  0.08451702  0.08586668  0.40252352  1
  Al  Al65  1  0.07846016  0.09059327  0.91274214  1
  Al  Al66  1  0.09234841  0.58851978  0.42242375  1
  Al  Al67  1  0.08269809  0.57806411  0.91923813  1
  Al  Al68  1  0.58590072  0.08552424  0.41669481  1
  Al  Al69  1  0.57734666  0.07521040  0.92104991  1
  Al  Al70  1  0.57518660  0.58495184  0.41393467  1
  Al  Al71  1  0.57808103  0.58260668  0.91400145  1
  Al  Al72  1  0.41862124  0.42076080  0.41589215  1
  Al  Al73  1  0.42120279  0.42116105  0.91980169  1
  Al  Al74  1  0.41837308  0.91204575  0.40916111  1
  Al  Al75  1  0.41980122  0.90558494  0.91949132  1
  Al  Al76  1  0.92718896  0.40704729  0.41491535  1
  Al  Al77  1  0.92282608  0.42011634  0.91308462  1
  Al  Al78  1  0.92144057  0.91774456  0.40644743  1
  Al  Al79  1  0.91383427  0.91989111  0.92152024  1
  Al  Al80  1  0.08850584  0.41431551  0.09942353  1
  Al  Al81  1  0.07952481  0.42499929  0.57919410  1
  Al  Al82  1  0.08857944  0.92972186  0.09202754  1
  Al  Al83  1  0.08219288  0.92198820  0.57562415  1
  Al  Al84  1  0.57539359  0.41452284  0.09012672  1
  Al  Al85  1  0.59230825  0.41633669  0.58504561  1
  Al  Al86  1  0.58086514  0.91244449  0.09512654  1
  Al  Al87  1  0.57922231  0.92113799  0.57655315  1
  Al  Al88  1  0.41723574  0.08062629  0.08813593  1
  Al  Al89  1  0.41287053  0.08474598  0.57461993  1
  Al  Al90  1  0.41191541  0.59783482  0.08546437  1
  Al  Al91  1  0.40773061  0.58791178  0.57327255  1
  Al  Al92  1  0.91924052  0.07744019  0.09672962  1
  Al  Al93  1  0.91849968  0.08716414  0.57854308  1
  Al  Al94  1  0.92270851  0.57928668  0.07548383  1
  Al  Al95  1  0.91974208  0.58953424  0.58989027  1
  Al  Al96  1  0.24675599  0.13077613  0.13520989  1
  Al  Al97  1  0.24710760  0.13447733  0.63145681  1
  Al  Al98  1  0.25273801  0.63714399  0.13619900  1
  Al  Al99  1  0.25079918  0.63434957  0.63057944  1
  Al  Al100  1  0.75236315  0.13542314  0.13808259  1
  Al  Al101  1  0.75133037  0.13500723  0.63556144  1
  Al  Al102  1  0.74660529  0.63695988  0.13106207  1
  Al  Al103  1  0.74576467  0.63530373  0.63349926  1
  Al  Al104  1  0.24709042  0.36413641  0.13203451  1
  Al  Al105  1  0.25239299  0.36384091  0.63120253  1
  Al  Al106  1  0.25014218  0.86709802  0.14080002  1
  Al  Al107  1  0.24862965  0.86306973  0.63322910  1
  Al  Al108  1  0.74595905  0.36266366  0.13378818  1
  Al  Al109  1  0.74763341  0.36452648  0.63510476  1
  Al  Al110  1  0.74867728  0.86306405  0.13772494  1
  Al  Al111  1  0.75096983  0.86415963  0.62813670  1
  Al  Al112  1  0.24589931  0.13285622  0.36574204  1
  Al  Al113  1  0.24467015  0.13527446  0.86986577  1
  Al  Al114  1  0.24904090  0.63859462  0.36943459  1
  Al  Al115  1  0.25163222  0.62890897  0.86366426  1
  Al  Al116  1  0.74763804  0.13529874  0.36225124  1
  Al  Al117  1  0.74959841  0.13500259  0.86340869  1
  Al  Al118  1  0.74666168  0.63951609  0.36315413  1
  Al  Al119  1  0.74750245  0.63705666  0.86901611  1
  Al  Al120  1  0.24579738  0.36301394  0.36695750  1
  Al  Al121  1  0.24980626  0.36742319  0.86908657  1
  Al  Al122  1  0.24639678  0.86820062  0.36316259  1
  Al  Al123  1  0.24913213  0.86198981  0.86491769  1
  Al  Al124  1  0.74907942  0.36130148  0.36269564  1
  Al  Al125  1  0.74955052  0.36375302  0.86642031  1
  Al  Al126  1  0.74952513  0.86345737  0.36868503  1
  Al  Al127  1  0.74715756  0.86381410  0.86570611  1
  Al  Al128  1  0.13567357  0.24705533  0.13227616  1
  Al  Al129  1  0.13640618  0.24683496  0.62769300  1
  Al  Al130  1  0.13643392  0.74849787  0.13977922  1
  Al  Al131  1  0.13508107  0.74235561  0.62833300  1
  Al  Al132  1  0.62828742  0.24909847  0.13614414  1
  Al  Al133  1  0.63565972  0.24614909  0.63448520  1
  Al  Al134  1  0.63090591  0.75209440  0.13315583  1
  Al  Al135  1  0.63614088  0.75339258  0.62792632  1
  Al  Al136  1  0.13190613  0.24780841  0.36638805  1
  Al  Al137  1  0.13628242  0.25001614  0.87104391  1
  Al  Al138  1  0.13068395  0.74955616  0.36401006  1
  Al  Al139  1  0.13619870  0.74385811  0.86367907  1
  Al  Al140  1  0.63354133  0.24839627  0.36275855  1
  Al  Al141  1  0.63671405  0.24840715  0.86810547  1
  Al  Al142  1  0.63212169  0.75313134  0.36799608  1
  Al  Al143  1  0.63450761  0.75120534  0.87017289  1
  Al  Al144  1  0.36436758  0.24883649  0.13284953  1
  Al  Al145  1  0.36094517  0.24459420  0.62914069  1
  Al  Al146  1  0.36876922  0.75013136  0.13950195  1
  Al  Al147  1  0.36305954  0.74854825  0.62808382  1
  Al  Al148  1  0.86691959  0.25125125  0.13655306  1
  Al  Al149  1  0.86603421  0.24733983  0.63366453  1
  Al  Al150  1  0.86581612  0.74914837  0.13556847  1
  Al  Al151  1  0.86647397  0.74923848  0.63424332  1
  Al  Al152  1  0.36214607  0.24718253  0.36510592  1
  Al  Al153  1  0.36028181  0.24957940  0.86995186  1
  Al  Al154  1  0.36305477  0.75049924  0.36748061  1
  Al  Al155  1  0.36204442  0.74648414  0.86642204  1
  Al  Al156  1  0.86809831  0.24774479  0.36354050  1
  Al  Al157  1  0.86596012  0.24808736  0.86382750  1
  Al  Al158  1  0.87007111  0.75290207  0.36312859  1
  Al  Al159  1  0.86360426  0.74768026  0.86425899  1
  Al  Al160  1  0.13158713  0.13645193  0.25194511  1
  Al  Al161  1  0.13068750  0.14009331  0.75056554  1
  Al  Al162  1  0.13941941  0.62882188  0.25375028  1
  Al  Al163  1  0.13591406  0.63365478  0.74682452  1
  Al  Al164  1  0.63325612  0.13405086  0.24832323  1
  Al  Al165  1  0.63416538  0.13190505  0.74999898  1
  Al  Al166  1  0.63255316  0.63961101  0.24618836  1
  Al  Al167  1  0.63649037  0.63953489  0.74950294  1
  Al  Al168  1  0.36266712  0.13232047  0.24603149  1
  Al  Al169  1  0.36374986  0.13828075  0.75305279  1
  Al  Al170  1  0.36549787  0.63705103  0.24967674  1
  Al  Al171  1  0.36211897  0.63081755  0.74938989  1
  Al  Al172  1  0.87044192  0.13706462  0.25159741  1
  Al  Al173  1  0.87114375  0.13691199  0.74839049  1
  Al  Al174  1  0.86533343  0.63648677  0.25129556  1
  Al  Al175  1  0.86413029  0.63639471  0.74521340  1
  Al  Al176  1  0.13782508  0.36792855  0.25185750  1
  Al  Al177  1  0.13635648  0.36236657  0.75185918  1
  Al  Al178  1  0.13325745  0.86710932  0.25283800  1
  Al  Al179  1  0.13703482  0.86158948  0.74882746  1
  Al  Al180  1  0.63361913  0.36480046  0.24708708  1
  Al  Al181  1  0.63539717  0.36377865  0.74739701  1
  Al  Al182  1  0.62978655  0.86149542  0.25121920  1
  Al  Al183  1  0.63631734  0.86507585  0.75123199  1
  Al  Al184  1  0.36218559  0.36375955  0.24670150  1
  Al  Al185  1  0.36144920  0.36941572  0.75208708  1
  Al  Al186  1  0.37091229  0.86288904  0.25082196  1
  Al  Al187  1  0.36415424  0.85769736  0.75272633  1
  Al  Al188  1  0.86669784  0.36602823  0.25332143  1
  Al  Al189  1  0.86498532  0.36393361  0.74816727  1
  Al  Al190  1  0.86395546  0.86517654  0.25088005  1
  Al  Al191  1  0.86362501  0.86320725  0.74694282  1
  Al  Al192  1  0.49898727  0.67156666  0.67100333  1
  Al  Al193  1  0.17336577  0.00024875  0.67681581  1
  Al  Al194  1  0.49885667  0.32101217  0.82501863  1
  Al  Al195  1  0.82798278  0.50253362  0.33373842  1
  Al  Al196  1  0.16883362  0.82873365  0.00140368  1
  Al  Al197  1  0.82078983  0.68106554  0.49969029  1
  Al  Al198  1  0.66792478  0.17567774  0.00370471  1
  Al  Al199  1  0.81916637  0.82176483  0.00053410  1
  Al  Al200  1  0.32402106  0.32507174  0.49807395  1
  Al  Al201  1  0.49972965  0.82822740  0.68495390  1
  Al  Al202  1  0.32295384  0.00089919  0.32022278  1
  Al  Al203  1  0.67640250  0.31198603  0.49860586  1
  Al  Al204  1  0.68797914  -0.00173002  0.18312922  1
  Al  Al205  1  0.82902022  0.32618517  0.50023097  1
  Al  Al206  1  0.67875788  0.00252513  0.67455368  1
  Al  Al207  1  0.49758205  0.17393777  0.32202726  1
  Al  Al208  1  0.49895229  0.68767736  0.31457224  1
  Al  Al209  1  0.49795423  0.32786798  0.31573673  1
  Al  Al210  1  0.00159071  0.32186215  0.67116331  1
  Al  Al211  1  -0.00031282  0.66735176  0.81417821  1
  Al  Al212  1  0.49760219  0.17316082  0.67346145  1
  Al  Al213  1  0.32634861  -0.00033422  0.67096826  1
  Al  Al214  1  0.00279545  0.31707378  0.19131379  1
  Al  Al215  1  -0.00073131  0.82697056  0.82809640  1
  Al  Al216  1  0.49892920  0.68673995  0.82529106  1
  Al  Al217  1  0.82918221  0.16958016  -0.00069411  1
  Al  Al218  1  0.17752591  0.49882617  0.67655510  1
  Al  Al219  1  0.18613862  0.67305984  0.00072271  1
  Al  Al220  1  0.81407951  0.17440812  0.49726968  1
  Al  Al221  1  0.17964686  0.82457584  0.49746629  1
  Al  Al222  1  0.00301830  0.81695738  0.66904617  1
  Al  Al223  1  0.00394458  0.67050257  0.18194299  1
  Al  Al224  1  0.82661077  0.32942512  -0.00087944  1
  Al  Al225  1  0.31720598  0.50086653  0.32784051  1
  Al  Al226  1  0.49848124  0.32916728  0.67220394  1
  Al  Al227  1  0.32522696  0.81250239  0.00293490  1
  Al  Al228  1  0.67274724  0.50089968  0.32319699  1
  Al  Al229  1  0.82651143  0.50070323  0.82588625  1
  Al  Al230  1  0.81865362  0.49914509  0.16906751  1
  Al  Al231  1  0.81988392  0.00097361  0.31159708  1
  Al  Al232  1  -0.00066196  0.83251720  0.18095819  1
  Al  Al233  1  0.67498196  0.50149655  0.81100080  1
  Al  Al234  1  0.00072399  0.31477325  0.82457322  1
  Al  Al235  1  0.32183861  -0.00245317  0.82719783  1
  Al  Al236  1  0.81944471  -0.00104047  0.81842337  1
  Al  Al237  1  0.81432301  0.50064759  0.67405243  1
  Al  Al238  1  0.31965308  0.50102412  0.17442686  1
  Au  Au239  1  0.67055684  -0.00001731  0.32936994  1
  Au  Au240  1  0.67273231  0.65905929  0.49748338  1
  Au  Au241  1  0.16736835  0.33607658  0.00277207  1
  Au  Au242  1  0.17987926  0.65675620  0.00109677  1
  Au  Au243  1  0.00600373  0.65746377  0.17139883  1
  Au  Au244  1  0.82846672  0.49739801  0.34903381  1
  Au  Au245  1  0.66305004  0.33959335  0.00055216  1
  Au  Au246  1  0.33213336  0.16622304  0.00277400  1
  Au  Au247  1  0.32199896  0.00272382  0.33275391  1
  Au  Au248  1  0.17268176  0.16023922  0.49512150  1
  Au  Au249  1  0.15508076  0.00246721  0.82294544  1
  Au  Au250  1  0.16715837  0.82207753  0.49630933  1
  Au  Au251  1  0.84302014  0.15812487  -0.00122889  1
  Au  Au252  1  0.49489758  0.16983894  0.66168014  1
  Au  Au253  1  0.49992589  0.17427914  0.83756626  1
  Au  Au254  1  0.67021135  0.16324575  0.00371344  1
  Au  Au255  1  0.66428779  0.66518133  0.00062337  1
  Au  Au256  1  0.33641558  0.32419803  0.50031049  1
  Au  Au257  1  0.33628021  0.82136081  0.49798586  1
  Au  Au258  1  0.16774286  0.50089410  0.32915706  1
  Au  Au259  1  0.00314852  0.83330752  0.67397612  1
  Au  Au260  1  -0.00135785  0.84829269  0.17647856  1
  Au  Au261  1  0.67021239  0.00034688  0.66564577  1
  Au  Au262  1  0.50191607  0.65587481  0.67207224  1
  Au  Au263  1  0.49865549  0.17297916  0.17398913  1
  Au  Au264  1  0.00031531  0.67235716  0.83062191  1
  Au  Au265  1  0.17517172  0.84484562  0.00108225  1
  Au  Au266  1  0.83835508  0.33263114  0.00205348  1
  Au  Au267  1  0.32576411  0.49985409  0.66083229  1
  Au  Au268  1  0.83346213  0.49782897  0.16206929  1
  Au  Au269  1  0.16628857  0.16437521  0.00180951  1
  Au  Au270  1  0.66837597  0.83477492  0.00460819  1
  Au  Au271  1  0.83782624  0.83036023  0.49331332  1
  Au  Au272  1  0.16086114  0.32953136  0.50109584  1
  Au  Au273  1  0.83607539  0.00222876  0.67010223  1
  Au  Au274  1  0.33817934  -0.00691229  0.82547028  1
  Au  Au275  1  0.49697146  0.84368647  0.67814315  1
  Au  Au276  1  0.67070058  -0.00372983  0.83862285  1
  Au  Au277  1  0.33618251  0.33135976  0.00020108  1
  Au  Au278  1  0.16340531  0.49587429  0.82448941  1
  Au  Au279  1  0.00108806  0.17313042  0.67332510  1
  Au  Au280  1  0.66158306  0.83023278  0.49665699  1
  Au  Au281  1  0.32304111  -0.00434830  0.16585559  1
  Au  Au282  1  0.83615643  0.67464366  -0.00011590  1
  Au  Au283  1  0.33605583  0.50330112  0.83471846  1
  Au  Au284  1  0.33061705  0.50162384  0.16547824  1
  Au  Au285  1  0.00046313  0.17019967  0.18138351  1
  Au  Au286  1  0.65274224  0.50372097  0.17562076  1
  Au  Au287  1  0.00048856  0.67517651  0.34352974  1
