# generated using pymatgen
data_Ca24Ti8Al207Au49
_symmetry_space_group_name_H-M   'P 1'
_cell_length_a   17.31850102
_cell_length_b   17.31926776
_cell_length_c   17.31829964
_cell_angle_alpha   90.00016748
_cell_angle_beta   89.99874608
_cell_angle_gamma   90.00137208
_symmetry_Int_Tables_number   1
_chemical_formula_structural   Ca24Ti8Al207Au49
_chemical_formula_sum   'Ca24 Ti8 Al207 Au49'
_cell_volume   5194.51584593
_cell_formula_units_Z   1
loop_
 _symmetry_equiv_pos_site_id
 _symmetry_equiv_pos_as_xyz
  1  'x, y, z'
loop_
 _atom_site_type_symbol
 _atom_site_label
 _atom_site_symmetry_multiplicity
 _atom_site_fract_x
 _atom_site_fract_y
 _atom_site_fract_z
 _atom_site_occupancy
  Ca  Ca0  1  0.24919263  0.00407532  -0.00822594  1
  Ca  Ca1  1  0.25193221  0.00101664  0.50187801  1
  Ca  Ca2  1  0.25136242  0.49611734  0.00516217  1
  Ca  Ca3  1  0.25303058  0.49663919  0.49525977  1
  Ca  Ca4  1  0.74301660  0.00459509  -0.00036615  1
  Ca  Ca5  1  0.74145943  0.00265471  0.50087765  1
  Ca  Ca6  1  0.74637528  0.49765586  0.00239533  1
  Ca  Ca7  1  0.74916140  0.49701543  0.49892531  1
  Ca  Ca8  1  0.00234518  0.24809172  -0.00100169  1
  Ca  Ca9  1  -0.00261716  0.25470179  0.50210521  1
  Ca  Ca10  1  0.00315223  0.75193928  0.00161536  1
  Ca  Ca11  1  0.00184776  0.74105487  0.49760846  1
  Ca  Ca12  1  0.49738898  0.25011232  0.00158846  1
  Ca  Ca13  1  0.50378061  0.25442909  0.49767176  1
  Ca  Ca14  1  0.49724502  0.74841995  -0.00182759  1
  Ca  Ca15  1  0.49971298  0.74292282  0.50119492  1
  Ca  Ca16  1  0.00222593  0.00185885  0.24350266  1
  Ca  Ca17  1  -0.00143368  0.00577940  0.75253203  1
  Ca  Ca18  1  -0.00254454  0.49935220  0.25223944  1
  Ca  Ca19  1  -0.00067871  0.49578172  0.74686507  1
  Ca  Ca20  1  0.49891526  0.00505233  0.24731453  1
  Ca  Ca21  1  0.50203041  0.00012883  0.75591215  1
  Ca  Ca22  1  0.50350013  0.49699305  0.24927012  1
  Ca  Ca23  1  0.50345814  0.50077733  0.74732652  1
  Ti  Ti24  1  0.25145731  0.25052700  0.25072444  1
  Ti  Ti25  1  0.24773944  0.24972338  0.74944748  1
  Ti  Ti26  1  0.24803242  0.74914471  0.24934894  1
  Ti  Ti27  1  0.25168011  0.75053526  0.75165763  1
  Ti  Ti28  1  0.75020330  0.25090763  0.24989981  1
  Ti  Ti29  1  0.75120220  0.24883729  0.75079670  1
  Ti  Ti30  1  0.75035895  0.74732314  0.24734849  1
  Ti  Ti31  1  0.74638469  0.74919026  0.75137110  1
  Al  Al32  1  0.09429596  0.08110871  0.07779778  1
  Al  Al33  1  0.08391573  0.08570003  0.58639388  1
  Al  Al34  1  0.10049071  0.57981014  0.09032663  1
  Al  Al35  1  0.08092654  0.58638846  0.57522886  1
  Al  Al36  1  0.58244928  0.09592013  0.07723611  1
  Al  Al37  1  0.59136774  0.07949209  0.58408861  1
  Al  Al38  1  0.58856006  0.57321499  0.09275410  1
  Al  Al39  1  0.59024206  0.58118117  0.58806105  1
  Al  Al40  1  0.40487683  0.41224709  0.09003769  1
  Al  Al41  1  0.42690594  0.41988132  0.57607468  1
  Al  Al42  1  0.41805667  0.92011152  0.06839129  1
  Al  Al43  1  0.42118212  0.92278679  0.58807105  1
  Al  Al44  1  0.91343915  0.41985968  0.08541780  1
  Al  Al45  1  0.90688989  0.41504864  0.57992989  1
  Al  Al46  1  0.92953587  0.91287039  0.08957774  1
  Al  Al47  1  0.91608113  0.92354086  0.57692790  1
  Al  Al48  1  0.41744856  0.10625315  0.41738033  1
  Al  Al49  1  0.40752014  0.08436253  0.91397554  1
  Al  Al50  1  0.41933720  0.57076980  0.41792618  1
  Al  Al51  1  0.41997385  0.58951523  0.91763527  1
  Al  Al52  1  0.91924042  0.08862247  0.42454750  1
  Al  Al53  1  0.92402854  0.09597546  0.90962744  1
  Al  Al54  1  0.90394723  0.57641631  0.42179844  1
  Al  Al55  1  0.92397695  0.56657400  0.92593322  1
  Al  Al56  1  0.07469107  0.41315392  0.41015932  1
  Al  Al57  1  0.08449859  0.39800405  0.92088468  1
  Al  Al58  1  0.08350108  0.91326600  0.41806700  1
  Al  Al59  1  0.09557104  0.93228964  0.92197030  1
  Al  Al60  1  0.58865272  0.41090174  0.40619431  1
  Al  Al61  1  0.58507869  0.41655765  0.92246576  1
  Al  Al62  1  0.57820735  0.93054468  0.41950694  1
  Al  Al63  1  0.58508205  0.92358820  0.90676689  1
  Al  Al64  1  0.08226551  0.08597688  0.41855550  1
  Al  Al65  1  0.09057494  0.09379067  0.91095303  1
  Al  Al66  1  0.09008734  0.58218319  0.42039089  1
  Al  Al67  1  0.08900821  0.58260085  0.93248162  1
  Al  Al68  1  0.57755428  0.09213649  0.40980597  1
  Al  Al69  1  0.58814157  0.08591103  0.91459313  1
  Al  Al70  1  0.59402975  0.57411129  0.41136152  1
  Al  Al71  1  0.57753555  0.58364386  0.91092867  1
  Al  Al72  1  0.42419968  0.40813079  0.40586653  1
  Al  Al73  1  0.41427759  0.40983630  0.92761540  1
  Al  Al74  1  0.42545238  0.92143505  0.42747420  1
  Al  Al75  1  0.40601731  0.92023226  0.90882080  1
  Al  Al76  1  0.90970639  0.41012880  0.41295190  1
  Al  Al77  1  0.92387891  0.40421210  0.91196876  1
  Al  Al78  1  0.92294913  0.91617520  0.41911258  1
  Al  Al79  1  0.91974251  0.93399169  0.93032134  1
  Al  Al80  1  0.09344116  0.41622174  0.08307234  1
  Al  Al81  1  0.07358651  0.41935651  0.57661110  1
  Al  Al82  1  0.08992249  0.91852402  0.09224564  1
  Al  Al83  1  0.08950891  0.92226702  0.57930653  1
  Al  Al84  1  0.59322842  0.41347540  0.09105504  1
  Al  Al85  1  0.59051232  0.41802548  0.58244982  1
  Al  Al86  1  0.57902254  0.92482716  0.07713349  1
  Al  Al87  1  0.58656248  0.92134207  0.59603548  1
  Al  Al88  1  0.41785907  0.09412038  0.07581815  1
  Al  Al89  1  0.40698818  0.08421266  0.57648874  1
  Al  Al90  1  0.40698193  0.57593076  0.09029640  1
  Al  Al91  1  0.42684634  0.58157349  0.58275807  1
  Al  Al92  1  0.92220613  0.07978207  0.07075844  1
  Al  Al93  1  0.91669183  0.08923081  0.58520771  1
  Al  Al94  1  0.91484529  0.57494360  0.09122170  1
  Al  Al95  1  0.90617918  0.58181054  0.58265401  1
  Al  Al96  1  0.24977983  0.13628004  0.13461096  1
  Al  Al97  1  0.24723262  0.13598457  0.63432356  1
  Al  Al98  1  0.24956470  0.63303867  0.13052509  1
  Al  Al99  1  0.24936221  0.63788541  0.63370389  1
  Al  Al100  1  0.74822296  0.13729593  0.12872776  1
  Al  Al101  1  0.75067401  0.13931790  0.63136621  1
  Al  Al102  1  0.74911734  0.62877981  0.13489204  1
  Al  Al103  1  0.74812743  0.63365593  0.63522448  1
  Al  Al104  1  0.25239590  0.36960868  0.13971292  1
  Al  Al105  1  0.24599412  0.36133392  0.63367327  1
  Al  Al106  1  0.24576399  0.86888683  0.13333082  1
  Al  Al107  1  0.24868030  0.86414522  0.63085628  1
  Al  Al108  1  0.74854656  0.37160301  0.14095416  1
  Al  Al109  1  0.75172030  0.36202421  0.63444780  1
  Al  Al110  1  0.74804264  0.86515531  0.12801597  1
  Al  Al111  1  0.74370830  0.86533041  0.63782912  1
  Al  Al112  1  0.25315672  0.13821049  0.37142908  1
  Al  Al113  1  0.24964791  0.13323238  0.86406109  1
  Al  Al114  1  0.24629986  0.63434199  0.36621661  1
  Al  Al115  1  0.24986920  0.63422628  0.87309687  1
  Al  Al116  1  0.75074746  0.14246407  0.37048891  1
  Al  Al117  1  0.74718736  0.13800836  0.87111114  1
  Al  Al118  1  0.74893440  0.63068730  0.36260886  1
  Al  Al119  1  0.74290433  0.63595638  0.86796636  1
  Al  Al120  1  0.25188446  0.36460954  0.36887406  1
  Al  Al121  1  0.24371540  0.36572082  0.86578193  1
  Al  Al122  1  0.24290984  0.86266710  0.36926135  1
  Al  Al123  1  0.25255568  0.86883571  0.86502854  1
  Al  Al124  1  0.74668318  0.36723674  0.36229808  1
  Al  Al125  1  0.75434717  0.36365796  0.86595450  1
  Al  Al126  1  0.75383784  0.86155754  0.36316314  1
  Al  Al127  1  0.74361473  0.86533987  0.86733227  1
  Al  Al128  1  0.13826074  0.25631681  0.13091198  1
  Al  Al129  1  0.12626162  0.24780808  0.63650861  1
  Al  Al130  1  0.13782498  0.74930023  0.12792976  1
  Al  Al131  1  0.13677897  0.75116826  0.63265608  1
  Al  Al132  1  0.63395492  0.25334234  0.13619550  1
  Al  Al133  1  0.63513170  0.24886533  0.63529640  1
  Al  Al134  1  0.63784814  0.74699719  0.13000332  1
  Al  Al135  1  0.63350010  0.74978378  0.63671265  1
  Al  Al136  1  0.13416922  0.25025622  0.36307934  1
  Al  Al137  1  0.13304284  0.25117214  0.86712123  1
  Al  Al138  1  0.13159286  0.74881470  0.36483145  1
  Al  Al139  1  0.13894353  0.74998129  0.87432220  1
  Al  Al140  1  0.62902836  0.25106586  0.36222454  1
  Al  Al141  1  0.63516525  0.25004007  0.86388488  1
  Al  Al142  1  0.63655912  0.74607291  0.35968497  1
  Al  Al143  1  0.62897736  0.75070640  0.86690985  1
  Al  Al144  1  0.36416719  0.24934231  0.13266421  1
  Al  Al145  1  0.36292900  0.24855892  0.63049157  1
  Al  Al146  1  0.35976764  0.74829741  0.13402695  1
  Al  Al147  1  0.36541870  0.75371893  0.63428601  1
  Al  Al148  1  0.86279753  0.25425391  0.12928579  1
  Al  Al149  1  0.86904160  0.25070066  0.63341736  1
  Al  Al150  1  0.86541548  0.75040496  0.13306080  1
  Al  Al151  1  0.86017412  0.74645037  0.63654983  1
  Al  Al152  1  0.36832691  0.25260950  0.36762798  1
  Al  Al153  1  0.36082521  0.24685132  0.86912525  1
  Al  Al154  1  0.36277215  0.74899456  0.36572321  1
  Al  Al155  1  0.36877789  0.74849197  0.86501427  1
  Al  Al156  1  0.86431216  0.25755850  0.37089860  1
  Al  Al157  1  0.86570655  0.24820075  0.87158287  1
  Al  Al158  1  0.86565810  0.74217969  0.36241337  1
  Al  Al159  1  0.86085795  0.75354012  0.86780670  1
  Al  Al160  1  0.13815621  0.13600722  0.24802216  1
  Al  Al161  1  0.12881635  0.13750085  0.75685859  1
  Al  Al162  1  0.13587388  0.63284017  0.24655278  1
  Al  Al163  1  0.13955577  0.63755713  0.75174378  1
  Al  Al164  1  0.63530415  0.13931777  0.24945038  1
  Al  Al165  1  0.63690863  0.13220743  0.75146188  1
  Al  Al166  1  0.63759752  0.62738249  0.24900380  1
  Al  Al167  1  0.63462901  0.63368186  0.74905585  1
  Al  Al168  1  0.36611283  0.13788991  0.25343397  1
  Al  Al169  1  0.36203302  0.13480442  0.75343847  1
  Al  Al170  1  0.36112937  0.63430598  0.24720493  1
  Al  Al171  1  0.36179960  0.63548253  0.75260694  1
  Al  Al172  1  0.86234798  0.14017482  0.24768614  1
  Al  Al173  1  0.86897661  0.13859262  0.75369999  1
  Al  Al174  1  0.86614019  0.63154218  0.24497825  1
  Al  Al175  1  0.86177793  0.63510748  0.75327739  1
  Al  Al176  1  0.13541776  0.36358696  0.24885380  1
  Al  Al177  1  0.12676633  0.36263293  0.75181137  1
  Al  Al178  1  0.13255685  0.86372909  0.24274007  1
  Al  Al179  1  0.13960888  0.86237376  0.75528950  1
  Al  Al180  1  0.63098010  0.36611652  0.25157668  1
  Al  Al181  1  0.63934349  0.36585656  0.74866898  1
  Al  Al182  1  0.63897599  0.86400191  0.24632403  1
  Al  Al183  1  0.62891152  0.86420922  0.75261888  1
  Al  Al184  1  0.37188146  0.35918626  0.24903865  1
  Al  Al185  1  0.36179517  0.36016767  0.75451347  1
  Al  Al186  1  0.35830971  0.86698418  0.25153600  1
  Al  Al187  1  0.36929916  0.86469036  0.75407772  1
  Al  Al188  1  0.86636504  0.36455149  0.25040556  1
  Al  Al189  1  0.87029897  0.35841892  0.75202510  1
  Al  Al190  1  0.86625968  0.86299185  0.24344316  1
  Al  Al191  1  0.86126541  0.86532214  0.75138520  1
  Al  Al192  1  0.68328480  0.67327472  0.49878464  1
  Al  Al193  1  0.17351465  0.00169490  0.69422848  1
  Al  Al194  1  0.82314849  0.67342084  0.00044439  1
  Al  Al195  1  0.49945742  0.66821723  0.32920673  1
  Al  Al196  1  0.30558032  0.31114025  0.00162721  1
  Al  Al197  1  0.32728385  0.49928738  0.83027460  1
  Al  Al198  1  0.32877324  0.49754299  0.67249930  1
  Al  Al199  1  0.82558790  0.80878963  0.50002667  1
  Al  Al200  1  0.81027739  0.49803464  0.68076715  1
  Al  Al201  1  0.81077223  0.00132952  0.82750946  1
  Al  Al202  1  0.50049657  0.82531155  0.32785383  1
  Al  Al203  1  -0.00216542  0.19015519  0.32528950  1
  Al  Al204  1  0.32728057  -0.00038826  0.68598797  1
  Al  Al205  1  0.49979240  0.67000520  0.17535247  1
  Al  Al206  1  0.82772422  0.00262674  0.32879031  1
  Al  Al207  1  -0.00145309  0.67169429  0.67370034  1
  Al  Al208  1  0.19004071  0.18828295  -0.00050244  1
  Al  Al209  1  -0.00077600  0.81918685  0.31268132  1
  Al  Al210  1  0.82556059  0.00244666  0.17163070  1
  Al  Al211  1  0.33106069  0.00338856  0.33167318  1
  Al  Al212  1  -0.00029790  0.83090934  0.67315718  1
  Al  Al213  1  0.17296865  -0.00079095  0.31228174  1
  Al  Al214  1  0.17451871  0.49864804  0.31633656  1
  Al  Al215  1  0.81511268  0.49811007  0.31499167  1
  Al  Al216  1  0.32107989  0.00256069  0.16543355  1
  Al  Al217  1  0.68056007  0.50008684  0.82257712  1
  Al  Al218  1  0.67099707  0.82839791  0.49836733  1
  Al  Al219  1  0.32271385  0.67419917  0.49946115  1
  Al  Al220  1  0.49893701  0.18324868  0.18344837  1
  Al  Al221  1  0.00033945  0.32826603  0.17921944  1
  Al  Al222  1  0.81259818  0.00181436  0.67459993  1
  Al  Al223  1  0.32996150  0.49683122  0.31069365  1
  Al  Al224  1  0.00001144  0.67122749  0.83161565  1
  Al  Al225  1  0.49868550  0.82866286  0.17818312  1
  Al  Al226  1  0.50016535  0.32834374  0.68274340  1
  Al  Al227  1  0.00292078  0.17242398  0.16872975  1
  Al  Al228  1  0.17676933  0.32234565  0.49929366  1
  Al  Al229  1  0.67152017  0.00219987  0.31831184  1
  Al  Al230  1  0.17084791  0.50075606  0.67554682  1
  Al  Al231  1  0.00222948  0.68129084  0.17383120  1
  Al  Al232  1  0.68484596  0.32078636  0.49871440  1
  Al  Al233  1  0.31684381  0.81801380  -0.00171301  1
  Al  Al234  1  0.49838739  0.17451735  0.67545741  1
  Al  Al235  1  0.67989320  0.31357523  0.00104454  1
  Al  Al236  1  0.49907688  0.17889180  0.82926829  1
  Al  Al237  1  0.00190014  0.83557681  0.83379382  1
  Al  Al238  1  0.49901985  0.67740483  0.68506355  1
  Au  Au239  1  0.82540033  0.00459470  0.83565041  1
  Au  Au240  1  0.17618383  0.16638964  0.50128152  1
  Au  Au241  1  0.32647533  0.65772140  0.50017485  1
  Au  Au242  1  0.33997290  0.49891459  0.82791025  1
  Au  Au243  1  0.32924455  0.66860655  0.00278626  1
  Au  Au244  1  0.00055188  0.33303235  0.16734342  1
  Au  Au245  1  -0.00430739  0.33515736  0.67252339  1
  Au  Au246  1  0.16519530  0.32739179  0.49911218  1
  Au  Au247  1  0.16554509  -0.00039197  0.32786268  1
  Au  Au248  1  0.00396245  0.85148485  0.83647084  1
  Au  Au249  1  0.16600425  0.49449262  0.84599455  1
  Au  Au250  1  0.82969304  0.65778807  0.00034522  1
  Au  Au251  1  0.49421615  0.82540767  0.16203308  1
  Au  Au252  1  0.49894137  0.82560460  0.66997949  1
  Au  Au253  1  0.17364840  0.50470600  0.65909825  1
  Au  Au254  1  0.83989505  0.81790506  0.49707694  1
  Au  Au255  1  0.82550478  0.33760667  0.00167312  1
  Au  Au256  1  -0.00277633  0.17297536  0.32597160  1
  Au  Au257  1  0.65554569  0.82892112  0.49433852  1
  Au  Au258  1  0.82648612  0.16980509  0.00030864  1
  Au  Au259  1  0.49792401  0.16193513  0.66531113  1
  Au  Au260  1  0.49783310  0.82660391  0.83767461  1
  Au  Au261  1  0.16877127  0.83120473  0.00148704  1
  Au  Au262  1  0.66820072  0.50108603  0.81953788  1
  Au  Au263  1  0.82145677  0.00233652  0.34565261  1
  Au  Au264  1  0.66827583  0.84044223  -0.00373536  1
  Au  Au265  1  0.66167561  0.00856963  0.16833088  1
  Au  Au266  1  0.66633168  0.17256612  0.49663566  1
  Au  Au267  1  0.33126388  0.83745652  0.50159921  1
  Au  Au268  1  0.17621059  -0.00019412  0.67738924  1
  Au  Au269  1  0.65501589  0.66730619  0.00158810  1
  Au  Au270  1  0.83759938  0.83376569  0.00251523  1
  Au  Au271  1  -0.00030661  0.83482527  0.31958529  1
  Au  Au272  1  -0.00082110  0.16789037  0.68018674  1
  Au  Au273  1  0.16499067  0.82056505  0.49893740  1
  Au  Au274  1  -0.00516448  0.66065734  0.34157497  1
  Au  Au275  1  0.83310522  0.18434706  0.50199637  1
  Au  Au276  1  0.83951961  0.49289462  0.82518826  1
  Au  Au277  1  0.50030299  0.32930310  0.83600656  1
  Au  Au278  1  0.17143115  0.49891227  0.32874042  1
  Au  Au279  1  0.50066099  0.33160182  0.17411452  1
  Au  Au280  1  0.32535201  0.00339646  0.14961447  1
  Au  Au281  1  0.34572176  0.00504642  0.33703292  1
  Au  Au282  1  0.83666554  -0.00207543  0.16824150  1
  Au  Au283  1  0.00027177  0.82524019  0.65647287  1
  Au  Au284  1  0.34140676  0.32656243  0.50076289  1
  Au  Au285  1  0.00392605  0.66949778  0.16214743  1
  Au  Au286  1  0.00577900  0.65579119  0.83051376  1
  Au  Au287  1  0.81790048  0.00024272  0.65809439  1
