# generated using pymatgen
data_Ca24Ti8Al207Au49
_symmetry_space_group_name_H-M   'P 1'
_cell_length_a   17.31992212
_cell_length_b   17.31994601
_cell_length_c   17.32089584
_cell_angle_alpha   89.99495682
_cell_angle_beta   90.00445203
_cell_angle_gamma   89.99701919
_symmetry_Int_Tables_number   1
_chemical_formula_structural   Ca24Ti8Al207Au49
_chemical_formula_sum   'Ca24 Ti8 Al207 Au49'
_cell_volume   5195.92430196
_cell_formula_units_Z   1
loop_
 _symmetry_equiv_pos_site_id
 _symmetry_equiv_pos_as_xyz
  1  'x, y, z'
loop_
 _atom_site_type_symbol
 _atom_site_label
 _atom_site_symmetry_multiplicity
 _atom_site_fract_x
 _atom_site_fract_y
 _atom_site_fract_z
 _atom_site_occupancy
  Ca  Ca0  1  0.25050970  0.00237119  0.00038808  1
  Ca  Ca1  1  0.24873970  0.00001695  0.49800913  1
  Ca  Ca2  1  0.24833836  0.49819223  0.00051463  1
  Ca  Ca3  1  0.24731933  0.50261690  0.49847237  1
  Ca  Ca4  1  0.74987675  -0.00547022  0.00562955  1
  Ca  Ca5  1  0.74508285  0.00056908  0.49705184  1
  Ca  Ca6  1  0.75468230  0.50495956  -0.00440043  1
  Ca  Ca7  1  0.75147553  0.50034021  0.50228774  1
  Ca  Ca8  1  -0.00290174  0.25002377  -0.00042395  1
  Ca  Ca9  1  0.00236438  0.25304141  0.50358961  1
  Ca  Ca10  1  -0.00096002  0.74450853  0.00626248  1
  Ca  Ca11  1  0.00281519  0.74723232  0.49745370  1
  Ca  Ca12  1  0.50013221  0.24889187  0.00650007  1
  Ca  Ca13  1  0.49842200  0.24792209  0.49034935  1
  Ca  Ca14  1  0.50185245  0.74798764  -0.00170474  1
  Ca  Ca15  1  0.50102469  0.74841398  0.49848130  1
  Ca  Ca16  1  0.00072111  0.00000013  0.25153922  1
  Ca  Ca17  1  0.00129606  0.00358873  0.74996179  1
  Ca  Ca18  1  0.00122942  0.49907551  0.25139162  1
  Ca  Ca19  1  -0.00328729  0.49694178  0.75055405  1
  Ca  Ca20  1  0.49930118  0.00304764  0.25234889  1
  Ca  Ca21  1  0.50034041  -0.00289067  0.74830079  1
  Ca  Ca22  1  0.49829919  0.49984115  0.25162885  1
  Ca  Ca23  1  0.50354086  0.50283774  0.75182755  1
  Ti  Ti24  1  0.24930236  0.25063636  0.25039452  1
  Ti  Ti25  1  0.24870089  0.24829548  0.75021594  1
  Ti  Ti26  1  0.24856506  0.74823380  0.25259382  1
  Ti  Ti27  1  0.25009880  0.74995522  0.74917726  1
  Ti  Ti28  1  0.75006060  0.25142179  0.25175647  1
  Ti  Ti29  1  0.75152603  0.25126834  0.74883663  1
  Ti  Ti30  1  0.75003511  0.74769953  0.25139790  1
  Ti  Ti31  1  0.74796159  0.74744637  0.74858987  1
  Al  Al32  1  0.08817448  0.08689191  0.07824116  1
  Al  Al33  1  0.07715287  0.08817121  0.58447075  1
  Al  Al34  1  0.08496543  0.58093186  0.09638920  1
  Al  Al35  1  0.08438184  0.57966251  0.58117527  1
  Al  Al36  1  0.57734505  0.08251571  0.08509603  1
  Al  Al37  1  0.57904057  0.07626094  0.57530380  1
  Al  Al38  1  0.58773666  0.58621513  0.07972043  1
  Al  Al39  1  0.58804686  0.58233882  0.58835140  1
  Al  Al40  1  0.42248118  0.42044490  0.08959851  1
  Al  Al41  1  0.41761128  0.42421286  0.57088647  1
  Al  Al42  1  0.42030956  0.91408229  0.07952534  1
  Al  Al43  1  0.42197894  0.90718770  0.58654326  1
  Al  Al44  1  0.92580197  0.41305965  0.08580177  1
  Al  Al45  1  0.91488244  0.41233583  0.59140705  1
  Al  Al46  1  0.90911438  0.91052706  0.09311385  1
  Al  Al47  1  0.92384638  0.92108269  0.57380359  1
  Al  Al48  1  0.41461693  0.08719363  0.40487482  1
  Al  Al49  1  0.41780653  0.08095389  0.92005280  1
  Al  Al50  1  0.41359801  0.58295253  0.41602027  1
  Al  Al51  1  0.40048140  0.58962093  0.91755552  1
  Al  Al52  1  0.91372071  0.09305892  0.42212987  1
  Al  Al53  1  0.92904148  0.08950507  0.91603518  1
  Al  Al54  1  0.92277268  0.58299307  0.41077041  1
  Al  Al55  1  0.91393720  0.58402726  0.90523271  1
  Al  Al56  1  0.07944035  0.41133702  0.40994182  1
  Al  Al57  1  0.07689261  0.41892601  0.91350855  1
  Al  Al58  1  0.09640170  0.91581910  0.41149685  1
  Al  Al59  1  0.07765254  0.92740463  0.92092784  1
  Al  Al60  1  0.58201623  0.41544082  0.40419390  1
  Al  Al61  1  0.59017231  0.42696872  0.91480202  1
  Al  Al62  1  0.58836704  0.91774904  0.42868623  1
  Al  Al63  1  0.58806130  0.90924762  0.91990750  1
  Al  Al64  1  0.08585624  0.07887406  0.41381299  1
  Al  Al65  1  0.08685959  0.09858983  0.91575872  1
  Al  Al66  1  0.08368058  0.58722321  0.41266989  1
  Al  Al67  1  0.07629819  0.58640659  0.90895804  1
  Al  Al68  1  0.57702872  0.08970367  0.41130662  1
  Al  Al69  1  0.57735159  0.07366799  0.92035793  1
  Al  Al70  1  0.58502636  0.57784262  0.41181290  1
  Al  Al71  1  0.59288650  0.58506924  0.91659643  1
  Al  Al72  1  0.41974963  0.41587507  0.40678938  1
  Al  Al73  1  0.41081470  0.43144937  0.91152189  1
  Al  Al74  1  0.41004175  0.92506786  0.41991160  1
  Al  Al75  1  0.41809872  0.91297811  0.91866235  1
  Al  Al76  1  0.91976184  0.41095024  0.41340257  1
  Al  Al77  1  0.91370674  0.41994628  0.90880972  1
  Al  Al78  1  0.92296617  0.91737180  0.41660748  1
  Al  Al79  1  0.91831095  0.91443376  0.93357247  1
  Al  Al80  1  0.08573801  0.41806504  0.10186476  1
  Al  Al81  1  0.07775414  0.41493264  0.58720329  1
  Al  Al82  1  0.07446059  0.92062497  0.08798674  1
  Al  Al83  1  0.09051998  0.91436659  0.57114017  1
  Al  Al84  1  0.58070576  0.41401233  0.08957456  1
  Al  Al85  1  0.58925170  0.42569033  0.58242195  1
  Al  Al86  1  0.58441589  0.90865716  0.07853426  1
  Al  Al87  1  0.58413666  0.90386136  0.58719566  1
  Al  Al88  1  0.41696354  0.08537936  0.08597814  1
  Al  Al89  1  0.41876806  0.07849893  0.57555022  1
  Al  Al90  1  0.40870647  0.58817358  0.07906178  1
  Al  Al91  1  0.41312316  0.58954117  0.57560961  1
  Al  Al92  1  0.91553361  0.07301928  0.08909007  1
  Al  Al93  1  0.91846025  0.10325509  0.58148676  1
  Al  Al94  1  0.92376255  0.58406098  0.08171619  1
  Al  Al95  1  0.91271593  0.57357380  0.59067272  1
  Al  Al96  1  0.24748006  0.13638456  0.13356271  1
  Al  Al97  1  0.24940311  0.12906429  0.63748880  1
  Al  Al98  1  0.24936696  0.62840310  0.13708218  1
  Al  Al99  1  0.25155425  0.63641630  0.63135622  1
  Al  Al100  1  0.75034552  0.13540638  0.13888958  1
  Al  Al101  1  0.75357184  0.14111651  0.62821553  1
  Al  Al102  1  0.75077502  0.63050190  0.13565958  1
  Al  Al103  1  0.74674939  0.63623989  0.63081328  1
  Al  Al104  1  0.24676585  0.37243739  0.13752875  1
  Al  Al105  1  0.25301593  0.36505303  0.63509116  1
  Al  Al106  1  0.24663181  0.86577989  0.13971754  1
  Al  Al107  1  0.25008127  0.86961392  0.63556631  1
  Al  Al108  1  0.74639509  0.36573010  0.13843558  1
  Al  Al109  1  0.75031465  0.36522802  0.63248823  1
  Al  Al110  1  0.75159353  0.86268186  0.13643615  1
  Al  Al111  1  0.74734756  0.86251910  0.63434517  1
  Al  Al112  1  0.25163625  0.13806363  0.36471108  1
  Al  Al113  1  0.24694284  0.13150546  0.86828434  1
  Al  Al114  1  0.24616140  0.63457934  0.37231612  1
  Al  Al115  1  0.25118307  0.62871457  0.86336846  1
  Al  Al116  1  0.75209262  0.14027549  0.36940840  1
  Al  Al117  1  0.75115168  0.13709207  0.86145823  1
  Al  Al118  1  0.74954793  0.63063242  0.36813981  1
  Al  Al119  1  0.75380838  0.63351472  0.86246771  1
  Al  Al120  1  0.24844077  0.36507060  0.36272948  1
  Al  Al121  1  0.24490658  0.36862239  0.86648275  1
  Al  Al122  1  0.24739222  0.86492321  0.36951603  1
  Al  Al123  1  0.25129606  0.86762892  0.86169846  1
  Al  Al124  1  0.75189879  0.36897788  0.36170321  1
  Al  Al125  1  0.75318783  0.36712825  0.86212348  1
  Al  Al126  1  0.74831107  0.86506828  0.36588523  1
  Al  Al127  1  0.74701675  0.85906457  0.86327003  1
  Al  Al128  1  0.13209408  0.25196287  0.14120666  1
  Al  Al129  1  0.13675300  0.25196220  0.63599648  1
  Al  Al130  1  0.13389060  0.74210777  0.13832292  1
  Al  Al131  1  0.13800281  0.74872769  0.62979594  1
  Al  Al132  1  0.63374956  0.25042801  0.13826314  1
  Al  Al133  1  0.63725651  0.24743803  0.63130561  1
  Al  Al134  1  0.63715044  0.74794920  0.13561163  1
  Al  Al135  1  0.63271656  0.75178125  0.62721353  1
  Al  Al136  1  0.13069570  0.25248135  0.36306182  1
  Al  Al137  1  0.13330884  0.24635531  0.86648738  1
  Al  Al138  1  0.13722627  0.75006566  0.37263731  1
  Al  Al139  1  0.13528888  0.74406528  0.86354104  1
  Al  Al140  1  0.63229914  0.25023165  0.36482968  1
  Al  Al141  1  0.63897480  0.25437123  0.86310420  1
  Al  Al142  1  0.63833550  0.74647328  0.37060483  1
  Al  Al143  1  0.62913789  0.74971063  0.86232303  1
  Al  Al144  1  0.36304685  0.24898303  0.13479686  1
  Al  Al145  1  0.36004113  0.24811231  0.62972326  1
  Al  Al146  1  0.36211656  0.74525186  0.13537771  1
  Al  Al147  1  0.36636630  0.75074272  0.63546577  1
  Al  Al148  1  0.86704930  0.25547209  0.13710232  1
  Al  Al149  1  0.86766789  0.25305624  0.63619276  1
  Al  Al150  1  0.86459730  0.74587517  0.13669494  1
  Al  Al151  1  0.86583852  0.74435657  0.63301087  1
  Al  Al152  1  0.36542706  0.25176134  0.36649103  1
  Al  Al153  1  0.35897351  0.24593236  0.86580223  1
  Al  Al154  1  0.36160620  0.74302323  0.36936188  1
  Al  Al155  1  0.36712534  0.74939454  0.86395262  1
  Al  Al156  1  0.87061685  0.25051630  0.36199611  1
  Al  Al157  1  0.86562148  0.24980937  0.86599971  1
  Al  Al158  1  0.86473736  0.74971878  0.36591811  1
  Al  Al159  1  0.86616197  0.74459979  0.86442912  1
  Al  Al160  1  0.13294542  0.13233625  0.25641868  1
  Al  Al161  1  0.13467616  0.13159452  0.75132711  1
  Al  Al162  1  0.13853778  0.62794516  0.25147473  1
  Al  Al163  1  0.13331413  0.63614462  0.74894530  1
  Al  Al164  1  0.63127835  0.13679031  0.25100110  1
  Al  Al165  1  0.63752162  0.13618017  0.74857488  1
  Al  Al166  1  0.63747316  0.63182109  0.25091894  1
  Al  Al167  1  0.63339256  0.63581904  0.74670637  1
  Al  Al168  1  0.36865532  0.13766907  0.25069721  1
  Al  Al169  1  0.36224875  0.12962222  0.75124408  1
  Al  Al170  1  0.36410767  0.63413250  0.24759020  1
  Al  Al171  1  0.36665010  0.63520973  0.75502382  1
  Al  Al172  1  0.86678196  0.13619866  0.24758190  1
  Al  Al173  1  0.86779995  0.13639403  0.75009560  1
  Al  Al174  1  0.86482178  0.63244359  0.25226586  1
  Al  Al175  1  0.86828996  0.63374100  0.75037939  1
  Al  Al176  1  0.13276532  0.36875590  0.25124532  1
  Al  Al177  1  0.13298603  0.36388783  0.75088827  1
  Al  Al178  1  0.13548756  0.86758825  0.25524231  1
  Al  Al179  1  0.13669382  0.87022769  0.74900025  1
  Al  Al180  1  0.63374136  0.36979517  0.25476785  1
  Al  Al181  1  0.63704003  0.36854339  0.74433997  1
  Al  Al182  1  0.63738969  0.86121526  0.24984510  1
  Al  Al183  1  0.62973982  0.86107935  0.74747818  1
  Al  Al184  1  0.36456064  0.36529317  0.25011132  1
  Al  Al185  1  0.36127257  0.36549530  0.75544965  1
  Al  Al186  1  0.36260450  0.86031463  0.25309261  1
  Al  Al187  1  0.36865263  0.86488048  0.74937694  1
  Al  Al188  1  0.87070841  0.36573948  0.25191053  1
  Al  Al189  1  0.86676573  0.36656555  0.74851657  1
  Al  Al190  1  0.86332014  0.86556445  0.24981081  1
  Al  Al191  1  0.86542438  0.85933459  0.74900129  1
  Al  Al192  1  0.50087090  0.82554913  0.33524255  1
  Al  Al193  1  0.16810737  0.31753371  0.00330768  1
  Al  Al194  1  0.33436935  0.50145022  0.68332743  1
  Al  Al195  1  0.50055575  0.17294851  0.82654435  1
  Al  Al196  1  0.31690335  0.50160455  0.31788557  1
  Al  Al197  1  -0.00031899  0.17593281  0.17580009  1
  Al  Al198  1  0.67399525  -0.00203961  0.82573098  1
  Al  Al199  1  0.81483113  0.82012287  0.49999487  1
  Al  Al200  1  0.32644495  0.81350371  0.00050014  1
  Al  Al201  1  0.67211388  -0.00057728  0.67260574  1
  Al  Al202  1  0.80756819  0.50016371  0.69026611  1
  Al  Al203  1  0.49834630  0.32912092  0.66787456  1
  Al  Al204  1  0.49943071  0.31953242  0.18989530  1
  Al  Al205  1  0.68542027  0.69006880  -0.00188687  1
  Al  Al206  1  0.17548662  0.49926967  0.68106160  1
  Al  Al207  1  0.17077656  0.82913309  0.00117549  1
  Al  Al208  1  0.82513400  0.49808555  0.17280390  1
  Al  Al209  1  0.67351143  0.32554879  0.49557878  1
  Al  Al210  1  -0.00009465  0.81182518  0.18279168  1
  Al  Al211  1  0.17776376  0.17379510  0.50004971  1
  Al  Al212  1  0.82984823  0.31559072  0.49878110  1
  Al  Al213  1  0.49916726  0.33008054  0.82929057  1
  Al  Al214  1  0.30817885  0.00006766  0.31645334  1
  Al  Al215  1  0.00246442  0.68230885  0.30813204  1
  Al  Al216  1  0.83138847  -0.00218434  0.83295470  1
  Al  Al217  1  0.82492641  0.32853759  0.00030523  1
  Al  Al218  1  0.18296540  0.66772823  0.00087582  1
  Al  Al219  1  0.31501108  0.81490294  0.50145972  1
  Al  Al220  1  0.82923747  0.17179884  0.00293997  1
  Al  Al221  1  0.68276220  -0.00123497  0.17023895  1
  Al  Al222  1  0.00073365  0.81902430  0.82917465  1
  Al  Al223  1  0.49950359  0.67691833  0.67444389  1
  Al  Al224  1  0.82993102  0.00150978  0.31759180  1
  Al  Al225  1  0.32705152  0.32375071  0.00005735  1
  Al  Al226  1  0.00243302  0.19245706  0.68933873  1
  Al  Al227  1  -0.00064920  0.30896601  0.81111637  1
  Al  Al228  1  0.67304172  0.00173821  0.32663274  1
  Al  Al229  1  0.68975891  0.50191089  0.80990957  1
  Al  Al230  1  0.82849860  0.00248427  0.66860692  1
  Al  Al231  1  0.00263717  0.81845212  0.67213593  1
  Al  Al232  1  0.50051904  0.67319100  0.31815941  1
  Al  Al233  1  0.49962833  0.81794889  0.17514252  1
  Al  Al234  1  0.81121556  0.81600580  0.00073334  1
  Al  Al235  1  0.18038297  0.00181001  0.17899253  1
  Al  Al236  1  0.67272250  0.17883279  -0.00082407  1
  Al  Al237  1  0.17522840  0.32833984  0.50071399  1
  Al  Al238  1  0.49906525  0.17127452  0.67250641  1
  Au  Au239  1  0.00484219  0.82823397  0.33094028  1
  Au  Au240  1  0.49959071  0.66894010  0.16433312  1
  Au  Au241  1  0.16763137  0.00053526  0.66135100  1
  Au  Au242  1  0.49834764  0.66392453  0.83688641  1
  Au  Au243  1  0.33776136  0.33593166  0.00008799  1
  Au  Au244  1  0.82719931  0.00057881  0.84900099  1
  Au  Au245  1  0.33156161  -0.00192430  0.83438731  1
  Au  Au246  1  0.00459229  0.83152679  0.66143044  1
  Au  Au247  1  0.67655874  0.33780717  0.49398650  1
  Au  Au248  1  0.00236228  0.17781783  0.33864367  1
  Au  Au249  1  0.16752291  0.49775682  0.32747044  1
  Au  Au250  1  0.66608647  -0.00505489  0.17146782  1
  Au  Au251  1  0.82782035  0.00796937  0.65274520  1
  Au  Au252  1  0.32544336  0.33797137  0.49243916  1
  Au  Au253  1  -0.00204531  0.17812500  0.16336224  1
  Au  Au254  1  0.83463750  0.66950773  -0.00134427  1
  Au  Au255  1  -0.00305411  0.32256583  0.82076319  1
  Au  Au256  1  0.17100779  0.67105110  0.50212884  1
  Au  Au257  1  -0.00262600  0.82200488  0.84585121  1
  Au  Au258  1  0.16920285  0.65902290  0.00083189  1
  Au  Au259  1  0.82853826  0.00470856  0.33439802  1
  Au  Au260  1  0.15584805  0.32922124  0.00456745  1
  Au  Au261  1  0.33861735  -0.00260312  0.66845998  1
  Au  Au262  1  0.00063772  0.65686695  0.67606902  1
  Au  Au263  1  0.32841524  0.16495036  0.49837728  1
  Au  Au264  1  0.82496627  0.83386182  0.49938793  1
  Au  Au265  1  0.50100915  0.83480558  0.82536888  1
  Au  Au266  1  0.49928838  0.17346094  0.17761325  1
  Au  Au267  1  0.32265651  0.16174933  0.00046491  1
  Au  Au268  1  0.50057999  0.32382261  0.65194304  1
  Au  Au269  1  0.32753498  0.50197555  0.66757438  1
  Au  Au270  1  0.32649292  0.50068029  0.16836313  1
  Au  Au271  1  0.16878180  0.50133434  0.82982382  1
  Au  Au272  1  0.34025048  -0.00470051  0.17352449  1
  Au  Au273  1  0.66184729  0.50071346  0.17757193  1
  Au  Au274  1  0.50439803  0.84053944  0.32818184  1
  Au  Au275  1  0.83625424  0.66230743  0.50047294  1
  Au  Au276  1  0.16242531  0.00459940  0.83053922  1
  Au  Au277  1  0.49990095  0.32677221  0.84578688  1
  Au  Au278  1  0.49716346  0.67679436  0.66186646  1
  Au  Au279  1  0.83699356  0.49979972  0.17559383  1
  Au  Au280  1  0.82669902  0.49829850  0.33680436  1
  Au  Au281  1  0.67726099  0.34498812  0.00108126  1
  Au  Au282  1  0.67489070  0.16257623  -0.00536195  1
  Au  Au283  1  0.66440168  0.66826455  0.49708562  1
  Au  Au284  1  0.32747555  0.82666340  0.50054780  1
  Au  Au285  1  0.16798332  0.00083527  0.18183003  1
  Au  Au286  1  0.17774343  0.84370811  0.00260459  1
  Au  Au287  1  0.67311790  0.16255585  0.49868277  1
