# generated using pymatgen
data_Ca24Ti8Al207Au49
_symmetry_space_group_name_H-M   'P 1'
_cell_length_a   17.31924707
_cell_length_b   17.31845444
_cell_length_c   17.31801250
_cell_angle_alpha   89.99896164
_cell_angle_beta   89.99944883
_cell_angle_gamma   90.00157448
_symmetry_Int_Tables_number   1
_chemical_formula_structural   Ca24Ti8Al207Au49
_chemical_formula_sum   'Ca24 Ti8 Al207 Au49'
_cell_volume   5194.40954210
_cell_formula_units_Z   1
loop_
 _symmetry_equiv_pos_site_id
 _symmetry_equiv_pos_as_xyz
  1  'x, y, z'
loop_
 _atom_site_type_symbol
 _atom_site_label
 _atom_site_symmetry_multiplicity
 _atom_site_fract_x
 _atom_site_fract_y
 _atom_site_fract_z
 _atom_site_occupancy
  Ca  Ca0  1  0.25289821  0.00188124  -0.00059716  1
  Ca  Ca1  1  0.25180444  -0.00208758  0.49928389  1
  Ca  Ca2  1  0.25199265  0.49802726  -0.00497221  1
  Ca  Ca3  1  0.25785515  0.50112024  0.50332797  1
  Ca  Ca4  1  0.75383572  -0.00115884  -0.00147500  1
  Ca  Ca5  1  0.74810420  -0.00036859  0.50058882  1
  Ca  Ca6  1  0.75074237  0.50084739  -0.00185960  1
  Ca  Ca7  1  0.74122426  0.49873100  0.50094901  1
  Ca  Ca8  1  0.00674769  0.25356296  -0.00044209  1
  Ca  Ca9  1  -0.00059839  0.24970231  0.50120999  1
  Ca  Ca10  1  -0.00098856  0.75218032  -0.00801249  1
  Ca  Ca11  1  -0.00037890  0.75088654  0.50587264  1
  Ca  Ca12  1  0.49356284  0.25559311  -0.00069046  1
  Ca  Ca13  1  0.49895462  0.25529861  0.50353776  1
  Ca  Ca14  1  0.49784456  0.75151478  0.00222278  1
  Ca  Ca15  1  0.49952013  0.74836567  0.49861234  1
  Ca  Ca16  1  -0.00098601  0.00317924  0.24162906  1
  Ca  Ca17  1  -0.00193899  -0.00405693  0.74899151  1
  Ca  Ca18  1  0.00119278  0.49622675  0.24533334  1
  Ca  Ca19  1  0.00397192  0.50122353  0.75452157  1
  Ca  Ca20  1  0.50280042  0.00350398  0.24959706  1
  Ca  Ca21  1  0.50138335  0.00303178  0.75191841  1
  Ca  Ca22  1  0.49556193  0.49808582  0.25291146  1
  Ca  Ca23  1  0.49498292  0.49909974  0.74772876  1
  Ti  Ti24  1  0.25268846  0.25221625  0.24789390  1
  Ti  Ti25  1  0.25057117  0.25098776  0.75017801  1
  Ti  Ti26  1  0.25193505  0.74778240  0.24887944  1
  Ti  Ti27  1  0.24968464  0.74992558  0.75007591  1
  Ti  Ti28  1  0.74774271  0.25079595  0.25075112  1
  Ti  Ti29  1  0.74947005  0.25087732  0.75015763  1
  Ti  Ti30  1  0.74728777  0.75036954  0.24882000  1
  Ti  Ti31  1  0.75040332  0.74906476  0.75090275  1
  Al  Al32  1  0.08842693  0.08051056  0.07791322  1
  Al  Al33  1  0.07254569  0.07679661  0.58302211  1
  Al  Al34  1  0.08690973  0.57411401  0.07406620  1
  Al  Al35  1  0.08577589  0.58838522  0.59640779  1
  Al  Al36  1  0.57214539  0.07799592  0.07994624  1
  Al  Al37  1  0.58786435  0.09018648  0.58030329  1
  Al  Al38  1  0.59189962  0.58544575  0.08272182  1
  Al  Al39  1  0.58792470  0.58035600  0.57937724  1
  Al  Al40  1  0.40444338  0.41278133  0.07973509  1
  Al  Al41  1  0.41210753  0.41414406  0.59024712  1
  Al  Al42  1  0.40219584  0.91977074  0.08458036  1
  Al  Al43  1  0.41859894  0.91735647  0.57867357  1
  Al  Al44  1  0.91521200  0.40760313  0.07798658  1
  Al  Al45  1  0.92261162  0.42056490  0.57822990  1
  Al  Al46  1  0.90925270  0.91509282  0.08140308  1
  Al  Al47  1  0.91566720  0.91437193  0.59505581  1
  Al  Al48  1  0.42275486  0.08247236  0.41971162  1
  Al  Al49  1  0.41187233  0.09412522  0.91988744  1
  Al  Al50  1  0.41523332  0.59331954  0.41701774  1
  Al  Al51  1  0.40890581  0.57209593  0.91385245  1
  Al  Al52  1  0.91445766  0.08835884  0.42198591  1
  Al  Al53  1  0.92271198  0.08627321  0.90704433  1
  Al  Al54  1  0.91488489  0.57428317  0.43047352  1
  Al  Al55  1  0.92428433  0.58829423  0.91081769  1
  Al  Al56  1  0.08680676  0.41800341  0.41442758  1
  Al  Al57  1  0.09274860  0.41919003  0.91200562  1
  Al  Al58  1  0.09012265  0.91251078  0.43183817  1
  Al  Al59  1  0.07810163  0.91074121  0.91617765  1
  Al  Al60  1  0.57635660  0.41805055  0.42146884  1
  Al  Al61  1  0.57181458  0.41138529  0.91083323  1
  Al  Al62  1  0.58579937  0.90308699  0.41391760  1
  Al  Al63  1  0.57969343  0.91805566  0.91741753  1
  Al  Al64  1  0.06957664  0.07831084  0.42055187  1
  Al  Al65  1  0.08124520  0.09435560  0.91462631  1
  Al  Al66  1  0.09568244  0.57354800  0.42496586  1
  Al  Al67  1  0.08738939  0.58386972  0.90427495  1
  Al  Al68  1  0.58731626  0.08331682  0.42296488  1
  Al  Al69  1  0.57090290  0.07902877  0.91061477  1
  Al  Al70  1  0.57835185  0.59574975  0.41641673  1
  Al  Al71  1  0.58568523  0.58352783  0.92665535  1
  Al  Al72  1  0.41483112  0.41445867  0.42370565  1
  Al  Al73  1  0.40834560  0.40912764  0.90754552  1
  Al  Al74  1  0.42383837  0.90476436  0.41073020  1
  Al  Al75  1  0.41446309  0.91542656  0.92348737  1
  Al  Al76  1  0.91775810  0.41356628  0.41640847  1
  Al  Al77  1  0.91845348  0.41356818  0.92002549  1
  Al  Al78  1  0.91764042  0.92305331  0.42551095  1
  Al  Al79  1  0.91645492  0.91153349  0.91489858  1
  Al  Al80  1  0.08653700  0.41327182  0.07838623  1
  Al  Al81  1  0.08675536  0.42531550  0.58595051  1
  Al  Al82  1  0.08551604  0.92082227  0.08131213  1
  Al  Al83  1  0.07870784  0.89951069  0.58944704  1
  Al  Al84  1  0.57950873  0.42435711  0.08293067  1
  Al  Al85  1  0.58150107  0.41811952  0.59140918  1
  Al  Al86  1  0.58148504  0.91726178  0.07942101  1
  Al  Al87  1  0.58987513  0.91093961  0.57483215  1
  Al  Al88  1  0.40190130  0.08389204  0.08223736  1
  Al  Al89  1  0.42229586  0.08302433  0.58346490  1
  Al  Al90  1  0.41180848  0.57425930  0.08422210  1
  Al  Al91  1  0.41100290  0.57714545  0.57922609  1
  Al  Al92  1  0.91331950  0.07237272  0.08604945  1
  Al  Al93  1  0.90674870  0.07920595  0.58916591  1
  Al  Al94  1  0.91534395  0.57710272  0.07190518  1
  Al  Al95  1  0.92476800  0.59136729  0.59184504  1
  Al  Al96  1  0.25530004  0.13822443  0.12855453  1
  Al  Al97  1  0.24981235  0.12956925  0.63579149  1
  Al  Al98  1  0.25298972  0.62586855  0.13463416  1
  Al  Al99  1  0.25369788  0.63438303  0.63473799  1
  Al  Al100  1  0.75292801  0.13719217  0.13319709  1
  Al  Al101  1  0.75046554  0.13542651  0.63614625  1
  Al  Al102  1  0.74859973  0.63732554  0.12736839  1
  Al  Al103  1  0.74930544  0.63617609  0.63617334  1
  Al  Al104  1  0.25458538  0.37144000  0.13236544  1
  Al  Al105  1  0.25696613  0.36980855  0.63483056  1
  Al  Al106  1  0.25476678  0.86506511  0.13024525  1
  Al  Al107  1  0.24759390  0.86584070  0.63306491  1
  Al  Al108  1  0.74732746  0.36201965  0.12966778  1
  Al  Al109  1  0.74515095  0.36560830  0.63075510  1
  Al  Al110  1  0.74767254  0.86497087  0.13386963  1
  Al  Al111  1  0.75000576  0.86344383  0.63819353  1
  Al  Al112  1  0.25350767  0.13538267  0.36426897  1
  Al  Al113  1  0.25476121  0.13936234  0.87237174  1
  Al  Al114  1  0.25711269  0.63521336  0.37021803  1
  Al  Al115  1  0.25146604  0.62801093  0.86074440  1
  Al  Al116  1  0.74767529  0.13564057  0.36435185  1
  Al  Al117  1  0.75120278  0.13679376  0.86666310  1
  Al  Al118  1  0.74677724  0.63463305  0.36555847  1
  Al  Al119  1  0.74841646  0.63593599  0.86648376  1
  Al  Al120  1  0.25908268  0.36574143  0.36990550  1
  Al  Al121  1  0.25229541  0.37014161  0.86358848  1
  Al  Al122  1  0.25077713  0.86319082  0.36786401  1
  Al  Al123  1  0.24854075  0.86278007  0.86785114  1
  Al  Al124  1  0.74589872  0.36561531  0.37254905  1
  Al  Al125  1  0.75066373  0.36299683  0.87031820  1
  Al  Al126  1  0.74699299  0.86437300  0.36917450  1
  Al  Al127  1  0.75213627  0.86330073  0.86293487  1
  Al  Al128  1  0.13995774  0.25020591  0.13287045  1
  Al  Al129  1  0.14067370  0.25201125  0.63423620  1
  Al  Al130  1  0.14194220  0.74864698  0.13078757  1
  Al  Al131  1  0.13558583  0.75134840  0.63296209  1
  Al  Al132  1  0.62803384  0.25046910  0.13370353  1
  Al  Al133  1  0.63627671  0.24970256  0.63036480  1
  Al  Al134  1  0.63392051  0.74922744  0.12798110  1
  Al  Al135  1  0.62981201  0.75122509  0.63573885  1
  Al  Al136  1  0.13955289  0.25316954  0.36591196  1
  Al  Al137  1  0.13790413  0.24871442  0.86528128  1
  Al  Al138  1  0.13772675  0.75102789  0.36751748  1
  Al  Al139  1  0.13045529  0.74779366  0.86393435  1
  Al  Al140  1  0.63602734  0.24891108  0.37293048  1
  Al  Al141  1  0.63283791  0.25653080  0.86526287  1
  Al  Al142  1  0.63050771  0.75340827  0.36519595  1
  Al  Al143  1  0.63591435  0.74851724  0.86840507  1
  Al  Al144  1  0.36786566  0.25394532  0.13152318  1
  Al  Al145  1  0.36434350  0.25407982  0.63512986  1
  Al  Al146  1  0.36386484  0.74859050  0.12950088  1
  Al  Al147  1  0.36898842  0.74611132  0.63439564  1
  Al  Al148  1  0.86431472  0.25527146  0.13375731  1
  Al  Al149  1  0.86303537  0.25065303  0.63651472  1
  Al  Al150  1  0.86239769  0.74922312  0.13383226  1
  Al  Al151  1  0.86819678  0.75332252  0.63732015  1
  Al  Al152  1  0.36713780  0.24985323  0.36426133  1
  Al  Al153  1  0.36377645  0.25507018  0.86781686  1
  Al  Al154  1  0.36870504  0.74707014  0.36564663  1
  Al  Al155  1  0.36075070  0.74874188  0.86865862  1
  Al  Al156  1  0.86174863  0.25212378  0.36506569  1
  Al  Al157  1  0.86591460  0.24983832  0.86449227  1
  Al  Al158  1  0.86167024  0.75085558  0.36488286  1
  Al  Al159  1  0.87203954  0.74659621  0.86166540  1
  Al  Al160  1  0.13958315  0.13859296  0.24697175  1
  Al  Al161  1  0.13597400  0.13553223  0.75148762  1
  Al  Al162  1  0.13974441  0.63551884  0.25078348  1
  Al  Al163  1  0.13772923  0.63422080  0.75123300  1
  Al  Al164  1  0.62995837  0.13815961  0.24800329  1
  Al  Al165  1  0.63535560  0.13615250  0.74865666  1
  Al  Al166  1  0.63252111  0.63900047  0.25445907  1
  Al  Al167  1  0.63270949  0.63421868  0.74309107  1
  Al  Al168  1  0.36871567  0.13729281  0.24596303  1
  Al  Al169  1  0.36332310  0.13827724  0.74914849  1
  Al  Al170  1  0.36488158  0.63184607  0.25289157  1
  Al  Al171  1  0.36537170  0.63193768  0.74901290  1
  Al  Al172  1  0.86360545  0.13830992  0.24783009  1
  Al  Al173  1  0.86158420  0.12928128  0.75226654  1
  Al  Al174  1  0.85912101  0.63220040  0.24691693  1
  Al  Al175  1  0.86503121  0.63392590  0.75073164  1
  Al  Al176  1  0.14164465  0.36579287  0.24781611  1
  Al  Al177  1  0.13909838  0.36680184  0.75373965  1
  Al  Al178  1  0.14076171  0.86200716  0.24598624  1
  Al  Al179  1  0.12661134  0.86125882  0.74728459  1
  Al  Al180  1  0.63615374  0.36378514  0.25009831  1
  Al  Al181  1  0.63730676  0.36646760  0.74876502  1
  Al  Al182  1  0.63215962  0.86306264  0.25021740  1
  Al  Al183  1  0.63432441  0.86416822  0.74861414  1
  Al  Al184  1  0.36405684  0.37129429  0.24717356  1
  Al  Al185  1  0.36346779  0.37053893  0.75253874  1
  Al  Al186  1  0.36199858  0.86112283  0.25211324  1
  Al  Al187  1  0.36140957  0.86287587  0.74554370  1
  Al  Al188  1  0.86105894  0.36555113  0.25038615  1
  Al  Al189  1  0.86410115  0.36362672  0.75067119  1
  Al  Al190  1  0.86114153  0.86555509  0.24805409  1
  Al  Al191  1  0.86954708  0.86626321  0.75212085  1
  Al  Al192  1  0.18826992  0.00124853  0.17416853  1
  Al  Al193  1  -0.00031465  0.82620195  0.32990060  1
  Al  Al194  1  0.00191275  0.31892961  0.82800774  1
  Al  Al195  1  0.00114687  0.16957621  0.16916812  1
  Al  Al196  1  0.68218093  0.50130717  0.18235162  1
  Al  Al197  1  0.18536957  0.68323825  0.50136099  1
  Al  Al198  1  0.81598254  0.81596067  -0.00156675  1
  Al  Al199  1  0.18808953  0.50004736  0.31723042  1
  Al  Al200  1  0.68172037  0.00012655  0.82663467  1
  Al  Al201  1  0.67962053  0.68978014  0.50049165  1
  Al  Al202  1  0.00198625  0.69329701  0.69664656  1
  Al  Al203  1  0.49623823  0.82748286  0.18267889  1
  Al  Al204  1  -0.00229243  0.17130439  0.69173311  1
  Al  Al205  1  0.68642584  0.00195938  0.16706633  1
  Al  Al206  1  0.00092269  0.66959473  0.16817002  1
  Al  Al207  1  0.00202244  0.32328519  0.17925926  1
  Al  Al208  1  0.82096618  0.82296054  0.50537287  1
  Al  Al209  1  0.17874535  0.67916675  -0.00431120  1
  Al  Al210  1  0.49809590  0.18997599  0.81887140  1
  Al  Al211  1  0.49934024  0.67239084  0.82479004  1
  Al  Al212  1  0.81864018  0.50240814  0.32359820  1
  Al  Al213  1  0.49953613  0.32133821  0.32022326  1
  Al  Al214  1  0.66918428  0.17702060  -0.00221979  1
  Al  Al215  1  0.82658875  0.49853468  0.82847044  1
  Al  Al216  1  0.83346931  0.18037583  0.00086586  1
  Al  Al217  1  0.81710034  0.49901590  0.67071676  1
  Al  Al218  1  0.49966150  0.32201067  0.68996736  1
  Al  Al219  1  0.32781706  0.00009363  0.82411184  1
  Al  Al220  1  0.68152161  -0.00009115  0.67062049  1
  Al  Al221  1  0.00315171  0.32723422  0.67521095  1
  Al  Al222  1  0.49849710  0.67040519  0.18043877  1
  Al  Al223  1  0.49673277  0.82718509  0.82023932  1
  Al  Al224  1  0.17229276  -0.00037884  0.32785528  1
  Al  Al225  1  0.17931480  0.32690271  0.50285543  1
  Al  Al226  1  0.18683170  0.50087144  0.68773219  1
  Al  Al227  1  0.31902260  0.81259215  0.50020418  1
  Al  Al228  1  0.32951910  -0.00024188  0.31458390  1
  Al  Al229  1  0.00041530  0.82783414  0.17306704  1
  Al  Al230  1  0.66879498  0.50132053  0.81545220  1
  Al  Al231  1  0.17053434  -0.00114329  0.82029758  1
  Al  Al232  1  0.00177667  0.66606623  0.33188572  1
  Al  Al233  1  0.19011247  0.32142861  -0.00181569  1
  Al  Al234  1  0.81399542  0.17774188  0.50110225  1
  Al  Al235  1  0.67247130  -0.00099199  0.32566796  1
  Al  Al236  1  0.83010840  0.00273163  0.31381695  1
  Al  Al237  1  -0.00016771  0.18298368  0.32272353  1
  Al  Al238  1  0.31967342  0.18517606  0.50112206  1
  Au  Au239  1  0.17369110  0.49727379  0.16911848  1
  Au  Au240  1  0.49675000  0.34019529  0.17045380  1
  Au  Au241  1  0.49745493  0.66277003  0.65934495  1
  Au  Au242  1  0.49922695  0.65474676  0.17558743  1
  Au  Au243  1  0.49210644  0.16674757  0.16451954  1
  Au  Au244  1  0.66933134  -0.00000185  0.66680208  1
  Au  Au245  1  0.15674851  0.00369067  0.32670784  1
  Au  Au246  1  0.49322182  0.84169553  0.17395351  1
  Au  Au247  1  0.17407740  0.66774923  -0.00399433  1
  Au  Au248  1  0.17397309  0.67113331  0.50416188  1
  Au  Au249  1  0.82764837  0.50009029  0.33219842  1
  Au  Au250  1  0.17050125  0.00298515  0.83628498  1
  Au  Au251  1  0.33891113  0.00032613  0.67405411  1
  Au  Au252  1  0.66677246  0.49984582  0.83204691  1
  Au  Au253  1  -0.00540785  0.17236112  0.67501408  1
  Au  Au254  1  0.00343187  0.65026269  0.33744320  1
  Au  Au255  1  0.50308514  0.17534976  0.67131970  1
  Au  Au256  1  0.33245202  0.17378213  0.50133790  1
  Au  Au257  1  0.84873312  0.17445385  0.00132544  1
  Au  Au258  1  -0.00039873  0.81802026  0.82096051  1
  Au  Au259  1  0.83253178  -0.00136178  0.82798697  1
  Au  Au260  1  0.00515679  0.84221434  0.32981211  1
  Au  Au261  1  0.16844539  -0.00604369  0.65718835  1
  Au  Au262  1  0.32878083  0.82642025  0.49852703  1
  Au  Au263  1  0.66670654  0.82581397  -0.00392627  1
  Au  Au264  1  0.00359671  0.33173231  0.32730980  1
  Au  Au265  1  0.65437124  0.50239966  0.32914769  1
  Au  Au266  1  0.65540385  0.16883189  -0.00528135  1
  Au  Au267  1  0.82597415  0.83322203  0.50056529  1
  Au  Au268  1  0.82642634  0.66730395  0.50330793  1
  Au  Au269  1  0.50701708  0.17376002  0.33804004  1
  Au  Au270  1  0.82610117  0.66782182  -0.00679487  1
  Au  Au271  1  0.50240926  0.83592722  0.66955406  1
  Au  Au272  1  0.66198629  0.32751916  0.50277455  1
  Au  Au273  1  0.66962523  0.00269631  0.17158311  1
  Au  Au274  1  0.00096840  0.67556862  0.15233453  1
  Au  Au275  1  0.15886033  0.16681341  0.49835794  1
  Au  Au276  1  0.67021000  0.34157849  0.00015379  1
  Au  Au277  1  0.82836989  0.49490167  0.15922174  1
  Au  Au278  1  0.17656860  0.83532908  0.00149885  1
  Au  Au279  1  0.33544558  0.50083870  0.33281201  1
  Au  Au280  1  0.83387853  0.49889254  0.67056519  1
  Au  Au281  1  0.83018091  0.00378003  0.33072181  1
  Au  Au282  1  0.17931851  0.33959608  0.50502555  1
  Au  Au283  1  0.33295087  0.66751797  0.00017990  1
  Au  Au284  1  0.17592420  0.17462314  0.00072918  1
  Au  Au285  1  0.83614876  0.32357382  0.50277625  1
  Au  Au286  1  0.34460280  -0.00112085  0.32282997  1
  Au  Au287  1  0.49794664  0.66986212  0.84075483  1
