# generated using pymatgen
data_Ca24Ti8Al207Au49
_symmetry_space_group_name_H-M   'P 1'
_cell_length_a   17.32318283
_cell_length_b   17.32376620
_cell_length_c   17.32328956
_cell_angle_alpha   90.00220653
_cell_angle_beta   90.00078943
_cell_angle_gamma   89.99447114
_symmetry_Int_Tables_number   1
_chemical_formula_structural   Ca24Ti8Al207Au49
_chemical_formula_sum   'Ca24 Ti8 Al207 Au49'
_cell_volume   5198.76714170
_cell_formula_units_Z   1
loop_
 _symmetry_equiv_pos_site_id
 _symmetry_equiv_pos_as_xyz
  1  'x, y, z'
loop_
 _atom_site_type_symbol
 _atom_site_label
 _atom_site_symmetry_multiplicity
 _atom_site_fract_x
 _atom_site_fract_y
 _atom_site_fract_z
 _atom_site_occupancy
  Ca  Ca0  1  0.24885885  -0.00524172  0.00371194  1
  Ca  Ca1  1  0.24226665  -0.00077328  0.49386774  1
  Ca  Ca2  1  0.25029741  0.50080022  0.00005244  1
  Ca  Ca3  1  0.24642149  0.49856443  0.49849359  1
  Ca  Ca4  1  0.75302195  0.00086934  0.00264442  1
  Ca  Ca5  1  0.74919230  -0.00202526  0.50018663  1
  Ca  Ca6  1  0.75203003  0.50008226  0.00511389  1
  Ca  Ca7  1  0.75118660  0.50409756  0.49544229  1
  Ca  Ca8  1  -0.00563347  0.24727305  0.00276858  1
  Ca  Ca9  1  -0.00305767  0.24824423  0.49661173  1
  Ca  Ca10  1  -0.00091635  0.75784392  0.00675640  1
  Ca  Ca11  1  0.00349655  0.75428491  0.49642486  1
  Ca  Ca12  1  0.50762715  0.24571924  0.00010815  1
  Ca  Ca13  1  0.50035466  0.24874915  0.49835775  1
  Ca  Ca14  1  0.50184107  0.75733865  -0.00200358  1
  Ca  Ca15  1  0.50011322  0.75292477  0.49839974  1
  Ca  Ca16  1  0.00107303  -0.00019671  0.24932944  1
  Ca  Ca17  1  -0.00294067  0.00256152  0.75473798  1
  Ca  Ca18  1  -0.00214362  0.50043816  0.25227781  1
  Ca  Ca19  1  0.00149587  0.50072968  0.74461494  1
  Ca  Ca20  1  0.49872749  -0.00153459  0.24762773  1
  Ca  Ca21  1  0.50250321  -0.00472066  0.75143345  1
  Ca  Ca22  1  0.50187012  0.50101310  0.25264363  1
  Ca  Ca23  1  0.49790998  0.50504772  0.74746016  1
  Ti  Ti24  1  0.24953033  0.24894656  0.25077811  1
  Ti  Ti25  1  0.25055499  0.24837114  0.74971397  1
  Ti  Ti26  1  0.24976905  0.75124127  0.24896524  1
  Ti  Ti27  1  0.25089480  0.75301643  0.75133738  1
  Ti  Ti28  1  0.75005996  0.24862412  0.24939557  1
  Ti  Ti29  1  0.75028338  0.24669022  0.75103833  1
  Ti  Ti30  1  0.75083761  0.75243963  0.25130889  1
  Ti  Ti31  1  0.74924138  0.75412441  0.74799849  1
  Al  Al32  1  0.07634736  0.07963849  0.09539284  1
  Al  Al33  1  0.08035540  0.07461473  0.57356517  1
  Al  Al34  1  0.08014034  0.58633771  0.08904997  1
  Al  Al35  1  0.09499920  0.58354470  0.57602364  1
  Al  Al36  1  0.58536916  0.09702544  0.07987706  1
  Al  Al37  1  0.58018918  0.07619204  0.57937261  1
  Al  Al38  1  0.58167977  0.58081097  0.08494113  1
  Al  Al39  1  0.58680321  0.59648469  0.57421722  1
  Al  Al40  1  0.42646204  0.42270192  0.08453746  1
  Al  Al41  1  0.41414450  0.42450957  0.59012466  1
  Al  Al42  1  0.41884324  0.91402185  0.08905303  1
  Al  Al43  1  0.41457195  0.91712353  0.59054920  1
  Al  Al44  1  0.91261561  0.41195182  0.08309539  1
  Al  Al45  1  0.92312520  0.41502534  0.58057740  1
  Al  Al46  1  0.91936692  0.91432491  0.08554885  1
  Al  Al47  1  0.91340328  0.91377492  0.57882086  1
  Al  Al48  1  0.41688768  0.07555203  0.40947888  1
  Al  Al49  1  0.42386904  0.07399356  0.92488720  1
  Al  Al50  1  0.41486529  0.57891136  0.41345651  1
  Al  Al51  1  0.41635376  0.58386674  0.90904907  1
  Al  Al52  1  0.92492441  0.08908798  0.40701471  1
  Al  Al53  1  0.90861857  0.09093297  0.92277420  1
  Al  Al54  1  0.91246854  0.59120992  0.41819229  1
  Al  Al55  1  0.91611552  0.57960717  0.93177080  1
  Al  Al56  1  0.08058045  0.41664324  0.41200250  1
  Al  Al57  1  0.07079738  0.41325728  0.90638329  1
  Al  Al58  1  0.09216679  0.91743703  0.41125883  1
  Al  Al59  1  0.07957156  0.91140770  0.93019807  1
  Al  Al60  1  0.58630056  0.42147983  0.41895286  1
  Al  Al61  1  0.58551538  0.40651631  0.92542244  1
  Al  Al62  1  0.59031552  0.91127185  0.41886860  1
  Al  Al63  1  0.58903755  0.91641502  0.91058251  1
  Al  Al64  1  0.08687126  0.08194680  0.40272091  1
  Al  Al65  1  0.07103710  0.07904413  0.91936587  1
  Al  Al66  1  0.08924678  0.59158018  0.41764827  1
  Al  Al67  1  0.08046171  0.57846811  0.92813774  1
  Al  Al68  1  0.58251339  0.07694811  0.41599834  1
  Al  Al69  1  0.59909448  0.08136611  0.91731251  1
  Al  Al70  1  0.59412335  0.58823667  0.41824540  1
  Al  Al71  1  0.57341605  0.58337438  0.92242900  1
  Al  Al72  1  0.41451964  0.42383247  0.41137095  1
  Al  Al73  1  0.42286405  0.42540084  0.91114444  1
  Al  Al74  1  0.41651756  0.91958504  0.41193816  1
  Al  Al75  1  0.42310579  0.91102780  0.91132400  1
  Al  Al76  1  0.92210565  0.41496737  0.41508166  1
  Al  Al77  1  0.91674470  0.40135715  0.91461401  1
  Al  Al78  1  0.91709288  0.91382036  0.41669108  1
  Al  Al79  1  0.91281069  0.91558527  0.92416424  1
  Al  Al80  1  0.07286936  0.42508532  0.09066856  1
  Al  Al81  1  0.08257362  0.42054301  0.58788630  1
  Al  Al82  1  0.08503889  0.91329608  0.09194583  1
  Al  Al83  1  0.09187711  0.91066605  0.57537238  1
  Al  Al84  1  0.59164064  0.40546506  0.08348871  1
  Al  Al85  1  0.57777278  0.41608211  0.57539012  1
  Al  Al86  1  0.57820960  0.91217478  0.07725072  1
  Al  Al87  1  0.58836350  0.90834497  0.58189972  1
  Al  Al88  1  0.42393911  0.08436777  0.08815006  1
  Al  Al89  1  0.41676378  0.07307158  0.58834277  1
  Al  Al90  1  0.41750150  0.58276283  0.08231675  1
  Al  Al91  1  0.41468561  0.58102397  0.58788771  1
  Al  Al92  1  0.91381280  0.09008089  0.08632535  1
  Al  Al93  1  0.91861478  0.07722660  0.57725197  1
  Al  Al94  1  0.91552469  0.58970538  0.08879789  1
  Al  Al95  1  0.90889377  0.58961544  0.57254404  1
  Al  Al96  1  0.24830807  0.13616032  0.13925011  1
  Al  Al97  1  0.25208745  0.13287087  0.63585374  1
  Al  Al98  1  0.25007092  0.63799472  0.13691555  1
  Al  Al99  1  0.25009327  0.63927842  0.63488718  1
  Al  Al100  1  0.75200600  0.13586381  0.13190234  1
  Al  Al101  1  0.75093837  0.12959607  0.63189410  1
  Al  Al102  1  0.74961339  0.64023531  0.13673487  1
  Al  Al103  1  0.74494494  0.63664138  0.62972142  1
  Al  Al104  1  0.24946254  0.36205956  0.13948171  1
  Al  Al105  1  0.25181121  0.36526311  0.63462146  1
  Al  Al106  1  0.25131660  0.86364630  0.13099851  1
  Al  Al107  1  0.25142848  0.86747199  0.63622117  1
  Al  Al108  1  0.74926339  0.35734241  0.12699577  1
  Al  Al109  1  0.75478087  0.36507420  0.63701926  1
  Al  Al110  1  0.75492049  0.86514081  0.13612600  1
  Al  Al111  1  0.74870994  0.86888573  0.62934065  1
  Al  Al112  1  0.24830006  0.13420776  0.36120402  1
  Al  Al113  1  0.25137189  0.13177983  0.86557411  1
  Al  Al114  1  0.24719137  0.63464561  0.36414395  1
  Al  Al115  1  0.24986728  0.64205496  0.86813045  1
  Al  Al116  1  0.75169414  0.13635663  0.36707609  1
  Al  Al117  1  0.74931388  0.13078095  0.87123302  1
  Al  Al118  1  0.74916807  0.63975562  0.36864557  1
  Al  Al119  1  0.75275673  0.63977884  0.86357055  1
  Al  Al120  1  0.24838909  0.36860251  0.36339258  1
  Al  Al121  1  0.25430801  0.36175727  0.86313415  1
  Al  Al122  1  0.24355884  0.86411201  0.36320094  1
  Al  Al123  1  0.25004407  0.86528733  0.87123693  1
  Al  Al124  1  0.75237445  0.36240897  0.36368537  1
  Al  Al125  1  0.74786373  0.35996847  0.87536754  1
  Al  Al126  1  0.75166385  0.86023137  0.37090047  1
  Al  Al127  1  0.74897912  0.87462055  0.86129083  1
  Al  Al128  1  0.12524835  0.24447323  0.13998775  1
  Al  Al129  1  0.13793507  0.25157586  0.63541505  1
  Al  Al130  1  0.13301247  0.75722305  0.13217467  1
  Al  Al131  1  0.13734442  0.75275107  0.62975702  1
  Al  Al132  1  0.63476710  0.24506562  0.13113075  1
  Al  Al133  1  0.63811255  0.24540900  0.63627531  1
  Al  Al134  1  0.63320883  0.75700438  0.13572703  1
  Al  Al135  1  0.63620446  0.75522981  0.63115512  1
  Al  Al136  1  0.13505954  0.24937455  0.36337642  1
  Al  Al137  1  0.13532309  0.24907730  0.86661453  1
  Al  Al138  1  0.13265117  0.75184130  0.36669507  1
  Al  Al139  1  0.13394985  0.75380087  0.86933577  1
  Al  Al140  1  0.63011403  0.24607369  0.36301895  1
  Al  Al141  1  0.63782517  0.24555905  0.86971425  1
  Al  Al142  1  0.63197636  0.75184946  0.36805343  1
  Al  Al143  1  0.63589354  0.75851679  0.86347399  1
  Al  Al144  1  0.36819641  0.24672691  0.13813618  1
  Al  Al145  1  0.36537841  0.25308728  0.63615266  1
  Al  Al146  1  0.36767206  0.75421363  0.13200501  1
  Al  Al147  1  0.36576499  0.75529485  0.63219869  1
  Al  Al148  1  0.86777990  0.24643545  0.13050742  1
  Al  Al149  1  0.86177538  0.24659569  0.63044630  1
  Al  Al150  1  0.86775876  0.75742747  0.13632286  1
  Al  Al151  1  0.86222343  0.75172384  0.62721292  1
  Al  Al152  1  0.36970655  0.25063021  0.36244112  1
  Al  Al153  1  0.36805216  0.24635288  0.85993349  1
  Al  Al154  1  0.36902014  0.75318853  0.36496836  1
  Al  Al155  1  0.36583734  0.75513184  0.86777203  1
  Al  Al156  1  0.86537730  0.24674231  0.36759608  1
  Al  Al157  1  0.85822090  0.24641457  0.87300566  1
  Al  Al158  1  0.86885022  0.75016173  0.37212784  1
  Al  Al159  1  0.86087581  0.75776486  0.86423942  1
  Al  Al160  1  0.12995065  0.13314240  0.25366089  1
  Al  Al161  1  0.13752561  0.13028170  0.75185975  1
  Al  Al162  1  0.13429708  0.63797171  0.25431455  1
  Al  Al163  1  0.13630356  0.64082224  0.74762092  1
  Al  Al164  1  0.63051357  0.13597688  0.24702456  1
  Al  Al165  1  0.64049883  0.12672723  0.75344164  1
  Al  Al166  1  0.63381461  0.63893279  0.25079160  1
  Al  Al167  1  0.63608257  0.64054798  0.74733461  1
  Al  Al168  1  0.37034901  0.13426704  0.25042740  1
  Al  Al169  1  0.36548904  0.12926599  0.74629791  1
  Al  Al170  1  0.36728467  0.63704890  0.25398244  1
  Al  Al171  1  0.36429406  0.64041109  0.74851977  1
  Al  Al172  1  0.86879147  0.13750866  0.24918782  1
  Al  Al173  1  0.85832133  0.12797730  0.75506102  1
  Al  Al174  1  0.86336176  0.63906049  0.25277243  1
  Al  Al175  1  0.86083131  0.63765114  0.74243203  1
  Al  Al176  1  0.13276108  0.36512845  0.25082992  1
  Al  Al177  1  0.13585335  0.36248792  0.75169839  1
  Al  Al178  1  0.12975497  0.86327564  0.24967435  1
  Al  Al179  1  0.13613962  0.86497554  0.74816781  1
  Al  Al180  1  0.63802693  0.36282801  0.24671586  1
  Al  Al181  1  0.63951425  0.36288847  0.75031657  1
  Al  Al182  1  0.63193860  0.86400399  0.25236487  1
  Al  Al183  1  0.63297253  0.86932645  0.74777261  1
  Al  Al184  1  0.36826293  0.36463758  0.25249693  1
  Al  Al185  1  0.36569897  0.36538687  0.74894302  1
  Al  Al186  1  0.36779109  0.86401974  0.24930505  1
  Al  Al187  1  0.36871144  0.86577362  0.75048777  1
  Al  Al188  1  0.86371177  0.36135985  0.24576454  1
  Al  Al189  1  0.86194209  0.36212282  0.75800547  1
  Al  Al190  1  0.87098220  0.86342544  0.25523485  1
  Al  Al191  1  0.86196307  0.86998203  0.74595485  1
  Al  Al192  1  0.32261146  -0.00070676  0.82406071  1
  Al  Al193  1  0.50393149  0.17412513  0.83042413  1
  Al  Al194  1  -0.00111035  0.17031445  0.67945075  1
  Al  Al195  1  0.50126710  0.68603104  0.82541281  1
  Al  Al196  1  0.82295835  0.69069576  0.00185391  1
  Al  Al197  1  0.31578520  0.83007684  0.49804672  1
  Al  Al198  1  0.17406759  0.50154747  0.18360580  1
  Al  Al199  1  0.30957721  -0.00171906  0.31599813  1
  Al  Al200  1  0.81920173  0.49954443  0.17553059  1
  Al  Al201  1  0.33091002  0.50004185  0.18721764  1
  Al  Al202  1  0.18011080  0.67811213  0.00336131  1
  Al  Al203  1  0.50086485  0.17168214  0.67328683  1
  Al  Al204  1  0.67769713  0.50089086  0.31756523  1
  Al  Al205  1  0.83360270  0.50077283  0.82402752  1
  Al  Al206  1  0.31683882  0.67048601  0.49881097  1
  Al  Al207  1  0.16936850  0.33268645  0.00313580  1
  Al  Al208  1  0.67417339  0.50179631  0.66439096  1
  Al  Al209  1  0.18227960  -0.00168255  0.18994962  1
  Al  Al210  1  0.32546951  0.50268725  0.80988648  1
  Al  Al211  1  0.50140572  0.68331796  0.17430264  1
  Al  Al212  1  0.67139776  0.50240679  0.82967581  1
  Al  Al213  1  0.68447363  -0.00145597  0.32505410  1
  Al  Al214  1  0.18846844  0.50148185  0.67352963  1
  Al  Al215  1  0.67115000  0.67488292  -0.00087523  1
  Al  Al216  1  0.50413145  0.31613449  0.17751075  1
  Al  Al217  1  0.17807210  0.00075175  0.67483025  1
  Al  Al218  1  0.17103184  0.16923452  0.00131599  1
  Al  Al219  1  -0.00188779  0.82899227  0.82213868  1
  Al  Al220  1  0.67429103  -0.00135387  0.16906632  1
  Al  Al221  1  0.68870044  0.82717259  -0.00092723  1
  Al  Al222  1  -0.00143973  0.31205626  0.31881488  1
  Al  Al223  1  0.33100618  0.17028081  0.50035684  1
  Al  Al224  1  0.32130823  0.33349846  0.49832605  1
  Al  Al225  1  0.50218123  0.32575742  0.67626376  1
  Al  Al226  1  0.32722968  0.17252088  0.00135885  1
  Al  Al227  1  0.82901593  0.50047361  0.32796294  1
  Al  Al228  1  0.00181149  0.67948868  0.66670118  1
  Al  Al229  1  -0.00002477  0.68739262  0.18236896  1
  Al  Al230  1  -0.00168948  0.32614711  0.68839922  1
  Al  Al231  1  0.49994746  0.68081771  0.67219041  1
  Al  Al232  1  -0.00443658  0.67134630  0.83195505  1
  Al  Al233  1  0.33136507  0.32863637  -0.00021391  1
  Al  Al234  1  0.68063350  0.31942304  0.49961558  1
  Al  Al235  1  0.17813464  0.50100319  0.83099501  1
  Al  Al236  1  0.82884382  -0.00014876  0.18077096  1
  Al  Al237  1  -0.00402028  0.18776923  0.82835075  1
  Al  Al238  1  0.17248867  0.17673190  0.49759029  1
  Au  Au239  1  0.65859134  0.00207638  0.16858419  1
  Au  Au240  1  0.16764855  0.15781072  0.00593940  1
  Au  Au241  1  0.66344445  -0.00080227  0.67303304  1
  Au  Au242  1  0.82977764  -0.00036593  0.66780624  1
  Au  Au243  1  0.50120957  0.16009422  0.32294638  1
  Au  Au244  1  0.15269169  0.33480457  0.00319356  1
  Au  Au245  1  0.82660271  0.00071227  0.83956027  1
  Au  Au246  1  0.83668850  0.50057164  0.66241339  1
  Au  Au247  1  0.49622564  0.67903355  0.16339605  1
  Au  Au248  1  0.17805030  0.00352247  0.66228650  1
  Au  Au249  1  0.50116473  0.82898265  0.67383371  1
  Au  Au250  1  0.50186012  0.83861891  0.32481553  1
  Au  Au251  1  0.50201784  0.66836184  0.33697038  1
  Au  Au252  1  0.50388832  0.33717016  0.82396351  1
  Au  Au253  1  0.32473504  0.15373565  0.50075390  1
  Au  Au254  1  0.00359785  0.83563924  0.32540076  1
  Au  Au255  1  0.00263491  0.66803341  0.65516731  1
  Au  Au256  1  0.67157770  0.49845548  0.16741266  1
  Au  Au257  1  -0.00299599  0.32442958  0.17304492  1
  Au  Au258  1  -0.00537158  0.67758848  0.84754882  1
  Au  Au259  1  0.66211533  0.17128117  0.49972614  1
  Au  Au260  1  0.67134513  0.49948700  0.84744487  1
  Au  Au261  1  0.16774890  0.67553169  0.00417115  1
  Au  Au262  1  0.82860793  0.33608660  0.49881379  1
  Au  Au263  1  0.83363933  0.16572580  0.49640704  1
  Au  Au264  1  0.82582650  0.32292524  0.00147322  1
  Au  Au265  1  0.16358768  0.49958519  0.82188194  1
  Au  Au266  1  0.15911067  -0.00678443  0.83603909  1
  Au  Au267  1  0.50316005  0.33569406  0.33244249  1
  Au  Au268  1  0.83401725  0.00168229  0.33080054  1
  Au  Au269  1  0.66165941  0.50327790  0.66661169  1
  Au  Au270  1  -0.00070501  0.66850982  0.32900837  1
  Au  Au271  1  0.00476750  0.17567764  0.66452301  1
  Au  Au272  1  0.50389360  0.16160486  0.82749629  1
  Au  Au273  1  0.33370613  0.33164348  0.49961712  1
  Au  Au274  1  0.17286353  0.50151410  0.33426698  1
  Au  Au275  1  0.49862668  0.32072243  0.16691240  1
  Au  Au276  1  0.32149362  0.65496362  0.49905468  1
  Au  Au277  1  0.32191665  0.84518166  0.49872492  1
  Au  Au278  1  0.33162047  0.00170881  0.17038883  1
  Au  Au279  1  0.32489122  0.49941265  0.17093230  1
  Au  Au280  1  0.00275111  0.84336223  0.67159981  1
  Au  Au281  1  0.33219839  0.66702727  -0.00357029  1
  Au  Au282  1  0.34742979  0.32657718  -0.00537193  1
  Au  Au283  1  0.33086328  0.83588588  0.00053745  1
  Au  Au284  1  0.83125142  0.49923663  0.83605989  1
  Au  Au285  1  0.33517140  0.00140347  0.82300531  1
  Au  Au286  1  0.82533250  0.82360444  0.49956513  1
  Au  Au287  1  0.15662177  0.32652018  0.50104172  1
