# generated using pymatgen
data_Ca24Ti8Al207Au49
_symmetry_space_group_name_H-M   'P 1'
_cell_length_a   17.32278712
_cell_length_b   17.32220431
_cell_length_c   17.32172932
_cell_angle_alpha   89.99790544
_cell_angle_beta   90.00080435
_cell_angle_gamma   89.99230723
_symmetry_Int_Tables_number   1
_chemical_formula_structural   Ca24Ti8Al207Au49
_chemical_formula_sum   'Ca24 Ti8 Al207 Au49'
_cell_volume   5197.71147925
_cell_formula_units_Z   1
loop_
 _symmetry_equiv_pos_site_id
 _symmetry_equiv_pos_as_xyz
  1  'x, y, z'
loop_
 _atom_site_type_symbol
 _atom_site_label
 _atom_site_symmetry_multiplicity
 _atom_site_fract_x
 _atom_site_fract_y
 _atom_site_fract_z
 _atom_site_occupancy
  Ca  Ca0  1  0.24438745  0.00119552  0.00199869  1
  Ca  Ca1  1  0.24555770  -0.00006336  0.49931823  1
  Ca  Ca2  1  0.24948531  0.49795477  -0.00008459  1
  Ca  Ca3  1  0.25077512  0.50265108  0.50072101  1
  Ca  Ca4  1  0.75629188  -0.00108996  -0.00055247  1
  Ca  Ca5  1  0.75172913  -0.00236726  0.50225574  1
  Ca  Ca6  1  0.75025145  0.50233278  -0.00495872  1
  Ca  Ca7  1  0.74595685  0.50400509  0.50430610  1
  Ca  Ca8  1  0.00248370  0.24735413  0.00062220  1
  Ca  Ca9  1  -0.00077570  0.25508125  0.50097709  1
  Ca  Ca10  1  0.00102834  0.75612382  -0.00164754  1
  Ca  Ca11  1  -0.00293570  0.75041834  0.50408211  1
  Ca  Ca12  1  0.49757302  0.25216641  0.00290353  1
  Ca  Ca13  1  0.49976835  0.25473565  0.49908961  1
  Ca  Ca14  1  0.49901552  0.75053041  -0.00404523  1
  Ca  Ca15  1  0.50470662  0.74528661  0.50478952  1
  Ca  Ca16  1  -0.00161276  -0.00175297  0.24633875  1
  Ca  Ca17  1  -0.00067867  -0.00082800  0.75344344  1
  Ca  Ca18  1  0.00391038  0.49887797  0.24595114  1
  Ca  Ca19  1  -0.00029089  0.49953831  0.74788406  1
  Ca  Ca20  1  0.50378897  0.00492317  0.24893224  1
  Ca  Ca21  1  0.50116698  -0.00399426  0.74926067  1
  Ca  Ca22  1  0.49736096  0.49655680  0.25370597  1
  Ca  Ca23  1  0.50058605  0.50402450  0.74398356  1
  Ti  Ti24  1  0.25002696  0.24878335  0.25050848  1
  Ti  Ti25  1  0.24939005  0.24968409  0.75066747  1
  Ti  Ti26  1  0.24985680  0.74897055  0.25088574  1
  Ti  Ti27  1  0.24998675  0.75025403  0.74970016  1
  Ti  Ti28  1  0.74878047  0.24957947  0.25111245  1
  Ti  Ti29  1  0.75076939  0.25112451  0.74908996  1
  Ti  Ti30  1  0.75012514  0.74970939  0.25328013  1
  Ti  Ti31  1  0.75086310  0.75019543  0.74818897  1
  Al  Al32  1  0.08977195  0.08373376  0.09426579  1
  Al  Al33  1  0.08143915  0.08277474  0.58479031  1
  Al  Al34  1  0.07801582  0.57479258  0.08682796  1
  Al  Al35  1  0.08154360  0.57919677  0.58362467  1
  Al  Al36  1  0.57219706  0.08161352  0.08327159  1
  Al  Al37  1  0.59017542  0.06941655  0.58662539  1
  Al  Al38  1  0.57753832  0.57730290  0.07275711  1
  Al  Al39  1  0.59063156  0.58954094  0.59328890  1
  Al  Al40  1  0.41117045  0.41335180  0.09995075  1
  Al  Al41  1  0.42504797  0.42834991  0.57553824  1
  Al  Al42  1  0.40435831  0.92584764  0.08372922  1
  Al  Al43  1  0.42074491  0.91395460  0.58698650  1
  Al  Al44  1  0.93023370  0.41979159  0.08487205  1
  Al  Al45  1  0.91681755  0.41736155  0.59912516  1
  Al  Al46  1  0.92842936  0.91689014  0.09073586  1
  Al  Al47  1  0.91452959  0.91449676  0.58695517  1
  Al  Al48  1  0.42117590  0.08471069  0.41577307  1
  Al  Al49  1  0.40258452  0.07278081  0.91776606  1
  Al  Al50  1  0.40674950  0.57874916  0.42079287  1
  Al  Al51  1  0.42166705  0.58812655  0.91621767  1
  Al  Al52  1  0.92374161  0.08229734  0.40175612  1
  Al  Al53  1  0.91821151  0.07291503  0.91786948  1
  Al  Al54  1  0.92003510  0.58629120  0.42402803  1
  Al  Al55  1  0.91572379  0.58674319  0.91450062  1
  Al  Al56  1  0.08335472  0.41666382  0.41560028  1
  Al  Al57  1  0.08629892  0.40495593  0.91969226  1
  Al  Al58  1  0.07754177  0.90947011  0.41384918  1
  Al  Al59  1  0.08586390  0.91626109  0.90963039  1
  Al  Al60  1  0.57936829  0.40656978  0.42053807  1
  Al  Al61  1  0.58313682  0.42494897  0.92091464  1
  Al  Al62  1  0.59350319  0.91495528  0.42652275  1
  Al  Al63  1  0.58470824  0.91441079  0.91422056  1
  Al  Al64  1  0.07826017  0.08988245  0.40802649  1
  Al  Al65  1  0.08966627  0.07639239  0.91742898  1
  Al  Al66  1  0.08355143  0.58489258  0.41739494  1
  Al  Al67  1  0.07653210  0.58009394  0.91330182  1
  Al  Al68  1  0.58056650  0.07811725  0.41449344  1
  Al  Al69  1  0.58164948  0.07339125  0.91838952  1
  Al  Al70  1  0.58059195  0.58188061  0.43355609  1
  Al  Al71  1  0.58076024  0.58674185  0.90854649  1
  Al  Al72  1  0.41796640  0.41758146  0.40093693  1
  Al  Al73  1  0.41851719  0.42176370  0.92228900  1
  Al  Al74  1  0.41949699  0.92275247  0.42368376  1
  Al  Al75  1  0.40751631  0.91727737  0.90908758  1
  Al  Al76  1  0.92483136  0.41722138  0.41932311  1
  Al  Al77  1  0.92394763  0.42072066  0.91052919  1
  Al  Al78  1  0.91819380  0.90982106  0.41054070  1
  Al  Al79  1  0.92335875  0.91565855  0.90329002  1
  Al  Al80  1  0.09062043  0.40640798  0.08291563  1
  Al  Al81  1  0.08050351  0.41458807  0.58863552  1
  Al  Al82  1  0.08976005  0.91882804  0.09263376  1
  Al  Al83  1  0.07991771  0.91673927  0.58311019  1
  Al  Al84  1  0.57094072  0.40989135  0.08576712  1
  Al  Al85  1  0.59542706  0.42471094  0.58072247  1
  Al  Al86  1  0.58457246  0.92301620  0.07138263  1
  Al  Al87  1  0.59657840  0.90777564  0.58613335  1
  Al  Al88  1  0.40754615  0.08231091  0.09053749  1
  Al  Al89  1  0.41695846  0.07413621  0.58064864  1
  Al  Al90  1  0.40589112  0.57414066  0.08808734  1
  Al  Al91  1  0.42225858  0.59299812  0.58209386  1
  Al  Al92  1  0.92744138  0.08473856  0.08855502  1
  Al  Al93  1  0.92102292  0.07576232  0.59131276  1
  Al  Al94  1  0.91928466  0.58635478  0.07837871  1
  Al  Al95  1  0.90745679  0.57911827  0.59012401  1
  Al  Al96  1  0.24925762  0.13220086  0.13726223  1
  Al  Al97  1  0.24920886  0.13541995  0.63047433  1
  Al  Al98  1  0.25151603  0.63415088  0.13707828  1
  Al  Al99  1  0.25383628  0.63910876  0.62893090  1
  Al  Al100  1  0.74918040  0.13820269  0.13976878  1
  Al  Al101  1  0.74947669  0.13156239  0.63477639  1
  Al  Al102  1  0.74882151  0.63591345  0.13792500  1
  Al  Al103  1  0.74718167  0.63568387  0.63073797  1
  Al  Al104  1  0.25001567  0.36275896  0.13776073  1
  Al  Al105  1  0.25297026  0.36556496  0.63628309  1
  Al  Al106  1  0.24868443  0.87025680  0.13836288  1
  Al  Al107  1  0.25259716  0.86327649  0.63677730  1
  Al  Al108  1  0.74945162  0.35959243  0.13970222  1
  Al  Al109  1  0.74846494  0.37298211  0.63733954  1
  Al  Al110  1  0.75132308  0.86358280  0.13781944  1
  Al  Al111  1  0.74812491  0.86719191  0.63171735  1
  Al  Al112  1  0.25206497  0.13856121  0.36709361  1
  Al  Al113  1  0.24744874  0.13265999  0.86648640  1
  Al  Al114  1  0.25024934  0.63613316  0.37224732  1
  Al  Al115  1  0.25198416  0.63138259  0.86279256  1
  Al  Al116  1  0.74968831  0.13833234  0.36291588  1
  Al  Al117  1  0.75265792  0.13324729  0.86326218  1
  Al  Al118  1  0.74792844  0.63611691  0.37303581  1
  Al  Al119  1  0.74725366  0.62959095  0.85946823  1
  Al  Al120  1  0.25522463  0.36576759  0.36080152  1
  Al  Al121  1  0.24792083  0.37148668  0.86182460  1
  Al  Al122  1  0.24991757  0.86546675  0.36432799  1
  Al  Al123  1  0.25080234  0.86999957  0.86243487  1
  Al  Al124  1  0.74286045  0.36360414  0.36805519  1
  Al  Al125  1  0.75013934  0.37239281  0.86012480  1
  Al  Al126  1  0.75208593  0.86299971  0.37202056  1
  Al  Al127  1  0.75164290  0.86569523  0.86150750  1
  Al  Al128  1  0.13592609  0.24891024  0.13587286  1
  Al  Al129  1  0.13623876  0.24991260  0.63593751  1
  Al  Al130  1  0.13560972  0.75470010  0.13600449  1
  Al  Al131  1  0.13475868  0.74815548  0.63822839  1
  Al  Al132  1  0.62764862  0.25177975  0.13857813  1
  Al  Al133  1  0.63767717  0.25947612  0.63315559  1
  Al  Al134  1  0.63527946  0.74324175  0.13734770  1
  Al  Al135  1  0.63437322  0.74855993  0.63416615  1
  Al  Al136  1  0.12913807  0.24426975  0.36088076  1
  Al  Al137  1  0.13676836  0.25238851  0.86528575  1
  Al  Al138  1  0.13604116  0.75147718  0.36445212  1
  Al  Al139  1  0.12947029  0.75357959  0.86246026  1
  Al  Al140  1  0.62977743  0.25232099  0.36620731  1
  Al  Al141  1  0.63501582  0.25218634  0.85905634  1
  Al  Al142  1  0.63510859  0.75074157  0.37181712  1
  Al  Al143  1  0.63724427  0.74911599  0.85857308  1
  Al  Al144  1  0.36949785  0.25256087  0.13858878  1
  Al  Al145  1  0.36667302  0.24820641  0.63932374  1
  Al  Al146  1  0.36122196  0.74944559  0.13698408  1
  Al  Al147  1  0.37352330  0.74796118  0.63763717  1
  Al  Al148  1  0.86790982  0.24553031  0.13741910  1
  Al  Al149  1  0.86162921  0.25457552  0.63738394  1
  Al  Al150  1  0.86607382  0.75318639  0.13692310  1
  Al  Al151  1  0.86157183  0.75133394  0.63070821  1
  Al  Al152  1  0.37296822  0.25232921  0.36017940  1
  Al  Al153  1  0.36171932  0.25384311  0.86218189  1
  Al  Al154  1  0.36794181  0.74468352  0.36440796  1
  Al  Al155  1  0.36238931  0.75382382  0.86242419  1
  Al  Al156  1  0.87079258  0.24938769  0.36306582  1
  Al  Al157  1  0.86246182  0.25213978  0.86030811  1
  Al  Al158  1  0.86252026  0.75093965  0.37443804  1
  Al  Al159  1  0.87100654  0.75207193  0.85764594  1
  Al  Al160  1  0.13269888  0.13258057  0.24570924  1
  Al  Al161  1  0.13666187  0.13171798  0.75333519  1
  Al  Al162  1  0.13708560  0.63512962  0.25123053  1
  Al  Al163  1  0.13476986  0.63492416  0.75477731  1
  Al  Al164  1  0.62805616  0.13778077  0.25163212  1
  Al  Al165  1  0.63597023  0.13438772  0.74562367  1
  Al  Al166  1  0.63170941  0.63541715  0.25941067  1
  Al  Al167  1  0.63589319  0.62979229  0.74377542  1
  Al  Al168  1  0.36922651  0.13591776  0.24628192  1
  Al  Al169  1  0.36053616  0.12748009  0.75375437  1
  Al  Al170  1  0.36292805  0.62847293  0.25348643  1
  Al  Al171  1  0.36415618  0.63104938  0.74591571  1
  Al  Al172  1  0.87054505  0.13550314  0.25105131  1
  Al  Al173  1  0.86356973  0.12770934  0.74703966  1
  Al  Al174  1  0.86272023  0.63842333  0.25338150  1
  Al  Al175  1  0.86046932  0.62970290  0.74700201  1
  Al  Al176  1  0.13429051  0.36425696  0.25352444  1
  Al  Al177  1  0.13422265  0.36442114  0.74738391  1
  Al  Al178  1  0.13130945  0.86421987  0.24708914  1
  Al  Al179  1  0.13388342  0.86904533  0.75666860  1
  Al  Al180  1  0.62991921  0.36562957  0.25293214  1
  Al  Al181  1  0.63309339  0.37127963  0.74837383  1
  Al  Al182  1  0.63892904  0.86296355  0.25378127  1
  Al  Al183  1  0.63138315  0.86532025  0.74480288  1
  Al  Al184  1  0.36583504  0.36773425  0.24927463  1
  Al  Al185  1  0.36812008  0.36950138  0.75014901  1
  Al  Al186  1  0.36555495  0.86338516  0.25058726  1
  Al  Al187  1  0.36953177  0.86646788  0.74883606  1
  Al  Al188  1  0.86451665  0.36351775  0.25381775  1
  Al  Al189  1  0.86340822  0.37228962  0.74698962  1
  Al  Al190  1  0.86827861  0.86201103  0.25431208  1
  Al  Al191  1  0.86177532  0.87042889  0.74716886  1
  Al  Al192  1  0.67253457  0.00081497  0.17183364  1
  Al  Al193  1  0.49931405  0.68200420  0.80811111  1
  Al  Al194  1  0.16933723  0.67543859  0.00000681  1
  Al  Al195  1  0.50125053  0.82765334  0.16915658  1
  Al  Al196  1  0.17078678  0.18096416  0.00075337  1
  Al  Al197  1  0.68587269  0.00017793  0.81232059  1
  Al  Al198  1  0.00117359  0.31327500  0.18188156  1
  Al  Al199  1  0.18457138  0.50059875  0.32681137  1
  Al  Al200  1  0.17128658  -0.00186527  0.31623902  1
  Al  Al201  1  -0.00203747  0.69328686  0.32691377  1
  Al  Al202  1  -0.00062470  0.16991219  0.83172863  1
  Al  Al203  1  0.67599980  0.81816264  -0.00063030  1
  Al  Al204  1  0.17284733  0.81905772  0.50120198  1
  Al  Al205  1  0.49574160  0.66801092  0.17583543  1
  Al  Al206  1  0.49544308  0.17585702  0.83023615  1
  Al  Al207  1  0.67439476  0.17833908  -0.00065073  1
  Al  Al208  1  0.83001054  0.32459682  0.00128063  1
  Al  Al209  1  0.33099011  0.81352347  0.50007278  1
  Al  Al210  1  0.66993627  0.18274215  0.50168406  1
  Al  Al211  1  0.17751201  -0.00099016  0.68223916  1
  Al  Al212  1  0.32290077  0.17335759  0.00153106  1
  Al  Al213  1  0.68229003  -0.00004168  0.32509083  1
  Al  Al214  1  0.82646399  0.00043146  0.17770898  1
  Al  Al215  1  0.17815032  0.82894817  -0.00077313  1
  Al  Al216  1  -0.00255493  0.67179449  0.67903178  1
  Al  Al217  1  0.00039590  0.68417281  0.17309431  1
  Al  Al218  1  0.17436519  0.32220442  0.49914121  1
  Al  Al219  1  0.81720161  0.67544268  -0.00201461  1
  Al  Al220  1  0.82934582  0.82675657  -0.00225991  1
  Al  Al221  1  0.81651712  0.33235349  0.50313362  1
  Al  Al222  1  0.67380693  0.32826506  -0.00024891  1
  Al  Al223  1  0.31293827  0.32855660  0.00006040  1
  Al  Al224  1  0.82750404  0.50024959  0.17182051  1
  Al  Al225  1  0.82416262  0.50060133  0.33029721  1
  Al  Al226  1  0.32523345  0.00119456  0.31329418  1
  Al  Al227  1  0.18539088  0.49813260  0.17347712  1
  Al  Al228  1  0.18079911  0.50134535  0.67948094  1
  Al  Al229  1  -0.00137242  0.19224004  0.67532096  1
  Al  Al230  1  0.33136064  0.32224695  0.49947232  1
  Al  Al231  1  -0.00103348  0.32202538  0.81216806  1
  Al  Al232  1  0.50346322  0.82413337  0.33143448  1
  Al  Al233  1  -0.00046658  0.82462966  0.68533670  1
  Al  Al234  1  0.50322361  0.17819365  0.66877026  1
  Al  Al235  1  0.83131194  0.17259305  0.49815307  1
  Al  Al236  1  0.32651315  0.68105950  -0.00099606  1
  Al  Al237  1  0.83110945  0.17049298  -0.00017537  1
  Al  Al238  1  0.66835445  0.49762316  0.17469667  1
  Au  Au239  1  0.66501990  0.16661693  0.50025541  1
  Au  Au240  1  0.32946057  0.32743476  0.00318744  1
  Au  Au241  1  0.82660334  0.83299616  0.50108788  1
  Au  Au242  1  0.66221593  0.49911438  0.34345443  1
  Au  Au243  1  0.49863577  0.82697167  0.83409627  1
  Au  Au244  1  0.00064216  0.67642928  0.32565940  1
  Au  Au245  1  0.50569361  0.34158762  0.66409538  1
  Au  Au246  1  0.82204443  0.66509491  0.50423679  1
  Au  Au247  1  0.50465368  0.82195787  0.66684036  1
  Au  Au248  1  0.32977410  0.50603004  0.66163643  1
  Au  Au249  1  -0.00172503  0.67838142  0.82827419  1
  Au  Au250  1  0.84029897  0.50112115  0.32459180  1
  Au  Au251  1  0.83306456  0.34087602  0.00121894  1
  Au  Au252  1  0.82654384  0.34578120  0.50494510  1
  Au  Au253  1  -0.00105479  0.17567713  0.68023662  1
  Au  Au254  1  0.49159793  0.16469295  0.84257722  1
  Au  Au255  1  0.34141173  0.00087185  0.31943138  1
  Au  Au256  1  0.67106426  0.16226316  0.00357819  1
  Au  Au257  1  0.17031966  0.66885981  0.50424498  1
  Au  Au258  1  0.83929368  0.83947848  -0.00140590  1
  Au  Au259  1  0.49762563  0.66066187  0.33990630  1
  Au  Au260  1  0.67275989  0.49367504  0.15877645  1
  Au  Au261  1  0.49652979  0.17600049  0.16646652  1
  Au  Au262  1  0.16139473  0.49484813  0.82832465  1
  Au  Au263  1  0.33357851  -0.00179998  0.68003668  1
  Au  Au264  1  0.15598767  -0.00238356  0.32207934  1
  Au  Au265  1  0.50070429  0.84535247  0.16680282  1
  Au  Au266  1  0.67351486  -0.00252004  0.82415737  1
  Au  Au267  1  0.82370710  -0.00159112  0.67422093  1
  Au  Au268  1  0.32510210  0.82989313  0.50008815  1
  Au  Au269  1  0.49978837  0.66431434  0.16447957  1
  Au  Au270  1  0.83169109  -0.00296085  0.32657288  1
  Au  Au271  1  0.83506926  0.50155460  0.82200654  1
  Au  Au272  1  0.32993555  0.33803798  0.49477200  1
  Au  Au273  1  0.84484438  0.16164583  0.49715952  1
  Au  Au274  1  0.00141968  0.32099949  0.33001483  1
  Au  Au275  1  0.66629713  0.50078314  0.82209267  1
  Au  Au276  1  0.50207144  0.16075210  0.66600952  1
  Au  Au277  1  0.66713764  0.67002508  -0.00442296  1
  Au  Au278  1  0.17246506  -0.00127261  0.67056618  1
  Au  Au279  1  0.32754896  0.83388127  0.00052138  1
  Au  Au280  1  0.32771950  0.16030223  0.50068980  1
  Au  Au281  1  0.17107188  0.65998979  0.00481281  1
  Au  Au282  1  0.33336389  0.50387030  0.83335119  1
  Au  Au283  1  0.15868725  0.17360191  0.49696750  1
  Au  Au284  1  0.17170974  0.49838198  0.32670639  1
  Au  Au285  1  0.50242450  0.33865842  0.83305168  1
  Au  Au286  1  0.50275824  0.83452471  0.33844089  1
  Au  Au287  1  0.50141245  0.17887296  0.33330507  1
