# generated using pymatgen
data_Ca24Ti8Al207Au49
_symmetry_space_group_name_H-M   'P 1'
_cell_length_a   17.32245598
_cell_length_b   17.32346388
_cell_length_c   17.32281431
_cell_angle_alpha   89.99899552
_cell_angle_beta   90.00060253
_cell_angle_gamma   90.00038470
_symmetry_Int_Tables_number   1
_chemical_formula_structural   Ca24Ti8Al207Au49
_chemical_formula_sum   'Ca24 Ti8 Al207 Au49'
_cell_volume   5198.31570232
_cell_formula_units_Z   1
loop_
 _symmetry_equiv_pos_site_id
 _symmetry_equiv_pos_as_xyz
  1  'x, y, z'
loop_
 _atom_site_type_symbol
 _atom_site_label
 _atom_site_symmetry_multiplicity
 _atom_site_fract_x
 _atom_site_fract_y
 _atom_site_fract_z
 _atom_site_occupancy
  Ca  Ca0  1  0.24601267  0.00399927  0.00266167  1
  Ca  Ca1  1  0.24841213  0.00328191  0.49943975  1
  Ca  Ca2  1  0.24736888  0.49929377  -0.00292554  1
  Ca  Ca3  1  0.24833362  0.49712949  0.50393393  1
  Ca  Ca4  1  0.74993245  0.00032651  -0.00427974  1
  Ca  Ca5  1  0.74979342  0.00082479  0.50558007  1
  Ca  Ca6  1  0.74943420  0.49953906  -0.00467157  1
  Ca  Ca7  1  0.75329520  0.49737607  0.50222232  1
  Ca  Ca8  1  -0.00164792  0.25026846  0.00150911  1
  Ca  Ca9  1  -0.00108550  0.25483490  0.50046536  1
  Ca  Ca10  1  -0.00365282  0.74832314  -0.00380257  1
  Ca  Ca11  1  -0.00199612  0.74478939  0.50333293  1
  Ca  Ca12  1  0.50353765  0.25082911  -0.00499783  1
  Ca  Ca13  1  0.49906373  0.25356356  0.50249430  1
  Ca  Ca14  1  0.50268485  0.74674021  -0.00223315  1
  Ca  Ca15  1  0.50210262  0.74830186  0.50032003  1
  Ca  Ca16  1  0.00282491  0.00536038  0.25251143  1
  Ca  Ca17  1  -0.00036776  -0.00254801  0.75359949  1
  Ca  Ca18  1  -0.00127484  0.49625277  0.25317784  1
  Ca  Ca19  1  -0.00177624  0.50377699  0.74814377  1
  Ca  Ca20  1  0.49617541  0.00295516  0.25306744  1
  Ca  Ca21  1  0.50501844  0.00136495  0.75308051  1
  Ca  Ca22  1  0.50027516  0.49971786  0.25123841  1
  Ca  Ca23  1  0.50517252  0.50201592  0.75262025  1
  Ti  Ti24  1  0.24981214  0.25127473  0.25035181  1
  Ti  Ti25  1  0.24816563  0.24964634  0.75004556  1
  Ti  Ti26  1  0.25117679  0.74745798  0.25040849  1
  Ti  Ti27  1  0.24839246  0.74827627  0.75032760  1
  Ti  Ti28  1  0.74989593  0.25134674  0.25149742  1
  Ti  Ti29  1  0.75160868  0.25036598  0.75010826  1
  Ti  Ti30  1  0.74992735  0.74750922  0.25039356  1
  Ti  Ti31  1  0.75069421  0.74975739  0.75107424  1
  Al  Al32  1  0.08967642  0.09556221  0.08438304  1
  Al  Al33  1  0.08354773  0.09261427  0.57483760  1
  Al  Al34  1  0.08928213  0.58630491  0.07058309  1
  Al  Al35  1  0.08775652  0.58863358  0.59015088  1
  Al  Al36  1  0.59044944  0.09207217  0.06831166  1
  Al  Al37  1  0.59165840  0.07805180  0.58625658  1
  Al  Al38  1  0.58569025  0.58908528  0.07011402  1
  Al  Al39  1  0.59034819  0.57894345  0.58850538  1
  Al  Al40  1  0.42075958  0.41847484  0.07448105  1
  Al  Al41  1  0.40739926  0.41786469  0.58340058  1
  Al  Al42  1  0.42147894  0.92309570  0.07956319  1
  Al  Al43  1  0.43109852  0.91782058  0.58015593  1
  Al  Al44  1  0.91587064  0.40502863  0.08577707  1
  Al  Al45  1  0.91253164  0.41339546  0.57725308  1
  Al  Al46  1  0.92095796  0.92334271  0.07052542  1
  Al  Al47  1  0.91696377  0.91662481  0.59201453  1
  Al  Al48  1  0.40714854  0.08773942  0.41922649  1
  Al  Al49  1  0.42245484  0.09111389  0.90816614  1
  Al  Al50  1  0.41521478  0.58045165  0.42487783  1
  Al  Al51  1  0.41803608  0.58016542  0.91944878  1
  Al  Al52  1  0.91272197  0.09410497  0.42310289  1
  Al  Al53  1  0.92294889  0.08750200  0.91332322  1
  Al  Al54  1  0.91338028  0.57304893  0.41420692  1
  Al  Al55  1  0.91738201  0.58997115  0.90914189  1
  Al  Al56  1  0.08147842  0.41278887  0.42270856  1
  Al  Al57  1  0.07790442  0.41819113  0.91858638  1
  Al  Al58  1  0.08449924  0.91600003  0.42097282  1
  Al  Al59  1  0.07968496  0.90776545  0.91269554  1
  Al  Al60  1  0.57881462  0.40864195  0.41647036  1
  Al  Al61  1  0.59019686  0.40534750  0.90680934  1
  Al  Al62  1  0.58495347  0.92180854  0.42334579  1
  Al  Al63  1  0.58949647  0.91800161  0.91679992  1
  Al  Al64  1  0.08793275  0.08965735  0.41776550  1
  Al  Al65  1  0.08344979  0.09341585  0.92137776  1
  Al  Al66  1  0.08583407  0.58585109  0.42867541  1
  Al  Al67  1  0.08157471  0.59959087  0.91131291  1
  Al  Al68  1  0.58331935  0.08186825  0.42112739  1
  Al  Al69  1  0.58568561  0.09954241  0.90935313  1
  Al  Al70  1  0.57941770  0.57915950  0.42640576  1
  Al  Al71  1  0.59452459  0.57864949  0.91055937  1
  Al  Al72  1  0.41743058  0.40648712  0.41820067  1
  Al  Al73  1  0.42608439  0.40873931  0.91160019  1
  Al  Al74  1  0.41967342  0.92527396  0.41708083  1
  Al  Al75  1  0.42116298  0.92661104  0.91652080  1
  Al  Al76  1  0.90780565  0.41195646  0.41372614  1
  Al  Al77  1  0.91406080  0.41773865  0.91948895  1
  Al  Al78  1  0.92113885  0.91879921  0.42383257  1
  Al  Al79  1  0.92026337  0.90993255  0.90893549  1
  Al  Al80  1  0.07528328  0.40976855  0.08866686  1
  Al  Al81  1  0.08843127  0.41662545  0.58315028  1
  Al  Al82  1  0.08672624  0.92583775  0.07346318  1
  Al  Al83  1  0.07534665  0.90585610  0.58108510  1
  Al  Al84  1  0.58672476  0.40859125  0.06902976  1
  Al  Al85  1  0.59094363  0.42084246  0.58757227  1
  Al  Al86  1  0.58337250  0.91137656  0.07459596  1
  Al  Al87  1  0.59001109  0.91746857  0.59182340  1
  Al  Al88  1  0.41768059  0.08106945  0.07354247  1
  Al  Al89  1  0.41513707  0.09217720  0.57485398  1
  Al  Al90  1  0.41628830  0.58324433  0.07720234  1
  Al  Al91  1  0.40850098  0.57870415  0.58668610  1
  Al  Al92  1  0.92888467  0.09336536  0.08366685  1
  Al  Al93  1  0.90832867  0.08661170  0.58357287  1
  Al  Al94  1  0.91489749  0.57631554  0.07340682  1
  Al  Al95  1  0.92282326  0.58464607  0.58830049  1
  Al  Al96  1  0.24857304  0.13934975  0.12789923  1
  Al  Al97  1  0.24982703  0.13400343  0.63757619  1
  Al  Al98  1  0.25087710  0.62862399  0.13622557  1
  Al  Al99  1  0.24649580  0.63419060  0.63688962  1
  Al  Al100  1  0.74537193  0.13933389  0.13375077  1
  Al  Al101  1  0.75103773  0.13550884  0.63570653  1
  Al  Al102  1  0.75021288  0.63384385  0.12892820  1
  Al  Al103  1  0.74990197  0.63263698  0.63798208  1
  Al  Al104  1  0.25209059  0.36730231  0.13714777  1
  Al  Al105  1  0.24975770  0.36164735  0.63055589  1
  Al  Al106  1  0.24923684  0.86416051  0.13628386  1
  Al  Al107  1  0.24325496  0.86084300  0.63840360  1
  Al  Al108  1  0.74860770  0.36343183  0.13639339  1
  Al  Al109  1  0.74867038  0.36549300  0.63501290  1
  Al  Al110  1  0.75138676  0.86351825  0.13380156  1
  Al  Al111  1  0.75202594  0.86353732  0.63818743  1
  Al  Al112  1  0.24849959  0.13815994  0.36478469  1
  Al  Al113  1  0.24582635  0.14048143  0.87106897  1
  Al  Al114  1  0.24948022  0.63165457  0.36570312  1
  Al  Al115  1  0.24425665  0.63250635  0.86328478  1
  Al  Al116  1  0.75505024  0.13770488  0.36640083  1
  Al  Al117  1  0.74537874  0.13313890  0.86531307  1
  Al  Al118  1  0.75463155  0.63290163  0.36399125  1
  Al  Al119  1  0.75126870  0.63214268  0.86617457  1
  Al  Al120  1  0.25049119  0.36409992  0.37250531  1
  Al  Al121  1  0.25055769  0.36259744  0.86522578  1
  Al  Al122  1  0.24849353  0.86214506  0.36460346  1
  Al  Al123  1  0.24422699  0.86414530  0.86209689  1
  Al  Al124  1  0.75519590  0.36520258  0.37137784  1
  Al  Al125  1  0.74534056  0.36787555  0.86488622  1
  Al  Al126  1  0.75347246  0.86376502  0.36542589  1
  Al  Al127  1  0.75200760  0.87101399  0.86379256  1
  Al  Al128  1  0.13168058  0.24829367  0.13517273  1
  Al  Al129  1  0.13349279  0.25212606  0.63486907  1
  Al  Al130  1  0.13741482  0.74341302  0.13418943  1
  Al  Al131  1  0.13039759  0.74290791  0.63694430  1
  Al  Al132  1  0.63347358  0.25226624  0.13265891  1
  Al  Al133  1  0.63630045  0.24950261  0.63369513  1
  Al  Al134  1  0.63446146  0.74638420  0.13421103  1
  Al  Al135  1  0.63703587  0.74751478  0.63802708  1
  Al  Al136  1  0.13405931  0.25413262  0.36595547  1
  Al  Al137  1  0.12683699  0.24920727  0.86517444  1
  Al  Al138  1  0.13528312  0.74523692  0.36483095  1
  Al  Al139  1  0.12843287  0.74769706  0.86233657  1
  Al  Al140  1  0.63561541  0.25283384  0.37033654  1
  Al  Al141  1  0.63535739  0.25087122  0.86498825  1
  Al  Al142  1  0.63345934  0.74765758  0.36607149  1
  Al  Al143  1  0.63631020  0.74787575  0.86277012  1
  Al  Al144  1  0.36691553  0.24887336  0.13565962  1
  Al  Al145  1  0.36506476  0.24936235  0.62852793  1
  Al  Al146  1  0.36670891  0.74501685  0.13854182  1
  Al  Al147  1  0.36455113  0.74652807  0.63702001  1
  Al  Al148  1  0.86881560  0.25300600  0.13653376  1
  Al  Al149  1  0.86392228  0.24964039  0.63236724  1
  Al  Al150  1  0.86163135  0.74679200  0.12898343  1
  Al  Al151  1  0.86412903  0.74624473  0.63259878  1
  Al  Al152  1  0.36388207  0.25221947  0.37119127  1
  Al  Al153  1  0.36808429  0.24858917  0.86392116  1
  Al  Al154  1  0.37007662  0.74615377  0.36287050  1
  Al  Al155  1  0.36434049  0.74528223  0.86181901  1
  Al  Al156  1  0.86497524  0.25268324  0.36891152  1
  Al  Al157  1  0.86790657  0.24963333  0.86499238  1
  Al  Al158  1  0.86402265  0.74774776  0.36919468  1
  Al  Al159  1  0.86375302  0.74817379  0.86887913  1
  Al  Al160  1  0.13481063  0.13877500  0.24808502  1
  Al  Al161  1  0.13139830  0.13489502  0.75412331  1
  Al  Al162  1  0.13771495  0.63005963  0.25066579  1
  Al  Al163  1  0.12738248  0.63623152  0.75030952  1
  Al  Al164  1  0.63365744  0.14137481  0.25296644  1
  Al  Al165  1  0.63595737  0.13488829  0.75199768  1
  Al  Al166  1  0.63025298  0.63514571  0.25204577  1
  Al  Al167  1  0.63535283  0.62981841  0.75185064  1
  Al  Al168  1  0.36478697  0.13886910  0.25196133  1
  Al  Al169  1  0.36479030  0.13947072  0.75321320  1
  Al  Al170  1  0.36649764  0.62823981  0.25090969  1
  Al  Al171  1  0.36553118  0.62961517  0.74677949  1
  Al  Al172  1  0.86492773  0.13915513  0.24654375  1
  Al  Al173  1  0.86523413  0.13549362  0.75369900  1
  Al  Al174  1  0.86112024  0.62954907  0.24755326  1
  Al  Al175  1  0.86828055  0.63531862  0.75144389  1
  Al  Al176  1  0.13608933  0.36548655  0.24699669  1
  Al  Al177  1  0.13569744  0.36454656  0.75310416  1
  Al  Al178  1  0.13817877  0.86151668  0.25182077  1
  Al  Al179  1  0.12886836  0.86341721  0.75404797  1
  Al  Al180  1  0.63431146  0.36351201  0.25572902  1
  Al  Al181  1  0.63508340  0.36562537  0.75242838  1
  Al  Al182  1  0.63617082  0.86117673  0.25162372  1
  Al  Al183  1  0.63845425  0.87115232  0.75167679  1
  Al  Al184  1  0.36527981  0.36622995  0.25433493  1
  Al  Al185  1  0.36246495  0.36244709  0.74852190  1
  Al  Al186  1  0.36618936  0.86362213  0.25100924  1
  Al  Al187  1  0.36308527  0.86297403  0.75173923  1
  Al  Al188  1  0.86132493  0.36751396  0.25069286  1
  Al  Al189  1  0.86360351  0.36439698  0.75464585  1
  Al  Al190  1  0.86265161  0.86379990  0.25002862  1
  Al  Al191  1  0.86781228  0.86177746  0.75401841  1
  Al  Al192  1  0.68139799  0.67262967  0.50082113  1
  Al  Al193  1  0.50361929  0.67534390  0.82411885  1
  Al  Al194  1  0.67969002  0.00150581  0.32521730  1
  Al  Al195  1  -0.00084443  0.32975164  0.68068308  1
  Al  Al196  1  0.32199180  0.49652870  0.81811575  1
  Al  Al197  1  0.17090221  0.81132885  -0.00094451  1
  Al  Al198  1  0.17059142  0.31316007  0.00026748  1
  Al  Al199  1  -0.00121291  0.32974912  0.31566915  1
  Al  Al200  1  0.49716908  0.82230664  0.17653074  1
  Al  Al201  1  0.81462957  0.17209549  -0.00051376  1
  Al  Al202  1  0.31204334  0.67297035  -0.00123653  1
  Al  Al203  1  0.31824431  0.00290528  0.82612825  1
  Al  Al204  1  0.50093010  0.17424032  0.68411057  1
  Al  Al205  1  -0.00046042  0.82432274  0.32761780  1
  Al  Al206  1  0.67162815  0.00101094  0.16893010  1
  Al  Al207  1  0.68205874  0.81167336  -0.00184158  1
  Al  Al208  1  0.67916387  0.82617588  0.50153871  1
  Al  Al209  1  0.17465385  0.49976854  0.32849809  1
  Al  Al210  1  -0.00213841  0.81126884  0.68527935  1
  Al  Al211  1  0.81456588  -0.00005623  0.68073270  1
  Al  Al212  1  0.81913731  0.49831347  0.67656676  1
  Al  Al213  1  0.31854359  0.00116424  0.32430412  1
  Al  Al214  1  0.49965058  0.32974161  0.68416036  1
  Al  Al215  1  0.50047481  0.32427164  0.18143722  1
  Al  Al216  1  0.49867789  0.18332360  0.32634457  1
  Al  Al217  1  -0.00154964  0.17370118  0.68196634  1
  Al  Al218  1  0.32703797  0.00234361  0.17205729  1
  Al  Al219  1  0.68134141  0.18002199  0.50126199  1
  Al  Al220  1  0.32721776  0.31917868  -0.00092886  1
  Al  Al221  1  -0.00088666  0.17900632  0.31852539  1
  Al  Al222  1  0.17453431  0.00238262  0.18086891  1
  Al  Al223  1  0.33040086  -0.00109179  0.67365624  1
  Al  Al224  1  0.16618849  -0.00174120  0.67525541  1
  Al  Al225  1  0.18524055  0.49811704  0.67979093  1
  Al  Al226  1  0.31110082  0.67193490  0.50129166  1
  Al  Al227  1  0.68458885  0.49878664  0.32986705  1
  Al  Al228  1  0.00270582  0.83091904  0.16888550  1
  Al  Al229  1  -0.00138742  0.66961396  0.32848911  1
  Al  Al230  1  0.50212531  0.81770863  0.68143232  1
  Al  Al231  1  0.32016681  0.82303701  0.50107168  1
  Al  Al232  1  0.32338764  0.82064604  -0.00034154  1
  Al  Al233  1  0.81222991  0.32652282  -0.00090142  1
  Al  Al234  1  -0.00211868  0.67109831  0.17201461  1
  Al  Al235  1  0.19159176  0.19309396  0.50084029  1
  Al  Al236  1  0.17134916  0.80902084  0.50139807  1
  Al  Al237  1  0.67572558  0.50034385  0.16844690  1
  Al  Al238  1  0.82919557  0.00209843  0.17735348  1
  Au  Au239  1  0.16588022  0.49780569  0.33706247  1
  Au  Au240  1  0.67941010  0.16751489  0.50245063  1
  Au  Au241  1  0.84047201  0.49606167  0.17434491  1
  Au  Au242  1  0.33144777  0.49783301  0.16138328  1
  Au  Au243  1  0.67156923  0.50006784  0.15272615  1
  Au  Au244  1  0.32179070  0.32150591  0.50129180  1
  Au  Au245  1  0.00244947  0.65567791  0.17129114  1
  Au  Au246  1  0.83870065  0.00081425  0.82590755  1
  Au  Au247  1  0.50057133  0.83844892  0.82756254  1
  Au  Au248  1  0.16478534  0.49929025  0.16342679  1
  Au  Au249  1  0.49921696  0.66692993  0.33887869  1
  Au  Au250  1  0.83088740  0.49832590  0.67183445  1
  Au  Au251  1  0.33706499  0.49519183  0.82544822  1
  Au  Au252  1  0.65506298  0.00327845  0.17200514  1
  Au  Au253  1  0.66770905  0.00472029  0.82654721  1
  Au  Au254  1  0.15718473  0.50454017  0.82653729  1
  Au  Au255  1  0.82420651  0.50024239  0.83236155  1
  Au  Au256  1  0.66957980  0.49896737  0.33771315  1
  Au  Au257  1  -0.00351421  0.32738339  0.83175584  1
  Au  Au258  1  0.33027163  0.16906192  -0.00397773  1
  Au  Au259  1  0.49875083  0.34559251  0.67838936  1
  Au  Au260  1  0.16898936  0.00283154  0.84463072  1
  Au  Au261  1  0.33840611  0.49647372  0.33247464  1
  Au  Au262  1  0.50066205  0.16544376  0.15987033  1
  Au  Au263  1  0.49922799  0.83088872  0.16758236  1
  Au  Au264  1  0.82211505  0.66634390  -0.00238211  1
  Au  Au265  1  0.67573817  0.33259307  0.50248984  1
  Au  Au266  1  0.49882952  0.66980322  0.83436180  1
  Au  Au267  1  0.50423131  0.83809691  0.33243774  1
  Au  Au268  1  0.32817151  0.83657597  -0.00338004  1
  Au  Au269  1  0.33417214  0.83283333  0.50084137  1
  Au  Au270  1  0.50248672  0.16298409  0.67176001  1
  Au  Au271  1  0.17145017  0.32985109  0.00329854  1
  Au  Au272  1  0.83111870  0.66140437  0.49887031  1
  Au  Au273  1  0.50113965  0.66587373  0.16416622  1
  Au  Au274  1  0.82784062  0.00061043  0.34500421  1
  Au  Au275  1  0.82786219  0.83340592  -0.00265208  1
  Au  Au276  1  0.49858184  0.17381318  0.34033856  1
  Au  Au277  1  0.34623014  0.00053012  0.67094241  1
  Au  Au278  1  0.00541410  0.84619501  0.17518019  1
  Au  Au279  1  -0.00073033  0.17036575  0.32998657  1
  Au  Au280  1  0.83133599  0.17530048  0.00055290  1
  Au  Au281  1  0.82942372  0.83367892  0.50376441  1
  Au  Au282  1  0.50120864  0.33804809  0.17162590  1
  Au  Au283  1  -0.00181312  0.16981815  0.66980864  1
  Au  Au284  1  0.84392832  0.00529252  0.16963943  1
  Au  Au285  1  0.17079573  -0.00196663  0.33297117  1
  Au  Au286  1  0.49964739  0.66853237  0.65984982  1
  Au  Au287  1  0.16127206  -0.00286395  0.65983105  1
