# generated using pymatgen
data_Ca24Ti8Al207Au49
_symmetry_space_group_name_H-M   'P 1'
_cell_length_a   17.32113000
_cell_length_b   17.32179696
_cell_length_c   17.31940747
_cell_angle_alpha   89.99963093
_cell_angle_beta   90.00137782
_cell_angle_gamma   90.00387574
_symmetry_Int_Tables_number   1
_chemical_formula_structural   Ca24Ti8Al207Au49
_chemical_formula_sum   'Ca24 Ti8 Al207 Au49'
_cell_volume   5196.39544504
_cell_formula_units_Z   1
loop_
 _symmetry_equiv_pos_site_id
 _symmetry_equiv_pos_as_xyz
  1  'x, y, z'
loop_
 _atom_site_type_symbol
 _atom_site_label
 _atom_site_symmetry_multiplicity
 _atom_site_fract_x
 _atom_site_fract_y
 _atom_site_fract_z
 _atom_site_occupancy
  Ca  Ca0  1  0.25606392  -0.00196189  0.00197463  1
  Ca  Ca1  1  0.24901877  -0.00080134  0.49801721  1
  Ca  Ca2  1  0.25015754  0.50091370  -0.00672449  1
  Ca  Ca3  1  0.24502652  0.50039428  0.50105638  1
  Ca  Ca4  1  0.74778517  0.00046533  -0.00008059  1
  Ca  Ca5  1  0.74836214  0.00057506  0.49790991  1
  Ca  Ca6  1  0.75457802  0.50162647  -0.00490262  1
  Ca  Ca7  1  0.75290157  0.49827806  0.50160713  1
  Ca  Ca8  1  0.00044656  0.25597278  -0.00132429  1
  Ca  Ca9  1  -0.00353977  0.25572260  0.50168367  1
  Ca  Ca10  1  0.00047862  0.74486172  -0.00336498  1
  Ca  Ca11  1  -0.00010132  0.74459418  0.50349406  1
  Ca  Ca12  1  0.49894651  0.25036358  -0.00143598  1
  Ca  Ca13  1  0.50541170  0.25073628  0.49984462  1
  Ca  Ca14  1  0.49810475  0.74825296  0.00046279  1
  Ca  Ca15  1  0.50227231  0.74332599  0.50345779  1
  Ca  Ca16  1  0.00595820  0.00027606  0.25398110  1
  Ca  Ca17  1  0.00207370  -0.00234446  0.74681448  1
  Ca  Ca18  1  -0.00476103  0.49693998  0.25499500  1
  Ca  Ca19  1  0.00200283  0.49953875  0.74797427  1
  Ca  Ca20  1  0.49442714  -0.00085836  0.24830589  1
  Ca  Ca21  1  0.49455575  0.00596391  0.75244512  1
  Ca  Ca22  1  0.50343371  0.50039339  0.25604562  1
  Ca  Ca23  1  0.50022667  0.49808089  0.75220338  1
  Ti  Ti24  1  0.25107346  0.24973304  0.25073880  1
  Ti  Ti25  1  0.25238123  0.25302914  0.74991005  1
  Ti  Ti26  1  0.24972685  0.75076825  0.25179114  1
  Ti  Ti27  1  0.24770108  0.74915558  0.74837781  1
  Ti  Ti28  1  0.75053678  0.25215393  0.25400110  1
  Ti  Ti29  1  0.75000346  0.25246375  0.74794264  1
  Ti  Ti30  1  0.75039448  0.74605356  0.24958602  1
  Ti  Ti31  1  0.75419587  0.74706733  0.75037334  1
  Al  Al32  1  0.09202346  0.07772699  0.09411627  1
  Al  Al33  1  0.07373769  0.08024537  0.57010054  1
  Al  Al34  1  0.08312497  0.57569762  0.07949798  1
  Al  Al35  1  0.08895294  0.58288707  0.58736154  1
  Al  Al36  1  0.57099107  0.07832519  0.08103204  1
  Al  Al37  1  0.58862467  0.09282495  0.58170150  1
  Al  Al38  1  0.58634508  0.57908567  0.08573578  1
  Al  Al39  1  0.59189923  0.57258869  0.57359098  1
  Al  Al40  1  0.42069928  0.41712213  0.07756687  1
  Al  Al41  1  0.41640036  0.41833002  0.58610484  1
  Al  Al42  1  0.40491496  0.92339053  0.08153866  1
  Al  Al43  1  0.40369088  0.91773319  0.57598291  1
  Al  Al44  1  0.92145986  0.41459461  0.08440018  1
  Al  Al45  1  0.91131956  0.41325972  0.58172017  1
  Al  Al46  1  0.91901120  0.92058026  0.08017815  1
  Al  Al47  1  0.91813760  0.90952690  0.58264400  1
  Al  Al48  1  0.41552004  0.07799189  0.41397244  1
  Al  Al49  1  0.40989705  0.09646956  0.91934755  1
  Al  Al50  1  0.42318725  0.59179502  0.41389363  1
  Al  Al51  1  0.41289742  0.57339191  0.91265723  1
  Al  Al52  1  0.92007505  0.09231467  0.42151688  1
  Al  Al53  1  0.92479787  0.07784312  0.91964960  1
  Al  Al54  1  0.91364820  0.58527542  0.42019897  1
  Al  Al55  1  0.91747212  0.58126600  0.90029646  1
  Al  Al56  1  0.07377279  0.41389862  0.41579842  1
  Al  Al57  1  0.08101500  0.41877912  0.90303328  1
  Al  Al58  1  0.09837555  0.91524226  0.41446759  1
  Al  Al59  1  0.08184866  0.91313624  0.90690941  1
  Al  Al60  1  0.59965831  0.41739977  0.41695647  1
  Al  Al61  1  0.57992430  0.41390267  0.90084240  1
  Al  Al62  1  0.57961979  0.92699394  0.41923733  1
  Al  Al63  1  0.57143627  0.91953241  0.92033182  1
  Al  Al64  1  0.08734019  0.07891390  0.40887575  1
  Al  Al65  1  0.08313398  0.07656638  0.91583179  1
  Al  Al66  1  0.07904339  0.58508006  0.42389299  1
  Al  Al67  1  0.08213404  0.58350362  0.90448276  1
  Al  Al68  1  0.59132889  0.08967423  0.42078626  1
  Al  Al69  1  0.56838545  0.09093370  0.90926256  1
  Al  Al70  1  0.58892617  0.58325460  0.41065345  1
  Al  Al71  1  0.59120429  0.57451717  0.91101560  1
  Al  Al72  1  0.42175650  0.42079552  0.42066023  1
  Al  Al73  1  0.41723646  0.41132927  0.90465171  1
  Al  Al74  1  0.40187002  0.91495994  0.41770012  1
  Al  Al75  1  0.41173629  0.91148835  0.92070068  1
  Al  Al76  1  0.91084734  0.40799538  0.41756897  1
  Al  Al77  1  0.91604805  0.41791584  0.90337112  1
  Al  Al78  1  0.91996522  0.91132223  0.42552117  1
  Al  Al79  1  0.92476483  0.90421942  0.90897751  1
  Al  Al80  1  0.07768274  0.41814110  0.09200603  1
  Al  Al81  1  0.08461434  0.42102525  0.59076882  1
  Al  Al82  1  0.08901786  0.92180324  0.08898377  1
  Al  Al83  1  0.08543605  0.90305898  0.57518951  1
  Al  Al84  1  0.58144139  0.42279208  0.08736347  1
  Al  Al85  1  0.59315461  0.41084602  0.58146179  1
  Al  Al86  1  0.58262551  0.92096785  0.08012477  1
  Al  Al87  1  0.57807427  0.93231838  0.57564281  1
  Al  Al88  1  0.40630990  0.08653273  0.08278313  1
  Al  Al89  1  0.42053613  0.08029183  0.58239205  1
  Al  Al90  1  0.42145159  0.57920430  0.08131755  1
  Al  Al91  1  0.40528760  0.57854215  0.57982303  1
  Al  Al92  1  0.92240257  0.07759980  0.08452941  1
  Al  Al93  1  0.91317703  0.08823959  0.57895324  1
  Al  Al94  1  0.92042246  0.57802018  0.07936074  1
  Al  Al95  1  0.91356276  0.58464814  0.58316528  1
  Al  Al96  1  0.25630236  0.13343606  0.13218596  1
  Al  Al97  1  0.25172942  0.13917848  0.63676769  1
  Al  Al98  1  0.25394946  0.63439770  0.13833771  1
  Al  Al99  1  0.24651270  0.63297268  0.63639066  1
  Al  Al100  1  0.74547906  0.13702752  0.13689203  1
  Al  Al101  1  0.74978225  0.14039882  0.62847438  1
  Al  Al102  1  0.75227407  0.63338173  0.13038091  1
  Al  Al103  1  0.75733984  0.63256587  0.63677391  1
  Al  Al104  1  0.25254893  0.36223993  0.13179979  1
  Al  Al105  1  0.24984288  0.36661409  0.63140777  1
  Al  Al106  1  0.25027568  0.86535570  0.13360086  1
  Al  Al107  1  0.24620560  0.86296442  0.63299278  1
  Al  Al108  1  0.75057972  0.36438241  0.13775503  1
  Al  Al109  1  0.75087524  0.36575123  0.63249718  1
  Al  Al110  1  0.74851782  0.86184534  0.13469335  1
  Al  Al111  1  0.75573402  0.86173254  0.63819288  1
  Al  Al112  1  0.24753155  0.13450419  0.36577842  1
  Al  Al113  1  0.25717773  0.13748918  0.86572043  1
  Al  Al114  1  0.25186383  0.63467323  0.36706642  1
  Al  Al115  1  0.24902649  0.63582547  0.86176377  1
  Al  Al116  1  0.74920630  0.14295782  0.37524128  1
  Al  Al117  1  0.74937905  0.14053142  0.86429250  1
  Al  Al118  1  0.74962697  0.62582115  0.36214918  1
  Al  Al119  1  0.75479238  0.63125707  0.86634199  1
  Al  Al120  1  0.25279354  0.36603717  0.37171458  1
  Al  Al121  1  0.25602757  0.36743533  0.86691619  1
  Al  Al122  1  0.24799859  0.86700289  0.36938480  1
  Al  Al123  1  0.25372743  0.86331747  0.86479649  1
  Al  Al124  1  0.74976926  0.36860099  0.37088174  1
  Al  Al125  1  0.74976242  0.36987059  0.86231965  1
  Al  Al126  1  0.74888943  0.85991526  0.36553190  1
  Al  Al127  1  0.75780734  0.85879762  0.86767619  1
  Al  Al128  1  0.13702216  0.24848723  0.13611017  1
  Al  Al129  1  0.13509778  0.25427914  0.63670283  1
  Al  Al130  1  0.13547664  0.75076937  0.13646657  1
  Al  Al131  1  0.12833134  0.75073780  0.63580902  1
  Al  Al132  1  0.63494052  0.25115302  0.13648308  1
  Al  Al133  1  0.63720758  0.25316349  0.62969567  1
  Al  Al134  1  0.63422261  0.74378896  0.13374630  1
  Al  Al135  1  0.63875586  0.74233492  0.63658360  1
  Al  Al136  1  0.13290782  0.25746811  0.36700102  1
  Al  Al137  1  0.13648858  0.25865628  0.86290348  1
  Al  Al138  1  0.13676126  0.75381955  0.36776974  1
  Al  Al139  1  0.13256962  0.74920614  0.86376418  1
  Al  Al140  1  0.63343387  0.25369908  0.37066516  1
  Al  Al141  1  0.63232256  0.25129834  0.86428370  1
  Al  Al142  1  0.63392539  0.74315193  0.36506122  1
  Al  Al143  1  0.63767880  0.74482533  0.86518422  1
  Al  Al144  1  0.36499090  0.24840804  0.12845208  1
  Al  Al145  1  0.36555566  0.25442535  0.63488082  1
  Al  Al146  1  0.36214709  0.75184852  0.13367680  1
  Al  Al147  1  0.36088879  0.74885528  0.62869748  1
  Al  Al148  1  0.86308277  0.25058140  0.13803059  1
  Al  Al149  1  0.86329110  0.25452611  0.63050134  1
  Al  Al150  1  0.86602433  0.74645513  0.13013183  1
  Al  Al151  1  0.87414063  0.74544647  0.64042089  1
  Al  Al152  1  0.37206108  0.25044064  0.36264029  1
  Al  Al153  1  0.36840817  0.25091813  0.86798446  1
  Al  Al154  1  0.36250236  0.75245914  0.36978854  1
  Al  Al155  1  0.36394273  0.74964449  0.86365141  1
  Al  Al156  1  0.86630844  0.25613860  0.37364260  1
  Al  Al157  1  0.86668170  0.25608928  0.86041558  1
  Al  Al158  1  0.86193325  0.74345252  0.36549904  1
  Al  Al159  1  0.87069812  0.74358433  0.86560186  1
  Al  Al160  1  0.13442675  0.13526008  0.25477764  1
  Al  Al161  1  0.13921127  0.13790410  0.75457367  1
  Al  Al162  1  0.13643545  0.63651888  0.25225010  1
  Al  Al163  1  0.12901462  0.63672806  0.74967493  1
  Al  Al164  1  0.63564858  0.13944585  0.25609696  1
  Al  Al165  1  0.63151667  0.14057325  0.74760392  1
  Al  Al166  1  0.63171876  0.63370255  0.25396674  1
  Al  Al167  1  0.63823044  0.63062932  0.75516292  1
  Al  Al168  1  0.36367552  0.13400032  0.25061358  1
  Al  Al169  1  0.37181097  0.14091653  0.75334155  1
  Al  Al170  1  0.37167933  0.64011214  0.25306096  1
  Al  Al171  1  0.36703884  0.63651130  0.75013641  1
  Al  Al172  1  0.86433560  0.13967383  0.25604462  1
  Al  Al173  1  0.86089236  0.13374586  0.74852567  1
  Al  Al174  1  0.86311475  0.62740015  0.24902337  1
  Al  Al175  1  0.87051657  0.62850162  0.75166508  1
  Al  Al176  1  0.13678306  0.36591256  0.25415724  1
  Al  Al177  1  0.13691064  0.36781852  0.74804946  1
  Al  Al178  1  0.13538558  0.86666401  0.25296134  1
  Al  Al179  1  0.13029244  0.86151176  0.75233190  1
  Al  Al180  1  0.63750093  0.36630837  0.25711175  1
  Al  Al181  1  0.63490771  0.36627909  0.75402797  1
  Al  Al182  1  0.63387419  0.86191986  0.24867340  1
  Al  Al183  1  0.63876404  0.86151160  0.75001967  1
  Al  Al184  1  0.36443581  0.36433261  0.25102109  1
  Al  Al185  1  0.37142115  0.36593606  0.75492791  1
  Al  Al186  1  0.36281417  0.86594525  0.24895094  1
  Al  Al187  1  0.36080503  0.86274812  0.74865735  1
  Al  Al188  1  0.86256074  0.37059523  0.25700095  1
  Al  Al189  1  0.86229683  0.37332242  0.75107359  1
  Al  Al190  1  0.86534284  0.85952371  0.25173593  1
  Al  Al191  1  0.87296267  0.86236952  0.75383744  1
  Al  Al192  1  0.82309051  0.00126997  0.32995093  1
  Al  Al193  1  0.18357486  -0.00058628  0.82392419  1
  Al  Al194  1  0.32401353  0.00282343  0.68310880  1
  Al  Al195  1  0.67590655  0.82187861  -0.00446457  1
  Al  Al196  1  0.49701085  0.82108647  0.17143600  1
  Al  Al197  1  0.17020451  0.00057242  0.67410623  1
  Al  Al198  1  0.18069247  0.49959793  0.18154782  1
  Al  Al199  1  0.31384725  -0.00045102  0.31266498  1
  Al  Al200  1  -0.00209887  0.32825523  0.68486782  1
  Al  Al201  1  0.81858480  -0.00008390  0.17558786  1
  Al  Al202  1  0.68047525  0.00217667  0.67204817  1
  Al  Al203  1  0.19843214  0.00121806  0.19796671  1
  Al  Al204  1  0.18322564  0.17222058  -0.00188203  1
  Al  Al205  1  0.18024945  0.68496002  0.50177506  1
  Al  Al206  1  0.50042224  0.32700849  0.17968331  1
  Al  Al207  1  -0.00101818  0.67820056  0.32103785  1
  Al  Al208  1  -0.00167489  0.82443137  0.17814302  1
  Al  Al209  1  0.83025953  -0.00223708  0.81929660  1
  Al  Al210  1  0.49770150  0.17378374  0.17844289  1
  Al  Al211  1  0.50033178  0.81963795  0.33368554  1
  Al  Al212  1  0.82256152  0.80675305  0.50260493  1
  Al  Al213  1  0.67045911  0.82890085  0.50261772  1
  Al  Al214  1  0.00229395  0.18728955  0.82897821  1
  Al  Al215  1  -0.00013505  0.17517281  0.67225431  1
  Al  Al216  1  0.67388214  0.00006732  0.31915243  1
  Al  Al217  1  0.32446117  0.50391644  0.32284742  1
  Al  Al218  1  -0.00115393  0.31869263  0.19318318  1
  Al  Al219  1  0.32828933  0.17656196  0.49942099  1
  Al  Al220  1  0.17302158  0.17886536  0.50046002  1
  Al  Al221  1  0.49960982  0.83395933  0.66799999  1
  Al  Al222  1  0.17178260  0.67228577  -0.00073817  1
  Al  Al223  1  0.50364451  0.66654503  0.67253811  1
  Al  Al224  1  0.68087425  0.49854128  0.68368265  1
  Al  Al225  1  0.32834940  0.68343088  -0.00155131  1
  Al  Al226  1  0.82050257  0.17124922  0.00132603  1
  Al  Al227  1  0.00038563  0.18437018  0.31836362  1
  Al  Al228  1  0.50301684  0.32371286  0.68243536  1
  Al  Al229  1  0.18767913  0.50138517  0.80869289  1
  Al  Al230  1  0.30983866  0.50017317  0.69527557  1
  Al  Al231  1  0.49968378  0.81814318  0.82424986  1
  Al  Al232  1  0.66940556  0.32803883  -0.00154610  1
  Al  Al233  1  0.69063257  0.67450413  0.49951977  1
  Al  Al234  1  0.17370691  0.33205239  0.00034606  1
  Al  Al235  1  0.18368770  0.82947465  -0.00217714  1
  Al  Al236  1  0.82856595  0.32799428  -0.00217413  1
  Al  Al237  1  0.67118450  0.00127680  0.82933155  1
  Al  Al238  1  0.68112245  0.50017190  0.18834626  1
  Au  Au239  1  0.50206474  0.65914925  0.17828103  1
  Au  Au240  1  0.33387246  0.50203590  0.33096795  1
  Au  Au241  1  0.33795895  0.32622398  -0.00340229  1
  Au  Au242  1  0.33414141  0.00157393  0.83505936  1
  Au  Au243  1  0.83288839  0.83277665  0.00040183  1
  Au  Au244  1  0.16582517  0.00134587  0.65833642  1
  Au  Au245  1  0.16753798  0.83294523  -0.00170755  1
  Au  Au246  1  0.49974168  0.82522382  0.34916331  1
  Au  Au247  1  0.17798996  0.15615729  -0.00007018  1
  Au  Au248  1  0.50298166  0.32871054  0.67070198  1
  Au  Au249  1  0.00121300  0.17259816  0.16448700  1
  Au  Au250  1  0.00389238  0.82571722  0.34289097  1
  Au  Au251  1  0.00075184  0.66273508  0.67521025  1
  Au  Au252  1  0.50198007  0.16290127  0.32906226  1
  Au  Au253  1  0.65673356  0.16488701  -0.00000563  1
  Au  Au254  1  0.49827936  0.84969497  0.67200934  1
  Au  Au255  1  0.83907374  0.66374047  -0.00628829  1
  Au  Au256  1  0.00339533  0.17094159  0.82309194  1
  Au  Au257  1  0.82845215  -0.00099645  0.65703757  1
  Au  Au258  1  0.15772892  0.50072385  0.32967409  1
  Au  Au259  1  0.66721263  0.00412842  0.16965861  1
  Au  Au260  1  0.49311119  0.83300375  0.15992735  1
  Au  Au261  1  0.33712990  0.32561527  0.49854489  1
  Au  Au262  1  0.16179131  0.33443666  0.00289781  1
  Au  Au263  1  0.82806838  0.49942341  0.67188645  1
  Au  Au264  1  0.50129627  0.66687080  0.83866207  1
  Au  Au265  1  0.31667839  0.49828142  0.67953353  1
  Au  Au266  1  0.31435765  -0.00121884  0.32543074  1
  Au  Au267  1  0.00337976  0.66011812  0.17251224  1
  Au  Au268  1  0.50019528  0.16795549  0.67456500  1
  Au  Au269  1  0.82549098  0.49854366  0.33808210  1
  Au  Au270  1  0.83915454  -0.00342805  0.33233830  1
  Au  Au271  1  0.65513682  0.00133221  0.82211974  1
  Au  Au272  1  -0.00003702  0.18310053  0.33090577  1
  Au  Au273  1  0.32917437  0.66649514  -0.00112034  1
  Au  Au274  1  0.50476026  0.65280884  0.66385687  1
  Au  Au275  1  0.83748273  0.17027687  0.00147423  1
  Au  Au276  1  0.82438491  0.18059161  0.50168329  1
  Au  Au277  1  0.66724547  0.83079343  -0.00268683  1
  Au  Au278  1  0.32810400  0.49704145  0.16462003  1
  Au  Au279  1  0.15988787  0.32958935  0.50248374  1
  Au  Au280  1  0.32874071  0.67785514  0.49828908  1
  Au  Au281  1  0.00017207  0.83329379  0.16932232  1
  Au  Au282  1  0.67200018  0.34384896  -0.00303040  1
  Au  Au283  1  0.82634068  0.49680335  0.16347588  1
  Au  Au284  1  0.83457905  -0.00135000  0.83106371  1
  Au  Au285  1  0.66875961  0.66449987  -0.00080061  1
  Au  Au286  1  0.00090130  0.83093306  0.67677663  1
  Au  Au287  1  0.50638706  0.33838513  0.33069309  1
