# generated using pymatgen
data_Ca24Ti8Al207Au49
_symmetry_space_group_name_H-M   'P 1'
_cell_length_a   17.32461926
_cell_length_b   17.32247339
_cell_length_c   17.32375547
_cell_angle_alpha   89.99774084
_cell_angle_beta   89.99912514
_cell_angle_gamma   89.99990220
_symmetry_Int_Tables_number   1
_chemical_formula_structural   Ca24Ti8Al207Au49
_chemical_formula_sum   'Ca24 Ti8 Al207 Au49'
_cell_volume   5198.95006605
_cell_formula_units_Z   1
loop_
 _symmetry_equiv_pos_site_id
 _symmetry_equiv_pos_as_xyz
  1  'x, y, z'
loop_
 _atom_site_type_symbol
 _atom_site_label
 _atom_site_symmetry_multiplicity
 _atom_site_fract_x
 _atom_site_fract_y
 _atom_site_fract_z
 _atom_site_occupancy
  Ca  Ca0  1  0.24994169  0.00287142  0.00293324  1
  Ca  Ca1  1  0.24524309  0.00312579  0.49911808  1
  Ca  Ca2  1  0.25775485  0.49988342  0.00162846  1
  Ca  Ca3  1  0.25466527  0.49567190  0.50052489  1
  Ca  Ca4  1  0.74662504  -0.00081310  0.00102617  1
  Ca  Ca5  1  0.75288786  0.00151193  0.49803814  1
  Ca  Ca6  1  0.74787517  0.50293460  0.00055603  1
  Ca  Ca7  1  0.75209191  0.50125877  0.49711176  1
  Ca  Ca8  1  -0.00408637  0.25091562  0.00257981  1
  Ca  Ca9  1  -0.00169419  0.24734192  0.49687735  1
  Ca  Ca10  1  -0.00663301  0.74266832  0.00276320  1
  Ca  Ca11  1  -0.00313626  0.75008036  0.50052756  1
  Ca  Ca12  1  0.50601397  0.25422017  0.00154635  1
  Ca  Ca13  1  0.50083687  0.25187341  0.49881424  1
  Ca  Ca14  1  0.50286580  0.74230761  0.00066624  1
  Ca  Ca15  1  0.50311818  0.74380240  0.49785109  1
  Ca  Ca16  1  0.00015551  0.00458056  0.25220434  1
  Ca  Ca17  1  0.00147665  -0.00125501  0.74312768  1
  Ca  Ca18  1  -0.00599667  0.50026568  0.24835912  1
  Ca  Ca19  1  -0.00228684  0.50361564  0.75442483  1
  Ca  Ca20  1  0.50136013  -0.00076517  0.24953752  1
  Ca  Ca21  1  0.49695553  0.00315507  0.74917826  1
  Ca  Ca22  1  0.50432585  0.50048683  0.24799900  1
  Ca  Ca23  1  0.50211254  0.49882627  0.75243295  1
  Ti  Ti24  1  0.25048799  0.25096230  0.24971245  1
  Ti  Ti25  1  0.25141372  0.24907689  0.74897634  1
  Ti  Ti26  1  0.25122315  0.74850698  0.24953348  1
  Ti  Ti27  1  0.24980530  0.75097167  0.74926746  1
  Ti  Ti28  1  0.74892224  0.25156582  0.25053505  1
  Ti  Ti29  1  0.74895505  0.25062676  0.74954571  1
  Ti  Ti30  1  0.74962906  0.74881312  0.25025359  1
  Ti  Ti31  1  0.75048174  0.74928912  0.75027089  1
  Al  Al32  1  0.07825216  0.08521781  0.09468635  1
  Al  Al33  1  0.08340204  0.07376657  0.58081344  1
  Al  Al34  1  0.07398533  0.58899955  0.08971904  1
  Al  Al35  1  0.07567678  0.58179401  0.58610061  1
  Al  Al36  1  0.58939173  0.09283586  0.07798653  1
  Al  Al37  1  0.57836638  0.09201710  0.58575184  1
  Al  Al38  1  0.58703723  0.58896805  0.08433723  1
  Al  Al39  1  0.58665502  0.58334301  0.57694812  1
  Al  Al40  1  0.41999079  0.41671991  0.09196406  1
  Al  Al41  1  0.41229892  0.41017779  0.57865367  1
  Al  Al42  1  0.42190954  0.91774084  0.08870826  1
  Al  Al43  1  0.41844307  0.92138923  0.58454100  1
  Al  Al44  1  0.90806881  0.42307959  0.08786963  1
  Al  Al45  1  0.91633564  0.41948904  0.57489012  1
  Al  Al46  1  0.91716615  0.91197050  0.08099335  1
  Al  Al47  1  0.92354197  0.91041336  0.58459530  1
  Al  Al48  1  0.41622922  0.08388181  0.41793386  1
  Al  Al49  1  0.42068831  0.08481726  0.91612497  1
  Al  Al50  1  0.42538994  0.58571422  0.40667693  1
  Al  Al51  1  0.42731612  0.57824563  0.92023910  1
  Al  Al52  1  0.91855416  0.09610108  0.41296353  1
  Al  Al53  1  0.91591511  0.08028392  0.92359165  1
  Al  Al54  1  0.90693737  0.58568213  0.40989793  1
  Al  Al55  1  0.90000661  0.58550769  0.92047757  1
  Al  Al56  1  0.08434180  0.40997186  0.41784933  1
  Al  Al57  1  0.07806132  0.42347342  0.92081779  1
  Al  Al58  1  0.08320519  0.92753399  0.41314703  1
  Al  Al59  1  0.08430867  0.91740148  0.91436926  1
  Al  Al60  1  0.58544968  0.41806080  0.41711628  1
  Al  Al61  1  0.59610865  0.41701415  0.91748640  1
  Al  Al62  1  0.58195645  0.91457009  0.41789387  1
  Al  Al63  1  0.58263423  0.91859828  0.92657239  1
  Al  Al64  1  0.08175995  0.08746855  0.40424508  1
  Al  Al65  1  0.08780939  0.07555135  0.91639619  1
  Al  Al66  1  0.07188020  0.58146739  0.41716407  1
  Al  Al67  1  0.08050725  0.57979572  0.92430386  1
  Al  Al68  1  0.58005105  0.08582062  0.41991153  1
  Al  Al69  1  0.58622741  0.09255488  0.92046787  1
  Al  Al70  1  0.58593608  0.58931409  0.41024357  1
  Al  Al71  1  0.59609797  0.58372387  0.91711884  1
  Al  Al72  1  0.41348590  0.41470916  0.41707186  1
  Al  Al73  1  0.42456341  0.42054640  0.92438501  1
  Al  Al74  1  0.41792360  0.91997358  0.41268773  1
  Al  Al75  1  0.41740477  0.92273524  0.92201941  1
  Al  Al76  1  0.91256512  0.42028676  0.40742174  1
  Al  Al77  1  0.90370640  0.42402519  0.91455110  1
  Al  Al78  1  0.91918652  0.91975498  0.42109141  1
  Al  Al79  1  0.91657172  0.91252460  0.92139297  1
  Al  Al80  1  0.07813350  0.42378296  0.08284225  1
  Al  Al81  1  0.08973172  0.41347791  0.57694835  1
  Al  Al82  1  0.08024058  0.91849724  0.08491753  1
  Al  Al83  1  0.08285967  0.91534612  0.59310270  1
  Al  Al84  1  0.58411350  0.41219108  0.08274310  1
  Al  Al85  1  0.58362601  0.41524132  0.58002487  1
  Al  Al86  1  0.58147350  0.91068851  0.08437894  1
  Al  Al87  1  0.57938407  0.91661065  0.57916333  1
  Al  Al88  1  0.42026370  0.08093860  0.08273909  1
  Al  Al89  1  0.41598850  0.08991336  0.58711752  1
  Al  Al90  1  0.42203407  0.58122115  0.09685774  1
  Al  Al91  1  0.42322174  0.57576109  0.58002343  1
  Al  Al92  1  0.91925366  0.08989519  0.08972606  1
  Al  Al93  1  0.91627470  0.08357257  0.57089703  1
  Al  Al94  1  0.90676514  0.58832896  0.08907637  1
  Al  Al95  1  0.91240408  0.59147867  0.57774747  1
  Al  Al96  1  0.24950936  0.13735050  0.13392291  1
  Al  Al97  1  0.25103466  0.12904914  0.63482208  1
  Al  Al98  1  0.25283736  0.62946709  0.13355670  1
  Al  Al99  1  0.24854983  0.63083868  0.63585873  1
  Al  Al100  1  0.74489247  0.13485579  0.13551228  1
  Al  Al101  1  0.74783921  0.13812215  0.62842521  1
  Al  Al102  1  0.75013151  0.62753699  0.13433310  1
  Al  Al103  1  0.75548744  0.63688483  0.63113449  1
  Al  Al104  1  0.25209138  0.37021903  0.13656487  1
  Al  Al105  1  0.25300887  0.36747371  0.63485774  1
  Al  Al106  1  0.25234319  0.86339511  0.13676881  1
  Al  Al107  1  0.24981076  0.87261237  0.63498034  1
  Al  Al108  1  0.74729895  0.36866440  0.13275671  1
  Al  Al109  1  0.75336569  0.36300564  0.63302934  1
  Al  Al110  1  0.74733868  0.86334938  0.13510717  1
  Al  Al111  1  0.74970193  0.86368358  0.62799188  1
  Al  Al112  1  0.24862932  0.12960999  0.36462316  1
  Al  Al113  1  0.25174312  0.13500825  0.86784232  1
  Al  Al114  1  0.25185928  0.63012556  0.36150311  1
  Al  Al115  1  0.25173320  0.63464913  0.86607594  1
  Al  Al116  1  0.75017229  0.13492760  0.36883756  1
  Al  Al117  1  0.74736567  0.13539804  0.86700844  1
  Al  Al118  1  0.75295282  0.62720920  0.36133102  1
  Al  Al119  1  0.75065715  0.63123126  0.86905379  1
  Al  Al120  1  0.25352534  0.36752414  0.36296006  1
  Al  Al121  1  0.25174733  0.36446643  0.86385547  1
  Al  Al122  1  0.25146571  0.87063083  0.36345670  1
  Al  Al123  1  0.25197322  0.86528100  0.86568142  1
  Al  Al124  1  0.75200813  0.37216378  0.36115082  1
  Al  Al125  1  0.74763869  0.36658446  0.86977464  1
  Al  Al126  1  0.75031184  0.86646354  0.36919841  1
  Al  Al127  1  0.75009177  0.86258078  0.86585543  1
  Al  Al128  1  0.13032770  0.24642174  0.13607794  1
  Al  Al129  1  0.13698588  0.24840865  0.63477954  1
  Al  Al130  1  0.13376118  0.74782878  0.14112415  1
  Al  Al131  1  0.13529306  0.75286850  0.63440840  1
  Al  Al132  1  0.63507122  0.25438902  0.13452505  1
  Al  Al133  1  0.63085244  0.25046707  0.63558555  1
  Al  Al134  1  0.63919071  0.74134703  0.12958582  1
  Al  Al135  1  0.63647430  0.74515211  0.63630516  1
  Al  Al136  1  0.13529549  0.24586330  0.36404243  1
  Al  Al137  1  0.13900722  0.24928374  0.86588345  1
  Al  Al138  1  0.13905033  0.74803013  0.36228427  1
  Al  Al139  1  0.13622666  0.75161957  0.85898436  1
  Al  Al140  1  0.63751385  0.25355780  0.36333956  1
  Al  Al141  1  0.63557386  0.25187096  0.86965914  1
  Al  Al142  1  0.63663547  0.74490222  0.36130691  1
  Al  Al143  1  0.64032813  0.74349991  0.87536191  1
  Al  Al144  1  0.36686064  0.25284403  0.13794386  1
  Al  Al145  1  0.36764784  0.24943278  0.63442588  1
  Al  Al146  1  0.36480620  0.74357553  0.13177116  1
  Al  Al147  1  0.36108946  0.74997541  0.63690418  1
  Al  Al148  1  0.86138798  0.24941886  0.13687682  1
  Al  Al149  1  0.86356293  0.24973804  0.62841528  1
  Al  Al150  1  0.86280628  0.74178726  0.13560255  1
  Al  Al151  1  0.86334662  0.75171135  0.63088759  1
  Al  Al152  1  0.36418572  0.25617797  0.36603909  1
  Al  Al153  1  0.36744227  0.24627314  0.86368461  1
  Al  Al154  1  0.36611425  0.74614834  0.36250348  1
  Al  Al155  1  0.36277278  0.74872779  0.86952307  1
  Al  Al156  1  0.86142371  0.25035898  0.36812907  1
  Al  Al157  1  0.86133188  0.25290286  0.86764200  1
  Al  Al158  1  0.86126057  0.74708402  0.37068400  1
  Al  Al159  1  0.86235984  0.74648561  0.86806526  1
  Al  Al160  1  0.13223584  0.13561655  0.25263310  1
  Al  Al161  1  0.13684904  0.13404707  0.74750585  1
  Al  Al162  1  0.13407522  0.63127249  0.24637930  1
  Al  Al163  1  0.13410239  0.63607622  0.74637392  1
  Al  Al164  1  0.63631445  0.13264565  0.25125711  1
  Al  Al165  1  0.63226409  0.13900537  0.74879411  1
  Al  Al166  1  0.63642347  0.62831129  0.24774105  1
  Al  Al167  1  0.64097728  0.63160315  0.75371692  1
  Al  Al168  1  0.36554113  0.13760620  0.25173033  1
  Al  Al169  1  0.36703281  0.13240558  0.74803832  1
  Al  Al170  1  0.36899543  0.63101076  0.24724526  1
  Al  Al171  1  0.36559069  0.63582076  0.74660207  1
  Al  Al172  1  0.86602575  0.13650793  0.25337689  1
  Al  Al173  1  0.85963677  0.13663434  0.75007544  1
  Al  Al174  1  0.86217276  0.63001905  0.24821789  1
  Al  Al175  1  0.86224451  0.63499913  0.75377085  1
  Al  Al176  1  0.13556082  0.36426400  0.24776654  1
  Al  Al177  1  0.13719983  0.36356808  0.74663234  1
  Al  Al178  1  0.13660917  0.86642682  0.25238209  1
  Al  Al179  1  0.13300673  0.86760394  0.74230800  1
  Al  Al180  1  0.63198277  0.36948081  0.24806189  1
  Al  Al181  1  0.63697986  0.36712316  0.75279448  1
  Al  Al182  1  0.63686301  0.86760578  0.25259535  1
  Al  Al183  1  0.63911956  0.86109293  0.74980961  1
  Al  Al184  1  0.37040312  0.36924537  0.24933295  1
  Al  Al185  1  0.36903213  0.36364890  0.74478028  1
  Al  Al186  1  0.36612559  0.86413317  0.25252768  1
  Al  Al187  1  0.36253129  0.87080913  0.74883380  1
  Al  Al188  1  0.86277211  0.36711987  0.24768979  1
  Al  Al189  1  0.86202166  0.36643827  0.75302206  1
  Al  Al190  1  0.86157002  0.86444597  0.25068229  1
  Al  Al191  1  0.86336321  0.86290571  0.74664605  1
  Al  Al192  1  0.67353127  0.00037970  0.67634830  1
  Al  Al193  1  -0.00284351  0.68817168  0.67655631  1
  Al  Al194  1  -0.00145825  0.32402724  0.67445472  1
  Al  Al195  1  -0.00166389  0.66921099  0.82991581  1
  Al  Al196  1  0.83029674  0.00127206  0.66730574  1
  Al  Al197  1  -0.00196064  0.16846818  0.66932332  1
  Al  Al198  1  -0.00267896  0.31996620  0.17131744  1
  Al  Al199  1  0.17298825  0.00041797  0.18414728  1
  Al  Al200  1  0.32079897  0.18254985  0.49921080  1
  Al  Al201  1  0.00190693  0.82303891  0.32342640  1
  Al  Al202  1  -0.00051306  0.82728698  0.81069740  1
  Al  Al203  1  0.50187807  0.80814943  0.17191445  1
  Al  Al204  1  0.49961373  0.81889520  0.67345037  1
  Al  Al205  1  -0.00112390  0.31404002  0.32582858  1
  Al  Al206  1  0.32917708  0.66744469  0.49846905  1
  Al  Al207  1  0.50435684  0.32365560  0.82487204  1
  Al  Al208  1  0.50181918  0.82130408  0.82936427  1
  Al  Al209  1  0.50315681  0.67057434  0.81894419  1
  Al  Al210  1  0.82435513  -0.00049489  0.82426552  1
  Al  Al211  1  0.32543057  0.00080791  0.18022543  1
  Al  Al212  1  0.68009692  0.49967137  0.67910422  1
  Al  Al213  1  0.68692868  0.67804123  0.49682983  1
  Al  Al214  1  -0.00285223  0.67448984  0.31277317  1
  Al  Al215  1  0.81762044  0.17909258  0.00479808  1
  Al  Al216  1  0.16887938  0.83151352  0.49856897  1
  Al  Al217  1  0.32439552  0.82273685  0.49983529  1
  Al  Al218  1  0.50010539  0.18356250  0.32663427  1
  Al  Al219  1  0.82629032  0.50103958  0.68261422  1
  Al  Al220  1  0.68269648  0.31984324  0.49917570  1
  Al  Al221  1  -0.00024822  0.17460232  0.82030477  1
  Al  Al222  1  0.32888360  0.49924796  0.82274633  1
  Al  Al223  1  0.19339200  0.31443273  0.49838645  1
  Al  Al224  1  0.66848151  0.00034895  0.83063301  1
  Al  Al225  1  -0.00268961  0.81389884  0.17322266  1
  Al  Al226  1  0.17119694  0.32343475  -0.00013164  1
  Al  Al227  1  0.17349777  0.50076361  0.32245497  1
  Al  Al228  1  0.81837234  0.81168713  0.00235969  1
  Al  Al229  1  0.18011317  -0.00125497  0.81252117  1
  Al  Al230  1  0.82492089  -0.00185833  0.17855710  1
  Al  Al231  1  0.17314715  0.67711121  0.00066603  1
  Al  Al232  1  0.50224158  0.18318782  0.17384690  1
  Al  Al233  1  0.17357499  0.50047767  0.82258485  1
  Al  Al234  1  0.50150840  0.81273909  0.32289862  1
  Al  Al235  1  0.32902957  0.32206420  0.00163467  1
  Al  Al236  1  0.17264493  0.67569665  0.49913479  1
  Al  Al237  1  -0.00144135  0.33044966  0.82982019  1
  Al  Al238  1  0.17510809  0.82282839  0.00138438  1
  Au  Au239  1  0.83424790  -0.00289025  0.83342983  1
  Au  Au240  1  0.66364811  0.00067683  0.66596339  1
  Au  Au241  1  0.32596387  0.00325160  0.32817337  1
  Au  Au242  1  0.33788223  0.17278162  0.00140244  1
  Au  Au243  1  0.49996462  0.32190694  0.66024103  1
  Au  Au244  1  0.33688903  0.49836814  0.67202710  1
  Au  Au245  1  0.17284088  0.50208644  0.16584427  1
  Au  Au246  1  0.67567780  0.50030682  0.33315196  1
  Au  Au247  1  0.16615485  0.16215194  0.00472549  1
  Au  Au248  1  -0.00035206  0.33118309  0.17709968  1
  Au  Au249  1  0.83288263  0.00476589  0.33546151  1
  Au  Au250  1  0.81968815  0.33671004  0.00104216  1
  Au  Au251  1  0.00185714  0.16928611  0.83628530  1
  Au  Au252  1  -0.00014816  0.83300902  0.33297970  1
  Au  Au253  1  0.50092802  0.66950107  0.66509341  1
  Au  Au254  1  0.32494623  0.00202718  0.83546973  1
  Au  Au255  1  0.83359959  0.00016512  0.16989723  1
  Au  Au256  1  0.33779306  0.50123525  0.32358217  1
  Au  Au257  1  0.67351939  0.49826389  0.16345345  1
  Au  Au258  1  0.66649977  0.82382253  0.50049758  1
  Au  Au259  1  0.17437478  0.33585842  -0.00114966  1
  Au  Au260  1  0.49945316  0.32873224  0.83508592  1
  Au  Au261  1  0.67173123  0.82257515  0.00188113  1
  Au  Au262  1  0.82605327  0.17009694  0.00219048  1
  Au  Au263  1  0.83164202  0.50112087  0.67120383  1
  Au  Au264  1  0.50297734  0.17060322  0.17116985  1
  Au  Au265  1  0.33337671  0.18583266  0.49912102  1
  Au  Au266  1  0.82979338  0.33038377  0.49363181  1
  Au  Au267  1  0.16516827  0.66350799  0.49938256  1
  Au  Au268  1  0.50098591  0.33253854  0.33052628  1
  Au  Au269  1  0.33229781  0.83590325  0.00499306  1
  Au  Au270  1  0.50153515  0.82509140  0.32640519  1
  Au  Au271  1  0.34014169  0.66157070  0.00210699  1
  Au  Au272  1  0.33464253  0.83283667  0.49956431  1
  Au  Au273  1  0.15927510  0.16948868  0.49974616  1
  Au  Au274  1  0.83421914  0.82408580  0.50149590  1
  Au  Au275  1  0.67080337  0.17222300  0.49916800  1
  Au  Au276  1  -0.00095181  0.33400685  0.66405945  1
  Au  Au277  1  0.16484080  0.49879270  0.33126729  1
  Au  Au278  1  0.50265723  0.16744479  0.82303233  1
  Au  Au279  1  0.66457881  0.00177843  0.33400129  1
  Au  Au280  1  0.16375836  0.49956610  0.67365999  1
  Au  Au281  1  0.50031872  0.83804553  0.82689033  1
  Au  Au282  1  0.16398285  0.66898173  0.00017701  1
  Au  Au283  1  0.66844124  -0.00066441  0.16293253  1
  Au  Au284  1  0.32578500  0.00165844  0.66764546  1
  Au  Au285  1  -0.00072174  0.82207398  0.82702739  1
  Au  Au286  1  0.66236171  0.49947749  0.67638098  1
  Au  Au287  1  0.16619761  0.83117712  0.00120962  1
