# generated using pymatgen
data_Ca24Ti8Al207Au49
_symmetry_space_group_name_H-M   'P 1'
_cell_length_a   17.31975161
_cell_length_b   17.31949293
_cell_length_c   17.32153377
_cell_angle_alpha   90.00023585
_cell_angle_beta   89.99965909
_cell_angle_gamma   90.00032514
_symmetry_Int_Tables_number   1
_chemical_formula_structural   Ca24Ti8Al207Au49
_chemical_formula_sum   'Ca24 Ti8 Al207 Au49'
_cell_volume   5195.92862911
_cell_formula_units_Z   1
loop_
 _symmetry_equiv_pos_site_id
 _symmetry_equiv_pos_as_xyz
  1  'x, y, z'
loop_
 _atom_site_type_symbol
 _atom_site_label
 _atom_site_symmetry_multiplicity
 _atom_site_fract_x
 _atom_site_fract_y
 _atom_site_fract_z
 _atom_site_occupancy
  Ca  Ca0  1  0.24866866  -0.00840332  0.00422061  1
  Ca  Ca1  1  0.25357907  0.00494913  0.49965825  1
  Ca  Ca2  1  0.25021159  0.50449367  0.00502699  1
  Ca  Ca3  1  0.25015897  0.49650556  0.49661055  1
  Ca  Ca4  1  0.75801795  -0.00052675  -0.00067113  1
  Ca  Ca5  1  0.74881565  -0.00361223  0.49707761  1
  Ca  Ca6  1  0.75747474  0.50104540  -0.00047460  1
  Ca  Ca7  1  0.75125123  0.50173356  0.49856646  1
  Ca  Ca8  1  -0.01002440  0.25550298  -0.00071870  1
  Ca  Ca9  1  0.00203183  0.25385208  0.49897089  1
  Ca  Ca10  1  0.00023901  0.74603948  0.00324637  1
  Ca  Ca11  1  -0.00294185  0.75126259  0.49587168  1
  Ca  Ca12  1  0.50308822  0.25056213  0.00146767  1
  Ca  Ca13  1  0.49571302  0.25381038  0.49688298  1
  Ca  Ca14  1  0.49813120  0.74762284  0.00386427  1
  Ca  Ca15  1  0.50482199  0.75053824  0.49850083  1
  Ca  Ca16  1  -0.00052676  -0.00136754  0.24804710  1
  Ca  Ca17  1  -0.00223109  -0.00129440  0.75366952  1
  Ca  Ca18  1  0.00190692  0.50091209  0.24576437  1
  Ca  Ca19  1  -0.00228016  0.49935512  0.75401059  1
  Ca  Ca20  1  0.50069238  -0.00463020  0.25381397  1
  Ca  Ca21  1  0.50540533  -0.00377240  0.75194144  1
  Ca  Ca22  1  0.49731330  0.50455946  0.25099150  1
  Ca  Ca23  1  0.50223378  0.50149552  0.74914809  1
  Ti  Ti24  1  0.24981081  0.25150354  0.25266227  1
  Ti  Ti25  1  0.24789716  0.25305130  0.74635469  1
  Ti  Ti26  1  0.25083383  0.74819675  0.24959389  1
  Ti  Ti27  1  0.24867851  0.74719855  0.75169615  1
  Ti  Ti28  1  0.75026836  0.25058213  0.24921720  1
  Ti  Ti29  1  0.75169883  0.25247482  0.75129273  1
  Ti  Ti30  1  0.74968834  0.75027853  0.24959227  1
  Ti  Ti31  1  0.75113067  0.74722568  0.75003429  1
  Al  Al32  1  0.08103790  0.07788038  0.08077134  1
  Al  Al33  1  0.07738813  0.09212163  0.57503343  1
  Al  Al34  1  0.09090584  0.58674586  0.08727264  1
  Al  Al35  1  0.07815290  0.57880286  0.58171616  1
  Al  Al36  1  0.58486599  0.07860526  0.08075071  1
  Al  Al37  1  0.57573331  0.07591810  0.58200367  1
  Al  Al38  1  0.57688756  0.58545889  0.09013663  1
  Al  Al39  1  0.59989687  0.58545900  0.58112538  1
  Al  Al40  1  0.41060161  0.43027155  0.09647933  1
  Al  Al41  1  0.41634343  0.42162778  0.56987189  1
  Al  Al42  1  0.41316421  0.90652157  0.08185511  1
  Al  Al43  1  0.42559378  0.91393234  0.57336754  1
  Al  Al44  1  0.90975412  0.41213199  0.08722411  1
  Al  Al45  1  0.92446215  0.41524413  0.59300724  1
  Al  Al46  1  0.92142729  0.91087761  0.07982009  1
  Al  Al47  1  0.90752002  0.91567687  0.58820430  1
  Al  Al48  1  0.41368742  0.08552696  0.42343367  1
  Al  Al49  1  0.42008093  0.07429626  0.91977255  1
  Al  Al50  1  0.40741271  0.58273001  0.40912090  1
  Al  Al51  1  0.41637928  0.59184729  0.92804493  1
  Al  Al52  1  0.92039804  0.07831658  0.41364564  1
  Al  Al53  1  0.90883667  0.09057482  0.91530623  1
  Al  Al54  1  0.91920438  0.59011620  0.41065531  1
  Al  Al55  1  0.91091330  0.58369191  0.91846608  1
  Al  Al56  1  0.08844296  0.41148186  0.41564934  1
  Al  Al57  1  0.06692756  0.41628680  0.91049908  1
  Al  Al58  1  0.07349999  0.91202951  0.40787751  1
  Al  Al59  1  0.07866608  0.89981799  0.92094351  1
  Al  Al60  1  0.57102856  0.41505621  0.41645640  1
  Al  Al61  1  0.59067193  0.42285081  0.92092995  1
  Al  Al62  1  0.59097488  0.90624828  0.41082731  1
  Al  Al63  1  0.57911911  0.91879476  0.91985898  1
  Al  Al64  1  0.08428729  0.08646289  0.41785100  1
  Al  Al65  1  0.07215910  0.08548940  0.92331602  1
  Al  Al66  1  0.08029351  0.58398956  0.40839168  1
  Al  Al67  1  0.08424475  0.58592580  0.92486624  1
  Al  Al68  1  0.58717370  0.06993692  0.41004435  1
  Al  Al69  1  0.58258201  0.08073154  0.92039729  1
  Al  Al70  1  0.58278645  0.58949503  0.42173327  1
  Al  Al71  1  0.58219938  0.58240725  0.91745244  1
  Al  Al72  1  0.41043617  0.41620528  0.40263015  1
  Al  Al73  1  0.42396714  0.42894457  0.92370256  1
  Al  Al74  1  0.42622087  0.90893043  0.41318227  1
  Al  Al75  1  0.41077502  0.91039052  0.92262058  1
  Al  Al76  1  0.92682976  0.41555247  0.40702559  1
  Al  Al77  1  0.90676686  0.41129547  0.91117987  1
  Al  Al78  1  0.91511198  0.90825680  0.41263330  1
  Al  Al79  1  0.91714287  0.90854647  0.91317543  1
  Al  Al80  1  0.07717365  0.42501980  0.09315693  1
  Al  Al81  1  0.08587685  0.40502788  0.58027370  1
  Al  Al82  1  0.08472318  0.90765571  0.08352542  1
  Al  Al83  1  0.06865939  0.91603241  0.57684550  1
  Al  Al84  1  0.58488379  0.42175237  0.08427165  1
  Al  Al85  1  0.58868172  0.42858590  0.57992814  1
  Al  Al86  1  0.58045496  0.91433612  0.08594374  1
  Al  Al87  1  0.59042616  0.91000761  0.57578511  1
  Al  Al88  1  0.41766847  0.07607894  0.08043401  1
  Al  Al89  1  0.41563151  0.09543053  0.57775957  1
  Al  Al90  1  0.40899857  0.59212142  0.09162690  1
  Al  Al91  1  0.41060145  0.58751873  0.57048825  1
  Al  Al92  1  0.91186719  0.09078083  0.07494298  1
  Al  Al93  1  0.91629530  0.07578895  0.59672136  1
  Al  Al94  1  0.91278891  0.58515116  0.08379623  1
  Al  Al95  1  0.91697351  0.58047070  0.58066273  1
  Al  Al96  1  0.25326627  0.13732835  0.13582121  1
  Al  Al97  1  0.24720713  0.13946497  0.62735382  1
  Al  Al98  1  0.25313628  0.63349412  0.13636281  1
  Al  Al99  1  0.25191085  0.62937189  0.63581563  1
  Al  Al100  1  0.75348218  0.13304988  0.13435388  1
  Al  Al101  1  0.75660064  0.13310524  0.63605851  1
  Al  Al102  1  0.75400288  0.63533595  0.13486239  1
  Al  Al103  1  0.74746606  0.63141507  0.63154238  1
  Al  Al104  1  0.25028027  0.37177094  0.13900836  1
  Al  Al105  1  0.24807350  0.36752131  0.62780569  1
  Al  Al106  1  0.25032073  0.85894965  0.13761586  1
  Al  Al107  1  0.24854665  0.86172978  0.63850848  1
  Al  Al108  1  0.75527295  0.36649093  0.13198021  1
  Al  Al109  1  0.74942201  0.36821123  0.63616669  1
  Al  Al110  1  0.74861929  0.86400122  0.13801894  1
  Al  Al111  1  0.75205005  0.86493700  0.63683657  1
  Al  Al112  1  0.25082926  0.13930264  0.37107594  1
  Al  Al113  1  0.24791496  0.13839193  0.86158531  1
  Al  Al114  1  0.25515781  0.63097583  0.36184532  1
  Al  Al115  1  0.25113173  0.63360311  0.86823710  1
  Al  Al116  1  0.75356990  0.13213405  0.36412326  1
  Al  Al117  1  0.75764584  0.13737302  0.86670771  1
  Al  Al118  1  0.74856659  0.63730945  0.36350086  1
  Al  Al119  1  0.75266124  0.62841625  0.86722100  1
  Al  Al120  1  0.25179227  0.36683144  0.36823396  1
  Al  Al121  1  0.25189024  0.36777144  0.86255798  1
  Al  Al122  1  0.25314449  0.85948822  0.35972585  1
  Al  Al123  1  0.24628720  0.86028847  0.86575531  1
  Al  Al124  1  0.75399102  0.36595625  0.36181210  1
  Al  Al125  1  0.75345756  0.37064503  0.86891584  1
  Al  Al126  1  0.74533873  0.86874944  0.36211477  1
  Al  Al127  1  0.75295118  0.86261808  0.86380922  1
  Al  Al128  1  0.13661156  0.25119345  0.13864324  1
  Al  Al129  1  0.13148924  0.25517329  0.62653883  1
  Al  Al130  1  0.13385682  0.74794070  0.13495890  1
  Al  Al131  1  0.13427621  0.74787521  0.63451622  1
  Al  Al132  1  0.63789764  0.25363269  0.13271757  1
  Al  Al133  1  0.64085254  0.24931058  0.63759585  1
  Al  Al134  1  0.62988333  0.75023585  0.13618785  1
  Al  Al135  1  0.63912628  0.74893365  0.63133036  1
  Al  Al136  1  0.13639794  0.25388635  0.37125323  1
  Al  Al137  1  0.13024373  0.25372599  0.86249628  1
  Al  Al138  1  0.13236327  0.74372318  0.36280926  1
  Al  Al139  1  0.13331593  0.75228495  0.86814914  1
  Al  Al140  1  0.63433240  0.25300305  0.36201146  1
  Al  Al141  1  0.64004972  0.25445344  0.86711447  1
  Al  Al142  1  0.63366556  0.75229536  0.36653166  1
  Al  Al143  1  0.63805557  0.74824348  0.86650613  1
  Al  Al144  1  0.36480503  0.25535744  0.13921182  1
  Al  Al145  1  0.36190897  0.25308158  0.62838965  1
  Al  Al146  1  0.37089968  0.74511551  0.13624625  1
  Al  Al147  1  0.36395746  0.74599047  0.63491979  1
  Al  Al148  1  0.86410987  0.25057077  0.13482715  1
  Al  Al149  1  0.86804897  0.25761816  0.63890066  1
  Al  Al150  1  0.86665841  0.74459537  0.13564771  1
  Al  Al151  1  0.86387132  0.74879514  0.63475828  1
  Al  Al152  1  0.36747473  0.25468106  0.36727365  1
  Al  Al153  1  0.36444125  0.24906820  0.86397534  1
  Al  Al154  1  0.36649876  0.74651850  0.36443476  1
  Al  Al155  1  0.36437599  0.74807983  0.86791877  1
  Al  Al156  1  0.86523279  0.25129611  0.36221734  1
  Al  Al157  1  0.86798824  0.25489212  0.86512142  1
  Al  Al158  1  0.86624543  0.74956950  0.36224381  1
  Al  Al159  1  0.86428978  0.74674768  0.86647555  1
  Al  Al160  1  0.13576705  0.13672570  0.25165725  1
  Al  Al161  1  0.13555820  0.13986386  0.74585310  1
  Al  Al162  1  0.13388577  0.63298004  0.24667389  1
  Al  Al163  1  0.13500500  0.63478448  0.75090834  1
  Al  Al164  1  0.63633609  0.13438207  0.25356447  1
  Al  Al165  1  0.63896034  0.13692862  0.75134541  1
  Al  Al166  1  0.63273731  0.63707057  0.24716468  1
  Al  Al167  1  0.63955452  0.63004824  0.75039092  1
  Al  Al168  1  0.36281913  0.13445023  0.25446267  1
  Al  Al169  1  0.36095471  0.13977546  0.74655344  1
  Al  Al170  1  0.36702574  0.63098314  0.24774295  1
  Al  Al171  1  0.36325832  0.63055469  0.75089442  1
  Al  Al172  1  0.86630359  0.13001886  0.24940699  1
  Al  Al173  1  0.86719261  0.13605069  0.75162480  1
  Al  Al174  1  0.86802807  0.63324027  0.24945633  1
  Al  Al175  1  0.86488709  0.63226026  0.75341228  1
  Al  Al176  1  0.13454382  0.36525885  0.25289427  1
  Al  Al177  1  0.13115953  0.36487390  0.74620419  1
  Al  Al178  1  0.13331167  0.86187609  0.25137179  1
  Al  Al179  1  0.12690294  0.86208781  0.74980655  1
  Al  Al180  1  0.63170568  0.36463979  0.24787633  1
  Al  Al181  1  0.63976417  0.37394606  0.75355193  1
  Al  Al182  1  0.62715179  0.86317362  0.25286102  1
  Al  Al183  1  0.63758697  0.86249317  0.74964008  1
  Al  Al184  1  0.36604465  0.36835777  0.25301567  1
  Al  Al185  1  0.36124527  0.37126789  0.74512936  1
  Al  Al186  1  0.37298058  0.86128246  0.24928703  1
  Al  Al187  1  0.36273972  0.85917382  0.75275697  1
  Al  Al188  1  0.86359528  0.37003650  0.24752375  1
  Al  Al189  1  0.86690790  0.36908800  0.75541833  1
  Al  Al190  1  0.86346206  0.86796761  0.25272250  1
  Al  Al191  1  0.87014363  0.86063468  0.74992244  1
  Al  Al192  1  0.67559236  0.16916167  0.49833654  1
  Al  Al193  1  -0.00103575  0.32188138  0.18720662  1
  Al  Al194  1  0.17032649  -0.00011281  0.67035586  1
  Al  Al195  1  0.67711808  0.00052604  0.82900149  1
  Al  Al196  1  -0.00152349  0.81682926  0.18563497  1
  Al  Al197  1  0.68440308  0.50141657  0.17469649  1
  Al  Al198  1  0.16680228  -0.00203156  0.83415703  1
  Al  Al199  1  0.17344254  0.49758717  0.82565528  1
  Al  Al200  1  0.30925520  0.80688407  0.00180103  1
  Al  Al201  1  -0.00109245  0.67796462  0.67592937  1
  Al  Al202  1  0.33231376  -0.00092180  0.66737608  1
  Al  Al203  1  0.82265111  0.81272405  0.00147084  1
  Al  Al204  1  0.81268123  0.82652695  0.49840947  1
  Al  Al205  1  0.18898638  0.68797653  0.00166531  1
  Al  Al206  1  0.50125740  0.82589737  0.67940768  1
  Al  Al207  1  0.83259333  0.32315002  0.50069933  1
  Al  Al208  1  0.67446917  0.32772484  0.49812110  1
  Al  Al209  1  0.50026375  0.32107934  0.82795669  1
  Al  Al210  1  0.18424384  0.49911489  0.31507712  1
  Al  Al211  1  0.81610543  0.50001277  0.68446596  1
  Al  Al212  1  0.68000597  -0.00105306  0.18719081  1
  Al  Al213  1  0.32812761  0.81441479  0.49953657  1
  Al  Al214  1  0.17735072  0.17515529  0.00009695  1
  Al  Al215  1  0.50323510  0.67241878  0.67454472  1
  Al  Al216  1  0.33033777  0.32349723  0.00218664  1
  Al  Al217  1  0.82858549  -0.00236233  0.81651069  1
  Al  Al218  1  0.00162499  0.18811530  0.31855161  1
  Al  Al219  1  0.16533356  0.33069418  -0.00008080  1
  Al  Al220  1  0.67939848  0.50008833  0.33036538  1
  Al  Al221  1  0.32371340  -0.00172622  0.82463911  1
  Al  Al222  1  0.18735653  0.67006684  0.49888737  1
  Al  Al223  1  0.68419532  0.67736446  0.00271252  1
  Al  Al224  1  0.50067052  0.68097614  0.82667266  1
  Al  Al225  1  0.81647605  0.67557694  0.49868330  1
  Al  Al226  1  0.49990904  0.68271561  0.31724372  1
  Al  Al227  1  0.50347562  0.33270590  0.67006119  1
  Al  Al228  1  0.17733099  -0.00151622  0.17317875  1
  Al  Al229  1  -0.00035513  0.18110259  0.68141442  1
  Al  Al230  1  0.50058000  0.17658054  0.67878910  1
  Al  Al231  1  0.32913462  -0.00218527  0.32419319  1
  Al  Al232  1  0.00007323  0.67938563  0.83030441  1
  Al  Al233  1  0.50145711  0.18470298  0.17273255  1
  Al  Al234  1  0.49976240  0.18059305  0.33016659  1
  Al  Al235  1  0.17333406  0.82969430  0.49667962  1
  Al  Al236  1  0.68684724  0.18027973  -0.00041303  1
  Al  Al237  1  0.17221038  -0.00010555  0.32624214  1
  Al  Al238  1  0.68351335  0.00027811  0.67320873  1
  Au  Au239  1  0.49989484  0.16959015  0.33639705  1
  Au  Au240  1  0.00056340  0.18174198  0.66874178  1
  Au  Au241  1  0.32643665  0.32988541  0.49552466  1
  Au  Au242  1  0.67239355  0.50280608  0.82615771  1
  Au  Au243  1  0.16074151  0.49550912  0.66978616  1
  Au  Au244  1  0.49919441  0.82278575  0.16994625  1
  Au  Au245  1  -0.00060204  0.66760949  0.17477478  1
  Au  Au246  1  0.16474080  0.49929018  0.83443210  1
  Au  Au247  1  0.14985235  0.32997496  0.00442308  1
  Au  Au248  1  0.83963349  -0.00110580  0.16458669  1
  Au  Au249  1  0.83262198  0.33986170  0.49682997  1
  Au  Au250  1  -0.00349265  0.82697965  0.67217796  1
  Au  Au251  1  0.67948340  0.16484320  -0.00143896  1
  Au  Au252  1  0.32670900  -0.00478964  0.16449857  1
  Au  Au253  1  0.32637270  -0.00230440  0.33679816  1
  Au  Au254  1  0.49902831  0.34539127  0.17810737  1
  Au  Au255  1  0.00029678  0.17561611  0.15625868  1
  Au  Au256  1  0.49904056  0.16867473  0.16524671  1
  Au  Au257  1  0.16912552  0.49884463  0.32247372  1
  Au  Au258  1  -0.00112964  0.18081583  0.83605656  1
  Au  Au259  1  0.17592337  0.17454699  0.49787665  1
  Au  Au260  1  0.00089434  0.17914326  0.33276028  1
  Au  Au261  1  0.67173251  0.66654656  0.00375546  1
  Au  Au262  1  0.66292727  0.49663664  0.32819299  1
  Au  Au263  1  0.82880844  0.67209093  0.49860702  1
  Au  Au264  1  0.83154337  0.50016519  0.67728708  1
  Au  Au265  1  0.67725820  0.84175520  -0.00096064  1
  Au  Au266  1  0.17146822  0.66399602  0.49908336  1
  Au  Au267  1  0.84386095  0.50148780  0.31990752  1
  Au  Au268  1  0.15636525  0.00142901  0.66241187  1
  Au  Au269  1  0.68150671  0.33915908  0.00319168  1
  Au  Au270  1  0.33179027  0.50114939  0.66139295  1
  Au  Au271  1  0.67137942  0.00050942  0.66896779  1
  Au  Au272  1  0.50288636  0.33083035  0.84163281  1
  Au  Au273  1  0.65906515  0.17274864  0.49859085  1
  Au  Au274  1  0.49919974  0.67452297  0.33183639  1
  Au  Au275  1  0.49843688  0.15610232  0.82562385  1
  Au  Au276  1  0.50540014  0.32793004  0.65402702  1
  Au  Au277  1  0.82565505  -0.00292269  0.33479244  1
  Au  Au278  1  0.33669051  0.50661812  0.83488901  1
  Au  Au279  1  0.66494713  -0.00119039  0.17926611  1
  Au  Au280  1  0.17799159  0.84589991  0.49297293  1
  Au  Au281  1  0.33618609  0.33861585  0.00388598  1
  Au  Au282  1  0.50272968  0.66433517  0.66047793  1
  Au  Au283  1  0.83576018  0.15632040  0.50475795  1
  Au  Au284  1  0.17087948  -0.00413617  0.84967872  1
  Au  Au285  1  0.34856638  -0.00104883  0.67184860  1
  Au  Au286  1  0.32552020  0.15803188  -0.00424963  1
  Au  Au287  1  0.49875024  0.83212986  0.83208131  1
