# generated using pymatgen
data_Ca24Ti8Al207Au49
_symmetry_space_group_name_H-M   'P 1'
_cell_length_a   17.32515988
_cell_length_b   17.32631426
_cell_length_c   17.32380011
_cell_angle_alpha   89.99936023
_cell_angle_beta   90.00153975
_cell_angle_gamma   90.00312413
_symmetry_Int_Tables_number   1
_chemical_formula_structural   Ca24Ti8Al207Au49
_chemical_formula_sum   'Ca24 Ti8 Al207 Au49'
_cell_volume   5200.27848135
_cell_formula_units_Z   1
loop_
 _symmetry_equiv_pos_site_id
 _symmetry_equiv_pos_as_xyz
  1  'x, y, z'
loop_
 _atom_site_type_symbol
 _atom_site_label
 _atom_site_symmetry_multiplicity
 _atom_site_fract_x
 _atom_site_fract_y
 _atom_site_fract_z
 _atom_site_occupancy
  Ca  Ca0  1  0.25200133  -0.00079367  -0.00100734  1
  Ca  Ca1  1  0.24545766  0.00317603  0.50226954  1
  Ca  Ca2  1  0.25202864  0.50058730  0.00381002  1
  Ca  Ca3  1  0.25441130  0.49820371  0.49658515  1
  Ca  Ca4  1  0.74984109  0.00088893  -0.00059619  1
  Ca  Ca5  1  0.74944539  -0.00391362  0.49907277  1
  Ca  Ca6  1  0.74639291  0.49768610  -0.00123595  1
  Ca  Ca7  1  0.74711948  0.50523799  0.50078582  1
  Ca  Ca8  1  -0.00339297  0.25034055  -0.00258422  1
  Ca  Ca9  1  0.00424543  0.24408589  0.50263890  1
  Ca  Ca10  1  -0.00321034  0.75108947  0.00257617  1
  Ca  Ca11  1  -0.00288949  0.75577377  0.49728974  1
  Ca  Ca12  1  0.50304530  0.25654745  0.00165188  1
  Ca  Ca13  1  0.49660590  0.24974384  0.49824207  1
  Ca  Ca14  1  0.50183755  0.74725218  0.00014145  1
  Ca  Ca15  1  0.50344719  0.75177795  0.50043979  1
  Ca  Ca16  1  -0.00346258  -0.00246771  0.25486443  1
  Ca  Ca17  1  -0.00002941  0.00479446  0.74938423  1
  Ca  Ca18  1  0.00289082  0.49961758  0.24782880  1
  Ca  Ca19  1  -0.00202689  0.49518676  0.75510822  1
  Ca  Ca20  1  0.50181862  0.00180591  0.25073147  1
  Ca  Ca21  1  0.50307422  0.00098662  0.75186812  1
  Ca  Ca22  1  0.50130984  0.49874149  0.24755002  1
  Ca  Ca23  1  0.50214565  0.49902610  0.75403772  1
  Ti  Ti24  1  0.25197002  0.24919562  0.24988731  1
  Ti  Ti25  1  0.25179948  0.25121618  0.74977601  1
  Ti  Ti26  1  0.25052544  0.74977887  0.24913032  1
  Ti  Ti27  1  0.25080218  0.74906236  0.75069356  1
  Ti  Ti28  1  0.74847555  0.24914454  0.24814373  1
  Ti  Ti29  1  0.74795694  0.25109507  0.75148987  1
  Ti  Ti30  1  0.74879625  0.74947349  0.25099375  1
  Ti  Ti31  1  0.74867472  0.74959496  0.74937432  1
  Al  Al32  1  0.08161333  0.07704536  0.07829114  1
  Al  Al33  1  0.08892377  0.08818430  0.58789393  1
  Al  Al34  1  0.08754098  0.57679853  0.08993415  1
  Al  Al35  1  0.08141911  0.57802866  0.57563750  1
  Al  Al36  1  0.58758762  0.08869410  0.08402859  1
  Al  Al37  1  0.58837602  0.07637064  0.59028223  1
  Al  Al38  1  0.58799212  0.57486756  0.08466656  1
  Al  Al39  1  0.58851503  0.58846225  0.57869390  1
  Al  Al40  1  0.41773013  0.41461976  0.09744802  1
  Al  Al41  1  0.41846636  0.41727003  0.58425120  1
  Al  Al42  1  0.42069459  0.91766055  0.07771732  1
  Al  Al43  1  0.41369899  0.92306488  0.58709857  1
  Al  Al44  1  0.91194733  0.41078085  0.07832123  1
  Al  Al45  1  0.92212850  0.42622029  0.59149117  1
  Al  Al46  1  0.91154154  0.91672708  0.09048016  1
  Al  Al47  1  0.90806953  0.92157291  0.57972349  1
  Al  Al48  1  0.41972888  0.08790189  0.41578465  1
  Al  Al49  1  0.42100509  0.07982986  0.91788804  1
  Al  Al50  1  0.41285902  0.57222028  0.41352217  1
  Al  Al51  1  0.41388557  0.57642815  0.91455639  1
  Al  Al52  1  0.91827607  0.07181929  0.41019847  1
  Al  Al53  1  0.91606929  0.08700569  0.90858720  1
  Al  Al54  1  0.91035031  0.58966058  0.41893425  1
  Al  Al55  1  0.91749919  0.57626908  0.91859005  1
  Al  Al56  1  0.08741449  0.41631331  0.41448264  1
  Al  Al57  1  0.07668340  0.41536055  0.91360774  1
  Al  Al58  1  0.07975104  0.91499908  0.41376957  1
  Al  Al59  1  0.08325118  0.92671264  0.91379208  1
  Al  Al60  1  0.57983736  0.41718647  0.39919233  1
  Al  Al61  1  0.58319019  0.41536779  0.91157318  1
  Al  Al62  1  0.58976604  0.92058716  0.41459865  1
  Al  Al63  1  0.58537721  0.91923553  0.91051373  1
  Al  Al64  1  0.08688041  0.08407727  0.42260553  1
  Al  Al65  1  0.07946726  0.08588004  0.90532650  1
  Al  Al66  1  0.08534258  0.58472768  0.41311875  1
  Al  Al67  1  0.08205915  0.57811285  0.91994245  1
  Al  Al68  1  0.58138634  0.08061725  0.40580595  1
  Al  Al69  1  0.59093922  0.08118267  0.91683939  1
  Al  Al70  1  0.59457520  0.57920898  0.41563550  1
  Al  Al71  1  0.58693596  0.57636058  0.91814454  1
  Al  Al72  1  0.41801221  0.41236939  0.39859144  1
  Al  Al73  1  0.41988892  0.41591616  0.90773906  1
  Al  Al74  1  0.42165284  0.92229944  0.42008601  1
  Al  Al75  1  0.42169290  0.91519153  0.91696203  1
  Al  Al76  1  0.92294145  0.42569695  0.41304559  1
  Al  Al77  1  0.91200866  0.40670800  0.91703172  1
  Al  Al78  1  0.91327463  0.91189804  0.40997761  1
  Al  Al79  1  0.91410991  0.91978847  0.91904168  1
  Al  Al80  1  0.08371707  0.42186246  0.09009265  1
  Al  Al81  1  0.08200202  0.41435655  0.58396970  1
  Al  Al82  1  0.07598665  0.91744396  0.08432021  1
  Al  Al83  1  0.08943531  0.92621344  0.58077933  1
  Al  Al84  1  0.58395945  0.41386433  0.09456393  1
  Al  Al85  1  0.57856930  0.42311108  0.58651088  1
  Al  Al86  1  0.58699210  0.92117568  0.08337145  1
  Al  Al87  1  0.59205926  0.91866339  0.58486793  1
  Al  Al88  1  0.42338431  0.08426732  0.08441921  1
  Al  Al89  1  0.41082576  0.08075754  0.58551534  1
  Al  Al90  1  0.41270016  0.57457964  0.08848536  1
  Al  Al91  1  0.42053033  0.57981197  0.58100074  1
  Al  Al92  1  0.90651300  0.07695153  0.08388352  1
  Al  Al93  1  0.91889532  0.07943603  0.59295909  1
  Al  Al94  1  0.92161086  0.57619826  0.07954077  1
  Al  Al95  1  0.90499275  0.58522706  0.57896332  1
  Al  Al96  1  0.25104595  0.13182166  0.13504631  1
  Al  Al97  1  0.24900738  0.13700445  0.62995902  1
  Al  Al98  1  0.25077889  0.63122727  0.13372764  1
  Al  Al99  1  0.25405763  0.63210598  0.63670679  1
  Al  Al100  1  0.75271304  0.13377922  0.13341589  1
  Al  Al101  1  0.74999077  0.13599646  0.63510562  1
  Al  Al102  1  0.74473520  0.63107899  0.13617938  1
  Al  Al103  1  0.74631399  0.63411862  0.63204865  1
  Al  Al104  1  0.25568555  0.36975934  0.13634336  1
  Al  Al105  1  0.25246033  0.36443859  0.63287907  1
  Al  Al106  1  0.24869530  0.86886089  0.13626893  1
  Al  Al107  1  0.24923946  0.86687152  0.63546742  1
  Al  Al108  1  0.74395637  0.36509422  0.13137248  1
  Al  Al109  1  0.74379370  0.36555077  0.63710651  1
  Al  Al110  1  0.75325663  0.86719355  0.13751224  1
  Al  Al111  1  0.74926623  0.86606185  0.63284247  1
  Al  Al112  1  0.25238362  0.13760262  0.37058910  1
  Al  Al113  1  0.25229463  0.13694876  0.86408703  1
  Al  Al114  1  0.25039600  0.63263594  0.36233020  1
  Al  Al115  1  0.25129422  0.63024779  0.86893178  1
  Al  Al116  1  0.74622665  0.13582210  0.36787160  1
  Al  Al117  1  0.74863504  0.13343353  0.86572741  1
  Al  Al118  1  0.74729969  0.63400150  0.36813310  1
  Al  Al119  1  0.74896452  0.62829520  0.86463177  1
  Al  Al120  1  0.25674437  0.36777975  0.36485206  1
  Al  Al121  1  0.25504719  0.36957324  0.86672264  1
  Al  Al122  1  0.25271033  0.86643820  0.36414523  1
  Al  Al123  1  0.25134289  0.86380870  0.86433895  1
  Al  Al124  1  0.74001143  0.37085572  0.35942301  1
  Al  Al125  1  0.74786378  0.36792470  0.86805343  1
  Al  Al126  1  0.74654184  0.86706629  0.36632306  1
  Al  Al127  1  0.74470620  0.86890588  0.86412064  1
  Al  Al128  1  0.14093682  0.25337564  0.13207545  1
  Al  Al129  1  0.13657120  0.24599378  0.63301385  1
  Al  Al130  1  0.13702313  0.74886237  0.13560967  1
  Al  Al131  1  0.13584697  0.74875594  0.63602662  1
  Al  Al132  1  0.62838329  0.25294767  0.13677654  1
  Al  Al133  1  0.63011594  0.25020196  0.63746041  1
  Al  Al134  1  0.63723502  0.75192639  0.13866348  1
  Al  Al135  1  0.63754615  0.74902451  0.62935276  1
  Al  Al136  1  0.13809700  0.24985130  0.36526929  1
  Al  Al137  1  0.13650230  0.24845693  0.86509281  1
  Al  Al138  1  0.13660795  0.75117171  0.36282626  1
  Al  Al139  1  0.13787145  0.74909008  0.86631549  1
  Al  Al140  1  0.63258640  0.25382319  0.36223027  1
  Al  Al141  1  0.63152969  0.25917532  0.86584178  1
  Al  Al142  1  0.63876001  0.74709755  0.37152919  1
  Al  Al143  1  0.63661324  0.74815655  0.86213268  1
  Al  Al144  1  0.37194401  0.25391867  0.13808292  1
  Al  Al145  1  0.36830934  0.24979639  0.63269049  1
  Al  Al146  1  0.36330110  0.74586128  0.13804440  1
  Al  Al147  1  0.36500595  0.75124911  0.63500512  1
  Al  Al148  1  0.86023089  0.25218393  0.12752867  1
  Al  Al149  1  0.86321793  0.24949032  0.63595083  1
  Al  Al150  1  0.86261263  0.75099145  0.13667220  1
  Al  Al151  1  0.86067955  0.74597954  0.63110624  1
  Al  Al152  1  0.36624807  0.25228304  0.36654916  1
  Al  Al153  1  0.37030290  0.25669440  0.86411939  1
  Al  Al154  1  0.36233430  0.74927937  0.36591058  1
  Al  Al155  1  0.36476361  0.74300881  0.86416287  1
  Al  Al156  1  0.86143193  0.24821887  0.36470152  1
  Al  Al157  1  0.85942717  0.24916442  0.86962163  1
  Al  Al158  1  0.86104713  0.75077305  0.36573006  1
  Al  Al159  1  0.86032251  0.75207974  0.86309798  1
  Al  Al160  1  0.13720354  0.13525321  0.24986388  1
  Al  Al161  1  0.13733334  0.13506184  0.74706829  1
  Al  Al162  1  0.13619207  0.63152672  0.24794434  1
  Al  Al163  1  0.13776203  0.63269247  0.75300713  1
  Al  Al164  1  0.63366306  0.13473222  0.24900056  1
  Al  Al165  1  0.63466471  0.13434354  0.75388617  1
  Al  Al166  1  0.63717854  0.62939676  0.25264382  1
  Al  Al167  1  0.63659786  0.62879651  0.75009103  1
  Al  Al168  1  0.36390119  0.13079368  0.24962693  1
  Al  Al169  1  0.36679392  0.13681312  0.74899353  1
  Al  Al170  1  0.36366440  0.62858964  0.24926764  1
  Al  Al171  1  0.36611640  0.62905607  0.75202386  1
  Al  Al172  1  0.86237480  0.13506569  0.24805331  1
  Al  Al173  1  0.86453550  0.13673733  0.75097153  1
  Al  Al174  1  0.86138218  0.63646375  0.25186726  1
  Al  Al175  1  0.86085078  0.63572482  0.75131749  1
  Al  Al176  1  0.13838176  0.36461952  0.24826698  1
  Al  Al177  1  0.13610861  0.36392260  0.75170387  1
  Al  Al178  1  0.13432765  0.86508172  0.25229744  1
  Al  Al179  1  0.13709089  0.86587836  0.74804627  1
  Al  Al180  1  0.63024668  0.36646412  0.24602690  1
  Al  Al181  1  0.63178080  0.36967126  0.75197720  1
  Al  Al182  1  0.63670609  0.86714762  0.25346677  1
  Al  Al183  1  0.63522742  0.86426119  0.74782336  1
  Al  Al184  1  0.36822345  0.36698498  0.24996549  1
  Al  Al185  1  0.36882067  0.36702854  0.74803665  1
  Al  Al186  1  0.36394833  0.86907832  0.24824927  1
  Al  Al187  1  0.36473310  0.86469155  0.74988776  1
  Al  Al188  1  0.86250857  0.36151201  0.25032894  1
  Al  Al189  1  0.86239273  0.36493122  0.75519373  1
  Al  Al190  1  0.86414209  0.86480822  0.25336627  1
  Al  Al191  1  0.86191597  0.86606913  0.74684499  1
  Al  Al192  1  0.17647575  0.17312834  -0.00426161  1
  Al  Al193  1  0.50074454  0.82824909  0.32631220  1
  Al  Al194  1  0.00044104  0.18072491  0.68712633  1
  Al  Al195  1  0.81922124  0.81710049  0.49905310  1
  Al  Al196  1  0.82493959  0.33191375  0.50096707  1
  Al  Al197  1  0.50188896  0.67080238  0.17065609  1
  Al  Al198  1  -0.00049044  0.82732361  0.82950330  1
  Al  Al199  1  0.82817524  0.67194957  0.00057222  1
  Al  Al200  1  0.17055995  0.82476968  -0.00102442  1
  Al  Al201  1  0.69493670  0.00052715  0.69368334  1
  Al  Al202  1  -0.00083565  0.67273236  0.17170148  1
  Al  Al203  1  0.49880242  0.18658884  0.31707508  1
  Al  Al204  1  0.50201207  0.17604703  0.82438816  1
  Al  Al205  1  0.30901230  0.00231438  0.68401563  1
  Al  Al206  1  0.81695731  0.50006714  0.68367545  1
  Al  Al207  1  -0.00111828  0.69064467  0.32848169  1
  Al  Al208  1  0.81976865  0.50183826  0.31947851  1
  Al  Al209  1  0.17887937  0.50177292  0.67830347  1
  Al  Al210  1  0.68526239  -0.00101818  0.18564520  1
  Al  Al211  1  0.17910151  0.00152749  0.32360822  1
  Al  Al212  1  0.66376379  0.32464650  0.49794681  1
  Al  Al213  1  0.50001104  0.81721924  0.82008688  1
  Al  Al214  1  0.67455766  0.67973471  0.00068970  1
  Al  Al215  1  0.68233854  0.18545923  0.00038305  1
  Al  Al216  1  -0.00189674  0.30843031  0.82050025  1
  Al  Al217  1  0.32783855  0.32767560  -0.00166834  1
  Al  Al218  1  0.82567545  0.16385263  0.49942135  1
  Al  Al219  1  0.18398063  0.49695894  0.31648789  1
  Al  Al220  1  -0.00173960  0.67196520  0.67131898  1
  Al  Al221  1  0.17952239  0.31944923  0.50240147  1
  Al  Al222  1  0.80793917  0.00050999  0.30853912  1
  Al  Al223  1  0.81900323  0.49986432  0.17549639  1
  Al  Al224  1  -0.00066455  0.32719093  0.17905417  1
  Al  Al225  1  0.81560498  0.00263532  0.81353823  1
  Al  Al226  1  -0.00115408  0.82479309  0.18666558  1
  Al  Al227  1  -0.00085207  0.67414489  0.82900481  1
  Al  Al228  1  0.49991017  0.67647690  0.32560150  1
  Al  Al229  1  0.49999234  0.82628518  0.17244432  1
  Al  Al230  1  0.32749227  0.81700975  0.00029317  1
  Al  Al231  1  0.00111756  0.17933594  0.32867573  1
  Al  Al232  1  0.18260352  0.00111080  0.80987776  1
  Al  Al233  1  0.81792216  0.82571809  0.00000182  1
  Al  Al234  1  0.32289794  0.67582656  0.49794347  1
  Al  Al235  1  0.00042308  0.83006331  0.67288711  1
  Al  Al236  1  0.50078827  0.67847483  0.67749313  1
  Al  Al237  1  0.17891335  0.82280748  0.49917990  1
  Al  Al238  1  -0.00033509  0.17711441  0.17170162  1
  Au  Au239  1  0.50182906  0.66163469  0.33164081  1
  Au  Au240  1  0.33318743  0.33797446  0.00304775  1
  Au  Au241  1  -0.00146432  0.32823790  0.67464013  1
  Au  Au242  1  0.33361461  -0.00162153  0.16472763  1
  Au  Au243  1  0.49986727  0.16721448  0.66504605  1
  Au  Au244  1  0.66750079  0.83033228  -0.00265941  1
  Au  Au245  1  0.82728527  0.49775263  0.16645659  1
  Au  Au246  1  0.82437957  -0.00090417  0.82217084  1
  Au  Au247  1  0.50156499  0.66995593  0.66821284  1
  Au  Au248  1  -0.00524149  0.16136130  0.17137252  1
  Au  Au249  1  0.17532581  0.49808721  0.83584183  1
  Au  Au250  1  -0.00242895  0.67410615  0.32407067  1
  Au  Au251  1  0.83071376  0.17182027  -0.00182313  1
  Au  Au252  1  0.50042935  0.33385043  0.67735732  1
  Au  Au253  1  -0.00200042  0.65935490  0.67423189  1
  Au  Au254  1  0.81711168  0.50312007  0.33174385  1
  Au  Au255  1  0.84079431  0.33889716  0.50365328  1
  Au  Au256  1  0.50064946  0.17749389  0.17012284  1
  Au  Au257  1  0.16782931  0.16433113  -0.00226536  1
  Au  Au258  1  0.50130508  0.84209492  0.67304428  1
  Au  Au259  1  0.16223834  0.33616430  0.00241274  1
  Au  Au260  1  0.16589001  0.67467259  0.50029385  1
  Au  Au261  1  0.16615783  0.66456656  0.00347992  1
  Au  Au262  1  0.50260436  0.66665440  0.83702243  1
  Au  Au263  1  0.67630144  0.00208416  0.17668430  1
  Au  Au264  1  0.32820175  0.83988275  0.50064507  1
  Au  Au265  1  0.32992884  -0.00318565  0.83059154  1
  Au  Au266  1  0.33557158  0.33443896  0.49562598  1
  Au  Au267  1  0.16286952  -0.00219593  0.17515990  1
  Au  Au268  1  -0.00016301  0.33066781  0.32965823  1
  Au  Au269  1  0.66312044  0.15989538  0.49748612  1
  Au  Au270  1  0.33565386  0.49863020  0.67781816  1
  Au  Au271  1  0.82668436  0.49727857  0.83354315  1
  Au  Au272  1  0.17104339  0.83732852  -0.00341501  1
  Au  Au273  1  0.67026517  0.50176239  0.67200977  1
  Au  Au274  1  0.33694832  0.66671599  0.00217811  1
  Au  Au275  1  0.33249825  0.16522791  0.00083705  1
  Au  Au276  1  0.32947650  0.00173318  0.33437665  1
  Au  Au277  1  0.50380172  0.17866495  0.83682090  1
  Au  Au278  1  0.17031737  0.32775727  0.49997784  1
  Au  Au279  1  0.66603361  0.33688825  0.49665983  1
  Au  Au280  1  0.00021503  0.84247657  0.66673644  1
  Au  Au281  1  0.66871780  0.33481961  0.00056076  1
  Au  Au282  1  0.32474744  0.16546045  0.50068093  1
  Au  Au283  1  0.17019463  0.49954156  0.66954864  1
  Au  Au284  1  0.17505504  0.49980203  0.32546291  1
  Au  Au285  1  0.67043307  0.82532935  0.49856619  1
  Au  Au286  1  0.33004046  0.66544738  0.49866835  1
  Au  Au287  1  0.83808534  0.16366302  0.49697863  1
