# generated using pymatgen
data_Ca24Ti8Al207Au49
_symmetry_space_group_name_H-M   'P 1'
_cell_length_a   17.32133061
_cell_length_b   17.32377065
_cell_length_c   17.32379862
_cell_angle_alpha   90.00199115
_cell_angle_beta   90.00230350
_cell_angle_gamma   89.99847842
_symmetry_Int_Tables_number   1
_chemical_formula_structural   Ca24Ti8Al207Au49
_chemical_formula_sum   'Ca24 Ti8 Al207 Au49'
_cell_volume   5198.36538652
_cell_formula_units_Z   1
loop_
 _symmetry_equiv_pos_site_id
 _symmetry_equiv_pos_as_xyz
  1  'x, y, z'
loop_
 _atom_site_type_symbol
 _atom_site_label
 _atom_site_symmetry_multiplicity
 _atom_site_fract_x
 _atom_site_fract_y
 _atom_site_fract_z
 _atom_site_occupancy
  Ca  Ca0  1  0.25413593  -0.00260428  0.00196035  1
  Ca  Ca1  1  0.25089397  0.00152144  0.49750570  1
  Ca  Ca2  1  0.24868787  0.50051909  -0.00038168  1
  Ca  Ca3  1  0.24912529  0.50251763  0.49948424  1
  Ca  Ca4  1  0.74767119  0.00220603  0.00020575  1
  Ca  Ca5  1  0.75012131  0.00327666  0.50157914  1
  Ca  Ca6  1  0.74936074  0.49735278  -0.00037565  1
  Ca  Ca7  1  0.74967934  0.50181562  0.49928881  1
  Ca  Ca8  1  -0.00151122  0.25214161  -0.00313314  1
  Ca  Ca9  1  -0.00459915  0.25313264  0.50003072  1
  Ca  Ca10  1  -0.00461455  0.74878432  -0.00163943  1
  Ca  Ca11  1  -0.00087505  0.74496294  0.50305362  1
  Ca  Ca12  1  0.50304976  0.25053375  -0.00220734  1
  Ca  Ca13  1  0.50249961  0.24885348  0.50232337  1
  Ca  Ca14  1  0.50439293  0.74948990  0.00097441  1
  Ca  Ca15  1  0.50178289  0.74886348  0.49742845  1
  Ca  Ca16  1  0.00178498  -0.00410800  0.25361892  1
  Ca  Ca17  1  -0.00095239  0.00152353  0.74735587  1
  Ca  Ca18  1  -0.00159443  0.50182316  0.25840182  1
  Ca  Ca19  1  -0.00407100  0.49497374  0.74648992  1
  Ca  Ca20  1  0.50135043  -0.00221572  0.24881940  1
  Ca  Ca21  1  0.50092635  -0.00089463  0.74877453  1
  Ca  Ca22  1  0.50070239  0.50254842  0.25377392  1
  Ca  Ca23  1  0.50601957  0.50085562  0.74859739  1
  Ti  Ti24  1  0.25227197  0.24943029  0.25218951  1
  Ti  Ti25  1  0.25025126  0.24975883  0.74923054  1
  Ti  Ti26  1  0.25193523  0.74977346  0.25133476  1
  Ti  Ti27  1  0.25262055  0.75012065  0.74935962  1
  Ti  Ti28  1  0.74957415  0.25207306  0.25105054  1
  Ti  Ti29  1  0.75063504  0.25058516  0.75050686  1
  Ti  Ti30  1  0.74795313  0.74850852  0.25160428  1
  Ti  Ti31  1  0.74788989  0.74989682  0.74900126  1
  Al  Al32  1  0.08114115  0.07512063  0.08921391  1
  Al  Al33  1  0.07176007  0.07794566  0.58249275  1
  Al  Al34  1  0.07823880  0.58300041  0.08292325  1
  Al  Al35  1  0.08788347  0.58807052  0.57593870  1
  Al  Al36  1  0.57844221  0.08953226  0.08526772  1
  Al  Al37  1  0.58504755  0.09945071  0.58273967  1
  Al  Al38  1  0.57940926  0.58117855  0.08555290  1
  Al  Al39  1  0.58824189  0.58567976  0.58926799  1
  Al  Al40  1  0.41971586  0.42144915  0.08189548  1
  Al  Al41  1  0.42930036  0.41020265  0.58629452  1
  Al  Al42  1  0.42159036  0.91707349  0.09421180  1
  Al  Al43  1  0.41895433  0.92195254  0.58221659  1
  Al  Al44  1  0.90694446  0.41474444  0.07616299  1
  Al  Al45  1  0.91226835  0.40375460  0.58356531  1
  Al  Al46  1  0.90943676  0.91522578  0.07479400  1
  Al  Al47  1  0.91037812  0.91326891  0.58093064  1
  Al  Al48  1  0.41315474  0.07583895  0.41213915  1
  Al  Al49  1  0.41661565  0.08302959  0.91889219  1
  Al  Al50  1  0.41757606  0.58682997  0.40393055  1
  Al  Al51  1  0.42209214  0.57963728  0.91537298  1
  Al  Al52  1  0.90824869  0.08835799  0.42517578  1
  Al  Al53  1  0.91811251  0.08524272  0.91798601  1
  Al  Al54  1  0.91175243  0.58921516  0.41105702  1
  Al  Al55  1  0.91361685  0.58013971  0.92125259  1
  Al  Al56  1  0.07524968  0.43262307  0.42130648  1
  Al  Al57  1  0.07286359  0.41246722  0.90455487  1
  Al  Al58  1  0.10050812  0.90927236  0.41637207  1
  Al  Al59  1  0.09044695  0.92188887  0.91719437  1
  Al  Al60  1  0.58680209  0.42148491  0.42551665  1
  Al  Al61  1  0.59671759  0.41426728  0.91177444  1
  Al  Al62  1  0.58285257  0.91480104  0.41592844  1
  Al  Al63  1  0.58341904  0.91353802  0.92392076  1
  Al  Al64  1  0.08552299  0.06741724  0.40910100  1
  Al  Al65  1  0.08339632  0.07683028  0.90272236  1
  Al  Al66  1  0.08452008  0.59540455  0.41312722  1
  Al  Al67  1  0.07898376  0.57733712  0.91822361  1
  Al  Al68  1  0.59035786  0.08725378  0.42283868  1
  Al  Al69  1  0.58061884  0.08457413  0.92243298  1
  Al  Al70  1  0.57996350  0.58862894  0.41571270  1
  Al  Al71  1  0.58870116  0.57583599  0.90870548  1
  Al  Al72  1  0.40969832  0.42848878  0.41452978  1
  Al  Al73  1  0.42373702  0.42173214  0.91590534  1
  Al  Al74  1  0.41232555  0.91795567  0.40569607  1
  Al  Al75  1  0.41915367  0.92193175  0.91555644  1
  Al  Al76  1  0.90287790  0.42429435  0.42209426  1
  Al  Al77  1  0.91181249  0.40626341  0.91277600  1
  Al  Al78  1  0.91141894  0.91142072  0.42491793  1
  Al  Al79  1  0.90979016  0.91297330  0.92029519  1
  Al  Al80  1  0.07345061  0.42795642  0.07732976  1
  Al  Al81  1  0.07144884  0.41782081  0.59346804  1
  Al  Al82  1  0.09035841  0.92252042  0.07990024  1
  Al  Al83  1  0.08800139  0.90959141  0.57467219  1
  Al  Al84  1  0.59047374  0.41231486  0.07482497  1
  Al  Al85  1  0.58869280  0.41252820  0.59165779  1
  Al  Al86  1  0.58163659  0.90903524  0.08523693  1
  Al  Al87  1  0.58038913  0.91546728  0.57638944  1
  Al  Al88  1  0.41835773  0.08679368  0.08988019  1
  Al  Al89  1  0.42470827  0.08445792  0.59321615  1
  Al  Al90  1  0.41991978  0.58350805  0.08856684  1
  Al  Al91  1  0.42976580  0.58743208  0.58307891  1
  Al  Al92  1  0.91929314  0.08320135  0.07645898  1
  Al  Al93  1  0.90808478  0.09152228  0.58316771  1
  Al  Al94  1  0.91242281  0.58369385  0.08341349  1
  Al  Al95  1  0.91564123  0.58548048  0.57296613  1
  Al  Al96  1  0.25425652  0.13312068  0.13792679  1
  Al  Al97  1  0.24985047  0.13768991  0.63359274  1
  Al  Al98  1  0.25470728  0.63851237  0.13594729  1
  Al  Al99  1  0.24544155  0.64007835  0.63248215  1
  Al  Al100  1  0.74997583  0.13761529  0.13387460  1
  Al  Al101  1  0.75040386  0.14031989  0.62953374  1
  Al  Al102  1  0.75081444  0.63584588  0.13862401  1
  Al  Al103  1  0.75171767  0.63618144  0.63449609  1
  Al  Al104  1  0.25527241  0.36187904  0.13556228  1
  Al  Al105  1  0.25170699  0.36018451  0.63621296  1
  Al  Al106  1  0.25351498  0.86427671  0.14017730  1
  Al  Al107  1  0.24698817  0.86207739  0.63457453  1
  Al  Al108  1  0.74935172  0.36340703  0.13057425  1
  Al  Al109  1  0.75427108  0.36464852  0.63433575  1
  Al  Al110  1  0.75095068  0.86226558  0.13811974  1
  Al  Al111  1  0.75088139  0.86362546  0.63418067  1
  Al  Al112  1  0.25322484  0.13139776  0.36497561  1
  Al  Al113  1  0.25070960  0.13239613  0.86146324  1
  Al  Al114  1  0.25208874  0.63799068  0.36454679  1
  Al  Al115  1  0.25151595  0.63687698  0.86441082  1
  Al  Al116  1  0.75054767  0.13896643  0.36951633  1
  Al  Al117  1  0.74846608  0.13514099  0.86342695  1
  Al  Al118  1  0.75216412  0.63115147  0.36451513  1
  Al  Al119  1  0.74596241  0.63328567  0.86274424  1
  Al  Al120  1  0.25495706  0.36609572  0.36839820  1
  Al  Al121  1  0.25105797  0.36347534  0.86166006  1
  Al  Al122  1  0.24921453  0.86463734  0.36377587  1
  Al  Al123  1  0.25227236  0.87052765  0.86118239  1
  Al  Al124  1  0.75098079  0.36973922  0.36939953  1
  Al  Al125  1  0.74677598  0.36501640  0.86572636  1
  Al  Al126  1  0.75273543  0.86018111  0.36540963  1
  Al  Al127  1  0.74923385  0.86837890  0.86262557  1
  Al  Al128  1  0.13829701  0.24980371  0.13927146  1
  Al  Al129  1  0.12865773  0.25189323  0.63576148  1
  Al  Al130  1  0.13589577  0.74730573  0.13881070  1
  Al  Al131  1  0.13424420  0.74935176  0.63223367  1
  Al  Al132  1  0.63557193  0.25069778  0.13618190  1
  Al  Al133  1  0.63423903  0.25032951  0.63473235  1
  Al  Al134  1  0.62953785  0.75046144  0.13775852  1
  Al  Al135  1  0.63002331  0.74914574  0.63495292  1
  Al  Al136  1  0.13743001  0.25303193  0.36595459  1
  Al  Al137  1  0.13125559  0.25613577  0.86239409  1
  Al  Al138  1  0.13686504  0.74792585  0.37105482  1
  Al  Al139  1  0.13754031  0.74864797  0.86542170  1
  Al  Al140  1  0.63448020  0.24804362  0.36761636  1
  Al  Al141  1  0.63294257  0.25505517  0.86573939  1
  Al  Al142  1  0.63022155  0.74966478  0.36515955  1
  Al  Al143  1  0.62950234  0.74877439  0.86352921  1
  Al  Al144  1  0.36838485  0.24770180  0.13889049  1
  Al  Al145  1  0.36783902  0.24822051  0.63285810  1
  Al  Al146  1  0.37582353  0.75017090  0.14392288  1
  Al  Al147  1  0.37091514  0.74855807  0.63304691  1
  Al  Al148  1  0.86255198  0.25471826  0.13673068  1
  Al  Al149  1  0.86650783  0.25151999  0.63317273  1
  Al  Al150  1  0.86673257  0.74796738  0.13946391  1
  Al  Al151  1  0.86320242  0.75037102  0.63005470  1
  Al  Al152  1  0.36533848  0.24644438  0.37083731  1
  Al  Al153  1  0.36573016  0.25069422  0.86337632  1
  Al  Al154  1  0.37346929  0.75161186  0.36472013  1
  Al  Al155  1  0.37403907  0.74653291  0.85939235  1
  Al  Al156  1  0.86312060  0.25386560  0.36903422  1
  Al  Al157  1  0.86780487  0.25775523  0.86439995  1
  Al  Al158  1  0.86602452  0.74342078  0.36942859  1
  Al  Al159  1  0.86228114  0.74976932  0.86365627  1
  Al  Al160  1  0.13795879  0.13335494  0.25427064  1
  Al  Al161  1  0.13415866  0.13501300  0.75198953  1
  Al  Al162  1  0.12989208  0.63766421  0.25535322  1
  Al  Al163  1  0.13504427  0.63703931  0.75153008  1
  Al  Al164  1  0.63635387  0.13649458  0.24922761  1
  Al  Al165  1  0.63492090  0.13768067  0.74748239  1
  Al  Al166  1  0.62903759  0.63426054  0.25255028  1
  Al  Al167  1  0.63162115  0.63580106  0.74825895  1
  Al  Al168  1  0.36664008  0.13075565  0.25105123  1
  Al  Al169  1  0.36694098  0.13591898  0.74768496  1
  Al  Al170  1  0.37152665  0.63479681  0.25454148  1
  Al  Al171  1  0.37024643  0.63590997  0.74647130  1
  Al  Al172  1  0.86011503  0.13524009  0.25171160  1
  Al  Al173  1  0.86439736  0.13873359  0.75094394  1
  Al  Al174  1  0.86741728  0.63227353  0.25359190  1
  Al  Al175  1  0.86301912  0.63397356  0.74956778  1
  Al  Al176  1  0.13513022  0.36576690  0.25354992  1
  Al  Al177  1  0.13306465  0.36557731  0.74929683  1
  Al  Al178  1  0.13304052  0.86439303  0.25576109  1
  Al  Al179  1  0.13787616  0.86251736  0.75149990  1
  Al  Al180  1  0.63615489  0.36657522  0.25486200  1
  Al  Al181  1  0.63506583  0.36309011  0.74850429  1
  Al  Al182  1  0.63029924  0.86311458  0.25207291  1
  Al  Al183  1  0.63013791  0.86353268  0.75056104  1
  Al  Al184  1  0.36942469  0.36288662  0.25564486  1
  Al  Al185  1  0.37258042  0.36113430  0.74632671  1
  Al  Al186  1  0.36700113  0.86927950  0.25358456  1
  Al  Al187  1  0.37078978  0.86395349  0.75001702  1
  Al  Al188  1  0.86127615  0.37092864  0.25431206  1
  Al  Al189  1  0.86718195  0.36603568  0.74801551  1
  Al  Al190  1  0.86566177  0.86378314  0.25414852  1
  Al  Al191  1  0.86226228  0.86328774  0.74984428  1
  Al  Al192  1  0.16974038  0.16643432  -0.00088052  1
  Al  Al193  1  0.67122086  0.66965286  0.00007520  1
  Al  Al194  1  -0.00182227  0.32874013  0.17724339  1
  Al  Al195  1  0.17548355  0.16934438  0.49718856  1
  Al  Al196  1  0.68172762  0.49980401  0.68722843  1
  Al  Al197  1  0.18378882  0.50245048  0.32750761  1
  Al  Al198  1  0.00158542  0.82451958  0.16902299  1
  Al  Al199  1  0.32796699  0.49932808  0.19213681  1
  Al  Al200  1  -0.00035629  0.17269705  0.17372768  1
  Al  Al201  1  0.68195128  0.67383248  0.49967184  1
  Al  Al202  1  0.18319501  -0.00138753  0.18753283  1
  Al  Al203  1  0.00078579  0.82199132  0.82898657  1
  Al  Al204  1  0.17416062  0.50154652  0.67791243  1
  Al  Al205  1  0.82797820  0.00111449  0.17777536  1
  Al  Al206  1  0.32433176  -0.00047672  0.68198608  1
  Al  Al207  1  0.33315471  0.82008634  0.00268754  1
  Al  Al208  1  0.68934851  0.82146759  0.00083834  1
  Al  Al209  1  0.32728883  0.50053974  0.66674997  1
  Al  Al210  1  0.81573267  0.49790925  0.82076962  1
  Al  Al211  1  -0.00019444  0.17700457  0.32843438  1
  Al  Al212  1  0.68418706  0.82523426  0.49967947  1
  Al  Al213  1  0.31850299  0.67097234  0.49925107  1
  Al  Al214  1  0.67361275  0.18428691  0.00001320  1
  Al  Al215  1  0.82544849  0.18614571  -0.00123327  1
  Al  Al216  1  0.17192291  0.50123289  0.17504598  1
  Al  Al217  1  0.67008347  -0.00070265  0.17260272  1
  Al  Al218  1  0.32167206  0.67341941  -0.00092976  1
  Al  Al219  1  -0.00031400  0.82661393  0.67085862  1
  Al  Al220  1  0.68669294  0.31223738  0.50081322  1
  Al  Al221  1  0.82626107  0.00145625  0.67977348  1
  Al  Al222  1  -0.00097333  0.67162280  0.67450473  1
  Al  Al223  1  0.67065837  0.00114397  0.67540944  1
  Al  Al224  1  0.17433235  0.33250004  0.50269813  1
  Al  Al225  1  0.67619477  0.49751583  0.17973509  1
  Al  Al226  1  0.82183068  0.68711881  0.00045858  1
  Al  Al227  1  0.50008690  0.18128849  0.81652462  1
  Al  Al228  1  0.17744202  0.32902442  0.00066842  1
  Al  Al229  1  0.17681170  0.82177752  0.00000049  1
  Al  Al230  1  0.50282067  0.31824154  0.17693680  1
  Al  Al231  1  0.31882027  0.49959640  0.82509514  1
  Al  Al232  1  0.50107809  0.17569586  0.31922868  1
  Al  Al233  1  0.00021377  0.81678727  0.33380524  1
  Al  Al234  1  0.67853619  0.00011697  0.32673393  1
  Al  Al235  1  0.32663893  0.17932698  0.00102921  1
  Al  Al236  1  0.16795905  -0.00041007  0.68403626  1
  Al  Al237  1  0.31583699  0.82951652  0.49964955  1
  Al  Al238  1  -0.00055297  0.17971502  0.81784145  1
  Au  Au239  1  0.83134218  0.49905487  0.17352925  1
  Au  Au240  1  -0.00154522  0.18008561  0.83045926  1
  Au  Au241  1  0.33201157  0.66196942  0.49920450  1
  Au  Au242  1  0.00140790  0.83197891  0.15478810  1
  Au  Au243  1  0.34237176  0.49982321  0.67445286  1
  Au  Au244  1  0.50242346  0.67412295  0.17435069  1
  Au  Au245  1  0.32591541  0.00214372  0.83170810  1
  Au  Au246  1  -0.00131258  0.66018037  0.17915344  1
  Au  Au247  1  0.00115611  0.82306303  0.34849757  1
  Au  Au248  1  0.50150344  0.16120289  0.32756587  1
  Au  Au249  1  0.32077318  0.84516134  0.49929677  1
  Au  Au250  1  0.50345431  0.34171317  0.82084084  1
  Au  Au251  1  0.67503199  0.32435884  0.50381811  1
  Au  Au252  1  0.15764358  0.67343713  0.00025572  1
  Au  Au253  1  -0.00371274  0.65728871  0.82414035  1
  Au  Au254  1  0.49949132  0.82372919  0.66046636  1
  Au  Au255  1  -0.00312889  0.18042191  0.66481735  1
  Au  Au256  1  0.50299707  0.32569166  0.16175533  1
  Au  Au257  1  0.34164929  0.32804872  -0.00406897  1
  Au  Au258  1  0.82556691  -0.00145882  0.34219758  1
  Au  Au259  1  0.32322716  0.49903324  0.17552010  1
  Au  Au260  1  0.50016655  0.16641809  0.82439067  1
  Au  Au261  1  0.82835096  0.50089023  0.65607124  1
  Au  Au262  1  0.82507544  0.00209230  0.16534182  1
  Au  Au263  1  0.49946442  0.34195904  0.33610405  1
  Au  Au264  1  0.66873246  -0.00013318  0.84060348  1
  Au  Au265  1  0.67222904  0.49619030  0.16811140  1
  Au  Au266  1  0.00433441  0.83792409  0.82830370  1
  Au  Au267  1  0.16490086  0.15711592  0.49658370  1
  Au  Au268  1  0.33987925  0.16282039  0.50387418  1
  Au  Au269  1  0.82039815  0.49691191  0.83629221  1
  Au  Au270  1  0.34100156  0.33139917  0.50000867  1
  Au  Au271  1  0.50222011  0.66102931  0.82269472  1
  Au  Au272  1  0.33312561  0.66788218  -0.00106363  1
  Au  Au273  1  0.67365967  0.50406905  0.33530117  1
  Au  Au274  1  0.00117238  0.32825442  0.16116109  1
  Au  Au275  1  0.16714234  0.49891661  0.82830814  1
  Au  Au276  1  0.16298934  0.34396844  0.50308381  1
  Au  Au277  1  0.50114339  0.82923671  0.32722362  1
  Au  Au278  1  0.33224814  0.00090674  0.17951022  1
  Au  Au279  1  0.16694301  0.34214229  -0.00060038  1
  Au  Au280  1  0.17463285  0.15028905  -0.00082168  1
  Au  Au281  1  0.32858976  0.83755907  0.00399899  1
  Au  Au282  1  -0.00109257  0.16053562  0.32948607  1
  Au  Au283  1  0.17089537  -0.00344954  0.66716981  1
  Au  Au284  1  0.83492827  0.00125360  0.83024740  1
  Au  Au285  1  0.67101921  0.00528091  0.65964590  1
  Au  Au286  1  -0.00728933  0.34157870  0.34012938  1
  Au  Au287  1  0.50150156  0.83230577  0.83080533  1
