# generated using pymatgen
data_Ca24Ti8Al207Au49
_symmetry_space_group_name_H-M   'P 1'
_cell_length_a   17.31953347
_cell_length_b   17.31837776
_cell_length_c   17.31983771
_cell_angle_alpha   90.00248787
_cell_angle_beta   89.99469851
_cell_angle_gamma   89.99960296
_symmetry_Int_Tables_number   1
_chemical_formula_structural   Ca24Ti8Al207Au49
_chemical_formula_sum   'Ca24 Ti8 Al207 Au49'
_cell_volume   5195.01988077
_cell_formula_units_Z   1
loop_
 _symmetry_equiv_pos_site_id
 _symmetry_equiv_pos_as_xyz
  1  'x, y, z'
loop_
 _atom_site_type_symbol
 _atom_site_label
 _atom_site_symmetry_multiplicity
 _atom_site_fract_x
 _atom_site_fract_y
 _atom_site_fract_z
 _atom_site_occupancy
  Ca  Ca0  1  0.25389512  0.00557951  -0.00275954  1
  Ca  Ca1  1  0.24901039  -0.00388311  0.50254629  1
  Ca  Ca2  1  0.25260796  0.49451043  0.00007760  1
  Ca  Ca3  1  0.25679945  0.50141264  0.49706768  1
  Ca  Ca4  1  0.75416213  0.00135724  0.00114726  1
  Ca  Ca5  1  0.75151682  -0.00081834  0.49789543  1
  Ca  Ca6  1  0.75055458  0.50011965  -0.00109436  1
  Ca  Ca7  1  0.74498110  0.49930560  0.49952677  1
  Ca  Ca8  1  -0.00493111  0.25446276  0.00454324  1
  Ca  Ca9  1  -0.00176461  0.25650270  0.49684555  1
  Ca  Ca10  1  -0.00727799  0.74804407  0.00459755  1
  Ca  Ca11  1  -0.00110388  0.74904244  0.49719650  1
  Ca  Ca12  1  0.50122001  0.25365189  0.00403014  1
  Ca  Ca13  1  0.50452254  0.25843940  0.49801538  1
  Ca  Ca14  1  0.50085323  0.74547287  -0.00496841  1
  Ca  Ca15  1  0.50237178  0.74311995  0.50229326  1
  Ca  Ca16  1  -0.00398051  -0.00167119  0.25371920  1
  Ca  Ca17  1  -0.00079912  -0.00363172  0.74942964  1
  Ca  Ca18  1  -0.00068862  0.50296853  0.25444172  1
  Ca  Ca19  1  -0.00230516  0.50452369  0.75064812  1
  Ca  Ca20  1  0.50254954  0.00099730  0.25325295  1
  Ca  Ca21  1  0.49782548  0.00179137  0.74622809  1
  Ca  Ca22  1  0.50046396  0.49465429  0.25594935  1
  Ca  Ca23  1  0.50119317  0.49859697  0.74638375  1
  Ti  Ti24  1  0.25159197  0.25176774  0.24953458  1
  Ti  Ti25  1  0.25035139  0.25162528  0.75133611  1
  Ti  Ti26  1  0.25019963  0.74814765  0.25404625  1
  Ti  Ti27  1  0.25079779  0.75005616  0.74807078  1
  Ti  Ti28  1  0.74964494  0.25066068  0.24992148  1
  Ti  Ti29  1  0.75003797  0.25112375  0.74984097  1
  Ti  Ti30  1  0.75059951  0.74823362  0.25254624  1
  Ti  Ti31  1  0.75047238  0.74823663  0.74823903  1
  Al  Al32  1  0.07711164  0.08106837  0.07618584  1
  Al  Al33  1  0.07841085  0.07089087  0.57592649  1
  Al  Al34  1  0.07435166  0.58212091  0.08106767  1
  Al  Al35  1  0.08765700  0.58489388  0.57928854  1
  Al  Al36  1  0.57920702  0.09005412  0.08718735  1
  Al  Al37  1  0.58170689  0.09380606  0.58080300  1
  Al  Al38  1  0.57973272  0.57653059  0.08746778  1
  Al  Al39  1  0.59250274  0.58989170  0.58392309  1
  Al  Al40  1  0.41524965  0.40612237  0.08742211  1
  Al  Al41  1  0.41010601  0.41343352  0.58300563  1
  Al  Al42  1  0.42644995  0.93046369  0.08024330  1
  Al  Al43  1  0.42093935  0.90510403  0.58663068  1
  Al  Al44  1  0.90099451  0.41528561  0.08406062  1
  Al  Al45  1  0.90541209  0.42137714  0.57899637  1
  Al  Al46  1  0.90339029  0.91353647  0.09038937  1
  Al  Al47  1  0.92198888  0.91682849  0.57554110  1
  Al  Al48  1  0.42866060  0.08799183  0.41758104  1
  Al  Al49  1  0.42102536  0.09332097  0.91245754  1
  Al  Al50  1  0.42278784  0.57878453  0.40849120  1
  Al  Al51  1  0.42463784  0.57838024  0.90219650  1
  Al  Al52  1  0.90748708  0.09048278  0.41587393  1
  Al  Al53  1  0.91011883  0.08890141  0.92891306  1
  Al  Al54  1  0.91513738  0.58549089  0.41807124  1
  Al  Al55  1  0.91241063  0.57955785  0.91400906  1
  Al  Al56  1  0.08372125  0.41706563  0.40668789  1
  Al  Al57  1  0.08516974  0.41925124  0.91854386  1
  Al  Al58  1  0.08318813  0.90367114  0.41403073  1
  Al  Al59  1  0.07162027  0.92108538  0.91583436  1
  Al  Al60  1  0.57772047  0.42427060  0.41284731  1
  Al  Al61  1  0.58794126  0.42006552  0.91241952  1
  Al  Al62  1  0.59383278  0.90863275  0.42138716  1
  Al  Al63  1  0.57807676  0.90866144  0.90974740  1
  Al  Al64  1  0.07225132  0.07564717  0.41845882  1
  Al  Al65  1  0.08163704  0.08041253  0.91925128  1
  Al  Al66  1  0.08960910  0.58244912  0.41502360  1
  Al  Al67  1  0.07908523  0.58052326  0.91920722  1
  Al  Al68  1  0.58722154  0.08629686  0.41727560  1
  Al  Al69  1  0.57810133  0.09134982  0.91589657  1
  Al  Al70  1  0.58716440  0.58885655  0.40950875  1
  Al  Al71  1  0.58484139  0.58053455  0.89904212  1
  Al  Al72  1  0.41366112  0.41470225  0.41603927  1
  Al  Al73  1  0.41283457  0.41535168  0.91873581  1
  Al  Al74  1  0.42227165  0.91090749  0.42662556  1
  Al  Al75  1  0.42517411  0.91514249  0.90142658  1
  Al  Al76  1  0.91857870  0.41123063  0.41445428  1
  Al  Al77  1  0.90225934  0.41554696  0.92050649  1
  Al  Al78  1  0.91988297  0.90943775  0.41032270  1
  Al  Al79  1  0.91253972  0.90736758  0.92805420  1
  Al  Al80  1  0.08262027  0.42070097  0.07991451  1
  Al  Al81  1  0.08591521  0.42378175  0.57918724  1
  Al  Al82  1  0.06620956  0.92008747  0.08063155  1
  Al  Al83  1  0.08637505  0.90640812  0.57527779  1
  Al  Al84  1  0.58031247  0.40893160  0.08954416  1
  Al  Al85  1  0.57872307  0.42683747  0.58584318  1
  Al  Al86  1  0.58229445  0.92272802  0.07843309  1
  Al  Al87  1  0.58254677  0.90328585  0.58172168  1
  Al  Al88  1  0.42069484  0.09211082  0.08765685  1
  Al  Al89  1  0.42494407  0.08991169  0.59289153  1
  Al  Al90  1  0.42374231  0.57445897  0.08777945  1
  Al  Al91  1  0.42246482  0.57708548  0.59248881  1
  Al  Al92  1  0.90148526  0.07645821  0.08736475  1
  Al  Al93  1  0.90646014  0.08474314  0.57253895  1
  Al  Al94  1  0.91266562  0.57628801  0.09127848  1
  Al  Al95  1  0.90675594  0.58030159  0.58853472  1
  Al  Al96  1  0.25053133  0.13843893  0.12988900  1
  Al  Al97  1  0.25012502  0.12934627  0.63737717  1
  Al  Al98  1  0.25267985  0.63269871  0.14077746  1
  Al  Al99  1  0.25234331  0.63134459  0.63636412  1
  Al  Al100  1  0.75658888  0.13489692  0.13344819  1
  Al  Al101  1  0.75264296  0.13295774  0.63578472  1
  Al  Al102  1  0.75476679  0.63077776  0.13741090  1
  Al  Al103  1  0.74725054  0.63557181  0.63149423  1
  Al  Al104  1  0.25379579  0.36363640  0.13139141  1
  Al  Al105  1  0.25447527  0.37045235  0.63078258  1
  Al  Al106  1  0.25255806  0.86172313  0.13897903  1
  Al  Al107  1  0.24829528  0.86906519  0.63587701  1
  Al  Al108  1  0.75267592  0.36765363  0.13562401  1
  Al  Al109  1  0.75072515  0.36584975  0.63485176  1
  Al  Al110  1  0.75399607  0.86650403  0.13639532  1
  Al  Al111  1  0.74980056  0.86105093  0.62686139  1
  Al  Al112  1  0.25282663  0.14089068  0.36340937  1
  Al  Al113  1  0.25437214  0.13328051  0.86888703  1
  Al  Al114  1  0.25254595  0.63682085  0.36644685  1
  Al  Al115  1  0.24909647  0.63504584  0.86077985  1
  Al  Al116  1  0.75336029  0.13739908  0.36435226  1
  Al  Al117  1  0.75379616  0.13431003  0.86564479  1
  Al  Al118  1  0.74748854  0.63379415  0.37241267  1
  Al  Al119  1  0.75019627  0.62676622  0.86213486  1
  Al  Al120  1  0.25313629  0.36312652  0.36984310  1
  Al  Al121  1  0.25149486  0.36408000  0.86961006  1
  Al  Al122  1  0.24637058  0.86069230  0.36742272  1
  Al  Al123  1  0.25413527  0.87033376  0.85980384  1
  Al  Al124  1  0.74743134  0.36693300  0.36485041  1
  Al  Al125  1  0.75078362  0.36969096  0.86282675  1
  Al  Al126  1  0.74984889  0.85939364  0.37265747  1
  Al  Al127  1  0.75410529  0.86513854  0.86304657  1
  Al  Al128  1  0.13643547  0.25199673  0.12951693  1
  Al  Al129  1  0.13834191  0.25803576  0.63525781  1
  Al  Al130  1  0.13380957  0.75082311  0.13939818  1
  Al  Al131  1  0.13775882  0.74928045  0.63565569  1
  Al  Al132  1  0.63852491  0.25213838  0.13647585  1
  Al  Al133  1  0.63697985  0.24882420  0.63622679  1
  Al  Al134  1  0.63932345  0.74695561  0.13650097  1
  Al  Al135  1  0.63410165  0.74831077  0.63256547  1
  Al  Al136  1  0.13085167  0.25634473  0.36457768  1
  Al  Al137  1  0.13787481  0.25178229  0.86974933  1
  Al  Al138  1  0.12777370  0.75220307  0.36635217  1
  Al  Al139  1  0.13603286  0.74799380  0.86093259  1
  Al  Al140  1  0.63463889  0.25200862  0.36476878  1
  Al  Al141  1  0.63518147  0.24924937  0.86456067  1
  Al  Al142  1  0.63348109  0.74639697  0.36782832  1
  Al  Al143  1  0.63597274  0.74784738  0.86455433  1
  Al  Al144  1  0.36581919  0.25171415  0.13157206  1
  Al  Al145  1  0.36324930  0.25200041  0.63725321  1
  Al  Al146  1  0.36499208  0.74498496  0.14047853  1
  Al  Al147  1  0.36806494  0.75362150  0.63655483  1
  Al  Al148  1  0.86380466  0.25138663  0.13257385  1
  Al  Al149  1  0.86463687  0.25134617  0.63650898  1
  Al  Al150  1  0.86182719  0.75053772  0.13395031  1
  Al  Al151  1  0.86320857  0.74452653  0.62781537  1
  Al  Al152  1  0.37027436  0.25597165  0.36705872  1
  Al  Al153  1  0.36509681  0.24981248  0.86877122  1
  Al  Al154  1  0.37225250  0.74831963  0.36592629  1
  Al  Al155  1  0.36499326  0.74843160  0.86292696  1
  Al  Al156  1  0.86758849  0.24969640  0.36035570  1
  Al  Al157  1  0.86310289  0.25292363  0.86563703  1
  Al  Al158  1  0.86703228  0.74807603  0.36873577  1
  Al  Al159  1  0.86074588  0.74363747  0.86865464  1
  Al  Al160  1  0.13374037  0.14100331  0.25256203  1
  Al  Al161  1  0.13779467  0.13175843  0.75606315  1
  Al  Al162  1  0.13390511  0.63636989  0.25551244  1
  Al  Al163  1  0.13079433  0.63062760  0.74614966  1
  Al  Al164  1  0.63713853  0.13643564  0.24712407  1
  Al  Al165  1  0.63216874  0.13661027  0.74999688  1
  Al  Al166  1  0.63653902  0.63029246  0.25755589  1
  Al  Al167  1  0.63327938  0.63318123  0.75249503  1
  Al  Al168  1  0.36824153  0.14139891  0.24568835  1
  Al  Al169  1  0.36709585  0.13617006  0.75047268  1
  Al  Al170  1  0.36885840  0.62870576  0.25979233  1
  Al  Al171  1  0.36711899  0.63322322  0.74820639  1
  Al  Al172  1  0.86360952  0.12939757  0.25093503  1
  Al  Al173  1  0.86239743  0.13018025  0.75240816  1
  Al  Al174  1  0.86292047  0.63425736  0.25451165  1
  Al  Al175  1  0.86552178  0.63160481  0.74831108  1
  Al  Al176  1  0.13691783  0.36455802  0.24967634  1
  Al  Al177  1  0.13966732  0.37331179  0.74810640  1
  Al  Al178  1  0.13225356  0.86393439  0.25373511  1
  Al  Al179  1  0.13417197  0.86730716  0.75022027  1
  Al  Al180  1  0.63432081  0.36729611  0.25322422  1
  Al  Al181  1  0.63505629  0.36755304  0.75292047  1
  Al  Al182  1  0.63659217  0.86278558  0.25479632  1
  Al  Al183  1  0.63690899  0.86414994  0.74492923  1
  Al  Al184  1  0.36624242  0.36648416  0.25580502  1
  Al  Al185  1  0.36553423  0.36519743  0.74848144  1
  Al  Al186  1  0.36667829  0.86302755  0.25577856  1
  Al  Al187  1  0.36603862  0.87068496  0.74622453  1
  Al  Al188  1  0.86299834  0.36569254  0.25105594  1
  Al  Al189  1  0.86492089  0.37109825  0.74948737  1
  Al  Al190  1  0.86035539  0.86753704  0.25481960  1
  Al  Al191  1  0.86199677  0.86537606  0.74671852  1
  Al  Al192  1  0.68805904  0.50077475  0.68565430  1
  Al  Al193  1  0.33095646  0.83163511  0.00013257  1
  Al  Al194  1  -0.00247028  0.67506516  0.18178384  1
  Al  Al195  1  0.17052299  0.17833593  0.49942509  1
  Al  Al196  1  0.33058643  0.00306923  0.32645476  1
  Al  Al197  1  0.68338857  0.49927215  0.18498580  1
  Al  Al198  1  0.17596255  0.67105046  0.00234459  1
  Al  Al199  1  0.68576460  0.17252191  0.00101373  1
  Al  Al200  1  0.49990609  0.82844252  0.17870743  1
  Al  Al201  1  0.66859446  0.33302245  0.50039447  1
  Al  Al202  1  0.50098693  0.31656775  0.67269482  1
  Al  Al203  1  0.67628381  0.66613117  -0.00273720  1
  Al  Al204  1  0.16941088  0.00126063  0.17709517  1
  Al  Al205  1  0.00244644  0.17150865  0.67167886  1
  Al  Al206  1  0.68418877  0.32957703  -0.00051203  1
  Al  Al207  1  0.19262218  0.49931052  0.31844469  1
  Al  Al208  1  0.32724482  0.00224383  0.17547497  1
  Al  Al209  1  0.67241200  -0.00415064  0.66859928  1
  Al  Al210  1  0.68279062  -0.00082670  0.32791504  1
  Al  Al211  1  -0.00231449  0.18053840  0.83343965  1
  Al  Al212  1  0.68393578  0.00189916  0.17007043  1
  Al  Al213  1  0.33290489  0.66726559  -0.00043625  1
  Al  Al214  1  -0.00214029  0.32963990  0.18112165  1
  Al  Al215  1  0.17267322  0.00033886  0.32874373  1
  Al  Al216  1  0.67259073  -0.00002643  0.82542733  1
  Al  Al217  1  0.49968906  0.68518416  0.68461270  1
  Al  Al218  1  0.33417386  0.66654945  0.50131873  1
  Al  Al219  1  0.33002653  0.18435460  0.50217699  1
  Al  Al220  1  0.32039687  0.49820651  0.81301446  1
  Al  Al221  1  0.31998396  0.49734763  0.18077267  1
  Al  Al222  1  0.68707169  0.82651799  0.00037450  1
  Al  Al223  1  -0.00322953  0.17206858  0.17921086  1
  Al  Al224  1  0.16708697  0.82815932  -0.00050116  1
  Al  Al225  1  -0.00504009  0.82733938  0.18459712  1
  Al  Al226  1  0.82167375  0.31268942  0.49727680  1
  Al  Al227  1  0.50245711  0.67175486  0.18659526  1
  Al  Al228  1  0.68836806  0.17971432  0.49928712  1
  Al  Al229  1  -0.00080311  0.81905271  0.67204993  1
  Al  Al230  1  0.50069171  0.80594849  0.80275141  1
  Al  Al231  1  0.50036936  0.30789717  0.19142856  1
  Al  Al232  1  -0.00457504  0.81999213  0.82564611  1
  Al  Al233  1  0.49965197  0.31701415  0.82708065  1
  Al  Al234  1  0.50200251  0.19146213  0.30817021  1
  Al  Al235  1  0.81588185  0.49909236  0.32036327  1
  Al  Al236  1  0.18107277  0.68804093  0.49935189  1
  Al  Al237  1  -0.00225067  0.33340241  0.67650774  1
  Al  Al238  1  0.31361874  0.81858804  0.50132313  1
  Au  Au239  1  0.66767674  0.00240900  0.17631732  1
  Au  Au240  1  0.67129404  0.49672070  0.17359682  1
  Au  Au241  1  0.33238918  0.49843108  0.18378247  1
  Au  Au242  1  -0.00353418  0.33342585  0.84160460  1
  Au  Au243  1  0.83689786  0.66937741  0.00544658  1
  Au  Au244  1  0.66187892  0.00049075  0.66393656  1
  Au  Au245  1  0.66159080  0.00437459  0.82960362  1
  Au  Au246  1  -0.00108205  0.66975696  0.66145426  1
  Au  Au247  1  0.16675645  -0.00216088  0.83216057  1
  Au  Au248  1  -0.00005464  0.17734104  0.33959248  1
  Au  Au249  1  0.83687795  -0.00388348  0.66657999  1
  Au  Au250  1  -0.00441728  0.16845323  0.83089603  1
  Au  Au251  1  0.67582173  0.83905016  -0.00195851  1
  Au  Au252  1  0.16912371  0.17021224  -0.00095447  1
  Au  Au253  1  0.82714629  0.83166713  0.49872339  1
  Au  Au254  1  0.17363313  0.33948245  0.49654283  1
  Au  Au255  1  0.16552755  -0.00500345  0.66529115  1
  Au  Au256  1  0.33223102  0.65109338  -0.00506512  1
  Au  Au257  1  0.66994386  0.17919501  0.00113812  1
  Au  Au258  1  -0.00050856  0.34181538  0.66733889  1
  Au  Au259  1  0.82038388  0.66428557  0.50194737  1
  Au  Au260  1  -0.00382993  0.34535180  0.17507863  1
  Au  Au261  1  0.17205238  -0.00402967  0.16116675  1
  Au  Au262  1  -0.00359565  0.16975191  0.65497326  1
  Au  Au263  1  0.33998302  0.17841852  0.00113990  1
  Au  Au264  1  0.33054653  -0.00325232  0.34233130  1
  Au  Au265  1  0.33639197  -0.00121645  0.66321767  1
  Au  Au266  1  0.34580191  0.17821977  0.50313868  1
  Au  Au267  1  0.83594733  -0.00341792  0.84119061  1
  Au  Au268  1  0.00101064  0.67401271  0.33184473  1
  Au  Au269  1  0.83293140  -0.00186188  0.32934236  1
  Au  Au270  1  0.16458050  0.50580491  0.17267057  1
  Au  Au271  1  0.17154527  0.16133641  0.49470630  1
  Au  Au272  1  0.50540051  0.17796467  0.31845375  1
  Au  Au273  1  0.50337598  0.67697122  0.67558232  1
  Au  Au274  1  0.50454347  0.82140277  0.34184590  1
  Au  Au275  1  0.17386146  0.50230949  0.83262278  1
  Au  Au276  1  0.33574592  0.00648187  0.83010963  1
  Au  Au277  1  0.33583425  0.84696033  -0.00143137  1
  Au  Au278  1  0.65928687  0.66312971  -0.00336243  1
  Au  Au279  1  -0.00793074  0.16101062  0.16672967  1
  Au  Au280  1  0.49876190  0.82173111  0.16294029  1
  Au  Au281  1  0.49975230  0.32928400  0.83062130  1
  Au  Au282  1  0.17660763  0.33569181  0.00105667  1
  Au  Au283  1  -0.00036393  0.67253444  0.83559399  1
  Au  Au284  1  0.15158125  0.82153804  -0.00086275  1
  Au  Au285  1  0.83056713  0.49854115  0.32849236  1
  Au  Au286  1  0.18181723  0.50222829  0.66453137  1
  Au  Au287  1  0.82036926  0.49915293  0.82153405  1
