# generated using pymatgen
data_Ca24Ti8Al207Au49
_symmetry_space_group_name_H-M   'P 1'
_cell_length_a   17.32120087
_cell_length_b   17.32313147
_cell_length_c   17.32243132
_cell_angle_alpha   89.99981897
_cell_angle_beta   90.00067081
_cell_angle_gamma   89.99740874
_symmetry_Int_Tables_number   1
_chemical_formula_structural   Ca24Ti8Al207Au49
_chemical_formula_sum   'Ca24 Ti8 Al207 Au49'
_cell_volume   5197.72438981
_cell_formula_units_Z   1
loop_
 _symmetry_equiv_pos_site_id
 _symmetry_equiv_pos_as_xyz
  1  'x, y, z'
loop_
 _atom_site_type_symbol
 _atom_site_label
 _atom_site_symmetry_multiplicity
 _atom_site_fract_x
 _atom_site_fract_y
 _atom_site_fract_z
 _atom_site_occupancy
  Ca  Ca0  1  0.24620879  0.00248464  -0.00495908  1
  Ca  Ca1  1  0.24600346  -0.00126867  0.50418571  1
  Ca  Ca2  1  0.25493944  0.49808751  -0.00032863  1
  Ca  Ca3  1  0.25058239  0.49659108  0.50548936  1
  Ca  Ca4  1  0.75094053  -0.00597069  0.00112891  1
  Ca  Ca5  1  0.75049833  0.00182141  0.49544137  1
  Ca  Ca6  1  0.74738008  0.50659743  -0.00031952  1
  Ca  Ca7  1  0.74801714  0.49943412  0.50251082  1
  Ca  Ca8  1  -0.00165148  0.25021340  -0.00091105  1
  Ca  Ca9  1  0.00104033  0.25264885  0.50081600  1
  Ca  Ca10  1  -0.00375611  0.74942948  -0.00190667  1
  Ca  Ca11  1  -0.00061760  0.75188142  0.50150324  1
  Ca  Ca12  1  0.50053272  0.25612484  -0.00086688  1
  Ca  Ca13  1  0.50089031  0.25475562  0.50078701  1
  Ca  Ca14  1  0.50479307  0.74743812  -0.00147540  1
  Ca  Ca15  1  0.50310823  0.74345160  0.50084686  1
  Ca  Ca16  1  -0.00074369  0.00267192  0.24876528  1
  Ca  Ca17  1  0.00267028  -0.00011093  0.75229540  1
  Ca  Ca18  1  0.00001037  0.49860498  0.24712655  1
  Ca  Ca19  1  -0.00507905  0.49836670  0.75426608  1
  Ca  Ca20  1  0.50044109  -0.00139479  0.24602835  1
  Ca  Ca21  1  0.49665065  0.00036462  0.75436969  1
  Ca  Ca22  1  0.49953100  0.49927791  0.24766356  1
  Ca  Ca23  1  0.50657907  0.50136744  0.74903191  1
  Ti  Ti24  1  0.25044479  0.25202149  0.25081336  1
  Ti  Ti25  1  0.24956327  0.24929094  0.74906458  1
  Ti  Ti26  1  0.25279733  0.74939589  0.24736054  1
  Ti  Ti27  1  0.25210984  0.75114956  0.75169240  1
  Ti  Ti28  1  0.74955590  0.25005900  0.24772234  1
  Ti  Ti29  1  0.75206824  0.25205318  0.75173285  1
  Ti  Ti30  1  0.74700878  0.75087534  0.24934809  1
  Ti  Ti31  1  0.74887132  0.74837224  0.75039478  1
  Al  Al32  1  0.08851014  0.08035270  0.08796888  1
  Al  Al33  1  0.08577812  0.08072107  0.58943352  1
  Al  Al34  1  0.07905581  0.57543236  0.08196179  1
  Al  Al35  1  0.09492028  0.57446824  0.58737895  1
  Al  Al36  1  0.59077774  0.07535680  0.08590380  1
  Al  Al37  1  0.57030501  0.07993042  0.57245536  1
  Al  Al38  1  0.58377896  0.59081052  0.08173785  1
  Al  Al39  1  0.59151487  0.58563520  0.58546882  1
  Al  Al40  1  0.41488811  0.41670652  0.09615603  1
  Al  Al41  1  0.41299723  0.41942553  0.59095086  1
  Al  Al42  1  0.42315948  0.91733447  0.07656342  1
  Al  Al43  1  0.41642553  0.91758995  0.58662286  1
  Al  Al44  1  0.91253749  0.42312014  0.08864912  1
  Al  Al45  1  0.91685870  0.41704410  0.58442312  1
  Al  Al46  1  0.90899116  0.91183814  0.07463324  1
  Al  Al47  1  0.91880702  0.91704196  0.57840303  1
  Al  Al48  1  0.42213448  0.08785842  0.42436129  1
  Al  Al49  1  0.41544602  0.08859900  0.91654946  1
  Al  Al50  1  0.41385860  0.57638795  0.40559024  1
  Al  Al51  1  0.43055461  0.58541749  0.91227264  1
  Al  Al52  1  0.92034156  0.08784402  0.41631349  1
  Al  Al53  1  0.92122930  0.08033455  0.91990949  1
  Al  Al54  1  0.91510907  0.57613165  0.41981553  1
  Al  Al55  1  0.90780968  0.58878037  0.91552091  1
  Al  Al56  1  0.07982438  0.41169571  0.40968539  1
  Al  Al57  1  0.08192850  0.41416776  0.92165110  1
  Al  Al58  1  0.08430907  0.92612284  0.42047265  1
  Al  Al59  1  0.08010243  0.91349235  0.90593831  1
  Al  Al60  1  0.57768574  0.41945570  0.42147518  1
  Al  Al61  1  0.58062813  0.41604027  0.91364270  1
  Al  Al62  1  0.58631715  0.91490136  0.41548084  1
  Al  Al63  1  0.58167181  0.89631527  0.92061124  1
  Al  Al64  1  0.08251190  0.08484488  0.41258725  1
  Al  Al65  1  0.08565904  0.07682493  0.91644858  1
  Al  Al66  1  0.08166739  0.57330386  0.42429221  1
  Al  Al67  1  0.07385089  0.58271220  0.91833215  1
  Al  Al68  1  0.58026531  0.08059057  0.41363404  1
  Al  Al69  1  0.57445258  0.08843396  0.92427664  1
  Al  Al70  1  0.58706813  0.58887116  0.42224878  1
  Al  Al71  1  0.59063227  0.59545853  0.91793590  1
  Al  Al72  1  0.41062167  0.41896616  0.40717604  1
  Al  Al73  1  0.42232565  0.41384901  0.91472207  1
  Al  Al74  1  0.42427256  0.91785430  0.42467874  1
  Al  Al75  1  0.42120310  0.90833324  0.91349760  1
  Al  Al76  1  0.91859172  0.41057913  0.40937143  1
  Al  Al77  1  0.91074489  0.42553426  0.91329018  1
  Al  Al78  1  0.91456770  0.92076340  0.42163560  1
  Al  Al79  1  0.91783285  0.89883596  0.91420062  1
  Al  Al80  1  0.08538573  0.41494047  0.08183393  1
  Al  Al81  1  0.08784303  0.41914480  0.59162927  1
  Al  Al82  1  0.08772681  0.92351803  0.08571116  1
  Al  Al83  1  0.08942206  0.92370678  0.58881418  1
  Al  Al84  1  0.57655309  0.41748365  0.08532189  1
  Al  Al85  1  0.58580567  0.42223777  0.58721330  1
  Al  Al86  1  0.59638863  0.91183222  0.08341257  1
  Al  Al87  1  0.58176496  0.90954272  0.57853122  1
  Al  Al88  1  0.41877412  0.08366839  0.07539357  1
  Al  Al89  1  0.41122656  0.08251890  0.58172404  1
  Al  Al90  1  0.42077634  0.58088107  0.09510749  1
  Al  Al91  1  0.41840832  0.57794278  0.59273994  1
  Al  Al92  1  0.91743600  0.07705560  0.08084457  1
  Al  Al93  1  0.92273518  0.08551747  0.57616795  1
  Al  Al94  1  0.90518354  0.58506415  0.08093535  1
  Al  Al95  1  0.91292814  0.57587427  0.58237936  1
  Al  Al96  1  0.24565483  0.13423890  0.13620224  1
  Al  Al97  1  0.24776292  0.13024929  0.63614281  1
  Al  Al98  1  0.25737736  0.63403258  0.13450929  1
  Al  Al99  1  0.25321125  0.63120204  0.63918684  1
  Al  Al100  1  0.75247043  0.12922774  0.13573058  1
  Al  Al101  1  0.75324680  0.13790212  0.63678852  1
  Al  Al102  1  0.74466097  0.63325493  0.13512668  1
  Al  Al103  1  0.74584365  0.62717830  0.63797690  1
  Al  Al104  1  0.25628009  0.36668735  0.13741401  1
  Al  Al105  1  0.24896916  0.36598122  0.63235197  1
  Al  Al106  1  0.24621790  0.86440583  0.13547859  1
  Al  Al107  1  0.25065716  0.87036375  0.63966029  1
  Al  Al108  1  0.74920281  0.37255570  0.13728328  1
  Al  Al109  1  0.75040625  0.37237258  0.63899618  1
  Al  Al110  1  0.74686097  0.86797350  0.13715027  1
  Al  Al111  1  0.74568822  0.86529447  0.63866408  1
  Al  Al112  1  0.24750657  0.13895079  0.36500572  1
  Al  Al113  1  0.25017040  0.13755322  0.86440754  1
  Al  Al114  1  0.25721667  0.63399591  0.35990859  1
  Al  Al115  1  0.24743609  0.63792022  0.86819251  1
  Al  Al116  1  0.74893689  0.13218610  0.36244693  1
  Al  Al117  1  0.75383501  0.13342202  0.86548014  1
  Al  Al118  1  0.74668354  0.63694610  0.36384126  1
  Al  Al119  1  0.75005689  0.63462298  0.86658908  1
  Al  Al120  1  0.25478478  0.36712506  0.36941944  1
  Al  Al121  1  0.25024253  0.36708220  0.86425131  1
  Al  Al122  1  0.25235160  0.86195542  0.36084901  1
  Al  Al123  1  0.25113449  0.86338459  0.86514272  1
  Al  Al124  1  0.75237011  0.36723928  0.36224437  1
  Al  Al125  1  0.75389850  0.36907000  0.86711113  1
  Al  Al126  1  0.74345877  0.87046941  0.36190046  1
  Al  Al127  1  0.75278099  0.86405653  0.86804860  1
  Al  Al128  1  0.13617698  0.25255948  0.13609551  1
  Al  Al129  1  0.13724978  0.25009854  0.62991598  1
  Al  Al130  1  0.13692537  0.74774423  0.12876350  1
  Al  Al131  1  0.14014107  0.75238309  0.63560991  1
  Al  Al132  1  0.63603866  0.25218512  0.13576684  1
  Al  Al133  1  0.63803503  0.25363241  0.63725378  1
  Al  Al134  1  0.63087290  0.74845129  0.13513429  1
  Al  Al135  1  0.63452426  0.74778149  0.63045816  1
  Al  Al136  1  0.13725715  0.25446445  0.37074684  1
  Al  Al137  1  0.12934286  0.25089729  0.86145780  1
  Al  Al138  1  0.13702296  0.75041295  0.36233233  1
  Al  Al139  1  0.13399434  0.75319196  0.86840990  1
  Al  Al140  1  0.63712032  0.25387492  0.36214438  1
  Al  Al141  1  0.63779370  0.25324824  0.86585166  1
  Al  Al142  1  0.63101370  0.75042398  0.36476652  1
  Al  Al143  1  0.63602768  0.74496049  0.86885172  1
  Al  Al144  1  0.37010526  0.25618660  0.13669703  1
  Al  Al145  1  0.36334940  0.25292132  0.63626927  1
  Al  Al146  1  0.37489013  0.74570777  0.13591087  1
  Al  Al147  1  0.36455947  0.75157452  0.63948189  1
  Al  Al148  1  0.86119480  0.25290584  0.12863411  1
  Al  Al149  1  0.86382996  0.25523418  0.63853394  1
  Al  Al150  1  0.86087423  0.75321316  0.13685608  1
  Al  Al151  1  0.86038889  0.74868817  0.63769352  1
  Al  Al152  1  0.36613858  0.25598722  0.36446422  1
  Al  Al153  1  0.36421741  0.25493371  0.86306317  1
  Al  Al154  1  0.37301605  0.75026278  0.35966125  1
  Al  Al155  1  0.37038498  0.74833901  0.86479236  1
  Al  Al156  1  0.86437777  0.25381190  0.36122699  1
  Al  Al157  1  0.86866946  0.25183499  0.86779947  1
  Al  Al158  1  0.86230263  0.75180839  0.36221486  1
  Al  Al159  1  0.86352572  0.75137744  0.86434364  1
  Al  Al160  1  0.13539220  0.13834850  0.25045837  1
  Al  Al161  1  0.13565734  0.13497061  0.74920793  1
  Al  Al162  1  0.13776978  0.63568698  0.24846852  1
  Al  Al163  1  0.13911208  0.63729639  0.74956012  1
  Al  Al164  1  0.63596053  0.12966139  0.24637823  1
  Al  Al165  1  0.63620983  0.13602670  0.75366108  1
  Al  Al166  1  0.62788816  0.63376000  0.24725179  1
  Al  Al167  1  0.63157688  0.63651482  0.75030829  1
  Al  Al168  1  0.36513143  0.13764131  0.24604892  1
  Al  Al169  1  0.36315478  0.13074202  0.75014594  1
  Al  Al170  1  0.37093421  0.63283179  0.24825523  1
  Al  Al171  1  0.36999796  0.63726876  0.75032365  1
  Al  Al172  1  0.86342980  0.13093718  0.25065179  1
  Al  Al173  1  0.86422330  0.13129197  0.75322341  1
  Al  Al174  1  0.85978263  0.63135064  0.24822986  1
  Al  Al175  1  0.86054707  0.62915325  0.75166199  1
  Al  Al176  1  0.13386155  0.36410416  0.25344309  1
  Al  Al177  1  0.13785434  0.36585225  0.74723973  1
  Al  Al178  1  0.13300317  0.86230377  0.24641346  1
  Al  Al179  1  0.13538618  0.86348842  0.75169683  1
  Al  Al180  1  0.62888628  0.36814093  0.24714116  1
  Al  Al181  1  0.63648228  0.36748602  0.75352144  1
  Al  Al182  1  0.62952151  0.86637218  0.24741382  1
  Al  Al183  1  0.63096626  0.85928190  0.75940461  1
  Al  Al184  1  0.36853864  0.36895096  0.25052070  1
  Al  Al185  1  0.36351306  0.36692763  0.74761978  1
  Al  Al186  1  0.37251484  0.86322862  0.24322931  1
  Al  Al187  1  0.36803013  0.86965126  0.75561200  1
  Al  Al188  1  0.86405184  0.36885051  0.24829200  1
  Al  Al189  1  0.86295129  0.37279270  0.75312010  1
  Al  Al190  1  0.86273834  0.87109912  0.25015778  1
  Al  Al191  1  0.86201011  0.86783396  0.75185806  1
  Al  Al192  1  -0.00060672  0.32583984  0.18380809  1
  Al  Al193  1  0.81714147  0.82578399  0.49995301  1
  Al  Al194  1  0.17297502  0.67475731  0.49963343  1
  Al  Al195  1  0.67801686  0.49928438  0.32520244  1
  Al  Al196  1  -0.00211125  0.68422307  0.82547717  1
  Al  Al197  1  0.18442872  0.50030973  0.32423229  1
  Al  Al198  1  0.00041895  0.32731467  0.68110665  1
  Al  Al199  1  -0.00055526  0.17520829  0.67770703  1
  Al  Al200  1  0.32932180  0.66758582  -0.00016301  1
  Al  Al201  1  0.67962804  0.17418670  0.00124344  1
  Al  Al202  1  0.81204331  0.66857404  0.50135047  1
  Al  Al203  1  0.17516282  0.50112866  0.81678450  1
  Al  Al204  1  0.67456218  0.00393123  0.66989865  1
  Al  Al205  1  0.31769901  0.18551714  0.00084678  1
  Al  Al206  1  0.18533941  0.49957143  0.17236056  1
  Al  Al207  1  0.49735055  0.82055825  0.68347004  1
  Al  Al208  1  0.32674842  0.67436697  0.50046257  1
  Al  Al209  1  0.68199650  0.50206379  0.82061438  1
  Al  Al210  1  0.66978952  0.17337469  0.49913494  1
  Al  Al211  1  0.50001987  0.18978941  0.82504923  1
  Al  Al212  1  0.33062071  0.50267795  0.81661323  1
  Al  Al213  1  -0.00186686  0.17033233  0.17266458  1
  Al  Al214  1  0.82389651  0.18236616  0.49902054  1
  Al  Al215  1  0.67515028  0.32857157  0.00123635  1
  Al  Al216  1  0.18269339  -0.00050944  0.81195681  1
  Al  Al217  1  -0.00143381  0.82667171  0.68682915  1
  Al  Al218  1  0.00101263  0.18961226  0.32409750  1
  Al  Al219  1  0.49946213  0.17151658  0.67318703  1
  Al  Al220  1  -0.00153976  0.82978421  0.17393643  1
  Al  Al221  1  0.69172102  0.80713619  0.00199926  1
  Al  Al222  1  -0.00124571  0.67716356  0.32969873  1
  Al  Al223  1  0.32031794  0.18362460  0.50070852  1
  Al  Al224  1  0.17446387  -0.00024163  0.31220170  1
  Al  Al225  1  0.50034714  0.18305562  0.32521918  1
  Al  Al226  1  0.17315561  0.82936285  0.49986821  1
  Al  Al227  1  0.32145033  0.82352555  0.00114036  1
  Al  Al228  1  0.18365671  0.31661186  -0.00040809  1
  Al  Al229  1  0.50226955  0.17935007  0.16931496  1
  Al  Al230  1  0.50168754  0.32712437  0.68612785  1
  Al  Al231  1  0.32571458  0.82486379  0.50033741  1
  Al  Al232  1  0.31716799  -0.00129792  0.16956266  1
  Al  Al233  1  0.32958318  0.00182268  0.33052758  1
  Al  Al234  1  0.68167223  0.32691789  0.50147096  1
  Al  Al235  1  -0.00317876  0.67205462  0.17248554  1
  Al  Al236  1  0.00239408  0.66960639  0.66970573  1
  Al  Al237  1  0.67154400  -0.00126110  0.83415037  1
  Al  Al238  1  0.80976197  0.69010711  0.00122563  1
  Au  Au239  1  0.66914160  0.82296226  0.49723708  1
  Au  Au240  1  0.16335391  0.33153261  0.50159899  1
  Au  Au241  1  0.82843908  0.67416476  0.50142069  1
  Au  Au242  1  0.00224058  0.16359622  0.82636304  1
  Au  Au243  1  0.50017865  0.82943241  0.67482251  1
  Au  Au244  1  -0.00428267  0.33577795  0.83088866  1
  Au  Au245  1  0.00477114  0.65418309  0.67737267  1
  Au  Au246  1  0.50297084  0.16706847  0.16590234  1
  Au  Au247  1  0.83158375  0.00315555  0.33241271  1
  Au  Au248  1  0.66740605  0.50231116  0.82902026  1
  Au  Au249  1  0.83742738  0.00412874  0.66377829  1
  Au  Au250  1  0.33454931  0.33427000  0.00206988  1
  Au  Au251  1  0.32115106  -0.00135136  0.15334139  1
  Au  Au252  1  0.50110838  0.66230715  0.32475746  1
  Au  Au253  1  0.67118462  0.50205930  0.16066888  1
  Au  Au254  1  0.16437702  0.66596322  0.00167598  1
  Au  Au255  1  0.32991182  -0.00161558  0.83801477  1
  Au  Au256  1  0.65807893  -0.00251411  0.84317493  1
  Au  Au257  1  0.00040270  0.83827588  0.33769165  1
  Au  Au258  1  0.00304184  0.66070376  0.32783684  1
  Au  Au259  1  0.32459498  0.00293772  0.34658124  1
  Au  Au260  1  0.83859016  -0.00604589  0.83525861  1
  Au  Au261  1  0.66930521  0.50120800  0.33400307  1
  Au  Au262  1  0.82860187  0.16624152  0.00034987  1
  Au  Au263  1  0.17263793  0.49986229  0.33263511  1
  Au  Au264  1  0.50066790  0.33289850  0.32621652  1
  Au  Au265  1  0.17309220  0.15979605  0.50123321  1
  Au  Au266  1  0.82406537  0.34434200  0.00074564  1
  Au  Au267  1  0.82543859  0.49918570  0.67558608  1
  Au  Au268  1  0.33428372  0.33286997  0.50117798  1
  Au  Au269  1  0.66703409  0.00427315  0.65535630  1
  Au  Au270  1  0.50273553  0.66457363  0.67795329  1
  Au  Au271  1  0.32110303  0.00112701  0.66634748  1
  Au  Au272  1  0.00085441  0.83736808  0.67395709  1
  Au  Au273  1  0.49911768  0.83021287  0.33108027  1
  Au  Au274  1  0.17149902  0.84144352  -0.00295957  1
  Au  Au275  1  0.50276124  0.82609276  0.16041524  1
  Au  Au276  1  0.00005838  0.82726420  0.16145474  1
  Au  Au277  1  0.50191228  0.33189852  0.67419604  1
  Au  Au278  1  0.83448392  0.49845518  0.32162685  1
  Au  Au279  1  0.16093410  0.50107806  0.82594424  1
  Au  Au280  1  0.83204318  0.33056566  0.49992280  1
  Au  Au281  1  0.32905040  0.65815885  0.50217582  1
  Au  Au282  1  0.34745855  0.50141577  0.81935236  1
  Au  Au283  1  0.16876480  0.16777712  0.00033539  1
  Au  Au284  1  0.34159391  0.67063809  0.00126552  1
  Au  Au285  1  0.66246367  0.00092299  0.32132461  1
  Au  Au286  1  0.82356465  -0.00302704  0.16295243  1
  Au  Au287  1  -0.00040422  0.33049817  0.17181827  1
