# generated using pymatgen
data_Ca24Ti8Al207Au49
_symmetry_space_group_name_H-M   'P 1'
_cell_length_a   17.32377680
_cell_length_b   17.32312311
_cell_length_c   17.32495555
_cell_angle_alpha   90.00294196
_cell_angle_beta   89.99970847
_cell_angle_gamma   90.00190343
_symmetry_Int_Tables_number   1
_chemical_formula_structural   Ca24Ti8Al207Au49
_chemical_formula_sum   'Ca24 Ti8 Al207 Au49'
_cell_volume   5199.25238355
_cell_formula_units_Z   1
loop_
 _symmetry_equiv_pos_site_id
 _symmetry_equiv_pos_as_xyz
  1  'x, y, z'
loop_
 _atom_site_type_symbol
 _atom_site_label
 _atom_site_symmetry_multiplicity
 _atom_site_fract_x
 _atom_site_fract_y
 _atom_site_fract_z
 _atom_site_occupancy
  Ca  Ca0  1  0.24294701  -0.00143163  -0.00006816  1
  Ca  Ca1  1  0.24646743  0.00340621  0.50016675  1
  Ca  Ca2  1  0.24899226  0.50075612  0.00190163  1
  Ca  Ca3  1  0.24922918  0.49874272  0.49814740  1
  Ca  Ca4  1  0.74891943  0.00018060  0.00103725  1
  Ca  Ca5  1  0.74994704  -0.00278847  0.50062914  1
  Ca  Ca6  1  0.74870855  0.50150101  0.00212015  1
  Ca  Ca7  1  0.74829135  0.49929199  0.49776346  1
  Ca  Ca8  1  -0.00080816  0.24854337  0.00182145  1
  Ca  Ca9  1  -0.00408930  0.24817173  0.49574264  1
  Ca  Ca10  1  0.00296720  0.74666191  -0.00185286  1
  Ca  Ca11  1  -0.00248367  0.75136667  0.50292074  1
  Ca  Ca12  1  0.49959964  0.25197912  0.00732613  1
  Ca  Ca13  1  0.50297006  0.25078236  0.49542670  1
  Ca  Ca14  1  0.50049458  0.74565258  0.00195951  1
  Ca  Ca15  1  0.50318164  0.75141083  0.49654156  1
  Ca  Ca16  1  -0.00233808  0.00594827  0.25294097  1
  Ca  Ca17  1  -0.00298620  -0.00931810  0.74849794  1
  Ca  Ca18  1  0.00015042  0.49601074  0.24852331  1
  Ca  Ca19  1  -0.00226534  0.50464234  0.75228400  1
  Ca  Ca20  1  0.50151734  -0.00351568  0.25227396  1
  Ca  Ca21  1  0.50404824  -0.00344746  0.74716526  1
  Ca  Ca22  1  0.50211711  0.50189154  0.24836732  1
  Ca  Ca23  1  0.50297449  0.50567382  0.75007982  1
  Ti  Ti24  1  0.25044271  0.25236506  0.24911449  1
  Ti  Ti25  1  0.24957191  0.25084778  0.75020610  1
  Ti  Ti26  1  0.25238456  0.74686461  0.24748523  1
  Ti  Ti27  1  0.24914604  0.74824988  0.75128567  1
  Ti  Ti28  1  0.74916106  0.25145253  0.25114867  1
  Ti  Ti29  1  0.75093495  0.25106125  0.74912015  1
  Ti  Ti30  1  0.74885058  0.74887948  0.24895307  1
  Ti  Ti31  1  0.75056206  0.74958928  0.74985518  1
  Al  Al32  1  0.08395297  0.09762237  0.08813832  1
  Al  Al33  1  0.07709006  0.07731929  0.57119626  1
  Al  Al34  1  0.08856359  0.58861994  0.07455431  1
  Al  Al35  1  0.08430859  0.58109147  0.59657072  1
  Al  Al36  1  0.57579477  0.08845803  0.08089971  1
  Al  Al37  1  0.59971273  0.07667619  0.58419692  1
  Al  Al38  1  0.59190677  0.58687389  0.08862430  1
  Al  Al39  1  0.58453008  0.58281645  0.57632581  1
  Al  Al40  1  0.42504734  0.41349423  0.09152817  1
  Al  Al41  1  0.41123087  0.42306275  0.57290559  1
  Al  Al42  1  0.41857258  0.90417610  0.08344243  1
  Al  Al43  1  0.43166965  0.91589861  0.57779060  1
  Al  Al44  1  0.90820821  0.41004910  0.08170461  1
  Al  Al45  1  0.90764075  0.41664854  0.57628540  1
  Al  Al46  1  0.92064739  0.92401318  0.07535402  1
  Al  Al47  1  0.90773447  0.90406083  0.58585659  1
  Al  Al48  1  0.42825675  0.08126206  0.41872853  1
  Al  Al49  1  0.41598554  0.08307699  0.92468031  1
  Al  Al50  1  0.41888454  0.58276497  0.40366907  1
  Al  Al51  1  0.41586438  0.58467735  0.92254265  1
  Al  Al52  1  0.91448260  0.09467593  0.41380400  1
  Al  Al53  1  0.91548972  0.07796617  0.92482990  1
  Al  Al54  1  0.91528063  0.57472304  0.42319781  1
  Al  Al55  1  0.91175993  0.58211447  0.91221145  1
  Al  Al56  1  0.07920375  0.41399694  0.41583726  1
  Al  Al57  1  0.08610300  0.42427728  0.92407152  1
  Al  Al58  1  0.07473671  0.92859362  0.42369218  1
  Al  Al59  1  0.08572860  0.90007070  0.91321918  1
  Al  Al60  1  0.58562821  0.41273996  0.41468604  1
  Al  Al61  1  0.58657478  0.42844321  0.91755087  1
  Al  Al62  1  0.59061697  0.90637710  0.41909433  1
  Al  Al63  1  0.58381354  0.91565271  0.91853829  1
  Al  Al64  1  0.07821930  0.09097579  0.40933913  1
  Al  Al65  1  0.08513290  0.08237934  0.92948229  1
  Al  Al66  1  0.08178505  0.57553739  0.42091824  1
  Al  Al67  1  0.08773804  0.59083485  0.91629102  1
  Al  Al68  1  0.59180540  0.08635446  0.42268580  1
  Al  Al69  1  0.58524704  0.07969669  0.92080581  1
  Al  Al70  1  0.58090703  0.59022736  0.41059446  1
  Al  Al71  1  0.59873236  0.58804106  0.92291629  1
  Al  Al72  1  0.41226693  0.42048163  0.40957800  1
  Al  Al73  1  0.42050841  0.42678117  0.92620082  1
  Al  Al74  1  0.43062696  0.91223457  0.41555528  1
  Al  Al75  1  0.41686769  0.91242508  0.92333735  1
  Al  Al76  1  0.91143665  0.40914554  0.41665132  1
  Al  Al77  1  0.90202046  0.42047991  0.91993996  1
  Al  Al78  1  0.90988826  0.91284240  0.42573035  1
  Al  Al79  1  0.92558129  0.90984393  0.91109997  1
  Al  Al80  1  0.08164225  0.41617131  0.08157801  1
  Al  Al81  1  0.09016829  0.42354149  0.58474614  1
  Al  Al82  1  0.09015499  0.91238007  0.07481532  1
  Al  Al83  1  0.06890296  0.90951763  0.58917806  1
  Al  Al84  1  0.58676833  0.42076095  0.09343221  1
  Al  Al85  1  0.59261096  0.41886110  0.57484592  1
  Al  Al86  1  0.57674852  0.90707228  0.08559011  1
  Al  Al87  1  0.59673568  0.91185222  0.58552464  1
  Al  Al88  1  0.41889091  0.09076812  0.08276905  1
  Al  Al89  1  0.42383481  0.07665587  0.57631936  1
  Al  Al90  1  0.41908031  0.58665027  0.08741922  1
  Al  Al91  1  0.41999516  0.57999940  0.58243824  1
  Al  Al92  1  0.92358120  0.09544219  0.08956006  1
  Al  Al93  1  0.90930032  0.08162016  0.57495527  1
  Al  Al94  1  0.91558130  0.57653744  0.07719567  1
  Al  Al95  1  0.91811895  0.58259721  0.58593253  1
  Al  Al96  1  0.24503192  0.13414828  0.13653129  1
  Al  Al97  1  0.25037164  0.13207928  0.63577832  1
  Al  Al98  1  0.25271489  0.63168848  0.13174995  1
  Al  Al99  1  0.24679470  0.63176413  0.63592335  1
  Al  Al100  1  0.75645320  0.13435668  0.13800352  1
  Al  Al101  1  0.74999273  0.12826943  0.63343325  1
  Al  Al102  1  0.74302618  0.62836392  0.13738447  1
  Al  Al103  1  0.75317516  0.63096079  0.63736722  1
  Al  Al104  1  0.25093933  0.37236755  0.13819809  1
  Al  Al105  1  0.24838006  0.36987294  0.63545124  1
  Al  Al106  1  0.24935429  0.86559455  0.13411734  1
  Al  Al107  1  0.24856055  0.86211793  0.63788099  1
  Al  Al108  1  0.74912127  0.37229367  0.13879321  1
  Al  Al109  1  0.74845135  0.36964698  0.62925431  1
  Al  Al110  1  0.75017433  0.86164373  0.13210141  1
  Al  Al111  1  0.74992718  0.86623944  0.63305596  1
  Al  Al112  1  0.24858185  0.13814033  0.36096121  1
  Al  Al113  1  0.24899751  0.13493770  0.86615035  1
  Al  Al114  1  0.25378565  0.62631106  0.35987600  1
  Al  Al115  1  0.24783287  0.63995074  0.87164238  1
  Al  Al116  1  0.75084296  0.13479961  0.36642231  1
  Al  Al117  1  0.75167210  0.13333580  0.86502960  1
  Al  Al118  1  0.74821372  0.63445914  0.36340893  1
  Al  Al119  1  0.75179141  0.63702684  0.86258131  1
  Al  Al120  1  0.25103927  0.36980774  0.36003215  1
  Al  Al121  1  0.24762523  0.36500249  0.86567874  1
  Al  Al122  1  0.24995364  0.85925162  0.36204571  1
  Al  Al123  1  0.24587137  0.86156301  0.86641124  1
  Al  Al124  1  0.74770231  0.36382377  0.36963953  1
  Al  Al125  1  0.75475417  0.36760453  0.87014968  1
  Al  Al126  1  0.74905447  0.86282379  0.36881399  1
  Al  Al127  1  0.74631157  0.86486108  0.86352431  1
  Al  Al128  1  0.13207472  0.24655338  0.13590963  1
  Al  Al129  1  0.13504124  0.25445803  0.63619392  1
  Al  Al130  1  0.13725787  0.74797187  0.13162442  1
  Al  Al131  1  0.12960293  0.74973467  0.63551948  1
  Al  Al132  1  0.63697144  0.25530653  0.13554768  1
  Al  Al133  1  0.64273920  0.24540855  0.62505828  1
  Al  Al134  1  0.63184503  0.74732773  0.13223118  1
  Al  Al135  1  0.63891118  0.75266880  0.63404105  1
  Al  Al136  1  0.13533001  0.25226004  0.36189099  1
  Al  Al137  1  0.13401944  0.24856909  0.86632495  1
  Al  Al138  1  0.13874250  0.74292759  0.36545713  1
  Al  Al139  1  0.12948286  0.75005605  0.86519704  1
  Al  Al140  1  0.63242597  0.25139001  0.36988113  1
  Al  Al141  1  0.63948773  0.25122150  0.86636995  1
  Al  Al142  1  0.63544972  0.75021292  0.36397359  1
  Al  Al143  1  0.63316740  0.74867623  0.86759384  1
  Al  Al144  1  0.36330735  0.25310781  0.13771700  1
  Al  Al145  1  0.36402209  0.25010773  0.63429172  1
  Al  Al146  1  0.37160127  0.74580043  0.13527923  1
  Al  Al147  1  0.36399752  0.74501714  0.63415579  1
  Al  Al148  1  0.86239995  0.25024802  0.13188919  1
  Al  Al149  1  0.86078970  0.25416001  0.63492723  1
  Al  Al150  1  0.86306804  0.74873135  0.13586913  1
  Al  Al151  1  0.86832655  0.75270854  0.63633746  1
  Al  Al152  1  0.37219892  0.25442880  0.36088498  1
  Al  Al153  1  0.36628696  0.24990267  0.86445772  1
  Al  Al154  1  0.36730129  0.74330103  0.36124009  1
  Al  Al155  1  0.37009716  0.74742786  0.86565300  1
  Al  Al156  1  0.86300149  0.25091602  0.36517759  1
  Al  Al157  1  0.86233015  0.25111924  0.87143646  1
  Al  Al158  1  0.86163221  0.75500696  0.36470875  1
  Al  Al159  1  0.86976345  0.75062565  0.86172443  1
  Al  Al160  1  0.12856157  0.13854121  0.24934164  1
  Al  Al161  1  0.13631458  0.13769215  0.74951296  1
  Al  Al162  1  0.13836421  0.62915002  0.24682824  1
  Al  Al163  1  0.12741500  0.63868538  0.75049970  1
  Al  Al164  1  0.63701760  0.13816529  0.25272352  1
  Al  Al165  1  0.63942748  0.13078800  0.74633470  1
  Al  Al166  1  0.62678139  0.63820022  0.24933869  1
  Al  Al167  1  0.63108776  0.63851506  0.74987718  1
  Al  Al168  1  0.36508091  0.13402578  0.25024581  1
  Al  Al169  1  0.36560439  0.13432314  0.75025505  1
  Al  Al170  1  0.37015819  0.63020355  0.24689271  1
  Al  Al171  1  0.36890523  0.63629498  0.75038315  1
  Al  Al172  1  0.86749331  0.13638052  0.25303675  1
  Al  Al173  1  0.86313513  0.13519306  0.74865642  1
  Al  Al174  1  0.86075893  0.63472355  0.24757727  1
  Al  Al175  1  0.86869674  0.63342962  0.74943175  1
  Al  Al176  1  0.13484262  0.37098883  0.24857439  1
  Al  Al177  1  0.13336303  0.36675998  0.74917834  1
  Al  Al178  1  0.13722126  0.86132074  0.24705714  1
  Al  Al179  1  0.13086072  0.86226341  0.75113255  1
  Al  Al180  1  0.63071215  0.36345398  0.25152541  1
  Al  Al181  1  0.63722858  0.36410468  0.75021315  1
  Al  Al182  1  0.63599639  0.86227632  0.24790799  1
  Al  Al183  1  0.63747655  0.86858900  0.74812527  1
  Al  Al184  1  0.36936006  0.36986663  0.24931107  1
  Al  Al185  1  0.36292917  0.36627017  0.75157779  1
  Al  Al186  1  0.36761530  0.86345055  0.24641574  1
  Al  Al187  1  0.36426443  0.86423103  0.75429982  1
  Al  Al188  1  0.86366712  0.36381831  0.24823856  1
  Al  Al189  1  0.86179742  0.37144944  0.75071461  1
  Al  Al190  1  0.86183977  0.87148018  0.25011562  1
  Al  Al191  1  0.86528672  0.86482836  0.74634825  1
  Al  Al192  1  0.82426366  0.49808334  0.31999518  1
  Al  Al193  1  0.82072133  0.82605613  -0.00268810  1
  Al  Al194  1  0.50161079  0.81995373  0.67906694  1
  Al  Al195  1  -0.00061999  0.31543709  0.17540187  1
  Al  Al196  1  0.68969411  0.50178931  0.81775580  1
  Al  Al197  1  0.67966261  -0.00165159  0.32755320  1
  Al  Al198  1  -0.00151509  0.31414169  0.32512531  1
  Al  Al199  1  0.32624478  0.67142666  0.49781838  1
  Al  Al200  1  0.32583283  -0.00139512  0.82426198  1
  Al  Al201  1  0.31925218  0.32426078  0.49654689  1
  Al  Al202  1  0.67396543  -0.00042502  0.17026426  1
  Al  Al203  1  0.32545965  0.50172383  0.81982903  1
  Al  Al204  1  0.49986131  0.32661222  0.66881251  1
  Al  Al205  1  0.00026548  0.83016613  0.32927638  1
  Al  Al206  1  0.32735625  0.82753761  0.50002153  1
  Al  Al207  1  0.17093453  -0.00085957  0.67106531  1
  Al  Al208  1  0.17164230  0.00015216  0.31933166  1
  Al  Al209  1  0.17122364  0.82668193  0.49987679  1
  Al  Al210  1  0.17810293  0.31260934  0.00214034  1
  Al  Al211  1  -0.00299258  0.67753576  0.32754124  1
  Al  Al212  1  0.00293677  0.16733393  0.82557476  1
  Al  Al213  1  0.32976782  0.33033790  0.00204259  1
  Al  Al214  1  0.50507248  0.16618185  0.67512533  1
  Al  Al215  1  -0.00011406  0.82472462  0.17332657  1
  Al  Al216  1  0.31053212  0.17897721  0.00185430  1
  Al  Al217  1  0.68291396  0.17489098  0.00210618  1
  Al  Al218  1  0.31417362  0.81624912  0.00053664  1
  Al  Al219  1  0.17412478  0.18153395  0.49939046  1
  Al  Al220  1  0.67332087  0.68510556  0.49890490  1
  Al  Al221  1  0.50156143  0.80954278  0.31118001  1
  Al  Al222  1  -0.00058078  0.32713248  0.66917139  1
  Al  Al223  1  0.67853037  0.32971333  0.00498279  1
  Al  Al224  1  0.17127943  0.50335646  0.81729572  1
  Al  Al225  1  0.50051279  0.18944888  0.18162047  1
  Al  Al226  1  0.82272977  -0.00544224  0.82175166  1
  Al  Al227  1  0.81531612  0.67102284  0.00049779  1
  Al  Al228  1  -0.00210142  0.32775224  0.82998946  1
  Al  Al229  1  -0.00008550  0.66905272  0.16988388  1
  Al  Al230  1  -0.00188963  0.17096065  0.66962812  1
  Al  Al231  1  0.82841749  0.68694772  0.50024976  1
  Al  Al232  1  0.16975259  -0.00142082  0.82873483  1
  Al  Al233  1  0.50018017  0.32405728  0.83344029  1
  Al  Al234  1  0.32351786  -0.00164035  0.16975335  1
  Al  Al235  1  0.80957389  0.19012636  0.50110966  1
  Al  Al236  1  0.32951600  -0.00266677  0.32887657  1
  Al  Al237  1  0.32922843  0.17230004  0.49738164  1
  Al  Al238  1  0.67152217  0.50111155  0.31711380  1
  Au  Au239  1  0.49798520  0.34299654  0.66124040  1
  Au  Au240  1  0.16750634  0.83831308  0.49609331  1
  Au  Au241  1  0.50483407  0.66463830  0.83818042  1
  Au  Au242  1  0.32205500  0.50049777  0.83190306  1
  Au  Au243  1  0.33446465  -0.00156208  0.16364925  1
  Au  Au244  1  0.83141704  -0.00338226  0.83046798  1
  Au  Au245  1  0.83979448  0.00502015  0.16960305  1
  Au  Au246  1  0.32131365  0.50074810  0.66504569  1
  Au  Au247  1  0.82544529  -0.00129732  0.66412655  1
  Au  Au248  1  -0.00251679  0.33885775  0.83836809  1
  Au  Au249  1  0.82270665  0.67095665  0.49964598  1
  Au  Au250  1  0.66454655  0.82112016  0.00138225  1
  Au  Au251  1  0.17503587  0.49785499  0.33433834  1
  Au  Au252  1  0.82446511  0.50178981  0.16973890  1
  Au  Au253  1  -0.00137695  0.66052409  0.32752466  1
  Au  Au254  1  0.83396041  0.49978569  0.67747764  1
  Au  Au255  1  0.49795307  0.33628574  0.83180733  1
  Au  Au256  1  0.32708456  -0.00298648  0.34160243  1
  Au  Au257  1  0.50645384  0.16525921  0.32733651  1
  Au  Au258  1  0.33729893  0.66786500  0.49309957  1
  Au  Au259  1  0.50203641  0.17028578  0.84034190  1
  Au  Au260  1  0.83287250  0.17483299  0.00226004  1
  Au  Au261  1  0.33838300  0.49857355  0.17566549  1
  Au  Au262  1  0.66763397  0.33347593  -0.00056311  1
  Au  Au263  1  -0.00158872  0.15620899  0.82928100  1
  Au  Au264  1  0.50629538  0.16824801  0.66275446  1
  Au  Au265  1  0.50211203  0.67793520  0.17580953  1
  Au  Au266  1  0.82962802  0.00029480  0.33977631  1
  Au  Au267  1  0.65788693  0.00302497  0.17162991  1
  Au  Au268  1  0.00024484  0.83480422  0.16361693  1
  Au  Au269  1  0.32293363  0.67085743  0.00199507  1
  Au  Au270  1  0.83280193  0.82272054  -0.00118735  1
  Au  Au271  1  0.15847772  0.00038056  0.67418888  1
  Au  Au272  1  0.66609874  0.00125996  0.82487980  1
  Au  Au273  1  0.32985208  -0.00004146  0.83629253  1
  Au  Au274  1  0.16525487  0.66308615  0.50523597  1
  Au  Au275  1  0.68021796  0.32103932  0.49862049  1
  Au  Au276  1  -0.00521269  0.33091431  0.65818427  1
  Au  Au277  1  0.17052343  0.33066228  0.49844656  1
  Au  Au278  1  -0.00152013  0.67830758  0.66883745  1
  Au  Au279  1  0.33490302  -0.00635357  0.66057249  1
  Au  Au280  1  -0.00165776  0.67616519  0.83611912  1
  Au  Au281  1  0.50023305  0.83346689  0.82801814  1
  Au  Au282  1  0.50321031  0.67231170  0.66350122  1
  Au  Au283  1  0.16886654  0.50323717  0.16409473  1
  Au  Au284  1  0.66829375  0.50300390  0.67137626  1
  Au  Au285  1  0.49859928  0.33580927  0.32189778  1
  Au  Au286  1  0.15979504  0.00275093  0.16965084  1
  Au  Au287  1  -0.00109399  0.32593366  0.16600822  1
