# generated using pymatgen
data_Ca24Ti8Al207Au49
_symmetry_space_group_name_H-M   'P 1'
_cell_length_a   17.32001413
_cell_length_b   17.31862284
_cell_length_c   17.32037063
_cell_angle_alpha   90.00002050
_cell_angle_beta   90.00179360
_cell_angle_gamma   89.99931268
_symmetry_Int_Tables_number   1
_chemical_formula_structural   Ca24Ti8Al207Au49
_chemical_formula_sum   'Ca24 Ti8 Al207 Au49'
_cell_volume   5195.39745638
_cell_formula_units_Z   1
loop_
 _symmetry_equiv_pos_site_id
 _symmetry_equiv_pos_as_xyz
  1  'x, y, z'
loop_
 _atom_site_type_symbol
 _atom_site_label
 _atom_site_symmetry_multiplicity
 _atom_site_fract_x
 _atom_site_fract_y
 _atom_site_fract_z
 _atom_site_occupancy
  Ca  Ca0  1  0.24577694  -0.00018896  -0.00474821  1
  Ca  Ca1  1  0.24744116  -0.00128366  0.50322015  1
  Ca  Ca2  1  0.24930830  0.49848889  -0.00324370  1
  Ca  Ca3  1  0.25218554  0.50432499  0.50326908  1
  Ca  Ca4  1  0.75336410  0.00417381  0.00107813  1
  Ca  Ca5  1  0.74465984  0.00021309  0.49802475  1
  Ca  Ca6  1  0.75172313  0.50023254  -0.00497740  1
  Ca  Ca7  1  0.74817360  0.50258245  0.50182966  1
  Ca  Ca8  1  0.00491608  0.24370738  -0.00272301  1
  Ca  Ca9  1  0.00175067  0.25382089  0.49933938  1
  Ca  Ca10  1  -0.00296176  0.75419961  0.00185790  1
  Ca  Ca11  1  -0.00305745  0.74932319  0.49999674  1
  Ca  Ca12  1  0.49711065  0.24327637  -0.00115377  1
  Ca  Ca13  1  0.49944788  0.25240499  0.50267313  1
  Ca  Ca14  1  0.50077291  0.75387493  -0.00077457  1
  Ca  Ca15  1  0.50377921  0.74499518  0.50473584  1
  Ca  Ca16  1  -0.00054891  0.00055259  0.24177741  1
  Ca  Ca17  1  -0.00408519  0.00231339  0.75863274  1
  Ca  Ca18  1  0.00103001  0.49854891  0.25428694  1
  Ca  Ca19  1  0.00336606  0.49919747  0.75081883  1
  Ca  Ca20  1  0.50227275  -0.00230234  0.24320908  1
  Ca  Ca21  1  0.50207937  0.00217037  0.75096431  1
  Ca  Ca22  1  0.50019732  0.50257457  0.25657189  1
  Ca  Ca23  1  0.49809528  0.50025372  0.74287282  1
  Ti  Ti24  1  0.24773359  0.24988623  0.24711434  1
  Ti  Ti25  1  0.25124228  0.25217380  0.75194805  1
  Ti  Ti26  1  0.24775283  0.75037204  0.24874099  1
  Ti  Ti27  1  0.25046478  0.74711131  0.75065813  1
  Ti  Ti28  1  0.75148882  0.24845664  0.24986912  1
  Ti  Ti29  1  0.75041262  0.24866355  0.75032031  1
  Ti  Ti30  1  0.75200089  0.75157806  0.24865483  1
  Ti  Ti31  1  0.75078875  0.75064836  0.75115239  1
  Al  Al32  1  0.09213477  0.08418060  0.08417908  1
  Al  Al33  1  0.08170261  0.08506723  0.57808744  1
  Al  Al34  1  0.07617989  0.58286043  0.07562135  1
  Al  Al35  1  0.10509058  0.58431623  0.58653520  1
  Al  Al36  1  0.60100790  0.08396510  0.08570881  1
  Al  Al37  1  0.57587660  0.08341933  0.58893248  1
  Al  Al38  1  0.57866592  0.59455682  0.08868125  1
  Al  Al39  1  0.58244178  0.59524571  0.59023360  1
  Al  Al40  1  0.41767219  0.41408676  0.07579002  1
  Al  Al41  1  0.40850101  0.42477718  0.59069991  1
  Al  Al42  1  0.41066079  0.91024716  0.07880159  1
  Al  Al43  1  0.42389596  0.91264614  0.59434464  1
  Al  Al44  1  0.92794340  0.40740715  0.08855731  1
  Al  Al45  1  0.91190734  0.41352990  0.57741605  1
  Al  Al46  1  0.91123803  0.91415499  0.08124768  1
  Al  Al47  1  0.91722762  0.92235535  0.57850444  1
  Al  Al48  1  0.43077158  0.07956687  0.42210564  1
  Al  Al49  1  0.41409786  0.09075198  0.91763948  1
  Al  Al50  1  0.41121892  0.59004629  0.42549538  1
  Al  Al51  1  0.40965187  0.58131269  0.91901233  1
  Al  Al52  1  0.91592787  0.07665269  0.40782403  1
  Al  Al53  1  0.91451060  0.08921200  0.91605737  1
  Al  Al54  1  0.92491768  0.58274170  0.42258558  1
  Al  Al55  1  0.90967636  0.58739369  0.91791124  1
  Al  Al56  1  0.07871579  0.41431945  0.41441176  1
  Al  Al57  1  0.09054629  0.41356075  0.91219967  1
  Al  Al58  1  0.07649144  0.91471428  0.40420745  1
  Al  Al59  1  0.08139572  0.91290842  0.92914723  1
  Al  Al60  1  0.58052942  0.42212372  0.42407367  1
  Al  Al61  1  0.57645966  0.42073787  0.91943861  1
  Al  Al62  1  0.59306945  0.91553066  0.41760904  1
  Al  Al63  1  0.58317587  0.92156859  0.92428866  1
  Al  Al64  1  0.08394296  0.07968933  0.41633709  1
  Al  Al65  1  0.07931947  0.08992588  0.92172826  1
  Al  Al66  1  0.09116136  0.59214876  0.42470361  1
  Al  Al67  1  0.08992941  0.57818413  0.91035532  1
  Al  Al68  1  0.58906507  0.07500364  0.40279261  1
  Al  Al69  1  0.58718161  0.09092099  0.92259317  1
  Al  Al70  1  0.57928108  0.59097166  0.42923459  1
  Al  Al71  1  0.57825628  0.58167849  0.92457685  1
  Al  Al72  1  0.41658024  0.42653915  0.42837317  1
  Al  Al73  1  0.41058934  0.41751722  0.91515588  1
  Al  Al74  1  0.42630369  0.91796885  0.42768912  1
  Al  Al75  1  0.40901358  0.91085197  0.91980745  1
  Al  Al76  1  0.91748096  0.39912987  0.41759147  1
  Al  Al77  1  0.92413095  0.42176857  0.91724034  1
  Al  Al78  1  0.91701860  0.91542462  0.40130748  1
  Al  Al79  1  0.91306615  0.91626630  0.92124619  1
  Al  Al80  1  0.08316996  0.40298536  0.07983284  1
  Al  Al81  1  0.09071268  0.42601339  0.58899824  1
  Al  Al82  1  0.09597821  0.91909834  0.08834222  1
  Al  Al83  1  0.07854400  0.92426355  0.57384463  1
  Al  Al84  1  0.57874859  0.42126224  0.07908527  1
  Al  Al85  1  0.58037765  0.42131720  0.58367555  1
  Al  Al86  1  0.59173057  0.92123693  0.08935699  1
  Al  Al87  1  0.58268968  0.90233786  0.58366661  1
  Al  Al88  1  0.41251313  0.08704275  0.07610194  1
  Al  Al89  1  0.42136029  0.08089335  0.59267488  1
  Al  Al90  1  0.42172186  0.59650097  0.08241127  1
  Al  Al91  1  0.40770153  0.59030282  0.58902484  1
  Al  Al92  1  0.91108530  0.08715715  0.07928404  1
  Al  Al93  1  0.91997584  0.08277365  0.58479898  1
  Al  Al94  1  0.91271341  0.59330304  0.07552192  1
  Al  Al95  1  0.91636533  0.57800716  0.58192423  1
  Al  Al96  1  0.24483728  0.13773001  0.12758050  1
  Al  Al97  1  0.24931168  0.13516328  0.63902283  1
  Al  Al98  1  0.24393992  0.63819604  0.13641348  1
  Al  Al99  1  0.25246617  0.63039820  0.63645324  1
  Al  Al100  1  0.75033304  0.13195236  0.13442074  1
  Al  Al101  1  0.75285210  0.12761950  0.63587018  1
  Al  Al102  1  0.75660478  0.64013980  0.13185839  1
  Al  Al103  1  0.74737002  0.63747303  0.63426034  1
  Al  Al104  1  0.24685271  0.36014947  0.13154777  1
  Al  Al105  1  0.24638748  0.37222609  0.63808359  1
  Al  Al106  1  0.24557784  0.86325491  0.13124627  1
  Al  Al107  1  0.25099556  0.86144879  0.63441275  1
  Al  Al108  1  0.74990312  0.36053401  0.13499968  1
  Al  Al109  1  0.75249368  0.36153428  0.63096199  1
  Al  Al110  1  0.75265516  0.86794078  0.13446027  1
  Al  Al111  1  0.75026973  0.86770384  0.63503613  1
  Al  Al112  1  0.24421530  0.13584227  0.35816039  1
  Al  Al113  1  0.25146947  0.13493355  0.87184370  1
  Al  Al114  1  0.24664350  0.63832886  0.36676990  1
  Al  Al115  1  0.24895063  0.62759715  0.86115862  1
  Al  Al116  1  0.75028670  0.13417826  0.36410836  1
  Al  Al117  1  0.74964962  0.13563756  0.86970725  1
  Al  Al118  1  0.74845856  0.63544955  0.36238412  1
  Al  Al119  1  0.75226051  0.63674174  0.86625596  1
  Al  Al120  1  0.24549303  0.36597250  0.36247517  1
  Al  Al121  1  0.24991588  0.37127030  0.86424563  1
  Al  Al122  1  0.24661054  0.86269095  0.36205243  1
  Al  Al123  1  0.25211915  0.86346944  0.86738702  1
  Al  Al124  1  0.75094868  0.36231326  0.36838191  1
  Al  Al125  1  0.75135871  0.36237178  0.86615534  1
  Al  Al126  1  0.75082409  0.86396722  0.36139858  1
  Al  Al127  1  0.75075360  0.86456016  0.87077089  1
  Al  Al128  1  0.12921244  0.24828605  0.13402151  1
  Al  Al129  1  0.13915581  0.25298618  0.63675975  1
  Al  Al130  1  0.12684431  0.75391553  0.13440379  1
  Al  Al131  1  0.13836697  0.74125297  0.63095269  1
  Al  Al132  1  0.63164644  0.24403207  0.13623320  1
  Al  Al133  1  0.63504917  0.24702418  0.63578417  1
  Al  Al134  1  0.63262085  0.75468064  0.13462010  1
  Al  Al135  1  0.63285857  0.75045995  0.63719043  1
  Al  Al136  1  0.13119632  0.25598138  0.36189594  1
  Al  Al137  1  0.13645731  0.24842735  0.86510069  1
  Al  Al138  1  0.12926983  0.75011962  0.36090370  1
  Al  Al139  1  0.13597466  0.74808328  0.86224739  1
  Al  Al140  1  0.63586624  0.24996051  0.36281917  1
  Al  Al141  1  0.63591079  0.24544247  0.86381778  1
  Al  Al142  1  0.63613945  0.74925879  0.36449525  1
  Al  Al143  1  0.63559849  0.75335507  0.86795232  1
  Al  Al144  1  0.36597831  0.24807669  0.12870836  1
  Al  Al145  1  0.36222416  0.25133836  0.63984674  1
  Al  Al146  1  0.36559706  0.75336278  0.13424575  1
  Al  Al147  1  0.36712066  0.74159259  0.63782157  1
  Al  Al148  1  0.86669521  0.24523845  0.13381665  1
  Al  Al149  1  0.86481645  0.24894972  0.63394499  1
  Al  Al150  1  0.86982477  0.75360243  0.13383684  1
  Al  Al151  1  0.86622145  0.74837075  0.63301093  1
  Al  Al152  1  0.35983232  0.24839414  0.36247830  1
  Al  Al153  1  0.36190293  0.25026880  0.86946706  1
  Al  Al154  1  0.36365582  0.74787839  0.36909226  1
  Al  Al155  1  0.36565647  0.74733381  0.86146825  1
  Al  Al156  1  0.86915305  0.25354558  0.36376637  1
  Al  Al157  1  0.86702533  0.24180807  0.86730427  1
  Al  Al158  1  0.87063155  0.75251696  0.36410176  1
  Al  Al159  1  0.86393458  0.74923497  0.86891703  1
  Al  Al160  1  0.13187040  0.13311271  0.24346419  1
  Al  Al161  1  0.13720363  0.13747540  0.75643795  1
  Al  Al162  1  0.12859960  0.63490882  0.25067949  1
  Al  Al163  1  0.13366659  0.63168307  0.74905016  1
  Al  Al164  1  0.63802852  0.12919725  0.24735835  1
  Al  Al165  1  0.63798287  0.12898120  0.74888174  1
  Al  Al166  1  0.63599686  0.63781550  0.24579613  1
  Al  Al167  1  0.63344357  0.63786467  0.74782919  1
  Al  Al168  1  0.36353822  0.13548054  0.24110739  1
  Al  Al169  1  0.36322604  0.13588625  0.75352478  1
  Al  Al170  1  0.36240274  0.64056671  0.24931963  1
  Al  Al171  1  0.36295558  0.62454649  0.74733097  1
  Al  Al172  1  0.86619472  0.13310692  0.24692015  1
  Al  Al173  1  0.86520309  0.13520846  0.75291145  1
  Al  Al174  1  0.87167839  0.63730856  0.25283823  1
  Al  Al175  1  0.87116837  0.63866757  0.74879376  1
  Al  Al176  1  0.13037238  0.36508380  0.24760832  1
  Al  Al177  1  0.13603804  0.36833149  0.75303297  1
  Al  Al178  1  0.13169996  0.86454095  0.24619332  1
  Al  Al179  1  0.13852038  0.85969113  0.74875650  1
  Al  Al180  1  0.63668410  0.36576402  0.24863944  1
  Al  Al181  1  0.63675657  0.36290698  0.74826610  1
  Al  Al182  1  0.63594109  0.86909513  0.24876716  1
  Al  Al183  1  0.63838739  0.86901794  0.74820204  1
  Al  Al184  1  0.36252357  0.36267691  0.24505053  1
  Al  Al185  1  0.36164574  0.37503504  0.74754385  1
  Al  Al186  1  0.36713892  0.86183259  0.24808869  1
  Al  Al187  1  0.36390865  0.86100446  0.74839831  1
  Al  Al188  1  0.86894043  0.36266593  0.24798036  1
  Al  Al189  1  0.86484292  0.36109722  0.75019619  1
  Al  Al190  1  0.87117595  0.86554221  0.24663085  1
  Al  Al191  1  0.86287256  0.86370457  0.75127568  1
  Al  Al192  1  0.18077595  0.31041869  -0.00206806  1
  Al  Al193  1  0.32657480  0.68699732  -0.00079478  1
  Al  Al194  1  0.49558935  0.33115521  0.32571161  1
  Al  Al195  1  0.33099039  0.00002735  0.32906386  1
  Al  Al196  1  0.67070789  0.50027686  0.82773974  1
  Al  Al197  1  0.50254548  0.82819566  0.32028536  1
  Al  Al198  1  0.67174237  0.50135020  0.17885205  1
  Al  Al199  1  0.81227360  -0.00111156  0.31358157  1
  Al  Al200  1  0.16919181  0.49770340  0.17504766  1
  Al  Al201  1  0.00186945  0.82474481  0.67072070  1
  Al  Al202  1  0.32916852  0.81562093  0.50578338  1
  Al  Al203  1  0.50092131  0.17455326  0.81618021  1
  Al  Al204  1  0.17366553  -0.00132545  0.31367470  1
  Al  Al205  1  0.67685708  0.68100348  -0.00000301  1
  Al  Al206  1  0.00047191  0.31601171  0.82544144  1
  Al  Al207  1  0.50158236  0.82905799  0.81269851  1
  Al  Al208  1  0.49844200  0.67127706  0.81581550  1
  Al  Al209  1  0.67995733  0.50066139  0.67536676  1
  Al  Al210  1  0.32866655  0.50396652  0.16853528  1
  Al  Al211  1  0.82162784  -0.00024433  0.82398830  1
  Al  Al212  1  0.00309249  0.17796846  0.31958709  1
  Al  Al213  1  0.17248775  -0.00249390  0.82959328  1
  Al  Al214  1  0.32735721  0.16695973  0.50008727  1
  Al  Al215  1  0.00117292  0.32991299  0.67202557  1
  Al  Al216  1  0.17188331  -0.00034519  0.67231706  1
  Al  Al217  1  0.83091413  0.31659146  -0.00099980  1
  Al  Al218  1  0.49884061  0.67245607  0.32152641  1
  Al  Al219  1  0.17594237  0.18147651  0.49805219  1
  Al  Al220  1  0.66870487  0.17628095  0.49941487  1
  Al  Al221  1  0.82813321  0.49754039  0.16864930  1
  Al  Al222  1  0.31615410  0.32786914  0.50117984  1
  Al  Al223  1  0.82503224  0.49585214  0.33048101  1
  Al  Al224  1  0.00246252  0.17280888  0.69085243  1
  Al  Al225  1  0.31169772  0.00039999  0.16798410  1
  Al  Al226  1  0.49803982  0.31925340  0.67572441  1
  Al  Al227  1  0.32174408  0.50189915  0.32743925  1
  Al  Al228  1  -0.00065281  0.82115963  0.82959922  1
  Al  Al229  1  0.67215692  0.31194665  0.00011219  1
  Al  Al230  1  0.17209783  0.68749859  -0.00159334  1
  Al  Al231  1  0.32576823  -0.00152177  0.68024998  1
  Al  Al232  1  0.82704092  0.18248731  0.49809319  1
  Al  Al233  1  0.49994139  0.17337332  0.31686951  1
  Al  Al234  1  0.49842213  0.32654902  0.82732362  1
  Al  Al235  1  0.68265620  0.81028569  0.50041675  1
  Al  Al236  1  0.81183646  0.68129333  0.49766053  1
  Al  Al237  1  0.17144447  0.81598944  0.49665199  1
  Al  Al238  1  0.82555490  0.49997183  0.81829133  1
  Au  Au239  1  0.00011046  0.17515599  0.16238530  1
  Au  Au240  1  0.65285024  0.16979740  0.49733989  1
  Au  Au241  1  0.32361590  -0.00048445  0.34432035  1
  Au  Au242  1  0.00088809  0.16963869  0.32881362  1
  Au  Au243  1  0.50188804  0.83577887  0.82827189  1
  Au  Au244  1  0.83793152  0.16947763  0.49680651  1
  Au  Au245  1  0.17752316  0.67135452  -0.00206364  1
  Au  Au246  1  0.67666553  0.66842970  -0.00241331  1
  Au  Au247  1  0.83197271  0.50172902  0.15751653  1
  Au  Au248  1  0.15869059  0.82691021  0.49423556  1
  Au  Au249  1  0.00610529  0.66056026  0.66357777  1
  Au  Au250  1  0.82223228  0.66789597  0.49884771  1
  Au  Au251  1  -0.00046932  0.66972351  0.83720898  1
  Au  Au252  1  0.50289785  0.15857477  0.16707972  1
  Au  Au253  1  0.32740058  0.32254237  -0.00134333  1
  Au  Au254  1  0.16513095  0.33269638  0.50240576  1
  Au  Au255  1  0.33644952  0.00136003  0.83042664  1
  Au  Au256  1  0.15622262  -0.00213129  0.82787111  1
  Au  Au257  1  0.00193169  0.67574455  0.33754843  1
  Au  Au258  1  0.17097806  0.50185525  0.33900769  1
  Au  Au259  1  0.00510004  0.17612835  0.67405902  1
  Au  Au260  1  0.49336518  0.32610283  0.34186896  1
  Au  Au261  1  0.49764146  0.33012428  0.66618779  1
  Au  Au262  1  0.34503499  0.50652461  0.17419908  1
  Au  Au263  1  0.67340794  0.00356150  0.83944932  1
  Au  Au264  1  0.66647106  0.50101041  0.16749586  1
  Au  Au265  1  0.50297476  0.82513729  0.33280115  1
  Au  Au266  1  0.82752988  0.84333798  0.49419622  1
  Au  Au267  1  0.16541936  0.49630445  0.16313050  1
  Au  Au268  1  0.82357308  0.00087019  0.16669872  1
  Au  Au269  1  0.50078781  0.82693119  0.16068799  1
  Au  Au270  1  0.49742337  0.65724524  0.82425149  1
  Au  Au271  1  0.00175006  0.83865178  0.16981984  1
  Au  Au272  1  0.68183194  0.83664222  0.00382382  1
  Au  Au273  1  0.34091628  0.17537071  0.50605487  1
  Au  Au274  1  0.66072779  0.50931023  0.33742371  1
  Au  Au275  1  0.34483073  0.82033776  0.50828161  1
  Au  Au276  1  0.65962242  0.32302231  -0.00220931  1
  Au  Au277  1  0.31753306  0.00094287  0.15272737  1
  Au  Au278  1  0.84050679  0.49401504  0.33399634  1
  Au  Au279  1  0.49949704  0.32836462  0.16423518  1
  Au  Au280  1  -0.00224296  0.67005384  0.16794966  1
  Au  Au281  1  0.82975697  0.49526350  0.67067995  1
  Au  Au282  1  0.84669309  0.32110756  -0.00162994  1
  Au  Au283  1  0.67869273  0.34117504  0.50163879  1
  Au  Au284  1  0.00161073  0.84073300  0.67707123  1
  Au  Au285  1  0.83245429  -0.00041441  0.67365787  1
  Au  Au286  1  0.32247251  0.49958930  0.82708762  1
  Au  Au287  1  0.66219693  -0.00432199  0.66612847  1
