# generated using pymatgen
data_Ca24Ti8Al207Au49
_symmetry_space_group_name_H-M   'P 1'
_cell_length_a   17.32674713
_cell_length_b   17.32623754
_cell_length_c   17.32702073
_cell_angle_alpha   89.99917298
_cell_angle_beta   90.00110651
_cell_angle_gamma   89.99936533
_symmetry_Int_Tables_number   1
_chemical_formula_structural   Ca24Ti8Al207Au49
_chemical_formula_sum   'Ca24 Ti8 Al207 Au49'
_cell_volume   5201.69874355
_cell_formula_units_Z   1
loop_
 _symmetry_equiv_pos_site_id
 _symmetry_equiv_pos_as_xyz
  1  'x, y, z'
loop_
 _atom_site_type_symbol
 _atom_site_label
 _atom_site_symmetry_multiplicity
 _atom_site_fract_x
 _atom_site_fract_y
 _atom_site_fract_z
 _atom_site_occupancy
  Ca  Ca0  1  0.25036278  -0.00210293  -0.00063266  1
  Ca  Ca1  1  0.24682287  0.00139163  0.49815039  1
  Ca  Ca2  1  0.25150659  0.50097830  -0.00061751  1
  Ca  Ca3  1  0.25080696  0.49787100  0.50205862  1
  Ca  Ca4  1  0.74792318  -0.00024459  0.00366599  1
  Ca  Ca5  1  0.75127084  -0.00068113  0.49713943  1
  Ca  Ca6  1  0.75044579  0.50203590  -0.00018553  1
  Ca  Ca7  1  0.74902444  0.50233573  0.49870832  1
  Ca  Ca8  1  -0.00048761  0.25256601  0.00032476  1
  Ca  Ca9  1  0.00250740  0.25060868  0.50148717  1
  Ca  Ca10  1  0.00135847  0.74905322  -0.00147615  1
  Ca  Ca11  1  -0.00209375  0.75243203  0.49939856  1
  Ca  Ca12  1  0.49816822  0.25235430  -0.00191942  1
  Ca  Ca13  1  0.49838022  0.25150809  0.50335875  1
  Ca  Ca14  1  0.49970769  0.74976175  0.00434925  1
  Ca  Ca15  1  0.50319218  0.74773085  0.49659982  1
  Ca  Ca16  1  -0.00093678  -0.00338901  0.25230843  1
  Ca  Ca17  1  0.00201236  -0.00117954  0.74899306  1
  Ca  Ca18  1  -0.00076660  0.50047679  0.25016732  1
  Ca  Ca19  1  0.00097277  0.50035338  0.74984229  1
  Ca  Ca20  1  0.50185940  -0.00487672  0.24969925  1
  Ca  Ca21  1  0.49854911  0.00316306  0.75154934  1
  Ca  Ca22  1  0.49966035  0.50265259  0.24957056  1
  Ca  Ca23  1  0.49779116  0.49683339  0.74947851  1
  Ti  Ti24  1  0.24943750  0.25069856  0.25023214  1
  Ti  Ti25  1  0.25047404  0.25068331  0.75031030  1
  Ti  Ti26  1  0.25030336  0.74965837  0.24988194  1
  Ti  Ti27  1  0.24875573  0.74892324  0.75069858  1
  Ti  Ti28  1  0.75042017  0.24988753  0.25034779  1
  Ti  Ti29  1  0.74960915  0.25125852  0.74962342  1
  Ti  Ti30  1  0.75005577  0.75038200  0.25006534  1
  Ti  Ti31  1  0.75106409  0.74891004  0.74975773  1
  Al  Al32  1  0.08147151  0.08314484  0.08131267  1
  Al  Al33  1  0.08229063  0.09261903  0.58368823  1
  Al  Al34  1  0.08941426  0.58521594  0.08112989  1
  Al  Al35  1  0.08614946  0.58033866  0.58640367  1
  Al  Al36  1  0.58656294  0.07817113  0.08805572  1
  Al  Al37  1  0.58385276  0.09307193  0.57680179  1
  Al  Al38  1  0.58710675  0.58913461  0.08302537  1
  Al  Al39  1  0.59178296  0.58138852  0.57730283  1
  Al  Al40  1  0.40731078  0.41876621  0.08088923  1
  Al  Al41  1  0.41193048  0.41259709  0.58983759  1
  Al  Al42  1  0.42100714  0.91184415  0.08729381  1
  Al  Al43  1  0.41747865  0.92186644  0.57973206  1
  Al  Al44  1  0.91618714  0.41648714  0.08079193  1
  Al  Al45  1  0.92124793  0.41087061  0.58757846  1
  Al  Al46  1  0.91964636  0.91134610  0.08694112  1
  Al  Al47  1  0.91842845  0.90860695  0.57734729  1
  Al  Al48  1  0.41602274  0.08354988  0.42068589  1
  Al  Al49  1  0.41653744  0.08599118  0.91531570  1
  Al  Al50  1  0.41983829  0.58394548  0.41282145  1
  Al  Al51  1  0.40855792  0.57899389  0.91765815  1
  Al  Al52  1  0.91299154  0.08531630  0.42159045  1
  Al  Al53  1  0.92122615  0.08760204  0.92096113  1
  Al  Al54  1  0.91182099  0.58659678  0.41467694  1
  Al  Al55  1  0.91118655  0.58554931  0.91642626  1
  Al  Al56  1  0.08600928  0.40875532  0.42036268  1
  Al  Al57  1  0.08562580  0.41790039  0.91445766  1
  Al  Al58  1  0.08157662  0.91052280  0.41595357  1
  Al  Al59  1  0.08290892  0.90754126  0.91749738  1
  Al  Al60  1  0.58893167  0.42199881  0.41371561  1
  Al  Al61  1  0.58230351  0.41585111  0.91701315  1
  Al  Al62  1  0.58410623  0.90634387  0.41421067  1
  Al  Al63  1  0.57928759  0.91390304  0.92339358  1
  Al  Al64  1  0.08634958  0.08616591  0.42124491  1
  Al  Al65  1  0.08268530  0.08452527  0.91596020  1
  Al  Al66  1  0.07999415  0.58512682  0.41619897  1
  Al  Al67  1  0.08845273  0.58763668  0.91764077  1
  Al  Al68  1  0.58996352  0.08413035  0.41976592  1
  Al  Al69  1  0.57654413  0.08834973  0.91861835  1
  Al  Al70  1  0.58846899  0.58874088  0.41325676  1
  Al  Al71  1  0.58983204  0.58531203  0.92209737  1
  Al  Al72  1  0.41250345  0.41613892  0.41893807  1
  Al  Al73  1  0.40895592  0.41541869  0.91505875  1
  Al  Al74  1  0.42318579  0.91114359  0.41221138  1
  Al  Al75  1  0.41594633  0.91843436  0.91780647  1
  Al  Al76  1  0.91667597  0.41729149  0.41369360  1
  Al  Al77  1  0.91402192  0.41932625  0.91518790  1
  Al  Al78  1  0.91670654  0.90961375  0.41542629  1
  Al  Al79  1  0.92414708  0.90773098  0.91750872  1
  Al  Al80  1  0.08668369  0.42011088  0.08485179  1
  Al  Al81  1  0.08882094  0.40831195  0.58755796  1
  Al  Al82  1  0.08133977  0.90739819  0.08229773  1
  Al  Al83  1  0.08198127  0.91141127  0.57959147  1
  Al  Al84  1  0.58501742  0.41793839  0.08077429  1
  Al  Al85  1  0.58079194  0.41483067  0.58846172  1
  Al  Al86  1  0.58408430  0.91492906  0.09147487  1
  Al  Al87  1  0.58572008  0.90959107  0.57240855  1
  Al  Al88  1  0.41710466  0.08292489  0.07939547  1
  Al  Al89  1  0.41636417  0.08525396  0.58348438  1
  Al  Al90  1  0.41064164  0.58330654  0.08560867  1
  Al  Al91  1  0.41027636  0.57428346  0.58440925  1
  Al  Al92  1  0.91630114  0.08241498  0.08322438  1
  Al  Al93  1  0.91952298  0.09511326  0.58045617  1
  Al  Al94  1  0.91335762  0.58801595  0.07859583  1
  Al  Al95  1  0.91276905  0.58688912  0.58072527  1
  Al  Al96  1  0.25012487  0.13478784  0.13681003  1
  Al  Al97  1  0.24858984  0.14138191  0.62767920  1
  Al  Al98  1  0.25034705  0.63641751  0.13441272  1
  Al  Al99  1  0.24959677  0.63340358  0.63609466  1
  Al  Al100  1  0.75010552  0.13364856  0.13296863  1
  Al  Al101  1  0.75122123  0.13747939  0.63077075  1
  Al  Al102  1  0.74768577  0.63526168  0.13356407  1
  Al  Al103  1  0.75030085  0.63568395  0.63327405  1
  Al  Al104  1  0.25153871  0.36464258  0.13097360  1
  Al  Al105  1  0.25027012  0.36493265  0.63556693  1
  Al  Al106  1  0.24972644  0.86331497  0.13658094  1
  Al  Al107  1  0.24633240  0.86128141  0.63379516  1
  Al  Al108  1  0.74980575  0.36468668  0.13497554  1
  Al  Al109  1  0.75081335  0.36461057  0.63807340  1
  Al  Al110  1  0.74528859  0.86574498  0.13534611  1
  Al  Al111  1  0.75146308  0.86267641  0.63155744  1
  Al  Al112  1  0.24814496  0.13724459  0.36993096  1
  Al  Al113  1  0.24892547  0.13702630  0.86306604  1
  Al  Al114  1  0.25088138  0.63804201  0.36369622  1
  Al  Al115  1  0.24742597  0.63158002  0.86448231  1
  Al  Al116  1  0.74855266  0.13517628  0.36741294  1
  Al  Al117  1  0.74995008  0.13756031  0.86703370  1
  Al  Al118  1  0.74633698  0.63673103  0.36692409  1
  Al  Al119  1  0.75095575  0.63636136  0.86805150  1
  Al  Al120  1  0.24818811  0.36240812  0.36691241  1
  Al  Al121  1  0.25059329  0.36980987  0.86433784  1
  Al  Al122  1  0.24762669  0.86274829  0.36373738  1
  Al  Al123  1  0.24771886  0.86324827  0.86460574  1
  Al  Al124  1  0.74920712  0.36646484  0.36336966  1
  Al  Al125  1  0.74913124  0.36469674  0.86313170  1
  Al  Al126  1  0.74804954  0.86376537  0.36745236  1
  Al  Al127  1  0.75054144  0.86139752  0.86673671  1
  Al  Al128  1  0.13192577  0.25132516  0.13551792  1
  Al  Al129  1  0.13420378  0.25351266  0.63340398  1
  Al  Al130  1  0.13521642  0.75005670  0.13422554  1
  Al  Al131  1  0.13462520  0.74925489  0.63405961  1
  Al  Al132  1  0.63633887  0.24941343  0.13596723  1
  Al  Al133  1  0.63168669  0.25013167  0.63493861  1
  Al  Al134  1  0.63228243  0.74979556  0.13497177  1
  Al  Al135  1  0.63734657  0.74954419  0.63047287  1
  Al  Al136  1  0.13530782  0.24899915  0.36803756  1
  Al  Al137  1  0.13515618  0.25318161  0.86676061  1
  Al  Al138  1  0.13418316  0.75315342  0.36636299  1
  Al  Al139  1  0.13148460  0.74697912  0.86515919  1
  Al  Al140  1  0.63352321  0.24976640  0.36599724  1
  Al  Al141  1  0.63394789  0.25086294  0.86415869  1
  Al  Al142  1  0.63531723  0.75076166  0.36652819  1
  Al  Al143  1  0.63781897  0.74773998  0.87004219  1
  Al  Al144  1  0.36443906  0.25365644  0.13392633  1
  Al  Al145  1  0.36966276  0.25187991  0.63639115  1
  Al  Al146  1  0.36933122  0.75036171  0.13646165  1
  Al  Al147  1  0.36333794  0.74906584  0.63733206  1
  Al  Al148  1  0.86786111  0.24813705  0.13665295  1
  Al  Al149  1  0.86814047  0.24981642  0.63399950  1
  Al  Al150  1  0.86295970  0.75032525  0.13368127  1
  Al  Al151  1  0.86482063  0.74984555  0.63283187  1
  Al  Al152  1  0.36470945  0.24997203  0.36616875  1
  Al  Al153  1  0.36461137  0.25601737  0.86514058  1
  Al  Al154  1  0.36740658  0.75180274  0.36274028  1
  Al  Al155  1  0.36112352  0.74916308  0.86483850  1
  Al  Al156  1  0.86484282  0.24556883  0.36584083  1
  Al  Al157  1  0.86698260  0.24986192  0.86371599  1
  Al  Al158  1  0.86373941  0.75424486  0.36618144  1
  Al  Al159  1  0.86832757  0.74669104  0.86686487  1
  Al  Al160  1  0.13170254  0.13694971  0.25097302  1
  Al  Al161  1  0.13382114  0.13813361  0.74598245  1
  Al  Al162  1  0.13624706  0.63775282  0.25008710  1
  Al  Al163  1  0.13104909  0.63514290  0.75161971  1
  Al  Al164  1  0.63744659  0.13420247  0.24832830  1
  Al  Al165  1  0.63584561  0.13790063  0.74842600  1
  Al  Al166  1  0.63509611  0.63524803  0.25175422  1
  Al  Al167  1  0.63798534  0.63565829  0.75145447  1
  Al  Al168  1  0.36337371  0.13670774  0.25197405  1
  Al  Al169  1  0.36465373  0.13833501  0.74816690  1
  Al  Al170  1  0.36535814  0.63487101  0.24594309  1
  Al  Al171  1  0.36235627  0.63009246  0.75200049  1
  Al  Al172  1  0.86737515  0.13514577  0.24923134  1
  Al  Al173  1  0.86622780  0.13947339  0.74482275  1
  Al  Al174  1  0.86234832  0.63687026  0.25075058  1
  Al  Al175  1  0.86848279  0.63704687  0.75053820  1
  Al  Al176  1  0.13597316  0.36265507  0.24847919  1
  Al  Al177  1  0.13144310  0.36416582  0.74954738  1
  Al  Al178  1  0.13138439  0.86307913  0.24978278  1
  Al  Al179  1  0.13308641  0.86396733  0.75303198  1
  Al  Al180  1  0.63486383  0.36682207  0.25240924  1
  Al  Al181  1  0.62984882  0.36354906  0.75026223  1
  Al  Al182  1  0.63245745  0.86330113  0.25042564  1
  Al  Al183  1  0.63916931  0.86024510  0.75091249  1
  Al  Al184  1  0.36373525  0.36579465  0.24793933  1
  Al  Al185  1  0.36640375  0.36660838  0.74958901  1
  Al  Al186  1  0.36748992  0.86342141  0.24997750  1
  Al  Al187  1  0.36274019  0.86263402  0.75006174  1
  Al  Al188  1  0.86469105  0.36364102  0.24897379  1
  Al  Al189  1  0.86938853  0.36279300  0.74828968  1
  Al  Al190  1  0.86641560  0.86325212  0.24978498  1
  Al  Al191  1  0.86507118  0.86189225  0.75048016  1
  Al  Al192  1  0.18471776  0.49886028  0.68220545  1
  Al  Al193  1  0.81600944  0.68458567  0.49867662  1
  Al  Al194  1  -0.00174448  0.17947111  0.81740866  1
  Al  Al195  1  0.67439667  0.31976708  -0.00023471  1
  Al  Al196  1  0.50253312  0.32369194  0.32316297  1
  Al  Al197  1  0.81693421  -0.00121535  0.17408681  1
  Al  Al198  1  0.17672914  0.00112377  0.67177841  1
  Al  Al199  1  0.82773241  -0.00077862  0.83027652  1
  Al  Al200  1  0.82804486  -0.00067164  0.32803351  1
  Al  Al201  1  0.18205046  0.81187010  -0.00018004  1
  Al  Al202  1  0.67905210  0.50346725  0.18117233  1
  Al  Al203  1  0.49876218  0.67608927  0.82981809  1
  Al  Al204  1  0.82566882  0.32126125  -0.00084213  1
  Al  Al205  1  0.82583320  0.31578386  0.49952683  1
  Al  Al206  1  0.68135749  0.49958011  0.68150390  1
  Al  Al207  1  0.32253781  0.00001947  0.17567981  1
  Al  Al208  1  0.32148870  0.00068359  0.67870952  1
  Al  Al209  1  0.00016936  0.81850129  0.68263343  1
  Al  Al210  1  0.31515480  0.31959179  0.50145327  1
  Al  Al211  1  0.82112538  0.82172341  0.00034159  1
  Al  Al212  1  0.32039467  0.00076790  0.82509722  1
  Al  Al213  1  0.49986652  0.67075771  0.67250157  1
  Al  Al214  1  0.50082092  0.68494506  0.31766304  1
  Al  Al215  1  0.81848761  0.50041191  0.81750908  1
  Al  Al216  1  -0.00134990  0.68589164  0.32541832  1
  Al  Al217  1  0.17477826  0.18209680  0.00013756  1
  Al  Al218  1  0.49977958  0.82713996  0.82705196  1
  Al  Al219  1  0.49877967  0.18354535  0.81672075  1
  Al  Al220  1  0.18690186  0.50113374  0.17422475  1
  Al  Al221  1  0.32786386  0.18492107  -0.00099332  1
  Al  Al222  1  0.67374391  -0.00031270  0.31987452  1
  Al  Al223  1  0.17675103  -0.00074688  0.32364148  1
  Al  Al224  1  0.67433463  0.31722665  0.50079703  1
  Al  Al225  1  0.49928214  0.17696589  0.17784668  1
  Al  Al226  1  0.67079149  -0.00023097  0.67200667  1
  Al  Al227  1  0.32731533  0.67213522  0.49950543  1
  Al  Al228  1  0.17679067  0.49919028  0.32328656  1
  Al  Al229  1  -0.00046905  0.68726071  0.17147228  1
  Al  Al230  1  0.00013868  0.31860689  0.31957345  1
  Al  Al231  1  0.49999179  0.82728858  0.67613437  1
  Al  Al232  1  0.81378258  0.50106928  0.31857158  1
  Al  Al233  1  0.83050519  0.00136061  0.66800354  1
  Al  Al234  1  0.31398898  0.82761054  0.49903317  1
  Al  Al235  1  0.67080996  -0.00091241  0.82892965  1
  Al  Al236  1  0.32596155  0.50066535  0.31604181  1
  Al  Al237  1  0.17568915  0.68131220  0.49987312  1
  Al  Al238  1  0.31294713  0.68039262  0.00004005  1
  Au  Au239  1  0.66569455  0.00104789  0.65545356  1
  Au  Au240  1  0.16799078  0.00015508  0.33262767  1
  Au  Au241  1  0.33089231  0.00092058  0.66998262  1
  Au  Au242  1  0.17589576  0.33572839  0.00058014  1
  Au  Au243  1  0.83005777  0.32746969  0.49925305  1
  Au  Au244  1  0.67039233  0.32901375  0.50064461  1
  Au  Au245  1  0.67008654  0.50059404  0.17282427  1
  Au  Au246  1  0.83945804  -0.00334049  0.66093049  1
  Au  Au247  1  0.66541136  0.17037748  0.00105769  1
  Au  Au248  1  0.50193885  0.16766547  0.33493566  1
  Au  Au249  1  0.82929945  -0.00148008  0.17023438  1
  Au  Au250  1  0.00060682  0.17000474  0.82534464  1
  Au  Au251  1  0.49870748  0.33192408  0.33166656  1
  Au  Au252  1  0.32455913  0.17227721  0.49967482  1
  Au  Au253  1  0.66975763  0.50012400  0.83179347  1
  Au  Au254  1  0.00218657  0.67079541  0.17171992  1
  Au  Au255  1  0.50128052  0.17507079  0.66826593  1
  Au  Au256  1  0.33118097  0.82748700  0.49854201  1
  Au  Au257  1  0.17509991  0.50158371  0.82946635  1
  Au  Au258  1  0.33498313  -0.00109595  0.33102757  1
  Au  Au259  1  0.66513252  0.82382461  0.00353113  1
  Au  Au260  1  0.67030063  -0.00535258  0.33127014  1
  Au  Au261  1  0.16663760  0.49922882  0.33296780  1
  Au  Au262  1  0.83449535  0.50110449  0.17036897  1
  Au  Au263  1  0.33306354  0.00000437  0.16905057  1
  Au  Au264  1  0.49701258  0.33409785  0.16309137  1
  Au  Au265  1  0.00043570  0.33559923  0.17090374  1
  Au  Au266  1  0.66118915  0.00079297  0.83682918  1
  Au  Au267  1  0.83341101  0.81830250  -0.00103380  1
  Au  Au268  1  0.83835252  -0.00220187  0.83691907  1
  Au  Au269  1  0.49882686  0.67365437  0.16880122  1
  Au  Au270  1  0.83208962  0.49948172  0.66815554  1
  Au  Au271  1  0.50368627  0.83661601  0.66694306  1
  Au  Au272  1  0.17509548  0.16959499  -0.00207845  1
  Au  Au273  1  0.49692388  0.33222966  0.82860141  1
  Au  Au274  1  0.16657870  -0.00094217  0.66962543  1
  Au  Au275  1  0.16945944  -0.00370702  0.83863017  1
  Au  Au276  1  -0.00078738  0.17077807  0.33803702  1
  Au  Au277  1  0.49992517  0.16789379  0.16911633  1
  Au  Au278  1  -0.00149068  0.33563112  0.82496441  1
  Au  Au279  1  0.16560458  0.67156709  0.49989448  1
  Au  Au280  1  -0.00073555  0.67362358  0.83635126  1
  Au  Au281  1  0.33150095  0.82815029  -0.00028583  1
  Au  Au282  1  0.83239320  0.17350699  0.00078890  1
  Au  Au283  1  0.50030966  0.66037975  0.65878522  1
  Au  Au284  1  0.49878227  0.66674105  0.84015884  1
  Au  Au285  1  0.16307438  -0.00390809  0.16695971  1
  Au  Au286  1  -0.00079551  0.67126767  0.66805086  1
  Au  Au287  1  0.00033159  0.16795816  0.16973203  1
