# generated using pymatgen
data_Ca24Ti8Al207Au49
_symmetry_space_group_name_H-M   'P 1'
_cell_length_a   17.32161330
_cell_length_b   17.32121982
_cell_length_c   17.32272674
_cell_angle_alpha   90.00292461
_cell_angle_beta   89.99933522
_cell_angle_gamma   90.00457870
_symmetry_Int_Tables_number   1
_chemical_formula_structural   Ca24Ti8Al207Au49
_chemical_formula_sum   'Ca24 Ti8 Al207 Au49'
_cell_volume   5197.36317102
_cell_formula_units_Z   1
loop_
 _symmetry_equiv_pos_site_id
 _symmetry_equiv_pos_as_xyz
  1  'x, y, z'
loop_
 _atom_site_type_symbol
 _atom_site_label
 _atom_site_symmetry_multiplicity
 _atom_site_fract_x
 _atom_site_fract_y
 _atom_site_fract_z
 _atom_site_occupancy
  Ca  Ca0  1  0.24651161  0.00328732  -0.00217648  1
  Ca  Ca1  1  0.25000096  0.00250195  0.50466654  1
  Ca  Ca2  1  0.25029705  0.49423156  -0.00255870  1
  Ca  Ca3  1  0.25025092  0.49736167  0.50289784  1
  Ca  Ca4  1  0.75140481  0.00383112  0.00159031  1
  Ca  Ca5  1  0.75682908  -0.00113704  0.49901779  1
  Ca  Ca6  1  0.74911628  0.49807221  -0.00189127  1
  Ca  Ca7  1  0.74940384  0.50284396  0.49864807  1
  Ca  Ca8  1  0.00221656  0.24885394  0.00234606  1
  Ca  Ca9  1  -0.00135777  0.24587421  0.49824871  1
  Ca  Ca10  1  0.00266594  0.75453454  -0.00032357  1
  Ca  Ca11  1  -0.00233198  0.75598015  0.50097465  1
  Ca  Ca12  1  0.49997759  0.25120107  -0.00758010  1
  Ca  Ca13  1  0.49884363  0.24424447  0.50494885  1
  Ca  Ca14  1  0.49949148  0.74494175  -0.00072387  1
  Ca  Ca15  1  0.50040434  0.75464261  0.50400555  1
  Ca  Ca16  1  -0.00430110  -0.00188978  0.25068887  1
  Ca  Ca17  1  -0.00037473  0.00580016  0.74574517  1
  Ca  Ca18  1  0.00032233  0.50018627  0.24751702  1
  Ca  Ca19  1  -0.00034094  0.49977448  0.74987717  1
  Ca  Ca20  1  0.50531174  0.00135049  0.25258029  1
  Ca  Ca21  1  0.49903936  0.00173325  0.74708778  1
  Ca  Ca22  1  0.49985361  0.49706126  0.24812255  1
  Ca  Ca23  1  0.49924379  0.49823415  0.75145657  1
  Ti  Ti24  1  0.24840109  0.25071728  0.25014911  1
  Ti  Ti25  1  0.25022972  0.25117927  0.74999709  1
  Ti  Ti26  1  0.24747171  0.74937339  0.25137883  1
  Ti  Ti27  1  0.25056353  0.74889313  0.74748254  1
  Ti  Ti28  1  0.75228651  0.24853926  0.24934930  1
  Ti  Ti29  1  0.75013461  0.25008514  0.75093177  1
  Ti  Ti30  1  0.75078680  0.75071549  0.25132338  1
  Ti  Ti31  1  0.74900234  0.74865029  0.74775397  1
  Al  Al32  1  0.07863257  0.09121597  0.07771393  1
  Al  Al33  1  0.08481180  0.08414093  0.59067592  1
  Al  Al34  1  0.08615519  0.57749525  0.08127622  1
  Al  Al35  1  0.08823057  0.57850922  0.58632994  1
  Al  Al36  1  0.59264411  0.09191438  0.08001009  1
  Al  Al37  1  0.57747548  0.08268444  0.58389930  1
  Al  Al38  1  0.60429141  0.58256534  0.08000618  1
  Al  Al39  1  0.58675488  0.58590842  0.58190037  1
  Al  Al40  1  0.39686218  0.40937903  0.07239962  1
  Al  Al41  1  0.41897427  0.41399567  0.59145588  1
  Al  Al42  1  0.41774242  0.92185212  0.07254242  1
  Al  Al43  1  0.41121935  0.92465486  0.58737674  1
  Al  Al44  1  0.91540492  0.41773744  0.08326378  1
  Al  Al45  1  0.91586770  0.42901399  0.58787104  1
  Al  Al46  1  0.91324402  0.92144873  0.10204701  1
  Al  Al47  1  0.91825029  0.90739063  0.57818271  1
  Al  Al48  1  0.41304814  0.08527709  0.42815235  1
  Al  Al49  1  0.42159796  0.09272881  0.90995663  1
  Al  Al50  1  0.41214409  0.57692450  0.42185854  1
  Al  Al51  1  0.41914860  0.56807972  0.91142207  1
  Al  Al52  1  0.91342164  0.07636123  0.40192257  1
  Al  Al53  1  0.91423098  0.09209082  0.92574883  1
  Al  Al54  1  0.90963142  0.59087622  0.42569827  1
  Al  Al55  1  0.90765064  0.57752757  0.92415699  1
  Al  Al56  1  0.08163071  0.41851742  0.41345159  1
  Al  Al57  1  0.09115427  0.40578717  0.91934437  1
  Al  Al58  1  0.07206457  0.91190747  0.41524427  1
  Al  Al59  1  0.08119119  0.92247182  0.92236249  1
  Al  Al60  1  0.58959892  0.42455246  0.42325299  1
  Al  Al61  1  0.57471817  0.40930412  0.91138577  1
  Al  Al62  1  0.59091784  0.91922085  0.41562787  1
  Al  Al63  1  0.57705781  0.92189876  0.91812868  1
  Al  Al64  1  0.07303182  0.08847348  0.41572496  1
  Al  Al65  1  0.08679037  0.09387230  0.92001455  1
  Al  Al66  1  0.08055443  0.57972540  0.42078437  1
  Al  Al67  1  0.08859859  0.57269609  0.92490730  1
  Al  Al68  1  0.58644170  0.07767527  0.41511661  1
  Al  Al69  1  0.58585251  0.09662072  0.91706739  1
  Al  Al70  1  0.59374548  0.58093595  0.42230694  1
  Al  Al71  1  0.58476119  0.58638956  0.92194749  1
  Al  Al72  1  0.41285201  0.42002649  0.41927462  1
  Al  Al73  1  0.40943417  0.40610627  0.90912840  1
  Al  Al74  1  0.42365115  0.92336538  0.42597081  1
  Al  Al75  1  0.41542120  0.91663043  0.91620623  1
  Al  Al76  1  0.92461873  0.41950483  0.41789105  1
  Al  Al77  1  0.91804716  0.41415669  0.91750132  1
  Al  Al78  1  0.90944641  0.91188922  0.40736479  1
  Al  Al79  1  0.92282511  0.92739224  0.92163456  1
  Al  Al80  1  0.09239835  0.40693894  0.08018358  1
  Al  Al81  1  0.08545891  0.42274987  0.58977078  1
  Al  Al82  1  0.07294289  0.91019700  0.08804105  1
  Al  Al83  1  0.08052378  0.91881133  0.59003413  1
  Al  Al84  1  0.59131392  0.42366359  0.07955114  1
  Al  Al85  1  0.57978027  0.41318131  0.58781234  1
  Al  Al86  1  0.58752588  0.92717170  0.07996593  1
  Al  Al87  1  0.58409551  0.91645839  0.57984443  1
  Al  Al88  1  0.42408278  0.08675582  0.07469602  1
  Al  Al89  1  0.40559931  0.08743679  0.58950544  1
  Al  Al90  1  0.41099979  0.56505887  0.08265472  1
  Al  Al91  1  0.41685147  0.58127306  0.58557157  1
  Al  Al92  1  0.90636294  0.08472630  0.08941621  1
  Al  Al93  1  0.92545832  0.08267861  0.58462187  1
  Al  Al94  1  0.90934992  0.58049386  0.08244657  1
  Al  Al95  1  0.89935707  0.58815415  0.58346965  1
  Al  Al96  1  0.24334502  0.13651315  0.13036472  1
  Al  Al97  1  0.25295655  0.13506843  0.63393234  1
  Al  Al98  1  0.25026935  0.63492669  0.13490086  1
  Al  Al99  1  0.24893460  0.62781404  0.63734300  1
  Al  Al100  1  0.75472558  0.12925867  0.13538875  1
  Al  Al101  1  0.75167783  0.13085623  0.63469439  1
  Al  Al102  1  0.74948234  0.63465721  0.13497380  1
  Al  Al103  1  0.75079981  0.63033129  0.63451768  1
  Al  Al104  1  0.24890864  0.36178550  0.12848898  1
  Al  Al105  1  0.25412915  0.36999714  0.63728695  1
  Al  Al106  1  0.24358116  0.86788203  0.13716996  1
  Al  Al107  1  0.24862861  0.86714295  0.63585525  1
  Al  Al108  1  0.74866466  0.36348761  0.13175460  1
  Al  Al109  1  0.74906732  0.36840224  0.63849993  1
  Al  Al110  1  0.75456384  0.87609478  0.14052330  1
  Al  Al111  1  0.75280402  0.86760886  0.62880315  1
  Al  Al112  1  0.25061128  0.13662405  0.36714760  1
  Al  Al113  1  0.24833095  0.13619269  0.86511763  1
  Al  Al114  1  0.24925714  0.63590899  0.36487774  1
  Al  Al115  1  0.25142740  0.63225048  0.86105056  1
  Al  Al116  1  0.75630122  0.13394671  0.36963619  1
  Al  Al117  1  0.74564120  0.13588156  0.86769318  1
  Al  Al118  1  0.75410953  0.63727453  0.36588320  1
  Al  Al119  1  0.74860460  0.62828866  0.86245860  1
  Al  Al120  1  0.25378438  0.36306845  0.36764727  1
  Al  Al121  1  0.25182918  0.36417689  0.86829434  1
  Al  Al122  1  0.24415209  0.86524441  0.36397470  1
  Al  Al123  1  0.24842588  0.86845117  0.86098926  1
  Al  Al124  1  0.75034303  0.36182672  0.36385204  1
  Al  Al125  1  0.75181592  0.37015380  0.86419874  1
  Al  Al126  1  0.75494574  0.86616671  0.37110297  1
  Al  Al127  1  0.74903636  0.86904371  0.85965215  1
  Al  Al128  1  0.13476979  0.25085090  0.13135591  1
  Al  Al129  1  0.13401831  0.24803559  0.63678012  1
  Al  Al130  1  0.13438659  0.75400121  0.13669528  1
  Al  Al131  1  0.13599411  0.75124955  0.62960062  1
  Al  Al132  1  0.64019318  0.24180066  0.12943972  1
  Al  Al133  1  0.63632012  0.24716233  0.63732303  1
  Al  Al134  1  0.63951177  0.74652827  0.13351720  1
  Al  Al135  1  0.63865668  0.75359365  0.63359268  1
  Al  Al136  1  0.13085133  0.24836476  0.36647210  1
  Al  Al137  1  0.13799756  0.25117259  0.86981317  1
  Al  Al138  1  0.13336078  0.75248081  0.37042604  1
  Al  Al139  1  0.13675453  0.75033171  0.86117560  1
  Al  Al140  1  0.63851975  0.24384090  0.36414544  1
  Al  Al141  1  0.63329026  0.25134371  0.86412432  1
  Al  Al142  1  0.63915675  0.75272986  0.36482675  1
  Al  Al143  1  0.63780357  0.74622199  0.86328401  1
  Al  Al144  1  0.36163846  0.25160874  0.13231239  1
  Al  Al145  1  0.36526734  0.24725816  0.63785196  1
  Al  Al146  1  0.36222658  0.75133284  0.13893983  1
  Al  Al147  1  0.36177051  0.75000025  0.63675967  1
  Al  Al148  1  0.86310546  0.24633778  0.13062403  1
  Al  Al149  1  0.86673863  0.24444212  0.63617213  1
  Al  Al150  1  0.86445585  0.75500331  0.14120257  1
  Al  Al151  1  0.86197151  0.74949013  0.63149368  1
  Al  Al152  1  0.36710200  0.24779493  0.36465476  1
  Al  Al153  1  0.36669062  0.25385329  0.86524322  1
  Al  Al154  1  0.36238086  0.74897150  0.36334025  1
  Al  Al155  1  0.36324076  0.75351576  0.85956294  1
  Al  Al156  1  0.87391834  0.24442415  0.36185929  1
  Al  Al157  1  0.86211635  0.24658149  0.86980075  1
  Al  Al158  1  0.86645119  0.75468733  0.36790696  1
  Al  Al159  1  0.86138684  0.74853747  0.86048151  1
  Al  Al160  1  0.13473276  0.13567130  0.25140367  1
  Al  Al161  1  0.13007255  0.14000307  0.75272967  1
  Al  Al162  1  0.13266487  0.63520435  0.24971326  1
  Al  Al163  1  0.13364592  0.63180824  0.74414275  1
  Al  Al164  1  0.63832028  0.13394791  0.24918717  1
  Al  Al165  1  0.62762856  0.13906802  0.75195609  1
  Al  Al166  1  0.63725343  0.63412681  0.24766844  1
  Al  Al167  1  0.63678810  0.62794289  0.74817899  1
  Al  Al168  1  0.36217385  0.13908915  0.24788920  1
  Al  Al169  1  0.36861282  0.13926162  0.75262129  1
  Al  Al170  1  0.36400766  0.62895886  0.24722211  1
  Al  Al171  1  0.36456699  0.62872069  0.74859534  1
  Al  Al172  1  0.86355943  0.12827346  0.25105129  1
  Al  Al173  1  0.86574342  0.13273477  0.75273943  1
  Al  Al174  1  0.86614950  0.63631181  0.24998697  1
  Al  Al175  1  0.86255017  0.62778906  0.74600691  1
  Al  Al176  1  0.13670668  0.36314975  0.25099741  1
  Al  Al177  1  0.13586895  0.36489073  0.74823984  1
  Al  Al178  1  0.12802692  0.86522469  0.25183226  1
  Al  Al179  1  0.13364306  0.86375489  0.74603322  1
  Al  Al180  1  0.63612884  0.36203651  0.24626132  1
  Al  Al181  1  0.63539984  0.36900565  0.75289538  1
  Al  Al182  1  0.63904236  0.86441465  0.24848215  1
  Al  Al183  1  0.62992199  0.86346730  0.74963288  1
  Al  Al184  1  0.35975541  0.37264212  0.24552959  1
  Al  Al185  1  0.36390977  0.37103661  0.75421620  1
  Al  Al186  1  0.36095182  0.86453856  0.25062386  1
  Al  Al187  1  0.36892345  0.86679125  0.74555293  1
  Al  Al188  1  0.86415219  0.36209133  0.25097682  1
  Al  Al189  1  0.86419648  0.36709242  0.74886250  1
  Al  Al190  1  0.86529343  0.86871147  0.25458351  1
  Al  Al191  1  0.86457584  0.86665874  0.74273460  1
  Al  Al192  1  0.67799993  0.49905633  0.31276273  1
  Al  Al193  1  0.00032836  0.31728968  0.82568015  1
  Al  Al194  1  0.50110232  0.17647198  0.17763062  1
  Al  Al195  1  0.31907417  0.82966989  0.49930886  1
  Al  Al196  1  0.00037894  0.67023611  0.83275961  1
  Al  Al197  1  0.49978308  0.82862276  0.32701270  1
  Al  Al198  1  0.33533723  0.67365688  -0.00324271  1
  Al  Al199  1  0.50488536  0.32175532  0.33046765  1
  Al  Al200  1  0.68938938  0.68232889  0.50082504  1
  Al  Al201  1  -0.00101781  0.68317237  0.32882024  1
  Al  Al202  1  0.32291541  0.00212039  0.81315581  1
  Al  Al203  1  0.81084100  0.67686237  -0.00054131  1
  Al  Al204  1  0.18496909  0.49875368  0.81691973  1
  Al  Al205  1  0.32497910  0.00017589  0.32859176  1
  Al  Al206  1  0.17676207  0.68119952  -0.00068995  1
  Al  Al207  1  0.50024568  0.82766536  0.16825676  1
  Al  Al208  1  0.31622720  0.82492977  -0.00032485  1
  Al  Al209  1  0.82810180  0.32586951  0.50099690  1
  Al  Al210  1  0.67938579  0.31834457  -0.00049547  1
  Al  Al211  1  0.67611227  0.00271775  0.82458060  1
  Al  Al212  1  0.50109312  0.67087137  0.33370166  1
  Al  Al213  1  -0.00211279  0.68187301  0.66969297  1
  Al  Al214  1  -0.00210806  0.17243846  0.18240535  1
  Al  Al215  1  -0.00194096  0.82834776  0.81514310  1
  Al  Al216  1  0.32310626  0.00251544  0.17046666  1
  Al  Al217  1  0.49852598  0.33142473  0.16687045  1
  Al  Al218  1  0.17679319  0.17808024  0.49809870  1
  Al  Al219  1  0.50117925  0.67929893  0.67374143  1
  Al  Al220  1  0.82839856  0.83044829  0.00230788  1
  Al  Al221  1  0.81150342  0.49844984  0.17718556  1
  Al  Al222  1  -0.00048196  0.32531449  0.17826768  1
  Al  Al223  1  0.82956297  0.50036282  0.32888021  1
  Al  Al224  1  0.00026261  0.68133101  0.16828440  1
  Al  Al225  1  0.32340411  0.67566355  0.50222983  1
  Al  Al226  1  0.17980862  0.49977385  0.32447578  1
  Al  Al227  1  0.69153089  -0.00074712  0.31776879  1
  Al  Al228  1  0.16556103  0.00013235  0.32331003  1
  Al  Al229  1  0.32201541  0.31283915  0.50273663  1
  Al  Al230  1  0.50094152  0.66555831  0.16591879  1
  Al  Al231  1  0.50002853  0.31760774  0.69068780  1
  Al  Al232  1  -0.00132917  0.32151235  0.67021674  1
  Al  Al233  1  0.18435564  0.00241429  0.68268672  1
  Al  Al234  1  0.49928378  0.67389716  0.82644249  1
  Al  Al235  1  0.67568122  0.81419706  -0.00078244  1
  Al  Al236  1  0.67274593  0.31922616  0.50193070  1
  Al  Al237  1  0.18424956  0.49778657  0.17159333  1
  Al  Al238  1  0.31482635  0.18505230  -0.00218801  1
  Au  Au239  1  0.00071727  0.32579435  0.32714926  1
  Au  Au240  1  0.33959991  0.00616803  0.17192029  1
  Au  Au241  1  0.17678972  0.65990019  0.50072663  1
  Au  Au242  1  0.49639292  0.82986685  0.66354296  1
  Au  Au243  1  0.82547895  0.34198683  0.50338113  1
  Au  Au244  1  0.49678131  0.17007774  0.67631605  1
  Au  Au245  1  0.84509406  0.82604622  0.00532755  1
  Au  Au246  1  0.83626405  0.49712361  0.82341427  1
  Au  Au247  1  0.32746081  0.65866760  -0.00503933  1
  Au  Au248  1  0.83552420  0.32088740  0.00039790  1
  Au  Au249  1  0.32819139  0.50073748  0.32354007  1
  Au  Au250  1  0.49856965  0.84364728  0.17393931  1
  Au  Au251  1  -0.00302240  0.67094538  0.65728595  1
  Au  Au252  1  0.83078967  0.00582556  0.83750475  1
  Au  Au253  1  0.49895804  0.82301639  0.83644600  1
  Au  Au254  1  0.66693324  0.00003908  0.66952392  1
  Au  Au255  1  0.49597615  0.15646532  0.32809616  1
  Au  Au256  1  0.16262872  0.33373129  0.50194154  1
  Au  Au257  1  0.50568934  0.33237211  0.34286763  1
  Au  Au258  1  0.33596228  0.32248106  0.50387960  1
  Au  Au259  1  0.33729535  0.00215640  0.82203473  1
  Au  Au260  1  0.32864543  0.50011917  0.67332692  1
  Au  Au261  1  0.16285654  0.00443301  0.82906103  1
  Au  Au262  1  0.16608818  0.83129106  0.00129393  1
  Au  Au263  1  0.67756815  0.82903285  0.49824930  1
  Au  Au264  1  0.16779588  0.00079290  0.33600474  1
  Au  Au265  1  0.66306123  0.49968411  0.83247319  1
  Au  Au266  1  0.83846329  0.16124975  0.49742406  1
  Au  Au267  1  0.67473194  0.49904187  0.66218364  1
  Au  Au268  1  0.66179118  0.82367263  -0.00323821  1
  Au  Au269  1  0.50136018  0.67511540  0.34934500  1
  Au  Au270  1  0.66469743  0.00188949  0.82921785  1
  Au  Au271  1  0.16842662  0.16882615  0.50075249  1
  Au  Au272  1  -0.00007051  0.67507743  0.15326558  1
  Au  Au273  1  0.00049020  0.66647911  0.84982719  1
  Au  Au274  1  0.49484095  0.33097656  0.15109396  1
  Au  Au275  1  -0.00187091  0.17025669  0.83154507  1
  Au  Au276  1  -0.00140807  0.67744659  0.34397010  1
  Au  Au277  1  0.83914729  -0.00380152  0.66474705  1
  Au  Au278  1  0.67830621  0.00425977  0.17009651  1
  Au  Au279  1  0.66965237  0.32609795  -0.00311773  1
  Au  Au280  1  -0.00111497  0.84434239  0.82068871  1
  Au  Au281  1  0.15787987  0.00241145  0.16277961  1
  Au  Au282  1  -0.00216095  0.33398454  0.67389167  1
  Au  Au283  1  0.16627621  0.83510968  0.50269999  1
  Au  Au284  1  0.33037775  0.17724005  -0.00222046  1
  Au  Au285  1  0.50245205  0.65060763  0.16052142  1
  Au  Au286  1  0.66347351  0.17013642  0.50062060  1
  Au  Au287  1  0.17283897  0.49600238  0.82871441  1
