# generated using pymatgen
data_Ca24Ti8Al207Au49
_symmetry_space_group_name_H-M   'P 1'
_cell_length_a   17.32058019
_cell_length_b   17.31873704
_cell_length_c   17.32234791
_cell_angle_alpha   90.00064704
_cell_angle_beta   89.99603862
_cell_angle_gamma   90.00163534
_symmetry_Int_Tables_number   1
_chemical_formula_structural   Ca24Ti8Al207Au49
_chemical_formula_sum   'Ca24 Ti8 Al207 Au49'
_cell_volume   5196.19462593
_cell_formula_units_Z   1
loop_
 _symmetry_equiv_pos_site_id
 _symmetry_equiv_pos_as_xyz
  1  'x, y, z'
loop_
 _atom_site_type_symbol
 _atom_site_label
 _atom_site_symmetry_multiplicity
 _atom_site_fract_x
 _atom_site_fract_y
 _atom_site_fract_z
 _atom_site_occupancy
  Ca  Ca0  1  0.25218589  0.00327929  0.00386669  1
  Ca  Ca1  1  0.25348598  -0.00051432  0.49400798  1
  Ca  Ca2  1  0.25367174  0.49783688  0.00192032  1
  Ca  Ca3  1  0.25228426  0.50014140  0.49680134  1
  Ca  Ca4  1  0.74853309  0.00343701  -0.00332774  1
  Ca  Ca5  1  0.74529346  0.00070055  0.49983130  1
  Ca  Ca6  1  0.75182469  0.49780184  0.00320345  1
  Ca  Ca7  1  0.75115692  0.49666853  0.49852888  1
  Ca  Ca8  1  -0.00127510  0.25095651  -0.00069580  1
  Ca  Ca9  1  0.00127997  0.25243363  0.49990165  1
  Ca  Ca10  1  -0.00062740  0.75135924  0.00230566  1
  Ca  Ca11  1  0.00526660  0.74988163  0.49648387  1
  Ca  Ca12  1  0.50065004  0.24650753  0.00157926  1
  Ca  Ca13  1  0.50021296  0.24592349  0.49701604  1
  Ca  Ca14  1  0.50038709  0.74837808  0.00382751  1
  Ca  Ca15  1  0.49292973  0.75009913  0.49702320  1
  Ca  Ca16  1  0.00238495  0.00140487  0.25296656  1
  Ca  Ca17  1  -0.00344839  -0.00397510  0.75236476  1
  Ca  Ca18  1  0.00257508  0.49816748  0.25353761  1
  Ca  Ca19  1  0.00144472  0.50460456  0.75651891  1
  Ca  Ca20  1  0.49479529  0.00320630  0.25269035  1
  Ca  Ca21  1  0.50367357  -0.00075040  0.74901227  1
  Ca  Ca22  1  0.49585680  0.49893066  0.25439274  1
  Ca  Ca23  1  0.49705962  0.50558101  0.75133522  1
  Ti  Ti24  1  0.25112723  0.25133104  0.25051440  1
  Ti  Ti25  1  0.25253865  0.25067557  0.74941541  1
  Ti  Ti26  1  0.25040876  0.75017662  0.25124955  1
  Ti  Ti27  1  0.24942619  0.74863745  0.74865723  1
  Ti  Ti28  1  0.74841475  0.25103128  0.24968063  1
  Ti  Ti29  1  0.74769631  0.24876827  0.75179958  1
  Ti  Ti30  1  0.74884975  0.74974693  0.24984944  1
  Ti  Ti31  1  0.74984859  0.75051730  0.75128011  1
  Al  Al32  1  0.08769814  0.08243657  0.08519651  1
  Al  Al33  1  0.08999186  0.08649562  0.56915023  1
  Al  Al34  1  0.07954340  0.57709247  0.08510019  1
  Al  Al35  1  0.08495518  0.58756319  0.57859228  1
  Al  Al36  1  0.58267795  0.08436510  0.09138087  1
  Al  Al37  1  0.58596090  0.08277480  0.58466958  1
  Al  Al38  1  0.57666766  0.58292884  0.07549706  1
  Al  Al39  1  0.57299048  0.59528491  0.58325616  1
  Al  Al40  1  0.41079874  0.41442620  0.08911611  1
  Al  Al41  1  0.41708122  0.41565696  0.57546590  1
  Al  Al42  1  0.41548494  0.92244699  0.08520990  1
  Al  Al43  1  0.41435695  0.91571674  0.56992290  1
  Al  Al44  1  0.91717577  0.40012709  0.08849505  1
  Al  Al45  1  0.92197082  0.42076971  0.56792142  1
  Al  Al46  1  0.91754553  0.91012222  0.07825115  1
  Al  Al47  1  0.92470290  0.92308649  0.58715044  1
  Al  Al48  1  0.40585001  0.09025824  0.41030284  1
  Al  Al49  1  0.41530702  0.09134330  0.92518233  1
  Al  Al50  1  0.40940866  0.58839459  0.42068213  1
  Al  Al51  1  0.41964829  0.58806939  0.90934022  1
  Al  Al52  1  0.91791899  0.08867515  0.42539999  1
  Al  Al53  1  0.91230461  0.08449501  0.91997263  1
  Al  Al54  1  0.91935591  0.57779075  0.40692795  1
  Al  Al55  1  0.91738810  0.59293820  0.92159884  1
  Al  Al56  1  0.08453313  0.41493227  0.40402470  1
  Al  Al57  1  0.08761238  0.42676661  0.91412970  1
  Al  Al58  1  0.09670847  0.91352238  0.40931019  1
  Al  Al59  1  0.07383974  0.91080296  0.91482476  1
  Al  Al60  1  0.57666597  0.40921465  0.40997528  1
  Al  Al61  1  0.58402882  0.41046430  0.92285656  1
  Al  Al62  1  0.56777224  0.91764523  0.40957125  1
  Al  Al63  1  0.58948637  0.92172442  0.90935777  1
  Al  Al64  1  0.09904386  0.07898605  0.41034336  1
  Al  Al65  1  0.07876120  0.08345264  0.92656665  1
  Al  Al66  1  0.08773115  0.58151383  0.41121134  1
  Al  Al67  1  0.08191634  0.58204095  0.90966574  1
  Al  Al68  1  0.57671204  0.09128415  0.41262887  1
  Al  Al69  1  0.58907427  0.08127208  0.91271410  1
  Al  Al70  1  0.57905911  0.58150176  0.42093114  1
  Al  Al71  1  0.57882372  0.59304677  0.91220798  1
  Al  Al72  1  0.41631195  0.40851349  0.41047601  1
  Al  Al73  1  0.41638711  0.41796239  0.92199395  1
  Al  Al74  1  0.40560645  0.91217941  0.40878152  1
  Al  Al75  1  0.42497250  0.91845653  0.92575760  1
  Al  Al76  1  0.91739363  0.41354032  0.40332911  1
  Al  Al77  1  0.91294611  0.41387331  0.92973116  1
  Al  Al78  1  0.93523817  0.91393381  0.41194973  1
  Al  Al79  1  0.91322621  0.90707297  0.91450168  1
  Al  Al80  1  0.07720812  0.41287107  0.09605129  1
  Al  Al81  1  0.08415403  0.42353794  0.57403900  1
  Al  Al82  1  0.08280593  0.91958690  0.08758954  1
  Al  Al83  1  0.08740714  0.90920605  0.57272060  1
  Al  Al84  1  0.57997343  0.40685065  0.08037137  1
  Al  Al85  1  0.57329956  0.41769260  0.57250266  1
  Al  Al86  1  0.58616095  0.92437528  0.08993020  1
  Al  Al87  1  0.58323030  0.92532884  0.59057551  1
  Al  Al88  1  0.41264645  0.08860850  0.08869125  1
  Al  Al89  1  0.41351482  0.08919887  0.57255714  1
  Al  Al90  1  0.41203370  0.57355251  0.08583769  1
  Al  Al91  1  0.41450957  0.59736965  0.58357756  1
  Al  Al92  1  0.91617234  0.08700770  0.07677540  1
  Al  Al93  1  0.90528331  0.08435020  0.57869177  1
  Al  Al94  1  0.91478190  0.59059429  0.07868596  1
  Al  Al95  1  0.92597789  0.58585956  0.57579937  1
  Al  Al96  1  0.25148749  0.13661209  0.13865287  1
  Al  Al97  1  0.25074771  0.13607224  0.62878168  1
  Al  Al98  1  0.25145859  0.63222038  0.13847058  1
  Al  Al99  1  0.25337209  0.63139091  0.63287956  1
  Al  Al100  1  0.74526088  0.13633720  0.13702668  1
  Al  Al101  1  0.74752758  0.13260143  0.63641347  1
  Al  Al102  1  0.75311533  0.63340692  0.13625244  1
  Al  Al103  1  0.75206689  0.63640650  0.63633670  1
  Al  Al104  1  0.25610053  0.36867275  0.13994219  1
  Al  Al105  1  0.25217545  0.36811375  0.63433697  1
  Al  Al106  1  0.24587216  0.86498283  0.13952000  1
  Al  Al107  1  0.24868116  0.86298529  0.63318268  1
  Al  Al108  1  0.75120345  0.36595626  0.13719111  1
  Al  Al109  1  0.74778143  0.36458556  0.63564414  1
  Al  Al110  1  0.74826720  0.86295306  0.13871932  1
  Al  Al111  1  0.74523701  0.86711341  0.64054754  1
  Al  Al112  1  0.25175838  0.13628667  0.36883030  1
  Al  Al113  1  0.25309106  0.13522579  0.86628467  1
  Al  Al114  1  0.25218703  0.63125469  0.36419635  1
  Al  Al115  1  0.24958755  0.62906430  0.86098475  1
  Al  Al116  1  0.74973284  0.13503864  0.36379032  1
  Al  Al117  1  0.74754777  0.13019934  0.86502554  1
  Al  Al118  1  0.74904597  0.63188552  0.36125771  1
  Al  Al119  1  0.75139737  0.63080839  0.86410811  1
  Al  Al120  1  0.25155269  0.37170246  0.36150518  1
  Al  Al121  1  0.25033671  0.36951130  0.86329026  1
  Al  Al122  1  0.24870047  0.86789824  0.36445435  1
  Al  Al123  1  0.24727659  0.86396222  0.86363659  1
  Al  Al124  1  0.75134038  0.36943386  0.35970189  1
  Al  Al125  1  0.75191418  0.36878728  0.86499606  1
  Al  Al126  1  0.74640125  0.86601407  0.36130691  1
  Al  Al127  1  0.74896003  0.86805172  0.86274904  1
  Al  Al128  1  0.13610944  0.25342358  0.14146175  1
  Al  Al129  1  0.13711061  0.24948241  0.63602179  1
  Al  Al130  1  0.12903900  0.75196875  0.14197714  1
  Al  Al131  1  0.13688471  0.75160753  0.63254009  1
  Al  Al132  1  0.63225170  0.25171819  0.13760752  1
  Al  Al133  1  0.63491847  0.24779405  0.63669950  1
  Al  Al134  1  0.63054895  0.75073000  0.13618980  1
  Al  Al135  1  0.63315916  0.74663163  0.63823227  1
  Al  Al136  1  0.13832184  0.24932699  0.36217463  1
  Al  Al137  1  0.13838082  0.24909107  0.86284881  1
  Al  Al138  1  0.13648469  0.75509312  0.36670299  1
  Al  Al139  1  0.13540684  0.75243027  0.86645373  1
  Al  Al140  1  0.63210854  0.24827451  0.36309760  1
  Al  Al141  1  0.63032674  0.24679150  0.86428191  1
  Al  Al142  1  0.62926533  0.74961647  0.36122776  1
  Al  Al143  1  0.63679872  0.74748612  0.86583337  1
  Al  Al144  1  0.36595776  0.24944328  0.13880155  1
  Al  Al145  1  0.36471145  0.24751788  0.63364343  1
  Al  Al146  1  0.36482513  0.75067629  0.13951763  1
  Al  Al147  1  0.36549490  0.74397478  0.63319486  1
  Al  Al148  1  0.86589434  0.25406512  0.13586405  1
  Al  Al149  1  0.86342095  0.24678184  0.63543484  1
  Al  Al150  1  0.86896664  0.74978079  0.13815518  1
  Al  Al151  1  0.86454838  0.75402707  0.63503826  1
  Al  Al152  1  0.36706426  0.24846030  0.36320668  1
  Al  Al153  1  0.36907141  0.25081121  0.86291562  1
  Al  Al154  1  0.36618893  0.74818722  0.36393266  1
  Al  Al155  1  0.36329557  0.74621154  0.86350571  1
  Al  Al156  1  0.86630413  0.25011423  0.36103007  1
  Al  Al157  1  0.86084589  0.25178863  0.86607722  1
  Al  Al158  1  0.86405938  0.74902028  0.36462271  1
  Al  Al159  1  0.86257613  0.75073072  0.86600570  1
  Al  Al160  1  0.13957584  0.12718099  0.25487327  1
  Al  Al161  1  0.14032943  0.13205557  0.74912784  1
  Al  Al162  1  0.13652738  0.63406911  0.25314830  1
  Al  Al163  1  0.13513993  0.63668751  0.75082761  1
  Al  Al164  1  0.63437701  0.13166044  0.25279148  1
  Al  Al165  1  0.63587988  0.12994829  0.75120150  1
  Al  Al166  1  0.62991453  0.63463012  0.25176294  1
  Al  Al167  1  0.63425299  0.63441230  0.75198158  1
  Al  Al168  1  0.36500691  0.13319502  0.25637095  1
  Al  Al169  1  0.36405305  0.13653179  0.75076594  1
  Al  Al170  1  0.36707511  0.62954599  0.25351631  1
  Al  Al171  1  0.36566161  0.63163409  0.74979738  1
  Al  Al172  1  0.86488333  0.13450010  0.24663452  1
  Al  Al173  1  0.86231267  0.13294665  0.75228349  1
  Al  Al174  1  0.86572384  0.63391027  0.25188272  1
  Al  Al175  1  0.86592051  0.63618360  0.75341118  1
  Al  Al176  1  0.13340948  0.36642492  0.25410455  1
  Al  Al177  1  0.13583877  0.36509868  0.75022510  1
  Al  Al178  1  0.13173968  0.87079633  0.25414426  1
  Al  Al179  1  0.13121324  0.86605237  0.74973532  1
  Al  Al180  1  0.62732717  0.36406320  0.25385063  1
  Al  Al181  1  0.63528446  0.36610067  0.75570255  1
  Al  Al182  1  0.63252018  0.86996354  0.25138212  1
  Al  Al183  1  0.63176205  0.86687240  0.75223225  1
  Al  Al184  1  0.36980332  0.36623897  0.25373085  1
  Al  Al185  1  0.36377335  0.37076394  0.75208844  1
  Al  Al186  1  0.36748459  0.86637490  0.25742139  1
  Al  Al187  1  0.36269773  0.86212036  0.74683790  1
  Al  Al188  1  0.86928033  0.36389894  0.25145089  1
  Al  Al189  1  0.86344080  0.36342394  0.74906844  1
  Al  Al190  1  0.87068032  0.86487666  0.25062748  1
  Al  Al191  1  0.87092293  0.86458521  0.75224455  1
  Al  Al192  1  0.32782318  0.31218739  0.00056367  1
  Al  Al193  1  -0.00014005  0.68594819  0.82747508  1
  Al  Al194  1  0.00299979  0.18010578  0.32763804  1
  Al  Al195  1  0.81996270  -0.00033515  0.67876333  1
  Al  Al196  1  0.66960521  0.83097696  0.49925523  1
  Al  Al197  1  -0.00002826  0.33021533  0.82210055  1
  Al  Al198  1  0.82788236  0.31060448  0.49811305  1
  Al  Al199  1  0.32971711  0.67300189  0.00127157  1
  Al  Al200  1  0.00101086  0.68111390  0.67467677  1
  Al  Al201  1  0.81856957  0.81011022  0.00163577  1
  Al  Al202  1  0.49885567  0.81388679  0.82707444  1
  Al  Al203  1  0.66716866  0.50129233  0.67367915  1
  Al  Al204  1  0.49954449  0.17136986  0.67659048  1
  Al  Al205  1  0.68186311  0.17221514  0.49986569  1
  Al  Al206  1  0.81662865  0.18988483  0.00079035  1
  Al  Al207  1  0.32651839  0.31296952  0.49781088  1
  Al  Al208  1  0.49968619  0.82521965  0.17723196  1
  Al  Al209  1  0.67907058  0.67575005  0.49938000  1
  Al  Al210  1  0.18927095  0.68646094  0.49859853  1
  Al  Al211  1  0.00206216  0.68311269  0.32086175  1
  Al  Al212  1  0.67170661  0.32401345  0.49825866  1
  Al  Al213  1  0.32153183  0.82632548  0.00168276  1
  Al  Al214  1  0.00099047  0.18425207  0.17543029  1
  Al  Al215  1  0.82342582  -0.00025954  0.32928713  1
  Al  Al216  1  0.49865331  0.81465867  0.67167854  1
  Al  Al217  1  0.17813865  0.32278789  0.00147603  1
  Al  Al218  1  0.17710752  0.50098172  0.68398125  1
  Al  Al219  1  -0.00016155  0.17289969  0.82569459  1
  Al  Al220  1  0.17209771  0.31299126  0.49846317  1
  Al  Al221  1  0.83380369  0.49761078  0.18339679  1
  Al  Al222  1  0.17375368  0.67646869  0.00171004  1
  Al  Al223  1  0.31013642  0.81102889  0.49859929  1
  Al  Al224  1  0.18469370  0.49852682  0.18733477  1
  Al  Al225  1  0.18628937  0.17388264  0.00193397  1
  Al  Al226  1  0.31927910  0.00008933  0.18678894  1
  Al  Al227  1  0.68972748  0.68131974  0.00128614  1
  Al  Al228  1  0.83174135  0.82600188  0.49838233  1
  Al  Al229  1  0.81718733  -0.00075233  0.16936888  1
  Al  Al230  1  0.69000646  0.31499917  -0.00020080  1
  Al  Al231  1  0.83138514  0.50061267  0.67707076  1
  Al  Al232  1  0.49944483  0.17948149  0.18873134  1
  Al  Al233  1  0.00106801  0.17599014  0.66964979  1
  Al  Al234  1  0.49921093  0.32604063  0.67731650  1
  Al  Al235  1  0.32263228  -0.00097653  0.83037858  1
  Al  Al236  1  0.17274392  -0.00037381  0.66903974  1
  Al  Al237  1  0.66927658  0.49934118  0.18019206  1
  Al  Al238  1  0.32986617  0.00062108  0.67063828  1
  Au  Au239  1  0.17425077  0.32965689  0.49499768  1
  Au  Au240  1  -0.00038940  0.66977355  0.17243668  1
  Au  Au241  1  0.00003743  0.17939029  0.15890457  1
  Au  Au242  1  0.81671843  -0.00150304  0.66614969  1
  Au  Au243  1  0.16953509  0.49831428  0.17935429  1
  Au  Au244  1  0.66973286  0.16722239  0.00301669  1
  Au  Au245  1  0.49798150  0.33711361  0.82704544  1
  Au  Au246  1  0.65579194  0.00144270  0.32521433  1
  Au  Au247  1  -0.00163930  0.32930853  0.83897902  1
  Au  Au248  1  0.17767529  0.67447989  0.49592137  1
  Au  Au249  1  0.82445468  -0.00137100  0.83685544  1
  Au  Au250  1  0.00067201  0.15940367  0.66567868  1
  Au  Au251  1  0.49449000  0.82994175  0.66552349  1
  Au  Au252  1  0.82591762  0.32738270  0.49464726  1
  Au  Au253  1  0.50119085  0.16385113  0.82757734  1
  Au  Au254  1  0.17524428  0.66044442  -0.00324001  1
  Au  Au255  1  0.17598040  -0.00092269  0.65649822  1
  Au  Au256  1  0.66450675  0.49968387  0.83904725  1
  Au  Au257  1  0.00037125  0.83581077  0.17823224  1
  Au  Au258  1  0.00418596  0.17635660  0.34443455  1
  Au  Au259  1  0.82743811  0.65564037  0.49323189  1
  Au  Au260  1  0.33948108  -0.00275634  0.83064986  1
  Au  Au261  1  0.65657976  0.50138725  0.66129030  1
  Au  Au262  1  0.67571615  0.67134569  -0.00014542  1
  Au  Au263  1  0.84694870  0.50079834  0.67069830  1
  Au  Au264  1  0.49347042  0.66303401  0.17022207  1
  Au  Au265  1  0.66010474  0.49889045  0.16698563  1
  Au  Au266  1  0.50157177  0.83771117  0.17844087  1
  Au  Au267  1  0.17249649  0.00061159  0.17840016  1
  Au  Au268  1  0.16694364  0.33527816  0.00245410  1
  Au  Au269  1  0.65341444  0.82917526  0.49487994  1
  Au  Au270  1  0.67275603  0.49904530  0.34209967  1
  Au  Au271  1  0.00075228  0.33625736  0.66192748  1
  Au  Au272  1  0.49824451  0.67437325  0.33862305  1
  Au  Au273  1  0.82402014  0.00002091  0.15389118  1
  Au  Au274  1  0.84753051  0.82991225  0.49860753  1
  Au  Au275  1  0.33848031  0.50102715  0.66396380  1
  Au  Au276  1  0.32506868  0.50026258  0.83871924  1
  Au  Au277  1  0.50246838  0.81833007  0.84326893  1
  Au  Au278  1  0.15531210  0.00101586  0.83210067  1
  Au  Au279  1  0.00421950  0.82930250  0.67240928  1
  Au  Au280  1  0.83195737  0.50154267  0.84510430  1
  Au  Au281  1  0.32980594  0.49990007  0.33257606  1
  Au  Au282  1  0.17306939  0.84199474  -0.00029770  1
  Au  Au283  1  0.83514570  -0.00023093  0.34073171  1
  Au  Au284  1  0.49656379  0.32721982  0.17572893  1
  Au  Au285  1  0.84339451  0.49808268  0.17032105  1
  Au  Au286  1  0.67529506  0.84615691  0.00242137  1
  Au  Au287  1  0.16126430  0.50218069  0.67685638  1
