# generated using pymatgen
data_Ca24Ti8Al207Au49
_symmetry_space_group_name_H-M   'P 1'
_cell_length_a   17.31730758
_cell_length_b   17.31752584
_cell_length_c   17.31927210
_cell_angle_alpha   89.99935345
_cell_angle_beta   89.99887226
_cell_angle_gamma   89.99485204
_symmetry_Int_Tables_number   1
_chemical_formula_structural   Ca24Ti8Al207Au49
_chemical_formula_sum   'Ca24 Ti8 Al207 Au49'
_cell_volume   5193.92708531
_cell_formula_units_Z   1
loop_
 _symmetry_equiv_pos_site_id
 _symmetry_equiv_pos_as_xyz
  1  'x, y, z'
loop_
 _atom_site_type_symbol
 _atom_site_label
 _atom_site_symmetry_multiplicity
 _atom_site_fract_x
 _atom_site_fract_y
 _atom_site_fract_z
 _atom_site_occupancy
  Ca  Ca0  1  0.25186285  -0.00312799  -0.00293765  1
  Ca  Ca1  1  0.25172789  0.00273512  0.50385298  1
  Ca  Ca2  1  0.25001499  0.50621236  -0.00150544  1
  Ca  Ca3  1  0.25066224  0.50317658  0.50082154  1
  Ca  Ca4  1  0.74899269  0.00065165  -0.00219180  1
  Ca  Ca5  1  0.75158102  0.00200559  0.50617696  1
  Ca  Ca6  1  0.75053527  0.50121968  -0.00548270  1
  Ca  Ca7  1  0.75101483  0.49811707  0.50911903  1
  Ca  Ca8  1  -0.00010161  0.24634044  -0.00253885  1
  Ca  Ca9  1  0.00289734  0.25078495  0.50147297  1
  Ca  Ca10  1  0.00314726  0.74463343  -0.00539900  1
  Ca  Ca11  1  -0.00232116  0.74428590  0.50641448  1
  Ca  Ca12  1  0.49949821  0.24299696  0.00008418  1
  Ca  Ca13  1  0.49857056  0.24883858  0.50148892  1
  Ca  Ca14  1  0.49787566  0.75212135  -0.00094008  1
  Ca  Ca15  1  0.49943619  0.74522853  0.50272493  1
  Ca  Ca16  1  -0.00055559  0.00403192  0.24446438  1
  Ca  Ca17  1  0.00317704  0.00092871  0.74634981  1
  Ca  Ca18  1  0.00257257  0.49830186  0.25155440  1
  Ca  Ca19  1  0.00060674  0.50201741  0.74814964  1
  Ca  Ca20  1  0.50043332  -0.00107992  0.24532794  1
  Ca  Ca21  1  0.49423686  -0.00021643  0.75027177  1
  Ca  Ca22  1  0.49375516  0.49976950  0.25422761  1
  Ca  Ca23  1  0.49870168  0.50015905  0.75142053  1
  Ti  Ti24  1  0.24923122  0.25048414  0.25109461  1
  Ti  Ti25  1  0.24840183  0.25078728  0.74854585  1
  Ti  Ti26  1  0.25114188  0.74887598  0.24815739  1
  Ti  Ti27  1  0.25010121  0.74799822  0.75098882  1
  Ti  Ti28  1  0.75000170  0.25044577  0.25053560  1
  Ti  Ti29  1  0.75169047  0.25041175  0.74871826  1
  Ti  Ti30  1  0.74879818  0.75040461  0.24669652  1
  Ti  Ti31  1  0.75086870  0.74794778  0.75207832  1
  Al  Al32  1  0.07692383  0.08389394  0.08851477  1
  Al  Al33  1  0.08579755  0.09631512  0.58944447  1
  Al  Al34  1  0.09502797  0.58899711  0.07420556  1
  Al  Al35  1  0.08723142  0.58735997  0.58507469  1
  Al  Al36  1  0.60054215  0.07890632  0.08057544  1
  Al  Al37  1  0.58377518  0.08615275  0.59783476  1
  Al  Al38  1  0.58433269  0.57910047  0.07645458  1
  Al  Al39  1  0.57892275  0.57740745  0.59349215  1
  Al  Al40  1  0.40346681  0.42115933  0.08728948  1
  Al  Al41  1  0.41454676  0.41923751  0.57599975  1
  Al  Al42  1  0.40803722  0.91597806  0.07931562  1
  Al  Al43  1  0.41198270  0.92950815  0.58724457  1
  Al  Al44  1  0.92707200  0.42458691  0.07470385  1
  Al  Al45  1  0.91253440  0.41948780  0.59400398  1
  Al  Al46  1  0.91386311  0.92407267  0.07742891  1
  Al  Al47  1  0.90941638  0.92331645  0.59391865  1
  Al  Al48  1  0.40845436  0.07784957  0.42968018  1
  Al  Al49  1  0.41491232  0.07730853  0.90613947  1
  Al  Al50  1  0.40196930  0.58633484  0.41501241  1
  Al  Al51  1  0.41712259  0.59116059  0.91279698  1
  Al  Al52  1  0.91838482  0.08376972  0.42901446  1
  Al  Al53  1  0.92002895  0.08845961  0.91845690  1
  Al  Al54  1  0.92251653  0.57952988  0.43066104  1
  Al  Al55  1  0.91738823  0.59135858  0.90407221  1
  Al  Al56  1  0.10333390  0.41843395  0.41986901  1
  Al  Al57  1  0.08383820  0.43058688  0.90580599  1
  Al  Al58  1  0.08038492  0.92547060  0.42704372  1
  Al  Al59  1  0.08837914  0.90274264  0.91290716  1
  Al  Al60  1  0.59345382  0.41845129  0.41939557  1
  Al  Al61  1  0.58566937  0.42566982  0.91848194  1
  Al  Al62  1  0.58301885  0.91705317  0.42176649  1
  Al  Al63  1  0.58109206  0.91259007  0.92219681  1
  Al  Al64  1  0.09055774  0.09232571  0.42744965  1
  Al  Al65  1  0.07958370  0.07905284  0.91081742  1
  Al  Al66  1  0.10207557  0.58225003  0.41773877  1
  Al  Al67  1  0.08465788  0.59236503  0.90812987  1
  Al  Al68  1  0.58506641  0.07645921  0.42655722  1
  Al  Al69  1  0.58058565  0.08645798  0.92061866  1
  Al  Al70  1  0.58004653  0.57393622  0.41201107  1
  Al  Al71  1  0.58171167  0.58978250  0.90605822  1
  Al  Al72  1  0.40298711  0.42329761  0.41185505  1
  Al  Al73  1  0.41604989  0.42624109  0.92571059  1
  Al  Al74  1  0.41839961  0.92044183  0.41621911  1
  Al  Al75  1  0.41046397  0.91437427  0.91159886  1
  Al  Al76  1  0.92085846  0.42078175  0.42807437  1
  Al  Al77  1  0.91554628  0.42923042  0.90426177  1
  Al  Al78  1  0.91764279  0.92507581  0.42983222  1
  Al  Al79  1  0.92389455  0.91073710  0.91432629  1
  Al  Al80  1  0.08446133  0.42717726  0.08667701  1
  Al  Al81  1  0.09021397  0.41296191  0.58136950  1
  Al  Al82  1  0.09563596  0.90907055  0.07358644  1
  Al  Al83  1  0.07819519  0.91921489  0.58648359  1
  Al  Al84  1  0.57777119  0.41861255  0.08164110  1
  Al  Al85  1  0.59478185  0.42037944  0.58277835  1
  Al  Al86  1  0.59702234  0.91711696  0.08174306  1
  Al  Al87  1  0.59100026  0.92577262  0.58651250  1
  Al  Al88  1  0.41017471  0.07375922  0.08069153  1
  Al  Al89  1  0.41254840  0.09134568  0.59407832  1
  Al  Al90  1  0.40575365  0.57852496  0.08262793  1
  Al  Al91  1  0.41275133  0.59144930  0.57923771  1
  Al  Al92  1  0.91461373  0.08873943  0.08822704  1
  Al  Al93  1  0.91331356  0.08773738  0.59209616  1
  Al  Al94  1  0.91595487  0.58965296  0.06628186  1
  Al  Al95  1  0.91427945  0.58326764  0.59469037  1
  Al  Al96  1  0.25306670  0.12950434  0.13470960  1
  Al  Al97  1  0.24786990  0.13421270  0.63422520  1
  Al  Al98  1  0.25197249  0.63584311  0.12911817  1
  Al  Al99  1  0.24783933  0.63346059  0.63405903  1
  Al  Al100  1  0.74664047  0.13588358  0.13278700  1
  Al  Al101  1  0.75066258  0.13027372  0.63735065  1
  Al  Al102  1  0.74606299  0.63465508  0.13194790  1
  Al  Al103  1  0.75268636  0.62838730  0.63972767  1
  Al  Al104  1  0.25093299  0.36728084  0.13666412  1
  Al  Al105  1  0.24720030  0.36075461  0.62682095  1
  Al  Al106  1  0.25173052  0.86870107  0.13610153  1
  Al  Al107  1  0.25726310  0.86809748  0.63793725  1
  Al  Al108  1  0.74505567  0.36710610  0.13741836  1
  Al  Al109  1  0.75553504  0.36574052  0.63728830  1
  Al  Al110  1  0.74569298  0.86606592  0.12869440  1
  Al  Al111  1  0.75286370  0.86834388  0.63790727  1
  Al  Al112  1  0.24801972  0.13883100  0.36512199  1
  Al  Al113  1  0.25016943  0.12745129  0.86236054  1
  Al  Al114  1  0.25264436  0.62918725  0.36443687  1
  Al  Al115  1  0.24838561  0.63076912  0.86975065  1
  Al  Al116  1  0.74787873  0.13726703  0.36551807  1
  Al  Al117  1  0.74767470  0.13468671  0.86290105  1
  Al  Al118  1  0.74551434  0.63400457  0.36234540  1
  Al  Al119  1  0.75287149  0.62632212  0.86466118  1
  Al  Al120  1  0.24857410  0.36707968  0.36852279  1
  Al  Al121  1  0.24833667  0.37206135  0.85912079  1
  Al  Al122  1  0.25192309  0.86328683  0.36440652  1
  Al  Al123  1  0.24802518  0.86574192  0.86354227  1
  Al  Al124  1  0.74757779  0.36790420  0.36353648  1
  Al  Al125  1  0.75170751  0.37392008  0.85892709  1
  Al  Al126  1  0.75049796  0.86378256  0.36377134  1
  Al  Al127  1  0.74449651  0.86256037  0.86863227  1
  Al  Al128  1  0.13611768  0.24709576  0.13678057  1
  Al  Al129  1  0.13189620  0.24906875  0.63389283  1
  Al  Al130  1  0.13781096  0.74846250  0.12983893  1
  Al  Al131  1  0.13766403  0.74671289  0.63708218  1
  Al  Al132  1  0.63291452  0.25173868  0.13812153  1
  Al  Al133  1  0.63814766  0.24699033  0.63718478  1
  Al  Al134  1  0.63334440  0.75545772  0.12896661  1
  Al  Al135  1  0.63960201  0.74626590  0.63972231  1
  Al  Al136  1  0.13373174  0.25121588  0.36746654  1
  Al  Al137  1  0.13706325  0.24867209  0.86109370  1
  Al  Al138  1  0.14135907  0.73998701  0.36937044  1
  Al  Al139  1  0.13840696  0.74719365  0.86915027  1
  Al  Al140  1  0.63221625  0.25064779  0.36227242  1
  Al  Al141  1  0.63688214  0.25082694  0.85849554  1
  Al  Al142  1  0.63449114  0.75391193  0.36009104  1
  Al  Al143  1  0.63605604  0.74571580  0.86283020  1
  Al  Al144  1  0.36422172  0.25156987  0.13805941  1
  Al  Al145  1  0.36723101  0.24962257  0.63679317  1
  Al  Al146  1  0.36498582  0.75097212  0.13377735  1
  Al  Al147  1  0.36172097  0.74125570  0.63592133  1
  Al  Al148  1  0.86475961  0.24829749  0.13453543  1
  Al  Al149  1  0.87261110  0.25109622  0.63761523  1
  Al  Al150  1  0.86479011  0.74567803  0.13006058  1
  Al  Al151  1  0.86270360  0.74973040  0.63865066  1
  Al  Al152  1  0.36480627  0.25670446  0.36605153  1
  Al  Al153  1  0.35933554  0.24668430  0.85941829  1
  Al  Al154  1  0.36246739  0.74665254  0.36424025  1
  Al  Al155  1  0.36274807  0.74579337  0.86461623  1
  Al  Al156  1  0.86686359  0.25246442  0.36517172  1
  Al  Al157  1  0.86321402  0.24991834  0.85894285  1
  Al  Al158  1  0.86345507  0.74814467  0.36359420  1
  Al  Al159  1  0.86461768  0.74327980  0.86767552  1
  Al  Al160  1  0.13325540  0.13486428  0.24614649  1
  Al  Al161  1  0.13283333  0.13455556  0.74710936  1
  Al  Al162  1  0.13704555  0.63468707  0.24996728  1
  Al  Al163  1  0.13504401  0.63247765  0.75596942  1
  Al  Al164  1  0.63568480  0.13316886  0.24600632  1
  Al  Al165  1  0.63475802  0.13069082  0.74586404  1
  Al  Al166  1  0.63559055  0.63175754  0.24831905  1
  Al  Al167  1  0.63883763  0.62821777  0.75152132  1
  Al  Al168  1  0.36551727  0.13679096  0.24996718  1
  Al  Al169  1  0.36266168  0.13162543  0.74586393  1
  Al  Al170  1  0.36033286  0.62924119  0.24971308  1
  Al  Al171  1  0.36044847  0.62737301  0.75304378  1
  Al  Al172  1  0.86448548  0.13675925  0.24726298  1
  Al  Al173  1  0.86653446  0.13284782  0.74304061  1
  Al  Al174  1  0.86743021  0.63629032  0.24698416  1
  Al  Al175  1  0.86576792  0.63012130  0.75234531  1
  Al  Al176  1  0.13512139  0.36812234  0.25437930  1
  Al  Al177  1  0.12982069  0.36470054  0.74776943  1
  Al  Al178  1  0.13689760  0.86278149  0.24481375  1
  Al  Al179  1  0.13498778  0.86520296  0.74868450  1
  Al  Al180  1  0.63052053  0.36744099  0.25190048  1
  Al  Al181  1  0.63794990  0.37322928  0.74467402  1
  Al  Al182  1  0.63004542  0.86453506  0.24398595  1
  Al  Al183  1  0.63801421  0.86577061  0.74698506  1
  Al  Al184  1  0.36293312  0.36892653  0.25274227  1
  Al  Al185  1  0.35968664  0.37307597  0.74506985  1
  Al  Al186  1  0.36955094  0.86216301  0.24819388  1
  Al  Al187  1  0.36412928  0.86430517  0.75354834  1
  Al  Al188  1  0.86843212  0.36445881  0.24994267  1
  Al  Al189  1  0.87098414  0.36801053  0.74915533  1
  Al  Al190  1  0.86139024  0.86363870  0.24230320  1
  Al  Al191  1  0.86364266  0.86258788  0.75269819  1
  Al  Al192  1  0.50349561  0.31974594  0.66981860  1
  Al  Al193  1  0.00109705  0.80633067  0.81907988  1
  Al  Al194  1  0.19020404  0.50178997  0.18665958  1
  Al  Al195  1  0.50012967  0.81354845  0.82677086  1
  Al  Al196  1  0.81345177  0.00088214  0.17416189  1
  Al  Al197  1  0.17864668  0.49857664  0.68181724  1
  Al  Al198  1  0.32556039  0.31785963  -0.00154671  1
  Al  Al199  1  0.32909078  0.00018054  0.31545111  1
  Al  Al200  1  0.00099615  0.68125855  0.68881714  1
  Al  Al201  1  0.17327704  0.00118677  0.32406745  1
  Al  Al202  1  0.81774029  0.81471005  -0.00082449  1
  Al  Al203  1  0.33056183  0.81571641  0.50191352  1
  Al  Al204  1  0.49940776  0.67481395  0.17182658  1
  Al  Al205  1  -0.00082083  0.18243583  0.81356157  1
  Al  Al206  1  0.68407745  0.68224391  -0.00288286  1
  Al  Al207  1  0.68003911  0.82507404  0.50241383  1
  Al  Al208  1  0.50147564  0.17248336  0.16670135  1
  Al  Al209  1  -0.00094342  0.17543712  0.32165464  1
  Al  Al210  1  0.49783830  0.82495154  0.66721434  1
  Al  Al211  1  0.81906937  0.18184428  0.50211299  1
  Al  Al212  1  0.17405726  0.81573982  0.50201319  1
  Al  Al213  1  0.00129624  0.31559220  0.17689075  1
  Al  Al214  1  0.49959358  0.67354985  0.68979317  1
  Al  Al215  1  0.49645463  0.33050812  0.82919227  1
  Al  Al216  1  0.00068494  0.82682649  0.32824192  1
  Al  Al217  1  0.66946718  -0.00106411  0.82186233  1
  Al  Al218  1  0.82410780  0.68084020  0.50253618  1
  Al  Al219  1  0.81546542  0.17478587  -0.00179357  1
  Al  Al220  1  0.49860646  0.67573043  0.32830209  1
  Al  Al221  1  0.31370842  0.18235356  0.50146523  1
  Al  Al222  1  0.00092013  0.82512026  0.16634406  1
  Al  Al223  1  0.82768905  0.32940607  -0.00282384  1
  Al  Al224  1  0.17425535  0.17149406  -0.00130756  1
  Al  Al225  1  0.16973184  0.33093707  -0.00474835  1
  Al  Al226  1  0.82283842  0.50133142  0.17150191  1
  Al  Al227  1  0.82259937  0.50056879  0.32959056  1
  Al  Al228  1  0.66675681  0.67315781  0.49827213  1
  Al  Al229  1  0.67192988  -0.00214189  0.31167585  1
  Al  Al230  1  0.00347069  0.66734416  0.32699016  1
  Al  Al231  1  0.49710577  0.17262415  0.33215308  1
  Al  Al232  1  0.49946397  0.17397603  0.81374469  1
  Al  Al233  1  0.82760431  0.00016446  0.81584527  1
  Al  Al234  1  0.17933913  -0.00238078  0.67682151  1
  Al  Al235  1  0.67095219  0.30921932  -0.00210438  1
  Al  Al236  1  0.68350618  0.31732994  0.50019020  1
  Al  Al237  1  0.82905932  0.00189324  0.32792785  1
  Al  Al238  1  0.31178468  0.81977103  -0.00137934  1
  Au  Au239  1  0.49192828  0.33889037  0.16980469  1
  Au  Au240  1  0.82955234  0.50470779  0.15600279  1
  Au  Au241  1  0.17544102  -0.00085473  0.16067850  1
  Au  Au242  1  -0.00558725  0.84312745  0.33050654  1
  Au  Au243  1  0.32103157  0.32962188  0.49784304  1
  Au  Au244  1  0.67701202  -0.00243689  0.32817169  1
  Au  Au245  1  0.00347985  0.32527890  0.66397173  1
  Au  Au246  1  0.32688229  0.50235332  0.66351748  1
  Au  Au247  1  0.00002078  0.66382851  0.33865230  1
  Au  Au248  1  0.16308691  0.16793668  0.00317996  1
  Au  Au249  1  0.00147569  0.32609387  0.16309274  1
  Au  Au250  1  0.17507301  -0.00367685  0.83332515  1
  Au  Au251  1  0.00123468  0.33091815  0.83047569  1
  Au  Au252  1  0.49431555  0.32351795  0.84369629  1
  Au  Au253  1  0.00245624  0.66552213  0.16164691  1
  Au  Au254  1  0.82210512  0.50414203  0.34632283  1
  Au  Au255  1  0.84214629  0.00164974  0.82366740  1
  Au  Au256  1  0.50091018  0.84211572  0.16336938  1
  Au  Au257  1  0.17619655  0.34717084  -0.00647104  1
  Au  Au258  1  0.32496786  0.50078565  0.83495309  1
  Au  Au259  1  0.33142916  0.83295941  0.50221368  1
  Au  Au260  1  0.18018386  0.00190212  0.33977457  1
  Au  Au261  1  0.17689869  0.50478349  0.17608519  1
  Au  Au262  1  0.66485587  0.32499750  0.00172890  1
  Au  Au263  1  0.49486000  0.65899482  0.17287994  1
  Au  Au264  1  0.50072352  0.34237028  0.33673669  1
  Au  Au265  1  0.66977452  0.67282003  -0.00381998  1
  Au  Au266  1  0.33591369  0.16686133  -0.00532023  1
  Au  Au267  1  0.00674106  0.34168707  0.33918365  1
  Au  Au268  1  0.17573009  0.00281194  0.66594394  1
  Au  Au269  1  0.84263265  0.32854277  -0.00876170  1
  Au  Au270  1  -0.00401075  0.83058503  0.67451469  1
  Au  Au271  1  -0.00255124  0.83662016  0.16263710  1
  Au  Au272  1  0.66882065  0.16741262  0.50698347  1
  Au  Au273  1  0.50283855  0.83744167  0.67645895  1
  Au  Au274  1  0.50445352  0.32993309  0.65705427  1
  Au  Au275  1  0.82974783  0.83379798  0.50331139  1
  Au  Au276  1  0.15706497  0.81880911  0.50187096  1
  Au  Au277  1  0.49552919  0.16447262  0.34599010  1
  Au  Au278  1  0.66873744  0.65757235  0.50301748  1
  Au  Au279  1  0.50038628  0.82598349  0.33844111  1
  Au  Au280  1  0.67268487  0.50030463  0.82336402  1
  Au  Au281  1  0.66278668  -0.00107454  0.83240324  1
  Au  Au282  1  0.50307683  0.15799565  0.15979439  1
  Au  Au283  1  0.82740011  0.82885909  -0.00262394  1
  Au  Au284  1  0.32479951  0.67251956  -0.00122294  1
  Au  Au285  1  -0.00094624  0.16207053  0.33148921  1
  Au  Au286  1  0.83205362  0.33017364  0.50387315  1
  Au  Au287  1  0.65995798  0.49840438  0.17751374  1
