# generated using pymatgen
data_Ca24Ti8Al207Au49
_symmetry_space_group_name_H-M   'P 1'
_cell_length_a   17.32204427
_cell_length_b   17.32086662
_cell_length_c   17.32085872
_cell_angle_alpha   89.99957107
_cell_angle_beta   89.99689401
_cell_angle_gamma   90.00353563
_symmetry_Int_Tables_number   1
_chemical_formula_structural   Ca24Ti8Al207Au49
_chemical_formula_sum   'Ca24 Ti8 Al207 Au49'
_cell_volume   5196.82604165
_cell_formula_units_Z   1
loop_
 _symmetry_equiv_pos_site_id
 _symmetry_equiv_pos_as_xyz
  1  'x, y, z'
loop_
 _atom_site_type_symbol
 _atom_site_label
 _atom_site_symmetry_multiplicity
 _atom_site_fract_x
 _atom_site_fract_y
 _atom_site_fract_z
 _atom_site_occupancy
  Ca  Ca0  1  0.25106499  0.00063266  -0.00164756  1
  Ca  Ca1  1  0.25411849  -0.00336182  0.50001073  1
  Ca  Ca2  1  0.24950418  0.50397824  -0.00149140  1
  Ca  Ca3  1  0.24878518  0.49965874  0.49942021  1
  Ca  Ca4  1  0.74966525  -0.00287446  -0.00804119  1
  Ca  Ca5  1  0.74403113  -0.00043479  0.50344116  1
  Ca  Ca6  1  0.74840600  0.50339072  0.00422567  1
  Ca  Ca7  1  0.74824632  0.49853612  0.49733914  1
  Ca  Ca8  1  0.00053525  0.24428779  0.00149306  1
  Ca  Ca9  1  -0.00312947  0.24965550  0.49773250  1
  Ca  Ca10  1  -0.00040970  0.74857759  -0.00192531  1
  Ca  Ca11  1  -0.00491216  0.75140576  0.50432093  1
  Ca  Ca12  1  0.50235508  0.24682499  0.00298953  1
  Ca  Ca13  1  0.50287064  0.24863495  0.49463033  1
  Ca  Ca14  1  0.50095107  0.75252347  0.00121028  1
  Ca  Ca15  1  0.50421467  0.75481030  0.50014745  1
  Ca  Ca16  1  -0.00088027  0.00379370  0.25007162  1
  Ca  Ca17  1  -0.00323936  -0.00154030  0.74708860  1
  Ca  Ca18  1  -0.00584932  0.49771527  0.25184122  1
  Ca  Ca19  1  0.00315784  0.50493862  0.74962786  1
  Ca  Ca20  1  0.50056173  -0.00155329  0.25258759  1
  Ca  Ca21  1  0.50441730  0.00042066  0.74644028  1
  Ca  Ca22  1  0.50351086  0.50138263  0.25320728  1
  Ca  Ca23  1  0.49750948  0.49999888  0.74646439  1
  Ti  Ti24  1  0.25172547  0.25109690  0.25128483  1
  Ti  Ti25  1  0.24844500  0.24941803  0.74791883  1
  Ti  Ti26  1  0.25013347  0.74995939  0.25010388  1
  Ti  Ti27  1  0.24815382  0.75222071  0.75087435  1
  Ti  Ti28  1  0.74862205  0.25037783  0.25026099  1
  Ti  Ti29  1  0.75147683  0.24830781  0.74859926  1
  Ti  Ti30  1  0.75005470  0.74929506  0.25195115  1
  Ti  Ti31  1  0.75162186  0.75194202  0.74766805  1
  Al  Al32  1  0.08586291  0.08685192  0.08587557  1
  Al  Al33  1  0.07932247  0.08427579  0.58096636  1
  Al  Al34  1  0.09311426  0.58464041  0.07760332  1
  Al  Al35  1  0.07633059  0.58793151  0.58800182  1
  Al  Al36  1  0.57927907  0.07613035  0.08643010  1
  Al  Al37  1  0.58494813  0.08200216  0.57647143  1
  Al  Al38  1  0.58834204  0.58217975  0.08813063  1
  Al  Al39  1  0.58084230  0.58769462  0.57717776  1
  Al  Al40  1  0.42193361  0.41716572  0.08430887  1
  Al  Al41  1  0.42035458  0.42331545  0.58306123  1
  Al  Al42  1  0.42539600  0.90623446  0.08489539  1
  Al  Al43  1  0.41791454  0.91345483  0.59533693  1
  Al  Al44  1  0.91320110  0.41706254  0.09838215  1
  Al  Al45  1  0.92143934  0.40820661  0.58435612  1
  Al  Al46  1  0.92045924  0.91961503  0.06927351  1
  Al  Al47  1  0.90925440  0.90967363  0.59083781  1
  Al  Al48  1  0.42851249  0.08236363  0.41171180  1
  Al  Al49  1  0.41709724  0.08908028  0.92154568  1
  Al  Al50  1  0.42013058  0.58283475  0.41874519  1
  Al  Al51  1  0.40911000  0.58985836  0.92259921  1
  Al  Al52  1  0.92045282  0.09004812  0.41244876  1
  Al  Al53  1  0.91444679  0.07948386  0.89951946  1
  Al  Al54  1  0.90779339  0.57759367  0.41120625  1
  Al  Al55  1  0.93004202  0.58418553  0.91154726  1
  Al  Al56  1  0.07229109  0.41106229  0.41336489  1
  Al  Al57  1  0.07703669  0.42034606  0.91619173  1
  Al  Al58  1  0.07693611  0.92433410  0.42007917  1
  Al  Al59  1  0.07442349  0.91083650  0.91656151  1
  Al  Al60  1  0.59025907  0.40617345  0.41062825  1
  Al  Al61  1  0.57812766  0.42268808  0.91369283  1
  Al  Al62  1  0.58747829  0.91685249  0.40457998  1
  Al  Al63  1  0.58789822  0.91777856  0.90728032  1
  Al  Al64  1  0.07954163  0.09042064  0.41334679  1
  Al  Al65  1  0.07399413  0.09162648  0.91965908  1
  Al  Al66  1  0.07521639  0.57464467  0.42378346  1
  Al  Al67  1  0.08922204  0.59744435  0.91600679  1
  Al  Al68  1  0.58950777  0.09019161  0.40784766  1
  Al  Al69  1  0.58275343  0.07545638  0.90831325  1
  Al  Al70  1  0.58794624  0.58122437  0.41518721  1
  Al  Al71  1  0.58414673  0.57968795  0.92482955  1
  Al  Al72  1  0.42767592  0.40832268  0.40778625  1
  Al  Al73  1  0.41880577  0.41842158  0.91901673  1
  Al  Al74  1  0.42523772  0.91693517  0.41118301  1
  Al  Al75  1  0.42484751  0.91334331  0.92167203  1
  Al  Al76  1  0.91061944  0.41406466  0.40586112  1
  Al  Al77  1  0.92254228  0.42161994  0.91714420  1
  Al  Al78  1  0.91117086  0.91323042  0.42872444  1
  Al  Al79  1  0.91007899  0.91633711  0.90588823  1
  Al  Al80  1  0.07573986  0.42092474  0.09133401  1
  Al  Al81  1  0.07772454  0.41259696  0.58755051  1
  Al  Al82  1  0.08531619  0.92249722  0.07907029  1
  Al  Al83  1  0.07291611  0.91332795  0.59117997  1
  Al  Al84  1  0.58482714  0.42583087  0.09959948  1
  Al  Al85  1  0.58895057  0.41037162  0.57353479  1
  Al  Al86  1  0.58407674  0.91319787  0.09436463  1
  Al  Al87  1  0.58133142  0.91354950  0.58778975  1
  Al  Al88  1  0.41627000  0.09315191  0.07931296  1
  Al  Al89  1  0.41813516  0.07208301  0.58792970  1
  Al  Al90  1  0.41396955  0.59190892  0.07988752  1
  Al  Al91  1  0.41666745  0.58372008  0.58409398  1
  Al  Al92  1  0.92739225  0.08545281  0.08365982  1
  Al  Al93  1  0.91412770  0.07807406  0.58861190  1
  Al  Al94  1  0.91441881  0.57508349  0.09154297  1
  Al  Al95  1  0.92013323  0.59250870  0.58416619  1
  Al  Al96  1  0.25366798  0.13795191  0.13784311  1
  Al  Al97  1  0.24819605  0.13120913  0.63780108  1
  Al  Al98  1  0.24975995  0.63916401  0.13129393  1
  Al  Al99  1  0.24819679  0.63849429  0.63637628  1
  Al  Al100  1  0.74489909  0.13818780  0.13728025  1
  Al  Al101  1  0.75206472  0.13515194  0.63655111  1
  Al  Al102  1  0.75109597  0.63438974  0.13789444  1
  Al  Al103  1  0.75286818  0.63725362  0.63160140  1
  Al  Al104  1  0.25413273  0.36322812  0.13856105  1
  Al  Al105  1  0.24557165  0.36119022  0.62935262  1
  Al  Al106  1  0.24838274  0.86085876  0.13714038  1
  Al  Al107  1  0.24992178  0.87287206  0.63878951  1
  Al  Al108  1  0.75203725  0.36729094  0.13939484  1
  Al  Al109  1  0.74471312  0.36427932  0.63214597  1
  Al  Al110  1  0.74770469  0.86317378  0.13875758  1
  Al  Al111  1  0.75096846  0.86553563  0.62724591  1
  Al  Al112  1  0.24833318  0.13793146  0.36208200  1
  Al  Al113  1  0.25079361  0.13395524  0.86275241  1
  Al  Al114  1  0.25280246  0.63504845  0.36429866  1
  Al  Al115  1  0.24792314  0.63985408  0.87070322  1
  Al  Al116  1  0.74632665  0.13534343  0.36251114  1
  Al  Al117  1  0.75371317  0.12875729  0.86157202  1
  Al  Al118  1  0.75286747  0.63311917  0.36386804  1
  Al  Al119  1  0.74885500  0.63798013  0.86210176  1
  Al  Al120  1  0.25372922  0.36497583  0.36987224  1
  Al  Al121  1  0.24963186  0.36597302  0.85855937  1
  Al  Al122  1  0.25210420  0.86372868  0.36309546  1
  Al  Al123  1  0.24846413  0.86633779  0.86187041  1
  Al  Al124  1  0.74733020  0.36400585  0.36672060  1
  Al  Al125  1  0.75300788  0.36306983  0.86236518  1
  Al  Al126  1  0.74595564  0.86369017  0.36890077  1
  Al  Al127  1  0.75271906  0.87110291  0.85921078  1
  Al  Al128  1  0.13270788  0.24759061  0.13752004  1
  Al  Al129  1  0.12760305  0.25033655  0.63639858  1
  Al  Al130  1  0.12967630  0.74642470  0.13526320  1
  Al  Al131  1  0.13478642  0.75386772  0.63825110  1
  Al  Al132  1  0.62669924  0.25094690  0.14082068  1
  Al  Al133  1  0.63538135  0.25025481  0.63491941  1
  Al  Al134  1  0.63234754  0.75645742  0.13927019  1
  Al  Al135  1  0.63437365  0.75773266  0.63440499  1
  Al  Al136  1  0.13476781  0.25485239  0.36514997  1
  Al  Al137  1  0.13255887  0.24812436  0.86320795  1
  Al  Al138  1  0.13201746  0.75149562  0.36266511  1
  Al  Al139  1  0.12679662  0.74905109  0.86317437  1
  Al  Al140  1  0.63122205  0.25267647  0.36426544  1
  Al  Al141  1  0.63880136  0.24679399  0.86256999  1
  Al  Al142  1  0.62916441  0.75247696  0.36260700  1
  Al  Al143  1  0.64014634  0.75749862  0.86329004  1
  Al  Al144  1  0.37312828  0.24835361  0.13957751  1
  Al  Al145  1  0.36375773  0.25371186  0.63296868  1
  Al  Al146  1  0.36750831  0.75035693  0.13612302  1
  Al  Al147  1  0.36322838  0.75663269  0.63500318  1
  Al  Al148  1  0.86350481  0.24754580  0.13497380  1
  Al  Al149  1  0.87129139  0.24993904  0.63563601  1
  Al  Al150  1  0.86930879  0.75063191  0.13827738  1
  Al  Al151  1  0.86452973  0.75439556  0.62912953  1
  Al  Al152  1  0.36855963  0.25014775  0.36680934  1
  Al  Al153  1  0.36400748  0.24757950  0.86368414  1
  Al  Al154  1  0.37112198  0.75342534  0.36268495  1
  Al  Al155  1  0.36440175  0.75100190  0.86231808  1
  Al  Al156  1  0.86418575  0.25187012  0.36529091  1
  Al  Al157  1  0.86667784  0.24462795  0.86680051  1
  Al  Al158  1  0.86286073  0.74950511  0.37101254  1
  Al  Al159  1  0.87019909  0.75211846  0.86244600  1
  Al  Al160  1  0.13439335  0.13697227  0.25028833  1
  Al  Al161  1  0.12724935  0.13650946  0.74719122  1
  Al  Al162  1  0.13317382  0.63490963  0.25150924  1
  Al  Al163  1  0.13358606  0.63555664  0.75221246  1
  Al  Al164  1  0.62765268  0.13698516  0.25517315  1
  Al  Al165  1  0.63766516  0.13022063  0.74927017  1
  Al  Al166  1  0.63476813  0.63348104  0.24832016  1
  Al  Al167  1  0.63864859  0.63743243  0.74285547  1
  Al  Al168  1  0.37300635  0.13804043  0.25426873  1
  Al  Al169  1  0.36416296  0.13338952  0.74649927  1
  Al  Al170  1  0.36508265  0.63404221  0.24856947  1
  Al  Al171  1  0.36016182  0.63655064  0.75002597  1
  Al  Al172  1  0.86455786  0.13355466  0.25172498  1
  Al  Al173  1  0.87227938  0.13421481  0.75028292  1
  Al  Al174  1  0.86473236  0.63221684  0.24968457  1
  Al  Al175  1  0.86579064  0.63855811  0.75009726  1
  Al  Al176  1  0.13370856  0.36468357  0.25247224  1
  Al  Al177  1  0.13170533  0.36789462  0.74705488  1
  Al  Al178  1  0.12929923  0.86290385  0.24876365  1
  Al  Al179  1  0.12719838  0.86603792  0.75069119  1
  Al  Al180  1  0.63251346  0.36599382  0.25144417  1
  Al  Al181  1  0.63068934  0.36397392  0.74786214  1
  Al  Al182  1  0.63266051  0.86617862  0.25446457  1
  Al  Al183  1  0.64054696  0.87274780  0.74695276  1
  Al  Al184  1  0.37190346  0.36440603  0.25350810  1
  Al  Al185  1  0.37028445  0.36174914  0.75085099  1
  Al  Al186  1  0.37041438  0.86370772  0.24920380  1
  Al  Al187  1  0.36649508  0.86780429  0.74547393  1
  Al  Al188  1  0.86368371  0.36663011  0.25416197  1
  Al  Al189  1  0.86649808  0.36188139  0.74660591  1
  Al  Al190  1  0.86850715  0.86214579  0.25444260  1
  Al  Al191  1  0.87109960  0.86286697  0.74795671  1
  Al  Al192  1  0.68110231  0.68435750  0.49769304  1
  Al  Al193  1  0.33352848  -0.00068886  0.81819166  1
  Al  Al194  1  0.82670721  0.67467931  -0.00051045  1
  Al  Al195  1  0.81719070  -0.00172063  0.68895344  1
  Al  Al196  1  0.32648979  0.31070518  0.00163889  1
  Al  Al197  1  0.50073233  0.17723477  0.82419975  1
  Al  Al198  1  0.67388453  0.68350723  0.00219982  1
  Al  Al199  1  0.00068889  0.67606512  0.32403627  1
  Al  Al200  1  0.81700695  -0.00241920  0.32953773  1
  Al  Al201  1  0.18440143  0.17407704  0.00003660  1
  Al  Al202  1  0.67455506  0.00139174  0.18968263  1
  Al  Al203  1  0.50322680  0.66928402  0.82318710  1
  Al  Al204  1  0.68384894  0.49945296  0.31732904  1
  Al  Al205  1  0.17843355  0.50079462  0.82526975  1
  Al  Al206  1  0.81655368  0.82552795  -0.00187537  1
  Al  Al207  1  -0.00027599  0.19280847  0.31022001  1
  Al  Al208  1  0.82702898  0.50176041  0.82863312  1
  Al  Al209  1  0.82820830  -0.00015531  0.16935610  1
  Al  Al210  1  0.32417251  0.49610885  0.32258929  1
  Al  Al211  1  0.67451402  0.50093136  0.81997604  1
  Al  Al212  1  0.18008832  0.50033822  0.18005077  1
  Al  Al213  1  0.33099450  0.17311737  0.49941710  1
  Al  Al214  1  0.50093406  0.67687353  0.18066522  1
  Al  Al215  1  0.16746705  0.00357950  0.82084560  1
  Al  Al216  1  0.32162171  0.00078759  0.32575205  1
  Al  Al217  1  0.17504048  0.17895296  0.50063743  1
  Al  Al218  1  0.33120882  0.00045839  0.17363466  1
  Al  Al219  1  0.68019893  0.18727826  0.49905403  1
  Al  Al220  1  -0.00093587  0.69418324  0.69068411  1
  Al  Al221  1  0.82910716  0.32742118  0.00205796  1
  Al  Al222  1  0.67783171  0.16597121  -0.00201554  1
  Al  Al223  1  0.17291302  0.81138645  -0.00082252  1
  Al  Al224  1  0.17457772  0.00022124  0.18311433  1
  Al  Al225  1  -0.00235492  0.30845834  0.19110050  1
  Al  Al226  1  0.82510432  0.49939638  0.67150242  1
  Al  Al227  1  0.82046913  0.32183347  0.49768878  1
  Al  Al228  1  0.50225920  0.82658153  0.80959712  1
  Al  Al229  1  0.67053610  0.32794875  0.00402402  1
  Al  Al230  1  0.49892174  0.68801515  0.67253799  1
  Al  Al231  1  0.32653507  0.68046759  0.50004730  1
  Al  Al232  1  0.17342318  0.33056057  0.00222901  1
  Al  Al233  1  0.50055920  0.17506253  0.67103251  1
  Al  Al234  1  0.31780522  0.49839300  0.68039401  1
  Al  Al235  1  0.17193133  0.67106827  0.49906018  1
  Al  Al236  1  -0.00157916  0.31371168  0.81607898  1
  Al  Al237  1  0.17594802  0.82858829  0.50157846  1
  Al  Al238  1  0.32807945  0.81520824  -0.00068682  1
  Au  Au239  1  0.34227092  -0.00121399  0.83188705  1
  Au  Au240  1  0.50070615  0.16720106  0.17692744  1
  Au  Au241  1  0.32609596  0.50284023  0.15781491  1
  Au  Au242  1  -0.00153980  0.66752283  0.33297866  1
  Au  Au243  1  0.82691853  0.16532812  0.50223582  1
  Au  Au244  1  0.17020490  0.50063730  0.66070404  1
  Au  Au245  1  0.66799808  0.83366873  0.49750275  1
  Au  Au246  1  0.66659926  0.15804588  -0.00258752  1
  Au  Au247  1  -0.00225608  0.82069287  0.82044574  1
  Au  Au248  1  0.82870330  0.67120800  0.49862458  1
  Au  Au249  1  0.16923443  0.00255810  0.33364952  1
  Au  Au250  1  -0.00161329  0.83737234  0.16324595  1
  Au  Au251  1  0.84261538  0.16486292  -0.00426462  1
  Au  Au252  1  0.50180084  0.32628148  0.83124337  1
  Au  Au253  1  0.66602761  0.83513735  -0.00062834  1
  Au  Au254  1  0.15647770  0.00361897  0.83259268  1
  Au  Au255  1  0.50111310  0.32450156  0.65741589  1
  Au  Au256  1  0.34163768  0.31835731  0.00203146  1
  Au  Au257  1  -0.00219006  0.33014347  0.82170296  1
  Au  Au258  1  0.16047259  0.82340299  0.50214700  1
  Au  Au259  1  0.00345489  0.66261487  0.16684328  1
  Au  Au260  1  0.33176895  0.49993457  0.33155642  1
  Au  Au261  1  0.50367273  0.67750732  0.83729604  1
  Au  Au262  1  0.15867251  0.49716510  0.32780904  1
  Au  Au263  1  0.33429619  0.33937370  0.49903139  1
  Au  Au264  1  0.50133506  0.67715750  0.33713261  1
  Au  Au265  1  0.83271755  0.33879028  -0.00193464  1
  Au  Au266  1  0.32995794  -0.00501740  0.15834314  1
  Au  Au267  1  0.65683806  0.50122334  0.66942039  1
  Au  Au268  1  0.82871773  0.33097517  0.50014979  1
  Au  Au269  1  0.17228124  0.00076445  0.65895250  1
  Au  Au270  1  0.66432078  0.34414332  0.00620864  1
  Au  Au271  1  0.17837823  0.82787886  -0.00066272  1
  Au  Au272  1  0.82339559  -0.00129100  0.34429277  1
  Au  Au273  1  0.50255296  0.67946312  0.16824532  1
  Au  Au274  1  0.50107490  0.33697953  0.18286812  1
  Au  Au275  1  0.15724768  0.32689974  0.49944781  1
  Au  Au276  1  0.66981136  0.00171345  0.67308325  1
  Au  Au277  1  -0.00232399  0.32457548  0.18587841  1
  Au  Au278  1  0.34511277  0.83043011  0.49820243  1
  Au  Au279  1  -0.00111651  0.17145812  0.67131726  1
  Au  Au280  1  0.82343671  0.00147859  0.15441557  1
  Au  Au281  1  -0.00466640  0.83293047  0.33575499  1
  Au  Au282  1  0.33568189  0.50174070  0.82946892  1
  Au  Au283  1  0.16967220  0.50270705  0.83419304  1
  Au  Au284  1  0.33094593  0.15694791  0.50134781  1
  Au  Au285  1  0.83593106  0.66137401  -0.00139839  1
  Au  Au286  1  0.84116193  0.49931551  0.67696133  1
  Au  Au287  1  0.15706755  0.32480390  0.00386163  1
