# generated using pymatgen
data_Ca24Ti8Al207Au49
_symmetry_space_group_name_H-M   'P 1'
_cell_length_a   17.32146331
_cell_length_b   17.31920526
_cell_length_c   17.32010014
_cell_angle_alpha   90.00028297
_cell_angle_beta   89.99965326
_cell_angle_gamma   89.99725554
_symmetry_Int_Tables_number   1
_chemical_formula_structural   Ca24Ti8Al207Au49
_chemical_formula_sum   'Ca24 Ti8 Al207 Au49'
_cell_volume   5195.92574184
_cell_formula_units_Z   1
loop_
 _symmetry_equiv_pos_site_id
 _symmetry_equiv_pos_as_xyz
  1  'x, y, z'
loop_
 _atom_site_type_symbol
 _atom_site_label
 _atom_site_symmetry_multiplicity
 _atom_site_fract_x
 _atom_site_fract_y
 _atom_site_fract_z
 _atom_site_occupancy
  Ca  Ca0  1  0.24811607  -0.00263099  0.00306013  1
  Ca  Ca1  1  0.25111672  0.00362166  0.49774046  1
  Ca  Ca2  1  0.25433396  0.50047707  -0.00436713  1
  Ca  Ca3  1  0.25089157  0.49720111  0.50591360  1
  Ca  Ca4  1  0.75145100  0.00025898  0.00342446  1
  Ca  Ca5  1  0.75288246  -0.00230336  0.49985924  1
  Ca  Ca6  1  0.75019722  0.49808840  0.00288840  1
  Ca  Ca7  1  0.75188017  0.50064698  0.49882403  1
  Ca  Ca8  1  -0.00170988  0.25053442  0.00488507  1
  Ca  Ca9  1  0.00112451  0.25130646  0.50046981  1
  Ca  Ca10  1  0.00456171  0.75269321  0.00493302  1
  Ca  Ca11  1  -0.00416753  0.75321777  0.49933831  1
  Ca  Ca12  1  0.50061802  0.25574321  -0.00085174  1
  Ca  Ca13  1  0.49676918  0.25008590  0.50588352  1
  Ca  Ca14  1  0.49680383  0.75092974  0.00191586  1
  Ca  Ca15  1  0.50393058  0.75444778  0.50107873  1
  Ca  Ca16  1  -0.00096886  -0.00015116  0.24641783  1
  Ca  Ca17  1  0.00146215  0.00476320  0.74826218  1
  Ca  Ca18  1  -0.00270731  0.50176629  0.24435113  1
  Ca  Ca19  1  0.00129826  0.49603814  0.74953932  1
  Ca  Ca20  1  0.50104398  -0.00121300  0.24637375  1
  Ca  Ca21  1  0.49806052  -0.00017058  0.74885698  1
  Ca  Ca22  1  0.50133081  0.50245166  0.24290832  1
  Ca  Ca23  1  0.49742520  0.49937480  0.75186853  1
  Ti  Ti24  1  0.24934132  0.24966061  0.24899955  1
  Ti  Ti25  1  0.24990067  0.25145761  0.74994120  1
  Ti  Ti26  1  0.25120657  0.75188672  0.24861087  1
  Ti  Ti27  1  0.25048869  0.74799268  0.75159086  1
  Ti  Ti28  1  0.75097233  0.24924286  0.25040343  1
  Ti  Ti29  1  0.75143215  0.25254395  0.74942318  1
  Ti  Ti30  1  0.74937905  0.74969780  0.24975246  1
  Ti  Ti31  1  0.74975478  0.74811672  0.75026042  1
  Al  Al32  1  0.08234887  0.08673272  0.09267902  1
  Al  Al33  1  0.07936259  0.08729358  0.57883590  1
  Al  Al34  1  0.08521635  0.58718173  0.07318161  1
  Al  Al35  1  0.08678957  0.56883705  0.59135932  1
  Al  Al36  1  0.58374654  0.07452112  0.07813209  1
  Al  Al37  1  0.57851857  0.07790240  0.57659170  1
  Al  Al38  1  0.58092640  0.58710547  0.09485710  1
  Al  Al39  1  0.57931641  0.57758789  0.58000003  1
  Al  Al40  1  0.41631375  0.41318766  0.07387492  1
  Al  Al41  1  0.41114782  0.41327608  0.59220131  1
  Al  Al42  1  0.41191832  0.90037173  0.08445536  1
  Al  Al43  1  0.41719075  0.92575791  0.59348533  1
  Al  Al44  1  0.91061303  0.40586722  0.08784264  1
  Al  Al45  1  0.92030939  0.41549039  0.59144897  1
  Al  Al46  1  0.91791854  0.92569739  0.09063306  1
  Al  Al47  1  0.91249690  0.91583310  0.57138110  1
  Al  Al48  1  0.40997890  0.08731958  0.42651217  1
  Al  Al49  1  0.41943039  0.08160237  0.91615846  1
  Al  Al50  1  0.42842824  0.57886296  0.41764360  1
  Al  Al51  1  0.41115387  0.58788971  0.92071859  1
  Al  Al52  1  0.91188374  0.08738512  0.41946714  1
  Al  Al53  1  0.91614953  0.08795005  0.92721569  1
  Al  Al54  1  0.91365487  0.59165161  0.41912033  1
  Al  Al55  1  0.92221122  0.57803450  0.92180167  1
  Al  Al56  1  0.07844056  0.41093076  0.43059525  1
  Al  Al57  1  0.08411883  0.41628577  0.91365811  1
  Al  Al58  1  0.07504221  0.91473141  0.40398673  1
  Al  Al59  1  0.08731288  0.90565244  0.92997069  1
  Al  Al60  1  0.57786812  0.41343561  0.40546555  1
  Al  Al61  1  0.57505186  0.40953064  0.91661206  1
  Al  Al62  1  0.59021562  0.91720307  0.41254710  1
  Al  Al63  1  0.58430889  0.91026391  0.92541048  1
  Al  Al64  1  0.08289738  0.08117747  0.41578640  1
  Al  Al65  1  0.07417579  0.08148662  0.93019711  1
  Al  Al66  1  0.06765285  0.58319657  0.41928334  1
  Al  Al67  1  0.09299553  0.58481738  0.91657007  1
  Al  Al68  1  0.59096235  0.07608264  0.41150036  1
  Al  Al69  1  0.57991070  0.08208486  0.91573546  1
  Al  Al70  1  0.58359727  0.58077715  0.41466467  1
  Al  Al71  1  0.57280152  0.57836495  0.92439844  1
  Al  Al72  1  0.42166049  0.40525738  0.41304716  1
  Al  Al73  1  0.41287086  0.40819673  0.91234273  1
  Al  Al74  1  0.42019899  0.92204882  0.41827472  1
  Al  Al75  1  0.40913351  0.90693091  0.92266138  1
  Al  Al76  1  0.92017601  0.41863216  0.42031383  1
  Al  Al77  1  0.91422415  0.40936919  0.92226995  1
  Al  Al78  1  0.91385300  0.90635255  0.41027346  1
  Al  Al79  1  0.92737531  0.92257026  0.92178679  1
  Al  Al80  1  0.07385667  0.40643023  0.08620266  1
  Al  Al81  1  0.08723474  0.40787278  0.59370823  1
  Al  Al82  1  0.09218366  0.91538304  0.09039998  1
  Al  Al83  1  0.07836733  0.92492210  0.57575615  1
  Al  Al84  1  0.58736752  0.42379802  0.08498913  1
  Al  Al85  1  0.57584832  0.41648152  0.58811422  1
  Al  Al86  1  0.58449168  0.90320706  0.08750384  1
  Al  Al87  1  0.58190251  0.91522266  0.57971202  1
  Al  Al88  1  0.41557327  0.07442080  0.07864291  1
  Al  Al89  1  0.40349925  0.08605637  0.58727596  1
  Al  Al90  1  0.41792981  0.60193299  0.08269165  1
  Al  Al91  1  0.41288509  0.57068486  0.59388238  1
  Al  Al92  1  0.91515881  0.09189327  0.09160852  1
  Al  Al93  1  0.91507996  0.09063469  0.57877919  1
  Al  Al94  1  0.91654115  0.57256672  0.08242512  1
  Al  Al95  1  0.90812141  0.57833489  0.58287083  1
  Al  Al96  1  0.24888642  0.13123588  0.13399558  1
  Al  Al97  1  0.25359667  0.13807640  0.62784777  1
  Al  Al98  1  0.25603128  0.63447293  0.13257968  1
  Al  Al99  1  0.25045484  0.63046633  0.63609704  1
  Al  Al100  1  0.75165913  0.13300353  0.13578275  1
  Al  Al101  1  0.75310994  0.13739466  0.63323675  1
  Al  Al102  1  0.74569328  0.63493880  0.13682256  1
  Al  Al103  1  0.75155841  0.62890443  0.63706436  1
  Al  Al104  1  0.24921330  0.36389860  0.12955082  1
  Al  Al105  1  0.25111079  0.36949628  0.63687243  1
  Al  Al106  1  0.25082371  0.86614136  0.13052210  1
  Al  Al107  1  0.25049458  0.86396029  0.63252922  1
  Al  Al108  1  0.75358041  0.36206595  0.13509270  1
  Al  Al109  1  0.75402882  0.37244629  0.63678324  1
  Al  Al110  1  0.74818069  0.86458058  0.13410533  1
  Al  Al111  1  0.75213638  0.86420882  0.63578056  1
  Al  Al112  1  0.24765629  0.13530920  0.36658879  1
  Al  Al113  1  0.25362920  0.13478229  0.86392075  1
  Al  Al114  1  0.25446862  0.63686540  0.36142040  1
  Al  Al115  1  0.25120948  0.62865700  0.86430023  1
  Al  Al116  1  0.75183912  0.13540903  0.36626917  1
  Al  Al117  1  0.75152185  0.13561087  0.86416916  1
  Al  Al118  1  0.74871003  0.63442419  0.36263011  1
  Al  Al119  1  0.74894232  0.63296379  0.86463305  1
  Al  Al120  1  0.25372342  0.36342664  0.36361746  1
  Al  Al121  1  0.24878578  0.37187577  0.86691965  1
  Al  Al122  1  0.25183810  0.86582036  0.36762748  1
  Al  Al123  1  0.25069090  0.86365515  0.87302831  1
  Al  Al124  1  0.75333921  0.36679446  0.36427006  1
  Al  Al125  1  0.75317240  0.36722156  0.86676163  1
  Al  Al126  1  0.74862423  0.86763139  0.36237457  1
  Al  Al127  1  0.74629018  0.86668379  0.86851162  1
  Al  Al128  1  0.13243273  0.24739412  0.13560265  1
  Al  Al129  1  0.13630854  0.25203716  0.63535883  1
  Al  Al130  1  0.13825201  0.75540537  0.13275150  1
  Al  Al131  1  0.13620222  0.74838760  0.63659689  1
  Al  Al132  1  0.63651646  0.25066407  0.13432399  1
  Al  Al133  1  0.63801860  0.25353956  0.63365414  1
  Al  Al134  1  0.63146578  0.75306483  0.13441117  1
  Al  Al135  1  0.63753727  0.74926641  0.63747154  1
  Al  Al136  1  0.13341189  0.24829639  0.36422950  1
  Al  Al137  1  0.13618997  0.25885287  0.86501607  1
  Al  Al138  1  0.13489862  0.75660911  0.36449833  1
  Al  Al139  1  0.13821038  0.74829269  0.86530030  1
  Al  Al140  1  0.63602728  0.25439495  0.36557086  1
  Al  Al141  1  0.63490114  0.25698511  0.86368323  1
  Al  Al142  1  0.63338343  0.74925103  0.36291643  1
  Al  Al143  1  0.63476595  0.75236138  0.86680761  1
  Al  Al144  1  0.36513762  0.25657548  0.13324065  1
  Al  Al145  1  0.36303030  0.25299819  0.63367095  1
  Al  Al146  1  0.36155078  0.75061399  0.12727956  1
  Al  Al147  1  0.36297351  0.75176714  0.63862907  1
  Al  Al148  1  0.86936024  0.25074663  0.13748480  1
  Al  Al149  1  0.86603514  0.25173644  0.63469066  1
  Al  Al150  1  0.86374021  0.75238293  0.13656258  1
  Al  Al151  1  0.86571552  0.74912749  0.63565953  1
  Al  Al152  1  0.36359311  0.24880890  0.36819934  1
  Al  Al153  1  0.36394390  0.25901393  0.86453827  1
  Al  Al154  1  0.36563480  0.75290812  0.36618685  1
  Al  Al155  1  0.36078276  0.74906191  0.86891966  1
  Al  Al156  1  0.86587991  0.24675895  0.36572753  1
  Al  Al157  1  0.86639024  0.25534234  0.86507478  1
  Al  Al158  1  0.86388847  0.75730910  0.36472776  1
  Al  Al159  1  0.86431815  0.74755987  0.86531182  1
  Al  Al160  1  0.13412019  0.13051977  0.24594386  1
  Al  Al161  1  0.13793335  0.13601663  0.74779792  1
  Al  Al162  1  0.13737933  0.63918751  0.24636570  1
  Al  Al163  1  0.13246001  0.63250003  0.75054148  1
  Al  Al164  1  0.63553064  0.13277361  0.25368091  1
  Al  Al165  1  0.63729351  0.13758680  0.75138171  1
  Al  Al166  1  0.62905356  0.63656814  0.24472840  1
  Al  Al167  1  0.63626597  0.62974543  0.75009750  1
  Al  Al168  1  0.36291150  0.13493226  0.24567966  1
  Al  Al169  1  0.36223048  0.13208931  0.74894678  1
  Al  Al170  1  0.37208442  0.63830493  0.24501805  1
  Al  Al171  1  0.36297923  0.63078012  0.75160884  1
  Al  Al172  1  0.86657148  0.13099677  0.24338187  1
  Al  Al173  1  0.86564851  0.13918753  0.75081800  1
  Al  Al174  1  0.86372908  0.63757545  0.25094009  1
  Al  Al175  1  0.86993497  0.63420228  0.74746695  1
  Al  Al176  1  0.13013458  0.36162612  0.24352260  1
  Al  Al177  1  0.13384127  0.36991595  0.74774524  1
  Al  Al178  1  0.13958975  0.87082510  0.24766131  1
  Al  Al179  1  0.13915692  0.86542396  0.75158375  1
  Al  Al180  1  0.63293167  0.36331875  0.24706848  1
  Al  Al181  1  0.63859060  0.37120976  0.74936181  1
  Al  Al182  1  0.63426779  0.86470363  0.24813121  1
  Al  Al183  1  0.63611136  0.86382390  0.75236021  1
  Al  Al184  1  0.36887151  0.36377381  0.25117394  1
  Al  Al185  1  0.36105004  0.37138633  0.75154751  1
  Al  Al186  1  0.36964920  0.86598367  0.24309279  1
  Al  Al187  1  0.35999235  0.86774331  0.75412176  1
  Al  Al188  1  0.87074870  0.36113614  0.24950840  1
  Al  Al189  1  0.87159871  0.36562026  0.74766674  1
  Al  Al190  1  0.86330455  0.86877285  0.24820263  1
  Al  Al191  1  0.86201340  0.86325381  0.75421504  1
  Al  Al192  1  0.49955184  0.17186162  0.67003401  1
  Al  Al193  1  0.67707799  0.32079086  0.00071947  1
  Al  Al194  1  0.17250746  0.50092074  0.16946736  1
  Al  Al195  1  0.18782838  0.00138293  0.67185533  1
  Al  Al196  1  -0.00072567  0.82449420  0.66997189  1
  Al  Al197  1  0.33186263  0.67647908  0.50286066  1
  Al  Al198  1  0.50017183  0.18123666  0.17052254  1
  Al  Al199  1  0.67357044  0.00071853  0.67773105  1
  Al  Al200  1  0.50230226  0.82496298  0.32102490  1
  Al  Al201  1  0.00062238  0.18343071  0.67430246  1
  Al  Al202  1  0.00190867  0.82149833  0.82685016  1
  Al  Al203  1  0.49856742  0.19374675  0.82663614  1
  Al  Al204  1  0.82019086  0.83211763  -0.00100063  1
  Al  Al205  1  0.49934341  0.18159994  0.33060511  1
  Al  Al206  1  0.67774974  0.17351069  0.49988107  1
  Al  Al207  1  0.82009689  0.19116204  0.00151626  1
  Al  Al208  1  0.00070558  0.82598808  0.18675149  1
  Al  Al209  1  0.17566199  -0.00033632  0.83374557  1
  Al  Al210  1  0.82530488  0.67335209  0.00190730  1
  Al  Al211  1  -0.00068578  0.69065685  0.32121131  1
  Al  Al212  1  0.81423258  0.49861018  0.18002535  1
  Al  Al213  1  0.17006305  0.67462720  0.50009136  1
  Al  Al214  1  0.49866472  0.67865850  0.82544361  1
  Al  Al215  1  0.49983582  0.67109952  0.67233744  1
  Al  Al216  1  0.81824431  0.00078976  0.31794184  1
  Al  Al217  1  -0.00037607  0.67289349  0.16904538  1
  Al  Al218  1  0.68318384  -0.00078727  0.18337131  1
  Al  Al219  1  0.82541697  0.00174906  0.82865367  1
  Al  Al220  1  0.18418103  0.31851343  0.50072788  1
  Al  Al221  1  0.33108399  0.18603217  -0.00075486  1
  Al  Al222  1  0.66841274  0.68436962  0.00116349  1
  Al  Al223  1  0.68768116  0.82450872  0.49924288  1
  Al  Al224  1  0.33440093  0.49975125  0.31993672  1
  Al  Al225  1  0.82485559  0.50018695  0.81616379  1
  Al  Al226  1  0.67952704  0.49948944  0.30865384  1
  Al  Al227  1  0.32149228  0.00500697  0.32165967  1
  Al  Al228  1  0.17235545  0.49907590  0.32843069  1
  Al  Al229  1  0.17278628  0.18046722  -0.00013237  1
  Al  Al230  1  0.82179355  0.68795707  0.50017953  1
  Al  Al231  1  0.49893007  0.32418862  0.69206822  1
  Al  Al232  1  -0.00045778  0.17898397  0.31247588  1
  Al  Al233  1  0.19099415  0.68775996  -0.00036231  1
  Al  Al234  1  0.82835143  0.00094100  0.67074902  1
  Al  Al235  1  0.82127196  0.31816224  0.50155706  1
  Al  Al236  1  0.67135997  0.67256717  0.50061842  1
  Al  Al237  1  0.00269052  0.17891541  0.82860441  1
  Al  Al238  1  0.49907184  0.82501072  0.68446190  1
  Au  Au239  1  0.66689145  0.66786801  0.00194362  1
  Au  Au240  1  -0.00376365  0.84094246  0.67408191  1
  Au  Au241  1  0.33591637  0.50063908  0.82677839  1
  Au  Au242  1  0.33282513  0.32664486  0.50097453  1
  Au  Au243  1  0.16121061  0.49681700  0.16594778  1
  Au  Au244  1  -0.00142672  0.65511030  0.67046113  1
  Au  Au245  1  0.65608859  0.49944747  0.83032864  1
  Au  Au246  1  0.67534695  0.16394179  -0.00237388  1
  Au  Au247  1  0.83574455  0.32693079  0.50228013  1
  Au  Au248  1  0.17269704  0.17119010  0.49821223  1
  Au  Au249  1  0.50065314  0.16480532  0.16513604  1
  Au  Au250  1  0.15560136  0.66784106  0.50301548  1
  Au  Au251  1  0.17572789  0.00396770  0.66024160  1
  Au  Au252  1  0.67551211  0.50005398  0.66143231  1
  Au  Au253  1  0.84167386  0.50207744  0.32594036  1
  Au  Au254  1  0.32470957  0.16985992  -0.00130795  1
  Au  Au255  1  0.50041207  0.17358619  0.34542555  1
  Au  Au256  1  0.83684787  0.83135041  0.00309851  1
  Au  Au257  1  0.33569584  0.50336754  0.15567700  1
  Au  Au258  1  0.50184003  0.66913692  0.32075459  1
  Au  Au259  1  0.33810151  -0.00309092  0.82796332  1
  Au  Au260  1  0.50017874  0.34184372  0.17297111  1
  Au  Au261  1  0.83309952  0.50000242  0.83095296  1
  Au  Au262  1  0.49917743  0.17739165  0.82181917  1
  Au  Au263  1  0.83794813  0.00322252  0.82585908  1
  Au  Au264  1  0.16890636  0.33089640  0.00132670  1
  Au  Au265  1  0.16287190  -0.00051853  0.84370344  1
  Au  Au266  1  0.67863363  0.16061804  0.49801850  1
  Au  Au267  1  0.33440552  0.84154292  0.50672425  1
  Au  Au268  1  0.65606961  0.33147834  0.49901198  1
  Au  Au269  1  0.00092521  0.67394759  0.84274503  1
  Au  Au270  1  0.00254540  0.33811920  0.32256806  1
  Au  Au271  1  0.67137097  -0.00383826  0.17124868  1
  Au  Au272  1  0.82674378  0.00046298  0.33245309  1
  Au  Au273  1  0.33229772  0.49861840  0.33220484  1
  Au  Au274  1  0.66185192  -0.00449884  0.82917389  1
  Au  Au275  1  -0.00045511  0.32708716  0.82783341  1
  Au  Au276  1  0.34297759  0.66458083  0.50296168  1
  Au  Au277  1  0.32617076  -0.00529353  0.16469699  1
  Au  Au278  1  0.16115292  0.49813102  0.34180028  1
  Au  Au279  1  0.16438335  0.83890452  0.49388223  1
  Au  Au280  1  0.66658972  0.49919660  0.31921876  1
  Au  Au281  1  0.16738758  0.50039445  0.82041927  1
  Au  Au282  1  0.33022296  0.00295763  0.33028573  1
  Au  Au283  1  -0.00211559  0.16876456  0.32602101  1
  Au  Au284  1  0.49718744  0.83579138  0.32470459  1
  Au  Au285  1  0.49833320  0.82645988  0.83631698  1
  Au  Au286  1  0.68048194  0.33284041  0.00222956  1
  Au  Au287  1  0.16480559  -0.00050072  0.32133930  1
