# generated using pymatgen
data_Ca24Ti8Al207Au49
_symmetry_space_group_name_H-M   'P 1'
_cell_length_a   17.32316866
_cell_length_b   17.32436284
_cell_length_c   17.32518778
_cell_angle_alpha   89.99727945
_cell_angle_beta   90.00350083
_cell_angle_gamma   90.00003891
_symmetry_Int_Tables_number   1
_chemical_formula_structural   Ca24Ti8Al207Au49
_chemical_formula_sum   'Ca24 Ti8 Al207 Au49'
_cell_volume   5199.51162954
_cell_formula_units_Z   1
loop_
 _symmetry_equiv_pos_site_id
 _symmetry_equiv_pos_as_xyz
  1  'x, y, z'
loop_
 _atom_site_type_symbol
 _atom_site_label
 _atom_site_symmetry_multiplicity
 _atom_site_fract_x
 _atom_site_fract_y
 _atom_site_fract_z
 _atom_site_occupancy
  Ca  Ca0  1  0.24920227  0.00178024  -0.00089757  1
  Ca  Ca1  1  0.24778850  0.00122171  0.49969761  1
  Ca  Ca2  1  0.24632667  0.49798288  -0.00397059  1
  Ca  Ca3  1  0.24419076  0.49658777  0.50220027  1
  Ca  Ca4  1  0.74963883  -0.00405832  -0.00280503  1
  Ca  Ca5  1  0.74790268  0.00661368  0.50004727  1
  Ca  Ca6  1  0.75663559  0.50264123  0.00353358  1
  Ca  Ca7  1  0.75571120  0.49715724  0.49856181  1
  Ca  Ca8  1  0.00496938  0.25067729  0.00201826  1
  Ca  Ca9  1  0.00257978  0.25110433  0.49868891  1
  Ca  Ca10  1  0.00369170  0.75018976  -0.00222851  1
  Ca  Ca11  1  0.00164409  0.75002301  0.50006791  1
  Ca  Ca12  1  0.49307042  0.24805708  -0.00284203  1
  Ca  Ca13  1  0.49795841  0.25004964  0.50331756  1
  Ca  Ca14  1  0.49411821  0.75382051  -0.00206023  1
  Ca  Ca15  1  0.49879392  0.75738466  0.50560076  1
  Ca  Ca16  1  0.00336691  0.00077423  0.25249557  1
  Ca  Ca17  1  0.00451813  -0.00253311  0.75067250  1
  Ca  Ca18  1  0.00307051  0.50019130  0.25231112  1
  Ca  Ca19  1  0.00626612  0.50307584  0.74898548  1
  Ca  Ca20  1  0.49296805  -0.00059468  0.24971793  1
  Ca  Ca21  1  0.49924470  -0.00425060  0.74982819  1
  Ca  Ca22  1  0.50034808  0.49711212  0.25359623  1
  Ca  Ca23  1  0.49274158  0.50310415  0.75155876  1
  Ti  Ti24  1  0.24830805  0.25005087  0.24938151  1
  Ti  Ti25  1  0.24857333  0.25078183  0.75156409  1
  Ti  Ti26  1  0.24831773  0.75225640  0.24661190  1
  Ti  Ti27  1  0.24987003  0.75131036  0.75228434  1
  Ti  Ti28  1  0.75284085  0.25039478  0.24910494  1
  Ti  Ti29  1  0.75132256  0.25027736  0.75035564  1
  Ti  Ti30  1  0.75214357  0.75049082  0.24901344  1
  Ti  Ti31  1  0.75080482  0.75001717  0.75071066  1
  Al  Al32  1  0.08815485  0.08911856  0.08236908  1
  Al  Al33  1  0.08081648  0.08369470  0.57582975  1
  Al  Al34  1  0.08326517  0.57628042  0.07309987  1
  Al  Al35  1  0.09005060  0.58133675  0.59704370  1
  Al  Al36  1  0.57645302  0.07247438  0.07472801  1
  Al  Al37  1  0.59079554  0.08316968  0.58268296  1
  Al  Al38  1  0.58244831  0.57584071  0.07725628  1
  Al  Al39  1  0.57737222  0.58442156  0.58133358  1
  Al  Al40  1  0.40668041  0.41013693  0.07534164  1
  Al  Al41  1  0.40125559  0.41082513  0.58669370  1
  Al  Al42  1  0.40074956  0.91964424  0.08133933  1
  Al  Al43  1  0.41994885  0.91105762  0.58786215  1
  Al  Al44  1  0.92462549  0.41705876  0.08534920  1
  Al  Al45  1  0.92619345  0.42307748  0.57275165  1
  Al  Al46  1  0.92151295  0.91405719  0.08335537  1
  Al  Al47  1  0.92153132  0.91713148  0.58552939  1
  Al  Al48  1  0.40779406  0.07806612  0.41344395  1
  Al  Al49  1  0.41186494  0.08433850  0.92425700  1
  Al  Al50  1  0.42445039  0.57323064  0.42245191  1
  Al  Al51  1  0.40746766  0.58945155  0.91473416  1
  Al  Al52  1  0.91632957  0.09942270  0.41550907  1
  Al  Al53  1  0.92138949  0.07654357  0.91870429  1
  Al  Al54  1  0.91969793  0.57863147  0.41418784  1
  Al  Al55  1  0.92856593  0.59865161  0.91025084  1
  Al  Al56  1  0.08597815  0.40180933  0.41992111  1
  Al  Al57  1  0.09721075  0.41949917  0.91425303  1
  Al  Al58  1  0.08255916  0.91324510  0.40930415  1
  Al  Al59  1  0.08288080  0.90738256  0.91235450  1
  Al  Al60  1  0.58458169  0.41762251  0.41986522  1
  Al  Al61  1  0.57564735  0.41799939  0.92012651  1
  Al  Al62  1  0.57783377  0.92518061  0.42932846  1
  Al  Al63  1  0.58930900  0.91290386  0.91127773  1
  Al  Al64  1  0.07955087  0.09361953  0.41260569  1
  Al  Al65  1  0.09028531  0.08740927  0.92165896  1
  Al  Al66  1  0.07589406  0.57909366  0.42612140  1
  Al  Al67  1  0.08961295  0.58482622  0.90144524  1
  Al  Al68  1  0.58983639  0.08940397  0.42635254  1
  Al  Al69  1  0.58550052  0.07280515  0.90923816  1
  Al  Al70  1  0.58319228  0.58180974  0.41880399  1
  Al  Al71  1  0.57330882  0.58230041  0.91857968  1
  Al  Al72  1  0.40309434  0.41081155  0.42727603  1
  Al  Al73  1  0.40316717  0.41304878  0.91669152  1
  Al  Al74  1  0.40852283  0.92226228  0.41822943  1
  Al  Al75  1  0.41458597  0.91129537  0.92021516  1
  Al  Al76  1  0.92380174  0.40972573  0.40679262  1
  Al  Al77  1  0.92596351  0.42444948  0.92259610  1
  Al  Al78  1  0.92402501  0.91529256  0.41219420  1
  Al  Al79  1  0.92154319  0.91026244  0.90932635  1
  Al  Al80  1  0.09082847  0.40943980  0.07802845  1
  Al  Al81  1  0.09595498  0.41739826  0.58273508  1
  Al  Al82  1  0.08331586  0.91513284  0.08310639  1
  Al  Al83  1  0.08216320  0.91547820  0.58524985  1
  Al  Al84  1  0.58064444  0.42025084  0.07924193  1
  Al  Al85  1  0.57655897  0.41593195  0.57898096  1
  Al  Al86  1  0.59158257  0.91435352  0.07110308  1
  Al  Al87  1  0.58149166  0.91275195  0.59123244  1
  Al  Al88  1  0.39991830  0.08185382  0.08404594  1
  Al  Al89  1  0.42000976  0.07400018  0.57550155  1
  Al  Al90  1  0.40581920  0.58536003  0.07247403  1
  Al  Al91  1  0.41646122  0.57302237  0.59211821  1
  Al  Al92  1  0.92306907  0.08073382  0.08473973  1
  Al  Al93  1  0.91193490  0.09112346  0.57649986  1
  Al  Al94  1  0.92173058  0.58094013  0.07300842  1
  Al  Al95  1  0.92923882  0.59048948  0.59122346  1
  Al  Al96  1  0.25244213  0.13523332  0.13453771  1
  Al  Al97  1  0.24682065  0.13619643  0.63526432  1
  Al  Al98  1  0.25080513  0.63775207  0.12621721  1
  Al  Al99  1  0.24438134  0.63321892  0.63888373  1
  Al  Al100  1  0.75631542  0.13719728  0.13045772  1
  Al  Al101  1  0.75090236  0.13778241  0.63127914  1
  Al  Al102  1  0.74913441  0.63168052  0.13539623  1
  Al  Al103  1  0.75376633  0.63434080  0.63510513  1
  Al  Al104  1  0.24543708  0.35894458  0.12767845  1
  Al  Al105  1  0.24558409  0.36591314  0.63188190  1
  Al  Al106  1  0.25229338  0.86693053  0.12699207  1
  Al  Al107  1  0.24290443  0.86377572  0.63840426  1
  Al  Al108  1  0.75362386  0.36946577  0.13832270  1
  Al  Al109  1  0.75500961  0.36584294  0.63255693  1
  Al  Al110  1  0.75460312  0.86320650  0.12775641  1
  Al  Al111  1  0.75313463  0.86289348  0.63850477  1
  Al  Al112  1  0.24811985  0.13558933  0.36372239  1
  Al  Al113  1  0.25030973  0.13634003  0.86918276  1
  Al  Al114  1  0.24465951  0.63628005  0.36303959  1
  Al  Al115  1  0.24864079  0.63367311  0.86719691  1
  Al  Al116  1  0.75539908  0.13928776  0.36773604  1
  Al  Al117  1  0.74876439  0.13311781  0.86860568  1
  Al  Al118  1  0.75042766  0.63473764  0.36563440  1
  Al  Al119  1  0.75090558  0.63625203  0.86270368  1
  Al  Al120  1  0.24679129  0.36333034  0.36990231  1
  Al  Al121  1  0.24781646  0.37008017  0.86672791  1
  Al  Al122  1  0.24835037  0.87212395  0.36277806  1
  Al  Al123  1  0.24831094  0.86157721  0.87300668  1
  Al  Al124  1  0.75274933  0.36261726  0.36778738  1
  Al  Al125  1  0.75262045  0.36815160  0.86413630  1
  Al  Al126  1  0.75378127  0.86519496  0.36511906  1
  Al  Al127  1  0.74937271  0.86439757  0.86877488  1
  Al  Al128  1  0.12924745  0.24890552  0.13691347  1
  Al  Al129  1  0.13598572  0.25389910  0.63603730  1
  Al  Al130  1  0.13803825  0.75250685  0.12686662  1
  Al  Al131  1  0.13095494  0.74670216  0.63972133  1
  Al  Al132  1  0.63592394  0.25091004  0.13380443  1
  Al  Al133  1  0.63536448  0.24618816  0.63602850  1
  Al  Al134  1  0.63734612  0.75577897  0.13450507  1
  Al  Al135  1  0.63423857  0.75319906  0.63747250  1
  Al  Al136  1  0.13171459  0.25287524  0.36398209  1
  Al  Al137  1  0.13708456  0.25590439  0.86807147  1
  Al  Al138  1  0.13622894  0.75650901  0.36354059  1
  Al  Al139  1  0.13352997  0.74708470  0.86861734  1
  Al  Al140  1  0.63569444  0.24810946  0.36525177  1
  Al  Al141  1  0.63475699  0.24966745  0.86789338  1
  Al  Al142  1  0.63674942  0.74862213  0.36325789  1
  Al  Al143  1  0.63431157  0.75660925  0.86663455  1
  Al  Al144  1  0.36304773  0.24981031  0.12980505  1
  Al  Al145  1  0.36040737  0.25566476  0.63566065  1
  Al  Al146  1  0.36349355  0.75409367  0.13124995  1
  Al  Al147  1  0.36142436  0.75304556  0.63839075  1
  Al  Al148  1  0.87189125  0.24947657  0.13237500  1
  Al  Al149  1  0.86480768  0.24919939  0.62982586  1
  Al  Al150  1  0.86701461  0.75214476  0.13481511  1
  Al  Al151  1  0.86934820  0.74696743  0.63424641  1
  Al  Al152  1  0.36457780  0.25270721  0.36297216  1
  Al  Al153  1  0.36159212  0.25117210  0.87070602  1
  Al  Al154  1  0.35970659  0.75245655  0.36179827  1
  Al  Al155  1  0.36166958  0.75151357  0.87033057  1
  Al  Al156  1  0.86810232  0.25091821  0.36812114  1
  Al  Al157  1  0.86610134  0.25081356  0.87119059  1
  Al  Al158  1  0.86680747  0.75182999  0.36625613  1
  Al  Al159  1  0.86933797  0.75006934  0.86401213  1
  Al  Al160  1  0.13031991  0.13597448  0.25257697  1
  Al  Al161  1  0.13765884  0.13293566  0.75361913  1
  Al  Al162  1  0.13741852  0.63839499  0.24603335  1
  Al  Al163  1  0.13338142  0.63547430  0.75263142  1
  Al  Al164  1  0.63863190  0.13675497  0.24902354  1
  Al  Al165  1  0.63432589  0.13570917  0.75336473  1
  Al  Al166  1  0.63752739  0.63174518  0.24824385  1
  Al  Al167  1  0.63422526  0.63748409  0.74980921  1
  Al  Al168  1  0.36158989  0.13423484  0.25027985  1
  Al  Al169  1  0.36138582  0.13648698  0.75091217  1
  Al  Al170  1  0.35733314  0.63371137  0.24856555  1
  Al  Al171  1  0.36157314  0.63611275  0.75323502  1
  Al  Al172  1  0.87388769  0.14025043  0.25327367  1
  Al  Al173  1  0.86548940  0.14147695  0.75429625  1
  Al  Al174  1  0.86610644  0.63673874  0.24905632  1
  Al  Al175  1  0.86965970  0.63503832  0.75172557  1
  Al  Al176  1  0.13242829  0.36286224  0.25042349  1
  Al  Al177  1  0.13837374  0.37237997  0.75038443  1
  Al  Al178  1  0.13766628  0.86954730  0.24949219  1
  Al  Al179  1  0.13455359  0.86689633  0.75724605  1
  Al  Al180  1  0.63595122  0.36674493  0.25224166  1
  Al  Al181  1  0.63629008  0.36298909  0.74896916  1
  Al  Al182  1  0.63767929  0.86479708  0.25009772  1
  Al  Al183  1  0.63145350  0.86378020  0.75298312  1
  Al  Al184  1  0.35891063  0.36540728  0.24676261  1
  Al  Al185  1  0.36062608  0.36535474  0.75478670  1
  Al  Al186  1  0.36097600  0.87013642  0.24937833  1
  Al  Al187  1  0.36835911  0.86325885  0.75321110  1
  Al  Al188  1  0.87476986  0.36007686  0.25055832  1
  Al  Al189  1  0.86555632  0.36900871  0.74973023  1
  Al  Al190  1  0.86488061  0.86870380  0.25115177  1
  Al  Al191  1  0.86748128  0.86360005  0.75586904  1
  Al  Al192  1  0.49916200  0.17390051  0.82474282  1
  Al  Al193  1  0.32131354  -0.00180535  0.82881447  1
  Al  Al194  1  0.50001249  0.16862599  0.17117316  1
  Al  Al195  1  0.18752966  0.18982468  0.00277802  1
  Al  Al196  1  0.82627344  0.67438000  0.50278495  1
  Al  Al197  1  0.67519917  0.50128259  0.67191929  1
  Al  Al198  1  0.49847551  0.83235138  0.32573400  1
  Al  Al199  1  0.32948699  0.18594945  0.50078767  1
  Al  Al200  1  0.18741654  0.00127458  0.17930184  1
  Al  Al201  1  0.83026270  0.00532598  0.32203740  1
  Al  Al202  1  0.17278602  0.18876025  0.49913212  1
  Al  Al203  1  0.30819800  0.49911040  0.68391721  1
  Al  Al204  1  0.00285888  0.67120346  0.16848206  1
  Al  Al205  1  0.17226284  0.67808160  0.50122364  1
  Al  Al206  1  0.67407209  -0.00087503  0.68594978  1
  Al  Al207  1  0.66521338  0.68713749  -0.00056505  1
  Al  Al208  1  0.50275015  0.17239955  0.32832270  1
  Al  Al209  1  0.00240417  0.82283002  0.18821118  1
  Al  Al210  1  0.31629138  0.82639057  0.50109672  1
  Al  Al211  1  0.32461772  0.49965238  0.32203450  1
  Al  Al212  1  0.00170572  0.32911237  0.67028552  1
  Al  Al213  1  0.00254436  0.32450653  0.82786828  1
  Al  Al214  1  0.67178095  0.00127449  0.32835620  1
  Al  Al215  1  0.49748549  0.67025746  0.16925727  1
  Al  Al216  1  0.82236138  -0.00039658  0.81993465  1
  Al  Al217  1  0.67935668  0.50151606  0.82863750  1
  Al  Al218  1  0.67716988  0.32057729  0.00031834  1
  Al  Al219  1  0.32571256  0.66683689  0.50192099  1
  Al  Al220  1  0.82444241  0.68072995  -0.00037914  1
  Al  Al221  1  0.68021124  0.31187906  0.50258604  1
  Al  Al222  1  0.82235171  0.00662640  0.67538739  1
  Al  Al223  1  0.49807299  0.68180472  0.82662068  1
  Al  Al224  1  0.49903432  0.83787005  0.17151944  1
  Al  Al225  1  0.67843576  -0.00037816  0.17309497  1
  Al  Al226  1  0.49719610  0.68213983  0.67505566  1
  Al  Al227  1  0.00250817  0.68526533  0.32310497  1
  Al  Al228  1  0.68077207  0.82457712  0.50119801  1
  Al  Al229  1  0.49687499  0.32934287  0.17565091  1
  Al  Al230  1  0.82401120  0.49745301  0.31844536  1
  Al  Al231  1  0.16712371  0.49914054  0.32946365  1
  Al  Al232  1  0.49720412  0.17076220  0.66879420  1
  Al  Al233  1  0.00127885  0.17423613  0.67590940  1
  Al  Al234  1  0.00058353  0.81288762  0.69131685  1
  Al  Al235  1  0.49782582  0.32531797  0.67876684  1
  Al  Al236  1  0.32348896  -0.00144651  0.67447338  1
  Al  Al237  1  0.17611205  0.49940110  0.17424947  1
  Al  Al238  1  0.49789768  0.67425582  0.32707056  1
  Au  Au239  1  0.82588700  0.00068076  0.66492962  1
  Au  Au240  1  0.32330260  0.17024662  0.50147594  1
  Au  Au241  1  0.49433953  0.33566888  0.33917282  1
  Au  Au242  1  0.32186316  0.50120565  0.33442180  1
  Au  Au243  1  0.83136707  0.33820016  0.00110662  1
  Au  Au244  1  0.17518566  0.66206034  -0.00359854  1
  Au  Au245  1  0.17399416  0.00465332  0.66113356  1
  Au  Au246  1  0.82824726  0.00415359  0.33457814  1
  Au  Au247  1  0.67164751  0.49833550  0.16880658  1
  Au  Au248  1  0.84077561  0.50425570  0.17135594  1
  Au  Au249  1  0.83485256  0.66553576  0.50032239  1
  Au  Au250  1  0.49491166  0.15793675  0.16733345  1
  Au  Au251  1  0.00374595  0.33681525  0.82513887  1
  Au  Au252  1  0.82664885  -0.00117487  0.16148958  1
  Au  Au253  1  0.65981759  0.67775436  0.50135924  1
  Au  Au254  1  0.17878276  0.00133354  0.16501483  1
  Au  Au255  1  0.84102709  0.49959133  0.66698915  1
  Au  Au256  1  0.34074037  0.67312876  0.50417075  1
  Au  Au257  1  0.49581681  0.33788885  0.82681464  1
  Au  Au258  1  0.66476406  0.31866854  0.50261788  1
  Au  Au259  1  0.49862228  0.16140479  0.33269731  1
  Au  Au260  1  0.83472118  0.82906207  -0.00226833  1
  Au  Au261  1  0.82002642  -0.00186988  0.83224143  1
  Au  Au262  1  0.49557456  0.65481485  0.17438472  1
  Au  Au263  1  0.67182760  0.33173633  0.00029934  1
  Au  Au264  1  0.17466852  0.00531139  0.33963882  1
  Au  Au265  1  0.49838725  0.83069068  0.82800443  1
  Au  Au266  1  0.84172539  0.32321374  0.49818426  1
  Au  Au267  1  0.17342249  0.82960160  -0.00026801  1
  Au  Au268  1  0.66934900  0.15725267  -0.00100564  1
  Au  Au269  1  0.66433475  0.49644002  0.66810061  1
  Au  Au270  1  0.83971094  0.16913158  0.00024625  1
  Au  Au271  1  0.67142657  0.67095421  -0.00115313  1
  Au  Au272  1  0.49841555  0.82911286  0.33824369  1
  Au  Au273  1  0.50157711  0.33251935  0.16429606  1
  Au  Au274  1  0.00130430  0.16534573  0.17796515  1
  Au  Au275  1  0.17218921  -0.00197744  0.83614087  1
  Au  Au276  1  0.83032700  0.83844015  0.49861182  1
  Au  Au277  1  0.49408605  0.16309490  0.82855287  1
  Au  Au278  1  0.00265808  0.16030095  0.82581510  1
  Au  Au279  1  0.32195965  0.49795372  0.15718040  1
  Au  Au280  1  0.67567131  0.50069465  0.33727681  1
  Au  Au281  1  0.31912967  0.50246012  0.83113027  1
  Au  Au282  1  0.66767100  0.50142899  0.83330785  1
  Au  Au283  1  0.00065813  0.82493796  0.67894450  1
  Au  Au284  1  0.00499701  0.33312208  0.17535647  1
  Au  Au285  1  0.16533892  0.82905296  0.49848603  1
  Au  Au286  1  0.49848874  0.83505773  0.15920161  1
  Au  Au287  1  0.84127825  0.50723797  0.83586088  1
