# generated using pymatgen
data_Ca24Ti8Al207Au49
_symmetry_space_group_name_H-M   'P 1'
_cell_length_a   17.32389949
_cell_length_b   17.32346637
_cell_length_c   17.32477415
_cell_angle_alpha   90.00351418
_cell_angle_beta   89.99590439
_cell_angle_gamma   90.00404566
_symmetry_Int_Tables_number   1
_chemical_formula_structural   Ca24Ti8Al207Au49
_chemical_formula_sum   'Ca24 Ti8 Al207 Au49'
_cell_volume   5199.33776709
_cell_formula_units_Z   1
loop_
 _symmetry_equiv_pos_site_id
 _symmetry_equiv_pos_as_xyz
  1  'x, y, z'
loop_
 _atom_site_type_symbol
 _atom_site_label
 _atom_site_symmetry_multiplicity
 _atom_site_fract_x
 _atom_site_fract_y
 _atom_site_fract_z
 _atom_site_occupancy
  Ca  Ca0  1  0.24576678  0.00069304  0.00399463  1
  Ca  Ca1  1  0.24726079  0.00254290  0.49818402  1
  Ca  Ca2  1  0.24673470  0.49913118  0.00066305  1
  Ca  Ca3  1  0.24615290  0.49881516  0.49945779  1
  Ca  Ca4  1  0.75710963  -0.00162607  -0.00022964  1
  Ca  Ca5  1  0.75249924  0.00307043  0.50206189  1
  Ca  Ca6  1  0.75606663  0.50478294  0.00019163  1
  Ca  Ca7  1  0.74879558  0.49875302  0.49536429  1
  Ca  Ca8  1  0.00092359  0.25196888  0.00191255  1
  Ca  Ca9  1  0.00369024  0.25177140  0.49787102  1
  Ca  Ca10  1  -0.00041241  0.75005527  -0.00293746  1
  Ca  Ca11  1  0.00271062  0.74856596  0.50183219  1
  Ca  Ca12  1  0.49695372  0.25183977  -0.00285009  1
  Ca  Ca13  1  0.49605111  0.25086257  0.50258034  1
  Ca  Ca14  1  0.50212621  0.74808834  0.00068975  1
  Ca  Ca15  1  0.49891066  0.74942695  0.49794535  1
  Ca  Ca16  1  0.00376586  0.00071248  0.24965442  1
  Ca  Ca17  1  -0.00086082  0.00268787  0.74942068  1
  Ca  Ca18  1  0.00501131  0.50018379  0.25003739  1
  Ca  Ca19  1  0.00312631  0.49770507  0.75598134  1
  Ca  Ca20  1  0.49711366  -0.00441189  0.24851074  1
  Ca  Ca21  1  0.50291623  -0.00188433  0.75019110  1
  Ca  Ca22  1  0.49485036  0.50519330  0.25169176  1
  Ca  Ca23  1  0.49283769  0.50216753  0.75201568  1
  Ti  Ti24  1  0.24826652  0.25184755  0.25043712  1
  Ti  Ti25  1  0.24847078  0.25235398  0.75099965  1
  Ti  Ti26  1  0.24809700  0.74818722  0.24881102  1
  Ti  Ti27  1  0.24983120  0.74819393  0.75234810  1
  Ti  Ti28  1  0.75318149  0.25108617  0.25075943  1
  Ti  Ti29  1  0.75206832  0.25034726  0.75113020  1
  Ti  Ti30  1  0.75260061  0.74939104  0.24859413  1
  Ti  Ti31  1  0.75024086  0.74995853  0.75203989  1
  Al  Al32  1  0.08540498  0.08894201  0.09118196  1
  Al  Al33  1  0.08213073  0.09547255  0.57269869  1
  Al  Al34  1  0.08127907  0.57625814  0.09074873  1
  Al  Al35  1  0.08516172  0.58100722  0.58554410  1
  Al  Al36  1  0.58129099  0.07749772  0.07091058  1
  Al  Al37  1  0.58457081  0.08485438  0.57739684  1
  Al  Al38  1  0.58783512  0.59285911  0.08111405  1
  Al  Al39  1  0.57533327  0.58299212  0.57992954  1
  Al  Al40  1  0.40576228  0.42410707  0.08685234  1
  Al  Al41  1  0.40230204  0.41690254  0.58582575  1
  Al  Al42  1  0.40769802  0.91061189  0.08187177  1
  Al  Al43  1  0.42566955  0.91195872  0.58558539  1
  Al  Al44  1  0.91763269  0.40669331  0.07807933  1
  Al  Al45  1  0.92082366  0.41401399  0.58204330  1
  Al  Al46  1  0.92176083  0.91433237  0.07608328  1
  Al  Al47  1  0.91728354  0.92027253  0.58437294  1
  Al  Al48  1  0.40662538  0.08885713  0.42304959  1
  Al  Al49  1  0.41921628  0.08166448  0.91994596  1
  Al  Al50  1  0.41115899  0.57880001  0.41940298  1
  Al  Al51  1  0.41072085  0.57891248  0.91518977  1
  Al  Al52  1  0.91498270  0.09083345  0.42172438  1
  Al  Al53  1  0.91340178  0.09336581  0.92252498  1
  Al  Al54  1  0.92524887  0.58569683  0.40998591  1
  Al  Al55  1  0.91852237  0.59732767  0.91632429  1
  Al  Al56  1  0.09311195  0.41746157  0.41672984  1
  Al  Al57  1  0.08760003  0.40947885  0.91519920  1
  Al  Al58  1  0.08427065  0.91492380  0.41490400  1
  Al  Al59  1  0.07762251  0.90754427  0.91555265  1
  Al  Al60  1  0.58966191  0.42220551  0.41231819  1
  Al  Al61  1  0.57684095  0.42046719  0.92165770  1
  Al  Al62  1  0.58044526  0.91920588  0.41650363  1
  Al  Al63  1  0.58946038  0.90852875  0.91863140  1
  Al  Al64  1  0.08917497  0.09091493  0.41562313  1
  Al  Al65  1  0.07589732  0.08592590  0.92738664  1
  Al  Al66  1  0.08680997  0.58087349  0.40628308  1
  Al  Al67  1  0.08051380  0.58314579  0.91104649  1
  Al  Al68  1  0.58930254  0.08072523  0.42213259  1
  Al  Al69  1  0.58199425  0.08426894  0.91826159  1
  Al  Al70  1  0.58647973  0.57782599  0.40958489  1
  Al  Al71  1  0.59059623  0.59063936  0.92344302  1
  Al  Al72  1  0.40713667  0.41774327  0.41773106  1
  Al  Al73  1  0.40849219  0.42082114  0.91263507  1
  Al  Al74  1  0.42213101  0.92055684  0.41907062  1
  Al  Al75  1  0.41476752  0.90763704  0.92352935  1
  Al  Al76  1  0.91793396  0.41695374  0.41669002  1
  Al  Al77  1  0.92373178  0.40426997  0.91717236  1
  Al  Al78  1  0.92151896  0.91724272  0.42010593  1
  Al  Al79  1  0.91816086  0.90501711  0.91337483  1
  Al  Al80  1  0.09039035  0.41206741  0.08396414  1
  Al  Al81  1  0.08958391  0.41179197  0.58100279  1
  Al  Al82  1  0.08797908  0.92360707  0.08779994  1
  Al  Al83  1  0.07574225  0.91043565  0.57512790  1
  Al  Al84  1  0.58259102  0.42323850  0.07763581  1
  Al  Al85  1  0.57666016  0.41953713  0.57675163  1
  Al  Al86  1  0.58455278  0.90574509  0.07631778  1
  Al  Al87  1  0.58097737  0.91143535  0.58858777  1
  Al  Al88  1  0.41060385  0.07275981  0.07776317  1
  Al  Al89  1  0.41576220  0.08655023  0.57611550  1
  Al  Al90  1  0.41385938  0.58234361  0.08788300  1
  Al  Al91  1  0.40864398  0.58035029  0.58821674  1
  Al  Al92  1  0.92157813  0.09981991  0.08445753  1
  Al  Al93  1  0.91242579  0.08630412  0.58274061  1
  Al  Al94  1  0.91941819  0.59284449  0.07788173  1
  Al  Al95  1  0.92603913  0.57930217  0.58166131  1
  Al  Al96  1  0.24509646  0.13520152  0.13586412  1
  Al  Al97  1  0.25040001  0.13653114  0.63452894  1
  Al  Al98  1  0.25116004  0.63307066  0.13104116  1
  Al  Al99  1  0.24923479  0.62843772  0.63950333  1
  Al  Al100  1  0.75758794  0.13709619  0.13364687  1
  Al  Al101  1  0.75231268  0.13560281  0.63536119  1
  Al  Al102  1  0.75029065  0.63677642  0.12964013  1
  Al  Al103  1  0.75103575  0.63418002  0.63699901  1
  Al  Al104  1  0.24550164  0.36397374  0.12906191  1
  Al  Al105  1  0.24923435  0.37131411  0.63555678  1
  Al  Al106  1  0.24591943  0.86296786  0.13133346  1
  Al  Al107  1  0.24926567  0.86336544  0.63803506  1
  Al  Al108  1  0.75516178  0.36541737  0.13498673  1
  Al  Al109  1  0.75369707  0.36385398  0.63373402  1
  Al  Al110  1  0.75336379  0.86394186  0.12720675  1
  Al  Al111  1  0.74706942  0.86313641  0.63835630  1
  Al  Al112  1  0.24674030  0.13328336  0.36304521  1
  Al  Al113  1  0.24960276  0.13439326  0.86517915  1
  Al  Al114  1  0.24541685  0.62673607  0.36234089  1
  Al  Al115  1  0.25357866  0.63285279  0.86809216  1
  Al  Al116  1  0.75789865  0.13623233  0.36425568  1
  Al  Al117  1  0.75481990  0.13334226  0.86706294  1
  Al  Al118  1  0.75004729  0.63078924  0.36404154  1
  Al  Al119  1  0.75073100  0.63550891  0.87071337  1
  Al  Al120  1  0.24581269  0.37281082  0.36837339  1
  Al  Al121  1  0.24891911  0.36638634  0.87051636  1
  Al  Al122  1  0.24718039  0.86367674  0.36277877  1
  Al  Al123  1  0.24934888  0.86403855  0.86966201  1
  Al  Al124  1  0.75333939  0.36950546  0.36463757  1
  Al  Al125  1  0.75969999  0.36795014  0.86578666  1
  Al  Al126  1  0.75311728  0.86257786  0.36185224  1
  Al  Al127  1  0.74875928  0.86196243  0.87315527  1
  Al  Al128  1  0.13366282  0.25016447  0.13606189  1
  Al  Al129  1  0.13620624  0.25584595  0.63285571  1
  Al  Al130  1  0.13397800  0.74995776  0.13288750  1
  Al  Al131  1  0.13596538  0.74600828  0.63761824  1
  Al  Al132  1  0.63416408  0.25457739  0.13712826  1
  Al  Al133  1  0.63561314  0.25098958  0.63672573  1
  Al  Al134  1  0.63722515  0.75042596  0.13128701  1
  Al  Al135  1  0.63174990  0.75141123  0.63191317  1
  Al  Al136  1  0.13002275  0.25154846  0.36304345  1
  Al  Al137  1  0.13395978  0.25851348  0.86848809  1
  Al  Al138  1  0.12764703  0.74618268  0.36052587  1
  Al  Al139  1  0.13266574  0.74816575  0.86682870  1
  Al  Al140  1  0.63513652  0.25351112  0.36358396  1
  Al  Al141  1  0.63823527  0.25104179  0.86423543  1
  Al  Al142  1  0.63794367  0.74952567  0.36937260  1
  Al  Al143  1  0.63613051  0.74998392  0.86938086  1
  Al  Al144  1  0.36030053  0.25498708  0.12957682  1
  Al  Al145  1  0.36287109  0.25033826  0.63453907  1
  Al  Al146  1  0.36076783  0.75077677  0.12864364  1
  Al  Al147  1  0.36472666  0.74993149  0.63661177  1
  Al  Al148  1  0.86723888  0.24957649  0.13189296  1
  Al  Al149  1  0.86605017  0.24735768  0.63459169  1
  Al  Al150  1  0.86483284  0.75004851  0.12762418  1
  Al  Al151  1  0.86496648  0.74935687  0.63864827  1
  Al  Al152  1  0.36293627  0.25250562  0.36533798  1
  Al  Al153  1  0.36154970  0.25372323  0.87059108  1
  Al  Al154  1  0.36074689  0.74698036  0.36231168  1
  Al  Al155  1  0.36568186  0.75015880  0.86968226  1
  Al  Al156  1  0.87176174  0.24750398  0.36633013  1
  Al  Al157  1  0.86550526  0.25238761  0.87036530  1
  Al  Al158  1  0.87018226  0.74821222  0.36374016  1
  Al  Al159  1  0.86457637  0.74760560  0.87215671  1
  Al  Al160  1  0.13009536  0.13535403  0.24940584  1
  Al  Al161  1  0.13557163  0.13996849  0.75310115  1
  Al  Al162  1  0.13400636  0.63254767  0.25045370  1
  Al  Al163  1  0.13529050  0.63335511  0.75432343  1
  Al  Al164  1  0.64131840  0.13717429  0.25324999  1
  Al  Al165  1  0.63918950  0.13290032  0.75202530  1
  Al  Al166  1  0.63639611  0.63737124  0.25081251  1
  Al  Al167  1  0.63567316  0.63724225  0.75171845  1
  Al  Al168  1  0.36170518  0.13704838  0.25014470  1
  Al  Al169  1  0.36235019  0.13682288  0.75224240  1
  Al  Al170  1  0.36030461  0.62932212  0.24833233  1
  Al  Al171  1  0.36365251  0.63248111  0.75066474  1
  Al  Al172  1  0.87430110  0.13683853  0.24731444  1
  Al  Al173  1  0.86654768  0.13746596  0.75327720  1
  Al  Al174  1  0.86517301  0.63496223  0.25015969  1
  Al  Al175  1  0.86618149  0.63399356  0.75893550  1
  Al  Al176  1  0.13631271  0.36702176  0.25225477  1
  Al  Al177  1  0.12953343  0.36539946  0.74995024  1
  Al  Al178  1  0.13171398  0.86736565  0.24866250  1
  Al  Al179  1  0.13420117  0.86352641  0.75709661  1
  Al  Al180  1  0.63533183  0.36812379  0.25257514  1
  Al  Al181  1  0.63908437  0.36695827  0.75127449  1
  Al  Al182  1  0.63878945  0.86008333  0.24700506  1
  Al  Al183  1  0.63402551  0.86512244  0.75105542  1
  Al  Al184  1  0.35656918  0.37224494  0.24877947  1
  Al  Al185  1  0.35918835  0.36852021  0.75200761  1
  Al  Al186  1  0.36165798  0.86311012  0.24575680  1
  Al  Al187  1  0.36543507  0.86329642  0.75047352  1
  Al  Al188  1  0.86786732  0.36382427  0.25326816  1
  Al  Al189  1  0.87404335  0.36411492  0.75000108  1
  Al  Al190  1  0.87160583  0.86247505  0.24724560  1
  Al  Al191  1  0.86453569  0.86194060  0.75782720  1
  Al  Al192  1  0.49982037  0.17501341  0.82611913  1
  Al  Al193  1  0.69174925  0.18249235  0.49906676  1
  Al  Al194  1  0.18948707  0.49921320  0.18724166  1
  Al  Al195  1  0.83445535  0.50085986  0.17521003  1
  Al  Al196  1  -0.00078972  0.82636593  0.68433559  1
  Al  Al197  1  0.00097090  0.31690339  0.17819559  1
  Al  Al198  1  0.49969772  0.68138300  0.67629732  1
  Al  Al199  1  0.49849482  0.68078618  0.17660884  1
  Al  Al200  1  0.82438108  0.50212130  0.67665680  1
  Al  Al201  1  0.31500925  0.67443062  0.50057148  1
  Al  Al202  1  0.49544216  0.33321470  0.17752264  1
  Al  Al203  1  0.17282278  0.00222222  0.83282408  1
  Al  Al204  1  0.18329043  0.49856790  0.82082231  1
  Al  Al205  1  0.49738693  0.67110741  0.32968076  1
  Al  Al206  1  0.49990370  0.82302862  0.31741692  1
  Al  Al207  1  0.17050509  -0.00011932  0.66942897  1
  Al  Al208  1  0.49853835  0.32766210  0.82894470  1
  Al  Al209  1  0.68811757  0.32965866  -0.00115048  1
  Al  Al210  1  0.00112242  0.18624735  0.82907533  1
  Al  Al211  1  0.67532999  -0.00105937  0.17180450  1
  Al  Al212  1  0.68529640  0.17417214  0.00085700  1
  Al  Al213  1  0.32957236  0.82780280  0.49950291  1
  Al  Al214  1  0.50072191  0.17030395  0.67360990  1
  Al  Al215  1  0.67361096  0.50368407  0.17970133  1
  Al  Al216  1  0.82094931  0.31477810  0.50172452  1
  Al  Al217  1  0.50212072  0.17667499  0.33349450  1
  Al  Al218  1  0.17300192  0.67390766  0.00215836  1
  Al  Al219  1  0.49707481  0.81993872  0.82200361  1
  Al  Al220  1  0.83546098  0.00221565  0.17845228  1
  Al  Al221  1  0.00031724  0.67340839  0.68679568  1
  Al  Al222  1  0.67567858  0.49939910  0.82518252  1
  Al  Al223  1  -0.00029833  0.68060958  0.18441464  1
  Al  Al224  1  0.31895884  -0.00030848  0.32584090  1
  Al  Al225  1  0.30729786  0.31305520  0.50291997  1
  Al  Al226  1  0.81960611  0.82742031  0.50189179  1
  Al  Al227  1  0.31134729  -0.00151424  0.17180934  1
  Al  Al228  1  0.33059634  -0.00121228  0.67505635  1
  Al  Al229  1  0.82055131  -0.00099990  0.68165543  1
  Al  Al230  1  0.19272904  0.19543380  0.49819344  1
  Al  Al231  1  0.68072189  0.00192368  0.82641620  1
  Al  Al232  1  0.17714409  0.81651589  0.49920558  1
  Al  Al233  1  0.49793949  0.32659546  0.67991315  1
  Al  Al234  1  0.68069802  -0.00075043  0.32523404  1
  Al  Al235  1  0.17661746  0.18563601  0.00027239  1
  Al  Al236  1  0.50004742  0.16811620  0.17446551  1
  Al  Al237  1  0.00126858  0.17977070  0.67479890  1
  Al  Al238  1  0.82761076  0.67138939  0.49979931  1
  Au  Au239  1  0.32223580  0.33830098  0.00011317  1
  Au  Au240  1  0.67197407  -0.00050019  0.83519537  1
  Au  Au241  1  0.66856457  0.50057092  0.66158639  1
  Au  Au242  1  0.00539936  0.33836504  0.32637801  1
  Au  Au243  1  0.33279662  -0.00415685  0.83885880  1
  Au  Au244  1  0.84487209  0.00069968  0.82985448  1
  Au  Au245  1  0.66418870  0.32736937  0.49765771  1
  Au  Au246  1  0.82933845  0.00034363  0.34195844  1
  Au  Au247  1  0.16066215  0.00491162  0.83428568  1
  Au  Au248  1  0.16568738  0.66813579  0.49611969  1
  Au  Au249  1  0.16006011  0.00035448  0.65569611  1
  Au  Au250  1  0.66949486  0.83634986  0.49842099  1
  Au  Au251  1  0.33737066  0.67351859  0.00043932  1
  Au  Au252  1  0.17453262  0.83777451  0.00094375  1
  Au  Au253  1  0.67190580  0.32370679  -0.00120919  1
  Au  Au254  1  -0.00092849  0.82158200  0.33566325  1
  Au  Au255  1  0.49978020  0.66390234  0.83211266  1
  Au  Au256  1  0.49872304  0.33484564  0.16544247  1
  Au  Au257  1  0.82631639  0.82385698  -0.00107222  1
  Au  Au258  1  0.66309407  0.49897396  0.17478802  1
  Au  Au259  1  0.32360028  0.16650504  0.00010644  1
  Au  Au260  1  0.49499392  0.16642672  0.15759677  1
  Au  Au261  1  0.82896118  0.50187859  0.33395330  1
  Au  Au262  1  0.84005613  0.67485304  0.49955636  1
  Au  Au263  1  0.66720623  0.66378838  0.49720880  1
  Au  Au264  1  0.17600592  0.49866422  0.67167386  1
  Au  Au265  1  0.49992746  0.82894880  0.83034495  1
  Au  Au266  1  0.00345415  0.32881810  0.67220344  1
  Au  Au267  1  0.49415660  0.67734893  0.66602164  1
  Au  Au268  1  0.32081613  0.50127410  0.32193616  1
  Au  Au269  1  0.65979473  -0.00237368  0.16844156  1
  Au  Au270  1  0.84002408  0.49890481  0.84118959  1
  Au  Au271  1  0.83238878  0.50129517  0.16282433  1
  Au  Au272  1  0.33110398  0.00136540  0.32825605  1
  Au  Au273  1  0.16436972  0.66524364  0.00003577  1
  Au  Au274  1  -0.00023400  0.16758407  0.32702060  1
  Au  Au275  1  0.67171780  0.00115785  0.66204255  1
  Au  Au276  1  0.31550670  0.32096832  0.49728099  1
  Au  Au277  1  0.50454811  0.16509165  0.33698667  1
  Au  Au278  1  0.84111227  0.00184193  0.16722907  1
  Au  Au279  1  0.33435973  0.00332388  0.66406763  1
  Au  Au280  1  0.66692629  0.50111531  0.83404418  1
  Au  Au281  1  0.83029799  0.32317795  0.49880365  1
  Au  Au282  1  0.83357970  0.50040690  0.66825178  1
  Au  Au283  1  0.00306724  0.82696455  0.16527395  1
  Au  Au284  1  0.49710945  0.82860941  0.16672275  1
  Au  Au285  1  0.16510106  -0.00006900  0.32466197  1
  Au  Au286  1  0.49783964  0.34092202  0.33123336  1
  Au  Au287  1  0.49727485  0.33661421  0.67011232  1
