# generated using pymatgen
data_Ca24Ti8Al207Au49
_symmetry_space_group_name_H-M   'P 1'
_cell_length_a   17.32206289
_cell_length_b   17.32191658
_cell_length_c   17.32298613
_cell_angle_alpha   89.99891084
_cell_angle_beta   89.99990991
_cell_angle_gamma   89.99734577
_symmetry_Int_Tables_number   1
_chemical_formula_structural   Ca24Ti8Al207Au49
_chemical_formula_sum   'Ca24 Ti8 Al207 Au49'
_cell_volume   5197.78499485
_cell_formula_units_Z   1
loop_
 _symmetry_equiv_pos_site_id
 _symmetry_equiv_pos_as_xyz
  1  'x, y, z'
loop_
 _atom_site_type_symbol
 _atom_site_label
 _atom_site_symmetry_multiplicity
 _atom_site_fract_x
 _atom_site_fract_y
 _atom_site_fract_z
 _atom_site_occupancy
  Ca  Ca0  1  0.25264042  -0.00525260  0.00184844  1
  Ca  Ca1  1  0.25254862  0.00031312  0.50310156  1
  Ca  Ca2  1  0.24701758  0.50445039  0.00109155  1
  Ca  Ca3  1  0.25110271  0.50082858  0.50044488  1
  Ca  Ca4  1  0.74911235  -0.00150624  0.00199251  1
  Ca  Ca5  1  0.75130148  0.00179841  0.49524104  1
  Ca  Ca6  1  0.75209055  0.50017829  -0.00140625  1
  Ca  Ca7  1  0.75219019  0.50054427  0.50241373  1
  Ca  Ca8  1  -0.00417856  0.24563244  -0.00338394  1
  Ca  Ca9  1  -0.00337080  0.24614774  0.49872704  1
  Ca  Ca10  1  -0.00334363  0.74906389  -0.00089941  1
  Ca  Ca11  1  0.00098971  0.75298331  0.50096539  1
  Ca  Ca12  1  0.50392465  0.24641401  -0.00305927  1
  Ca  Ca13  1  0.50187497  0.24834805  0.49868806  1
  Ca  Ca14  1  0.50546962  0.75700996  0.00041165  1
  Ca  Ca15  1  0.49685408  0.75739186  0.49648205  1
  Ca  Ca16  1  -0.00325779  -0.00234518  0.24736381  1
  Ca  Ca17  1  -0.00120272  -0.00183818  0.74840112  1
  Ca  Ca18  1  0.00102735  0.50179160  0.25174741  1
  Ca  Ca19  1  -0.00302837  0.50263486  0.75443307  1
  Ca  Ca20  1  0.50742773  -0.00044730  0.25125527  1
  Ca  Ca21  1  0.50076089  -0.00089017  0.75364151  1
  Ca  Ca22  1  0.49802090  0.50010421  0.25202896  1
  Ca  Ca23  1  0.50435493  0.50171846  0.75283101  1
  Ti  Ti24  1  0.25004737  0.24934437  0.25085237  1
  Ti  Ti25  1  0.25151379  0.25039190  0.74951252  1
  Ti  Ti26  1  0.24796017  0.75048759  0.24892702  1
  Ti  Ti27  1  0.24868622  0.75013281  0.75118836  1
  Ti  Ti28  1  0.74963138  0.24905267  0.25050061  1
  Ti  Ti29  1  0.74856837  0.25099787  0.75091143  1
  Ti  Ti30  1  0.75212273  0.75130403  0.24903332  1
  Ti  Ti31  1  0.75088315  0.75042971  0.75145441  1
  Al  Al32  1  0.07326651  0.08963315  0.08736584  1
  Al  Al33  1  0.08023126  0.07861739  0.57897932  1
  Al  Al34  1  0.08647033  0.59481915  0.07908390  1
  Al  Al35  1  0.07916863  0.59317642  0.58856012  1
  Al  Al36  1  0.59119616  0.07870814  0.08896182  1
  Al  Al37  1  0.57378880  0.07686858  0.57563796  1
  Al  Al38  1  0.59035552  0.59121812  0.06951734  1
  Al  Al39  1  0.58388832  0.57500209  0.58105330  1
  Al  Al40  1  0.42175246  0.41987125  0.07829781  1
  Al  Al41  1  0.42476605  0.40929690  0.58821542  1
  Al  Al42  1  0.42576489  0.91562971  0.07604607  1
  Al  Al43  1  0.41619532  0.91238117  0.58122317  1
  Al  Al44  1  0.91596035  0.41941528  0.07491191  1
  Al  Al45  1  0.90646110  0.42042066  0.57972671  1
  Al  Al46  1  0.91447850  0.91086447  0.08915597  1
  Al  Al47  1  0.92175649  0.91057072  0.58623827  1
  Al  Al48  1  0.41596413  0.08712290  0.42148676  1
  Al  Al49  1  0.42609235  0.08368417  0.91117220  1
  Al  Al50  1  0.41728297  0.58636968  0.42201933  1
  Al  Al51  1  0.40578409  0.58631336  0.91595294  1
  Al  Al52  1  0.90467205  0.08132063  0.41121024  1
  Al  Al53  1  0.90932698  0.08722072  0.92630547  1
  Al  Al54  1  0.91411606  0.57533070  0.40861076  1
  Al  Al55  1  0.90261744  0.58610816  0.91204605  1
  Al  Al56  1  0.08156683  0.42158240  0.42396163  1
  Al  Al57  1  0.07655237  0.42288758  0.91993736  1
  Al  Al58  1  0.07734843  0.91588967  0.42123355  1
  Al  Al59  1  0.07936765  0.91234859  0.92287514  1
  Al  Al60  1  0.58822207  0.41909707  0.41823789  1
  Al  Al61  1  0.59013005  0.42478462  0.90959600  1
  Al  Al62  1  0.60164784  0.91435669  0.41143510  1
  Al  Al63  1  0.58572716  0.90767949  0.92092063  1
  Al  Al64  1  0.08017475  0.08209402  0.41847939  1
  Al  Al65  1  0.07585841  0.07774948  0.92823413  1
  Al  Al66  1  0.07758519  0.58413513  0.42379782  1
  Al  Al67  1  0.08347555  0.59167889  0.91971349  1
  Al  Al68  1  0.59129821  0.07433300  0.40838940  1
  Al  Al69  1  0.58280619  0.08512744  0.92018769  1
  Al  Al70  1  0.58378880  0.57658203  0.41505709  1
  Al  Al71  1  0.60436000  0.58582414  0.91223183  1
  Al  Al72  1  0.42317474  0.41939911  0.42350709  1
  Al  Al73  1  0.42126450  0.42415289  0.91387019  1
  Al  Al74  1  0.41591047  0.91435111  0.42183730  1
  Al  Al75  1  0.42436486  0.90891919  0.91105561  1
  Al  Al76  1  0.89990921  0.41586322  0.41819336  1
  Al  Al77  1  0.90526816  0.42198407  0.91273924  1
  Al  Al78  1  0.90888325  0.92093293  0.40863144  1
  Al  Al79  1  0.91632660  0.91290331  0.92282109  1
  Al  Al80  1  0.07807006  0.42075976  0.07905864  1
  Al  Al81  1  0.07945517  0.42222517  0.57715804  1
  Al  Al82  1  0.07749487  0.90881280  0.08721286  1
  Al  Al83  1  0.08038609  0.90724458  0.58800126  1
  Al  Al84  1  0.57767288  0.42107103  0.07434887  1
  Al  Al85  1  0.58486372  0.41073593  0.59066086  1
  Al  Al86  1  0.59478899  0.91430694  0.08477502  1
  Al  Al87  1  0.58226651  0.90967707  0.57327666  1
  Al  Al88  1  0.42877866  0.07760922  0.08066693  1
  Al  Al89  1  0.41144675  0.08892190  0.57931760  1
  Al  Al90  1  0.40997101  0.58989078  0.07090572  1
  Al  Al91  1  0.41508689  0.58251275  0.57853954  1
  Al  Al92  1  0.91099284  0.09049146  0.08824633  1
  Al  Al93  1  0.91811326  0.07819827  0.57386806  1
  Al  Al94  1  0.91154343  0.59390320  0.07542194  1
  Al  Al95  1  0.92168608  0.58196277  0.59727707  1
  Al  Al96  1  0.24984780  0.13271505  0.13827854  1
  Al  Al97  1  0.25229397  0.13691842  0.63138094  1
  Al  Al98  1  0.24711843  0.63556608  0.13327082  1
  Al  Al99  1  0.25199962  0.63539599  0.63619735  1
  Al  Al100  1  0.74950276  0.13112325  0.13689690  1
  Al  Al101  1  0.74686147  0.13726196  0.63712204  1
  Al  Al102  1  0.75316794  0.63718166  0.13130742  1
  Al  Al103  1  0.74819635  0.63593325  0.63495689  1
  Al  Al104  1  0.24858163  0.36482725  0.13084310  1
  Al  Al105  1  0.25044663  0.36836098  0.63561555  1
  Al  Al106  1  0.24631275  0.86400939  0.12919575  1
  Al  Al107  1  0.25229913  0.86345042  0.63692403  1
  Al  Al108  1  0.75467861  0.36355708  0.13526126  1
  Al  Al109  1  0.74927986  0.36883793  0.63457568  1
  Al  Al110  1  0.74973833  0.86589807  0.12880696  1
  Al  Al111  1  0.75071386  0.86072560  0.62986203  1
  Al  Al112  1  0.25082180  0.13799897  0.37194062  1
  Al  Al113  1  0.25086429  0.13842719  0.86350990  1
  Al  Al114  1  0.24847837  0.63280714  0.36179651  1
  Al  Al115  1  0.24630335  0.63758397  0.86714098  1
  Al  Al116  1  0.75089982  0.13011113  0.36269679  1
  Al  Al117  1  0.75132838  0.13442509  0.86627601  1
  Al  Al118  1  0.75491908  0.63905483  0.36553662  1
  Al  Al119  1  0.75299689  0.63441772  0.86795469  1
  Al  Al120  1  0.25166401  0.36706240  0.36331644  1
  Al  Al121  1  0.25315062  0.36177097  0.86816194  1
  Al  Al122  1  0.24904716  0.86192409  0.36266028  1
  Al  Al123  1  0.24865306  0.86032740  0.87303771  1
  Al  Al124  1  0.75314540  0.36426302  0.36721686  1
  Al  Al125  1  0.74917965  0.36863068  0.86503252  1
  Al  Al126  1  0.75182014  0.86616503  0.36618697  1
  Al  Al127  1  0.75034322  0.86123784  0.87379040  1
  Al  Al128  1  0.13427683  0.24980754  0.13766576  1
  Al  Al129  1  0.13729680  0.24934367  0.63482319  1
  Al  Al130  1  0.13187500  0.74878047  0.13237643  1
  Al  Al131  1  0.13300790  0.74894824  0.63432896  1
  Al  Al132  1  0.63661541  0.24920512  0.13707952  1
  Al  Al133  1  0.63196730  0.25508838  0.63818357  1
  Al  Al134  1  0.63924394  0.75204096  0.13323181  1
  Al  Al135  1  0.63665121  0.75228777  0.63611908  1
  Al  Al136  1  0.13319514  0.24476965  0.36304818  1
  Al  Al137  1  0.13559809  0.25223435  0.86432199  1
  Al  Al138  1  0.12787664  0.75062642  0.36267812  1
  Al  Al139  1  0.13249834  0.74988646  0.87210565  1
  Al  Al140  1  0.63197025  0.24894425  0.36272732  1
  Al  Al141  1  0.63410005  0.24920992  0.86459959  1
  Al  Al142  1  0.63377382  0.75729247  0.36311108  1
  Al  Al143  1  0.63889586  0.74831436  0.87064140  1
  Al  Al144  1  0.36521989  0.25488438  0.13454524  1
  Al  Al145  1  0.36708171  0.24883472  0.63634698  1
  Al  Al146  1  0.36096765  0.74899900  0.12843822  1
  Al  Al147  1  0.36339415  0.75163984  0.62881921  1
  Al  Al148  1  0.86498791  0.24213167  0.13542484  1
  Al  Al149  1  0.86046529  0.25425106  0.63582749  1
  Al  Al150  1  0.86537443  0.75256954  0.13157924  1
  Al  Al151  1  0.86881861  0.74942295  0.63515156  1
  Al  Al152  1  0.37098198  0.24740834  0.36277685  1
  Al  Al153  1  0.37054085  0.24940453  0.86379928  1
  Al  Al154  1  0.36637562  0.75059336  0.36792566  1
  Al  Al155  1  0.36440440  0.74909838  0.87078044  1
  Al  Al156  1  0.86378494  0.24730982  0.36481714  1
  Al  Al157  1  0.86221719  0.24819394  0.86471656  1
  Al  Al158  1  0.87008237  0.75590982  0.36686328  1
  Al  Al159  1  0.86392260  0.74849286  0.87507598  1
  Al  Al160  1  0.12945675  0.13305637  0.24790926  1
  Al  Al161  1  0.13713885  0.13832014  0.74867023  1
  Al  Al162  1  0.13057589  0.63455210  0.24745873  1
  Al  Al163  1  0.12962863  0.63706420  0.75008577  1
  Al  Al164  1  0.63837106  0.12891018  0.25184398  1
  Al  Al165  1  0.63147603  0.13676671  0.75495899  1
  Al  Al166  1  0.63812246  0.63996011  0.25325736  1
  Al  Al167  1  0.64061515  0.62816460  0.75579121  1
  Al  Al168  1  0.36404888  0.13290141  0.25191312  1
  Al  Al169  1  0.36715117  0.13506640  0.75102438  1
  Al  Al170  1  0.36419981  0.63772170  0.25193133  1
  Al  Al171  1  0.36338110  0.63795159  0.75301599  1
  Al  Al172  1  0.86763560  0.13372002  0.25104787  1
  Al  Al173  1  0.86242256  0.13622333  0.74975419  1
  Al  Al174  1  0.87149522  0.64182407  0.24898006  1
  Al  Al175  1  0.86614731  0.63834774  0.75321267  1
  Al  Al176  1  0.13749605  0.37050197  0.24995701  1
  Al  Al177  1  0.13993303  0.36965260  0.75362229  1
  Al  Al178  1  0.12899201  0.86367072  0.24702364  1
  Al  Al179  1  0.13159495  0.85862893  0.74540253  1
  Al  Al180  1  0.63288575  0.36315332  0.25176481  1
  Al  Al181  1  0.63683569  0.37091205  0.75125907  1
  Al  Al182  1  0.64238075  0.87084581  0.24904385  1
  Al  Al183  1  0.63592844  0.86097216  0.75654837  1
  Al  Al184  1  0.36882335  0.36513800  0.25173840  1
  Al  Al185  1  0.36858448  0.36344345  0.74741425  1
  Al  Al186  1  0.36391319  0.86300228  0.25077349  1
  Al  Al187  1  0.36416321  0.86085645  0.75351886  1
  Al  Al188  1  0.86468088  0.36487838  0.25218367  1
  Al  Al189  1  0.86169207  0.36824490  0.75451205  1
  Al  Al190  1  0.86567852  0.86467573  0.24968933  1
  Al  Al191  1  0.86253400  0.86105381  0.74988254  1
  Al  Al192  1  0.17409365  -0.00055978  0.67322928  1
  Al  Al193  1  0.17558913  0.31852538  0.49866201  1
  Al  Al194  1  0.50241470  0.68102525  0.83269276  1
  Al  Al195  1  0.33241653  0.17545406  0.00064715  1
  Al  Al196  1  0.82369548  0.18396942  0.50136554  1
  Al  Al197  1  0.50303197  0.31940973  0.81743099  1
  Al  Al198  1  0.31831083  0.49962910  0.82010531  1
  Al  Al199  1  0.50037055  0.82888619  0.68345766  1
  Al  Al200  1  0.50127328  0.67414773  0.17132064  1
  Al  Al201  1  0.81539683  -0.00115947  0.18571696  1
  Al  Al202  1  -0.00258811  0.31551758  0.17196087  1
  Al  Al203  1  0.83277425  0.67637852  0.50187721  1
  Al  Al204  1  0.50097106  0.67281228  0.67486873  1
  Al  Al205  1  0.82998803  0.50262226  0.18633202  1
  Al  Al206  1  0.32164559  0.50126857  0.17623687  1
  Al  Al207  1  0.67301810  0.32847651  -0.00075759  1
  Al  Al208  1  0.32926583  -0.00045837  0.67285531  1
  Al  Al209  1  0.67063191  -0.00142348  0.67584465  1
  Al  Al210  1  0.50354483  0.82961523  0.18153810  1
  Al  Al211  1  0.68555571  0.17505262  0.00158291  1
  Al  Al212  1  -0.00175657  0.32687972  0.82708161  1
  Al  Al213  1  0.32396581  0.00039264  0.32422935  1
  Al  Al214  1  0.67191776  0.16937168  0.49947515  1
  Al  Al215  1  0.32886799  -0.00237339  0.82634131  1
  Al  Al216  1  0.67262561  0.50140982  0.17025394  1
  Al  Al217  1  -0.00012895  0.17014904  0.82890206  1
  Al  Al218  1  0.17837523  0.67598347  0.49883664  1
  Al  Al219  1  0.33106942  0.31113674  0.49871107  1
  Al  Al220  1  0.16933517  -0.00165678  0.82493398  1
  Al  Al221  1  0.82762270  -0.00167569  0.82900311  1
  Al  Al222  1  0.67304062  -0.00227596  0.82969747  1
  Al  Al223  1  0.68433222  0.32193506  0.50057734  1
  Al  Al224  1  0.17629676  0.49996701  0.67563058  1
  Al  Al225  1  0.68953252  0.50095781  0.32493820  1
  Al  Al226  1  0.17390019  0.17882401  0.00159703  1
  Al  Al227  1  0.81851395  0.50281787  0.68806045  1
  Al  Al228  1  0.00003768  0.32877756  0.67543036  1
  Al  Al229  1  -0.00178758  0.17104145  0.67404281  1
  Al  Al230  1  0.50085541  0.17983124  0.68308226  1
  Al  Al231  1  -0.00009156  0.32257404  0.32899101  1
  Al  Al232  1  0.82836331  -0.00051194  0.67403964  1
  Al  Al233  1  -0.00212392  0.82172734  0.81657639  1
  Al  Al234  1  0.67272321  0.68547155  0.49754165  1
  Al  Al235  1  0.18294266  0.82788668  0.49988888  1
  Al  Al236  1  0.50148614  0.17599104  0.18066580  1
  Al  Al237  1  0.82380364  0.31335371  -0.00003915  1
  Al  Al238  1  0.17218072  0.00216052  0.17426323  1
  Au  Au239  1  -0.00192361  0.83753627  0.32416894  1
  Au  Au240  1  0.67221882  0.32636152  0.50036872  1
  Au  Au241  1  0.33774151  0.82455894  -0.00113455  1
  Au  Au242  1  0.84151265  0.66309762  0.50307262  1
  Au  Au243  1  0.84140827  0.50366800  0.17386768  1
  Au  Au244  1  0.16674227  0.50185380  0.33771781  1
  Au  Au245  1  0.34269189  0.49768597  0.67452059  1
  Au  Au246  1  0.65649301  0.50205563  0.17501903  1
  Au  Au247  1  0.32609663  0.67795223  0.49838468  1
  Au  Au248  1  0.50306713  0.16393197  0.33080759  1
  Au  Au249  1  0.50329385  0.83856271  0.33183984  1
  Au  Au250  1  0.82889687  -0.00015783  0.17574879  1
  Au  Au251  1  0.50089840  0.66548208  0.33153874  1
  Au  Au252  1  0.50182018  0.32277005  0.15831513  1
  Au  Au253  1  -0.00181539  0.82699155  0.82819333  1
  Au  Au254  1  0.33432777  0.50208993  0.16536618  1
  Au  Au255  1  0.16992427  -0.00311754  0.33913061  1
  Au  Au256  1  0.82525912  0.84126301  0.49985269  1
  Au  Au257  1  0.32964968  0.32782685  0.50226349  1
  Au  Au258  1  0.17154520  0.50291721  0.84043757  1
  Au  Au259  1  0.33218028  0.49980826  0.33874132  1
  Au  Au260  1  0.49976103  0.68036187  0.65913865  1
  Au  Au261  1  0.49827200  0.67662288  0.15523185  1
  Au  Au262  1  0.16720721  0.50198915  0.66704312  1
  Au  Au263  1  0.16460624  0.81980099  0.00359277  1
  Au  Au264  1  0.32861972  0.15897041  -0.00118877  1
  Au  Au265  1  -0.00249130  0.33280217  0.34208929  1
  Au  Au266  1  -0.00188922  0.68117017  0.15969057  1
  Au  Au267  1  0.16215625  0.32821201  -0.00210139  1
  Au  Au268  1  -0.00335255  0.66596032  0.82619319  1
  Au  Au269  1  0.17647295  0.00482582  0.83895568  1
  Au  Au270  1  0.32891988  0.00061800  0.33567288  1
  Au  Au271  1  0.50004504  0.17428480  0.66668677  1
  Au  Au272  1  0.67033204  0.50012199  0.67817194  1
  Au  Au273  1  0.15910225  0.50307057  0.16837207  1
  Au  Au274  1  0.17017384  0.16844498  0.50240738  1
  Au  Au275  1  -0.00265929  0.15666426  0.32340224  1
  Au  Au276  1  0.67316092  -0.00689417  0.66056819  1
  Au  Au277  1  0.16383145  -0.00000337  0.16508362  1
  Au  Au278  1  -0.00385329  0.32041307  0.15584571  1
  Au  Au279  1  -0.00493510  0.32686437  0.65990174  1
  Au  Au280  1  0.50182295  0.33770599  0.32838627  1
  Au  Au281  1  0.82605149  0.82508276  0.00252191  1
  Au  Au282  1  0.34112131  -0.00441020  0.16925648  1
  Au  Au283  1  0.65953504  0.67494908  0.49674383  1
  Au  Au284  1  0.50313768  0.33392507  0.82605478  1
  Au  Au285  1  0.00002914  0.66695430  0.32898234  1
  Au  Au286  1  0.50284206  0.67349997  0.84721099  1
  Au  Au287  1  0.33072645  0.33932570  -0.00377266  1
