# generated using pymatgen
data_Ca24Ti8Al207Au49
_symmetry_space_group_name_H-M   'P 1'
_cell_length_a   17.31981352
_cell_length_b   17.32009916
_cell_length_c   17.31938404
_cell_angle_alpha   89.99573613
_cell_angle_beta   89.99409931
_cell_angle_gamma   89.99763000
_symmetry_Int_Tables_number   1
_chemical_formula_structural   Ca24Ti8Al207Au49
_chemical_formula_sum   'Ca24 Ti8 Al207 Au49'
_cell_volume   5195.48414824
_cell_formula_units_Z   1
loop_
 _symmetry_equiv_pos_site_id
 _symmetry_equiv_pos_as_xyz
  1  'x, y, z'
loop_
 _atom_site_type_symbol
 _atom_site_label
 _atom_site_symmetry_multiplicity
 _atom_site_fract_x
 _atom_site_fract_y
 _atom_site_fract_z
 _atom_site_occupancy
  Ca  Ca0  1  0.24883052  0.00065168  0.00236175  1
  Ca  Ca1  1  0.24916018  0.00077929  0.49238912  1
  Ca  Ca2  1  0.25011385  0.49990695  0.00670740  1
  Ca  Ca3  1  0.25365004  0.49779679  0.49586414  1
  Ca  Ca4  1  0.74739803  0.00016245  0.00276525  1
  Ca  Ca5  1  0.74692497  0.00074541  0.49907626  1
  Ca  Ca6  1  0.75021876  0.49778025  0.00359406  1
  Ca  Ca7  1  0.74445952  0.49785804  0.49793222  1
  Ca  Ca8  1  -0.00368821  0.25654021  0.00195817  1
  Ca  Ca9  1  0.00363895  0.25160430  0.50018125  1
  Ca  Ca10  1  -0.00420988  0.74768637  0.00158359  1
  Ca  Ca11  1  0.00235982  0.74807405  0.49488652  1
  Ca  Ca12  1  0.50494613  0.25408116  0.00196737  1
  Ca  Ca13  1  0.49677799  0.25535631  0.49677451  1
  Ca  Ca14  1  0.50291004  0.74847962  0.00534291  1
  Ca  Ca15  1  0.49693612  0.74448626  0.49749197  1
  Ca  Ca16  1  0.00175428  -0.00206661  0.25546163  1
  Ca  Ca17  1  -0.00315914  -0.00644797  0.75113994  1
  Ca  Ca18  1  0.00281247  0.50534238  0.25088825  1
  Ca  Ca19  1  0.00135691  0.50573633  0.75555091  1
  Ca  Ca20  1  0.50320996  0.00043070  0.24775984  1
  Ca  Ca21  1  0.49917333  0.00139741  0.75200122  1
  Ca  Ca22  1  0.49680580  0.49700164  0.25386991  1
  Ca  Ca23  1  0.49798179  0.49925155  0.74421459  1
  Ti  Ti24  1  0.25116389  0.25058088  0.25155802  1
  Ti  Ti25  1  0.25317480  0.25076977  0.74825100  1
  Ti  Ti26  1  0.24963132  0.74885544  0.25116283  1
  Ti  Ti27  1  0.24619831  0.74938181  0.74849017  1
  Ti  Ti28  1  0.74813127  0.25093725  0.25078902  1
  Ti  Ti29  1  0.74673376  0.24923416  0.75003443  1
  Ti  Ti30  1  0.74983481  0.74788466  0.24872768  1
  Ti  Ti31  1  0.75361192  0.75057277  0.75018351  1
  Al  Al32  1  0.08042809  0.07449373  0.08225985  1
  Al  Al33  1  0.09377734  0.08123704  0.57293053  1
  Al  Al34  1  0.07875567  0.58453051  0.09280171  1
  Al  Al35  1  0.08690419  0.59517646  0.57418515  1
  Al  Al36  1  0.59426494  0.08504287  0.08510012  1
  Al  Al37  1  0.58089691  0.08683937  0.58217138  1
  Al  Al38  1  0.59054961  0.57517390  0.08965712  1
  Al  Al39  1  0.58031369  0.57810844  0.57674937  1
  Al  Al40  1  0.41691253  0.41226027  0.10278113  1
  Al  Al41  1  0.41398775  0.41114024  0.57761652  1
  Al  Al42  1  0.42672669  0.92327929  0.08611594  1
  Al  Al43  1  0.41664403  0.92115759  0.57069438  1
  Al  Al44  1  0.89992319  0.42010777  0.08795076  1
  Al  Al45  1  0.92157911  0.42693737  0.57368761  1
  Al  Al46  1  0.91185036  0.91307159  0.08709654  1
  Al  Al47  1  0.92532935  0.90897645  0.58629522  1
  Al  Al48  1  0.40597413  0.08534923  0.41123467  1
  Al  Al49  1  0.42369644  0.08134402  0.92447586  1
  Al  Al50  1  0.40488646  0.57760289  0.41293827  1
  Al  Al51  1  0.42232465  0.57751515  0.91749321  1
  Al  Al52  1  0.92763676  0.08066865  0.41827280  1
  Al  Al53  1  0.91191043  0.08688485  0.92094588  1
  Al  Al54  1  0.92351940  0.58273650  0.40620051  1
  Al  Al55  1  0.92471755  0.58030155  0.92070085  1
  Al  Al56  1  0.08946839  0.40546413  0.40836337  1
  Al  Al57  1  0.07916322  0.42309426  0.92425907  1
  Al  Al58  1  0.08903751  0.91589733  0.40643211  1
  Al  Al59  1  0.07418916  0.91596680  0.91332131  1
  Al  Al60  1  0.57844568  0.40968876  0.41352655  1
  Al  Al61  1  0.59036563  0.41274882  0.92463803  1
  Al  Al62  1  0.57869157  0.92193569  0.41298351  1
  Al  Al63  1  0.59745216  0.92129969  0.92332492  1
  Al  Al64  1  0.10060377  0.08882080  0.41338954  1
  Al  Al65  1  0.07350051  0.07793584  0.91974547  1
  Al  Al66  1  0.08829539  0.58960904  0.41130508  1
  Al  Al67  1  0.07897066  0.58261970  0.91485131  1
  Al  Al68  1  0.58242950  0.08246899  0.41594330  1
  Al  Al69  1  0.59717880  0.08478100  0.92130262  1
  Al  Al70  1  0.57891736  0.57942989  0.41823804  1
  Al  Al71  1  0.58296743  0.57654493  0.92099412  1
  Al  Al72  1  0.41074405  0.41295869  0.41008799  1
  Al  Al73  1  0.41858358  0.41719043  0.91904349  1
  Al  Al74  1  0.40949840  0.92080528  0.40833319  1
  Al  Al75  1  0.42426420  0.92382451  0.92530963  1
  Al  Al76  1  0.92478168  0.41520283  0.40510698  1
  Al  Al77  1  0.91307013  0.41370177  0.92835896  1
  Al  Al78  1  0.92911467  0.91212482  0.41403770  1
  Al  Al79  1  0.91281757  0.91018663  0.91873131  1
  Al  Al80  1  0.09019502  0.42598056  0.08518329  1
  Al  Al81  1  0.09324424  0.40976383  0.56788169  1
  Al  Al82  1  0.07558597  0.91465367  0.09196686  1
  Al  Al83  1  0.08338477  0.91590587  0.58564279  1
  Al  Al84  1  0.59254196  0.41090931  0.09285750  1
  Al  Al85  1  0.57835645  0.40746686  0.57906662  1
  Al  Al86  1  0.59329722  0.91844108  0.08719808  1
  Al  Al87  1  0.58123852  0.92225520  0.57761367  1
  Al  Al88  1  0.42411034  0.08321161  0.08746024  1
  Al  Al89  1  0.41438226  0.09052557  0.57352653  1
  Al  Al90  1  0.41504570  0.57333283  0.09307674  1
  Al  Al91  1  0.41036556  0.58179532  0.57421639  1
  Al  Al92  1  0.90694001  0.07878289  0.07953463  1
  Al  Al93  1  0.92286992  0.07242315  0.57546405  1
  Al  Al94  1  0.91654299  0.58156928  0.09446544  1
  Al  Al95  1  0.92142977  0.58548317  0.58314440  1
  Al  Al96  1  0.25364646  0.13421442  0.13641266  1
  Al  Al97  1  0.25068354  0.13727613  0.63159158  1
  Al  Al98  1  0.24800997  0.63361886  0.13548933  1
  Al  Al99  1  0.24781680  0.63734591  0.63008706  1
  Al  Al100  1  0.74367609  0.13695173  0.13237065  1
  Al  Al101  1  0.74452674  0.13444933  0.62929491  1
  Al  Al102  1  0.74924714  0.62836240  0.13626455  1
  Al  Al103  1  0.75574252  0.63706135  0.63629445  1
  Al  Al104  1  0.25243824  0.36456572  0.13951341  1
  Al  Al105  1  0.25323280  0.36349542  0.62801055  1
  Al  Al106  1  0.24511639  0.86510670  0.13788930  1
  Al  Al107  1  0.24890130  0.86391447  0.63285611  1
  Al  Al108  1  0.74933151  0.37077706  0.13954296  1
  Al  Al109  1  0.74255277  0.36608858  0.63083449  1
  Al  Al110  1  0.74561551  0.86510304  0.13532253  1
  Al  Al111  1  0.75032385  0.86405448  0.63222118  1
  Al  Al112  1  0.24840666  0.13946559  0.36756122  1
  Al  Al113  1  0.25586041  0.13577660  0.86589650  1
  Al  Al114  1  0.25032798  0.63233350  0.36722493  1
  Al  Al115  1  0.24915063  0.63823696  0.86532397  1
  Al  Al116  1  0.74675707  0.14483630  0.37093001  1
  Al  Al117  1  0.74533616  0.12997393  0.86706786  1
  Al  Al118  1  0.75149385  0.63429830  0.35994097  1
  Al  Al119  1  0.75122081  0.63493157  0.86250534  1
  Al  Al120  1  0.25195091  0.36442534  0.36967645  1
  Al  Al121  1  0.25747688  0.36451795  0.86392448  1
  Al  Al122  1  0.24825243  0.86735927  0.36672609  1
  Al  Al123  1  0.24390263  0.86494530  0.86539054  1
  Al  Al124  1  0.74661849  0.36274021  0.36333355  1
  Al  Al125  1  0.74917099  0.36408303  0.86489331  1
  Al  Al126  1  0.74750031  0.85942979  0.36862480  1
  Al  Al127  1  0.75323245  0.86952479  0.86377949  1
  Al  Al128  1  0.13570127  0.24992273  0.13875452  1
  Al  Al129  1  0.13928548  0.25068006  0.62664453  1
  Al  Al130  1  0.13314183  0.74732847  0.13509590  1
  Al  Al131  1  0.12974568  0.74987156  0.63311592  1
  Al  Al132  1  0.63298154  0.25270864  0.13594058  1
  Al  Al133  1  0.63034687  0.24876093  0.63099244  1
  Al  Al134  1  0.63696210  0.75052957  0.13290805  1
  Al  Al135  1  0.63648507  0.75375429  0.63782362  1
  Al  Al136  1  0.13678733  0.25207583  0.36834015  1
  Al  Al137  1  0.13636509  0.25143369  0.86327252  1
  Al  Al138  1  0.13793100  0.74640904  0.36444198  1
  Al  Al139  1  0.12677874  0.74857146  0.86512351  1
  Al  Al140  1  0.62911311  0.25505035  0.36742602  1
  Al  Al141  1  0.63562770  0.24908618  0.86801357  1
  Al  Al142  1  0.63352285  0.74632884  0.36070099  1
  Al  Al143  1  0.64330149  0.75367390  0.86655676  1
  Al  Al144  1  0.37003989  0.25244033  0.13820802  1
  Al  Al145  1  0.36839114  0.25504921  0.63100473  1
  Al  Al146  1  0.36301221  0.74499202  0.13794529  1
  Al  Al147  1  0.35975670  0.74768000  0.62700497  1
  Al  Al148  1  0.86225522  0.25604245  0.13201042  1
  Al  Al149  1  0.85902280  0.24817379  0.63085549  1
  Al  Al150  1  0.86395519  0.74852775  0.13486054  1
  Al  Al151  1  0.87319654  0.75194092  0.63545308  1
  Al  Al152  1  0.36882090  0.25678051  0.36749767  1
  Al  Al153  1  0.36859971  0.25005825  0.87061470  1
  Al  Al154  1  0.36010783  0.74609256  0.37003013  1
  Al  Al155  1  0.36260710  0.75260709  0.86603234  1
  Al  Al156  1  0.87225346  0.25165306  0.36351593  1
  Al  Al157  1  0.86182827  0.25159048  0.86583590  1
  Al  Al158  1  0.86667372  0.74887794  0.36385114  1
  Al  Al159  1  0.86883062  0.75056731  0.86451369  1
  Al  Al160  1  0.13621086  0.13179059  0.25412492  1
  Al  Al161  1  0.14081146  0.13751576  0.75063041  1
  Al  Al162  1  0.13566909  0.63262646  0.24802046  1
  Al  Al163  1  0.12905478  0.63778085  0.74815195  1
  Al  Al164  1  0.63238603  0.13776456  0.24896045  1
  Al  Al165  1  0.63542594  0.13239116  0.74871696  1
  Al  Al166  1  0.62913945  0.63333005  0.24499355  1
  Al  Al167  1  0.63677334  0.63710707  0.74707368  1
  Al  Al168  1  0.36200898  0.13455542  0.25597343  1
  Al  Al169  1  0.36832912  0.13614980  0.74414289  1
  Al  Al170  1  0.36829833  0.63390307  0.25560751  1
  Al  Al171  1  0.36167196  0.63831840  0.74880678  1
  Al  Al172  1  0.85903822  0.13819318  0.24888911  1
  Al  Al173  1  0.85909681  0.13436086  0.75233467  1
  Al  Al174  1  0.86781504  0.63311768  0.24307372  1
  Al  Al175  1  0.87455545  0.63762169  0.74908173  1
  Al  Al176  1  0.13460196  0.36357333  0.25289967  1
  Al  Al177  1  0.14096249  0.36127762  0.74885692  1
  Al  Al178  1  0.13335536  0.86713814  0.25560385  1
  Al  Al179  1  0.12764507  0.86176279  0.74931548  1
  Al  Al180  1  0.63047993  0.36574767  0.24778396  1
  Al  Al181  1  0.62979884  0.35985436  0.74717446  1
  Al  Al182  1  0.63487154  0.86523303  0.24726081  1
  Al  Al183  1  0.64024916  0.87301223  0.75409921  1
  Al  Al184  1  0.36696569  0.36574263  0.25518364  1
  Al  Al185  1  0.37182050  0.36085715  0.74861274  1
  Al  Al186  1  0.36338806  0.86344258  0.25349821  1
  Al  Al187  1  0.36023717  0.86471257  0.74702677  1
  Al  Al188  1  0.86498022  0.36439687  0.24971908  1
  Al  Al189  1  0.85941275  0.36166963  0.74629458  1
  Al  Al190  1  0.86257461  0.86326161  0.24960384  1
  Al  Al191  1  0.86998018  0.86468466  0.75101982  1
  Al  Al192  1  0.00000848  0.80872536  0.19319447  1
  Al  Al193  1  0.82516057  0.49933170  0.31254831  1
  Al  Al194  1  0.50053873  0.82007945  0.17303366  1
  Al  Al195  1  0.17483269  0.82049625  0.49641425  1
  Al  Al196  1  0.82191589  0.32442651  0.49618605  1
  Al  Al197  1  0.81951504  -0.00104136  0.67856875  1
  Al  Al198  1  -0.00207434  0.17554651  0.82588950  1
  Al  Al199  1  0.00079984  0.32885104  0.66996933  1
  Al  Al200  1  0.82098589  0.50049614  0.67527815  1
  Al  Al201  1  0.17980549  0.49976642  0.82552219  1
  Al  Al202  1  0.18856288  0.49910303  0.31339990  1
  Al  Al203  1  0.80625317  0.18966528  -0.00118312  1
  Al  Al204  1  0.49613235  0.82897843  0.67343500  1
  Al  Al205  1  0.18082169  0.32830208  0.00080489  1
  Al  Al206  1  0.30905881  0.50038142  0.19577640  1
  Al  Al207  1  -0.00088630  0.32998359  0.82767932  1
  Al  Al208  1  0.83262812  0.66984310  0.00025224  1
  Al  Al209  1  0.00151102  0.68950025  0.31000299  1
  Al  Al210  1  0.00384183  0.16886825  0.66978552  1
  Al  Al211  1  0.16891380  0.50133441  0.67119797  1
  Al  Al212  1  0.69194001  0.31221656  0.00295540  1
  Al  Al213  1  0.32208146  -0.00082676  0.81966108  1
  Al  Al214  1  0.17474304  0.17020448  -0.00121157  1
  Al  Al215  1  0.49771791  0.82132236  0.32554694  1
  Al  Al216  1  0.49754796  0.67069429  0.66995234  1
  Al  Al217  1  0.67695771  0.67968328  -0.00024046  1
  Al  Al218  1  0.80995097  0.00051205  0.17461562  1
  Al  Al219  1  0.00029913  0.33303275  0.17675149  1
  Al  Al220  1  0.16923454  0.67607353  0.00094672  1
  Al  Al221  1  0.82899147  0.49941122  0.83111279  1
  Al  Al222  1  0.31265549  0.18900794  0.49840784  1
  Al  Al223  1  0.66988627  0.49938306  0.31807032  1
  Al  Al224  1  0.68030388  0.68046610  0.50005478  1
  Al  Al225  1  0.17966824  -0.00068282  0.67774561  1
  Al  Al226  1  0.81008342  0.82173219  0.00088962  1
  Al  Al227  1  0.82281061  0.00042657  0.33222808  1
  Al  Al228  1  0.67442438  0.49850375  0.81882339  1
  Al  Al229  1  0.50319862  0.17755494  0.82302373  1
  Al  Al230  1  0.67475139  0.00136909  0.31243679  1
  Al  Al231  1  0.32843904  0.49839732  0.67856896  1
  Al  Al232  1  0.32255869  0.82359860  0.00367316  1
  Al  Al233  1  0.49864336  0.17704861  0.31936479  1
  Al  Al234  1  0.32068068  -0.00227604  0.18524171  1
  Al  Al235  1  0.82800202  0.82065431  0.49688873  1
  Al  Al236  1  -0.00286546  0.17191218  0.17969283  1
  Al  Al237  1  0.50154156  0.67326677  0.82500477  1
  Al  Al238  1  0.50658192  0.83035844  0.83167570  1
  Au  Au239  1  0.50528780  0.17932132  0.16450285  1
  Au  Au240  1  0.50032284  0.17758460  0.33185522  1
  Au  Au241  1  0.00336016  0.34508284  0.67373318  1
  Au  Au242  1  0.16297325  0.66527027  0.00061791  1
  Au  Au243  1  0.15881046  0.17651233  -0.00133252  1
  Au  Au244  1  0.17633822  0.49927876  0.32474986  1
  Au  Au245  1  0.15762133  0.00088960  0.82443214  1
  Au  Au246  1  0.33033199  0.50101773  0.83026773  1
  Au  Au247  1  0.66265605  0.82894340  0.49475645  1
  Au  Au248  1  0.83357024  0.50154267  0.67793934  1
  Au  Au249  1  0.65808845  0.49462849  0.66917127  1
  Au  Au250  1  0.67236701  0.66770249  -0.00048166  1
  Au  Au251  1  0.00725162  0.17845905  0.34234828  1
  Au  Au252  1  0.33155740  0.33850649  0.00710974  1
  Au  Au253  1  0.82916575  0.33985409  0.49484404  1
  Au  Au254  1  0.82401382  0.00049003  0.84074546  1
  Au  Au255  1  -0.00223277  0.82332129  0.82656181  1
  Au  Au256  1  0.50490322  0.16538714  0.83392804  1
  Au  Au257  1  0.33713738  0.17002729  0.00472470  1
  Au  Au258  1  0.00192501  0.67596495  0.66820244  1
  Au  Au259  1  0.32651653  0.00265789  0.65445970  1
  Au  Au260  1  0.33102304  0.82348626  0.49510295  1
  Au  Au261  1  0.49440419  0.67074152  0.33915915  1
  Au  Au262  1  0.00732043  0.15294982  0.67422617  1
  Au  Au263  1  0.83653125  0.82973442  0.49888092  1
  Au  Au264  1  0.67494865  0.49710987  0.32968277  1
  Au  Au265  1  0.83695827  -0.00133469  0.32273051  1
  Au  Au266  1  0.83297222  0.16441686  0.49962738  1
  Au  Au267  1  0.82758440  0.65592371  0.49361687  1
  Au  Au268  1  0.49587310  0.82258014  0.65705188  1
  Au  Au269  1  -0.00553675  0.15666643  0.17302852  1
  Au  Au270  1  0.65872927  0.00145119  0.67666823  1
  Au  Au271  1  0.33543672  0.83441743  0.00600016  1
  Au  Au272  1  0.16256348  0.83920307  0.00005251  1
  Au  Au273  1  0.83211941  -0.00322512  0.66780515  1
  Au  Au274  1  0.50345656  0.34087295  0.82618213  1
  Au  Au275  1  0.66469374  0.17533018  0.49778337  1
  Au  Au276  1  0.33308709  -0.00009321  0.83274076  1
  Au  Au277  1  0.16539056  0.82828173  0.49881614  1
  Au  Au278  1  0.50967853  0.82558865  0.84770360  1
  Au  Au279  1  0.16472884  -0.00117838  0.18033500  1
  Au  Au280  1  0.17616385  0.50265876  0.65680340  1
  Au  Au281  1  0.50051388  0.66794211  0.16721743  1
  Au  Au282  1  0.33563871  0.65938423  0.00147835  1
  Au  Au283  1  0.82071630  0.18108320  0.00117278  1
  Au  Au284  1  0.33724742  0.00019083  0.18196111  1
  Au  Au285  1  -0.00378018  0.82105596  0.18210937  1
  Au  Au286  1  -0.00027893  0.34871820  0.17159440  1
  Au  Au287  1  0.49653580  0.17973406  0.66010914  1
