# generated using pymatgen
data_Ca24Ti8Al207Au49
_symmetry_space_group_name_H-M   'P 1'
_cell_length_a   17.32180740
_cell_length_b   17.32153193
_cell_length_c   17.32143522
_cell_angle_alpha   89.99855134
_cell_angle_beta   90.00483049
_cell_angle_gamma   90.00006803
_symmetry_Int_Tables_number   1
_chemical_formula_structural   Ca24Ti8Al207Au49
_chemical_formula_sum   'Ca24 Ti8 Al207 Au49'
_cell_volume   5197.12755996
_cell_formula_units_Z   1
loop_
 _symmetry_equiv_pos_site_id
 _symmetry_equiv_pos_as_xyz
  1  'x, y, z'
loop_
 _atom_site_type_symbol
 _atom_site_label
 _atom_site_symmetry_multiplicity
 _atom_site_fract_x
 _atom_site_fract_y
 _atom_site_fract_z
 _atom_site_occupancy
  Ca  Ca0  1  0.25165446  0.00266833  0.00336066  1
  Ca  Ca1  1  0.25297935  -0.00201667  0.49707944  1
  Ca  Ca2  1  0.24814475  0.49926282  0.00283419  1
  Ca  Ca3  1  0.24557805  0.50024402  0.49758037  1
  Ca  Ca4  1  0.74786550  0.00059604  0.00140814  1
  Ca  Ca5  1  0.74393934  0.00148707  0.50005765  1
  Ca  Ca6  1  0.75614003  0.50453635  0.00098970  1
  Ca  Ca7  1  0.75287999  0.49830650  0.49992274  1
  Ca  Ca8  1  0.01127557  0.25093119  0.00092243  1
  Ca  Ca9  1  -0.00159569  0.25279921  0.49827276  1
  Ca  Ca10  1  -0.00115781  0.74516070  0.00671141  1
  Ca  Ca11  1  -0.00014726  0.74325539  0.49510562  1
  Ca  Ca12  1  0.49364951  0.24370179  -0.00103058  1
  Ca  Ca13  1  0.50181736  0.24323609  0.49951722  1
  Ca  Ca14  1  0.49789358  0.75219919  -0.00418683  1
  Ca  Ca15  1  0.49869517  0.75312920  0.50352422  1
  Ca  Ca16  1  0.00412362  -0.00061286  0.24948252  1
  Ca  Ca17  1  0.00010365  0.00223306  0.74942793  1
  Ca  Ca18  1  0.00135528  0.50015478  0.25211776  1
  Ca  Ca19  1  0.00318702  0.49543477  0.74852506  1
  Ca  Ca20  1  0.49608330  -0.00118568  0.25308112  1
  Ca  Ca21  1  0.49896909  0.00403379  0.75008949  1
  Ca  Ca22  1  0.50144144  0.49958062  0.25116740  1
  Ca  Ca23  1  0.49915746  0.50008409  0.75279373  1
  Ti  Ti24  1  0.24926110  0.25094270  0.25039738  1
  Ti  Ti25  1  0.24948764  0.25104207  0.74938841  1
  Ti  Ti26  1  0.24925073  0.74968237  0.25124973  1
  Ti  Ti27  1  0.25055963  0.74983095  0.74989684  1
  Ti  Ti28  1  0.75015746  0.25112041  0.25235908  1
  Ti  Ti29  1  0.75077413  0.25106159  0.74797347  1
  Ti  Ti30  1  0.75077061  0.74928572  0.24892776  1
  Ti  Ti31  1  0.74938780  0.74826688  0.75089767  1
  Al  Al32  1  0.09419212  0.08648447  0.08877499  1
  Al  Al33  1  0.07793290  0.08111743  0.57560542  1
  Al  Al34  1  0.08414103  0.58240490  0.09997406  1
  Al  Al35  1  0.09082234  0.57545143  0.58176242  1
  Al  Al36  1  0.57861210  0.07399072  0.09812554  1
  Al  Al37  1  0.58087130  0.08599274  0.58933869  1
  Al  Al38  1  0.58483655  0.58147047  0.07896304  1
  Al  Al39  1  0.58547829  0.59297404  0.57891571  1
  Al  Al40  1  0.39796217  0.41695108  0.08485387  1
  Al  Al41  1  0.41719945  0.41602042  0.57919756  1
  Al  Al42  1  0.41935144  0.92165152  0.08746609  1
  Al  Al43  1  0.41200110  0.91329541  0.57589663  1
  Al  Al44  1  0.91597085  0.42850753  0.08514361  1
  Al  Al45  1  0.91423842  0.41313839  0.57780731  1
  Al  Al46  1  0.92267632  0.91475319  0.08916547  1
  Al  Al47  1  0.92163543  0.92771108  0.57200028  1
  Al  Al48  1  0.42052159  0.08301489  0.41162217  1
  Al  Al49  1  0.40986737  0.08598161  0.90636369  1
  Al  Al50  1  0.41206081  0.58009956  0.41449692  1
  Al  Al51  1  0.42122543  0.58305718  0.91276460  1
  Al  Al52  1  0.91870269  0.09596470  0.41234455  1
  Al  Al53  1  0.92636576  0.07712185  0.91339935  1
  Al  Al54  1  0.91551682  0.58168456  0.40452104  1
  Al  Al55  1  0.90970227  0.57544806  0.91371319  1
  Al  Al56  1  0.08866632  0.42012613  0.41810006  1
  Al  Al57  1  0.08976787  0.41037505  0.92208671  1
  Al  Al58  1  0.09449259  0.91598400  0.41187798  1
  Al  Al59  1  0.08096820  0.92860062  0.92796122  1
  Al  Al60  1  0.58873586  0.41781371  0.41768028  1
  Al  Al61  1  0.57736446  0.42752631  0.91673187  1
  Al  Al62  1  0.57694554  0.91108656  0.41228341  1
  Al  Al63  1  0.57984934  0.91836456  0.91651271  1
  Al  Al64  1  0.08090848  0.08292201  0.40647937  1
  Al  Al65  1  0.09130525  0.09237857  0.92415351  1
  Al  Al66  1  0.08286762  0.58234729  0.40767333  1
  Al  Al67  1  0.07944563  0.57460242  0.91935882  1
  Al  Al68  1  0.57987553  0.08623063  0.41208025  1
  Al  Al69  1  0.57078696  0.08344630  0.90565002  1
  Al  Al70  1  0.59552437  0.58854197  0.42088227  1
  Al  Al71  1  0.58044117  0.58756136  0.90704894  1
  Al  Al72  1  0.41160045  0.41765944  0.41584096  1
  Al  Al73  1  0.41052938  0.41828381  0.92539824  1
  Al  Al74  1  0.41467568  0.90842435  0.41463671  1
  Al  Al75  1  0.41469631  0.92363161  0.91154179  1
  Al  Al76  1  0.90870401  0.41905850  0.41522470  1
  Al  Al77  1  0.91499225  0.41927272  0.91235598  1
  Al  Al78  1  0.92222230  0.91739980  0.41461148  1
  Al  Al79  1  0.91311238  0.92321050  0.92313418  1
  Al  Al80  1  0.09767715  0.41895215  0.08607416  1
  Al  Al81  1  0.09094504  0.41538689  0.58090873  1
  Al  Al82  1  0.08521324  0.92152506  0.09384387  1
  Al  Al83  1  0.09541024  0.91051604  0.56973697  1
  Al  Al84  1  0.58103283  0.42593799  0.08176265  1
  Al  Al85  1  0.58261322  0.41489971  0.57716419  1
  Al  Al86  1  0.58651544  0.91808573  0.09582425  1
  Al  Al87  1  0.57951704  0.92089489  0.57876587  1
  Al  Al88  1  0.41489796  0.08339540  0.08464107  1
  Al  Al89  1  0.42204185  0.08535879  0.58914648  1
  Al  Al90  1  0.41050066  0.57361323  0.08314587  1
  Al  Al91  1  0.42122385  0.58311842  0.58047062  1
  Al  Al92  1  0.92835013  0.07777400  0.08735467  1
  Al  Al93  1  0.91517520  0.08912142  0.57557242  1
  Al  Al94  1  0.91978719  0.58678296  0.10033007  1
  Al  Al95  1  0.91864517  0.57694682  0.57789284  1
  Al  Al96  1  0.24653220  0.13492812  0.12992303  1
  Al  Al97  1  0.25050337  0.13450770  0.63408936  1
  Al  Al98  1  0.24837457  0.62943673  0.13733774  1
  Al  Al99  1  0.24628851  0.63450254  0.63240094  1
  Al  Al100  1  0.74714276  0.12862720  0.13985295  1
  Al  Al101  1  0.74831614  0.13593388  0.63619962  1
  Al  Al102  1  0.75176210  0.63054588  0.13319371  1
  Al  Al103  1  0.75060781  0.63500967  0.62943812  1
  Al  Al104  1  0.24617220  0.36756367  0.13467528  1
  Al  Al105  1  0.24890298  0.36546285  0.63044111  1
  Al  Al106  1  0.24723986  0.86648309  0.13791069  1
  Al  Al107  1  0.25363938  0.86677986  0.63236198  1
  Al  Al108  1  0.74977759  0.37058776  0.13878505  1
  Al  Al109  1  0.75368028  0.36485651  0.62975746  1
  Al  Al110  1  0.74751721  0.87023573  0.13695915  1
  Al  Al111  1  0.74876521  0.86210335  0.63784795  1
  Al  Al112  1  0.25096946  0.13523966  0.36813915  1
  Al  Al113  1  0.25212060  0.13588892  0.86954812  1
  Al  Al114  1  0.24665822  0.63292867  0.36788370  1
  Al  Al115  1  0.24680665  0.63380119  0.86354175  1
  Al  Al116  1  0.74724507  0.13190397  0.36614440  1
  Al  Al117  1  0.74719842  0.13632262  0.86266482  1
  Al  Al118  1  0.75333301  0.63174198  0.36551120  1
  Al  Al119  1  0.75106215  0.63577165  0.86825139  1
  Al  Al120  1  0.24856170  0.36606870  0.36880697  1
  Al  Al121  1  0.24578727  0.36484002  0.86519786  1
  Al  Al122  1  0.25111885  0.86394911  0.36938488  1
  Al  Al123  1  0.25095873  0.86704177  0.86535300  1
  Al  Al124  1  0.75286685  0.36757618  0.36957474  1
  Al  Al125  1  0.75215865  0.36474586  0.86172662  1
  Al  Al126  1  0.74786538  0.86750744  0.36358385  1
  Al  Al127  1  0.74972710  0.86141161  0.86668918  1
  Al  Al128  1  0.13804913  0.25222782  0.13238141  1
  Al  Al129  1  0.13609773  0.25714260  0.63008607  1
  Al  Al130  1  0.13445868  0.74566070  0.14002660  1
  Al  Al131  1  0.13725199  0.74973067  0.62991747  1
  Al  Al132  1  0.63813008  0.24907329  0.14134870  1
  Al  Al133  1  0.63732601  0.24979197  0.62887367  1
  Al  Al134  1  0.63742867  0.74810314  0.13710554  1
  Al  Al135  1  0.63516677  0.74761724  0.63614420  1
  Al  Al136  1  0.13537669  0.25009028  0.36408120  1
  Al  Al137  1  0.13831717  0.25230944  0.86736905  1
  Al  Al138  1  0.13718368  0.75028823  0.36814090  1
  Al  Al139  1  0.13451530  0.74660272  0.86306597  1
  Al  Al140  1  0.63838517  0.24978178  0.36950817  1
  Al  Al141  1  0.63324002  0.24584764  0.86398429  1
  Al  Al142  1  0.63847763  0.74826694  0.36248257  1
  Al  Al143  1  0.62866742  0.74950748  0.86707076  1
  Al  Al144  1  0.35895149  0.24628330  0.13424997  1
  Al  Al145  1  0.36222858  0.24870449  0.63157705  1
  Al  Al146  1  0.35854665  0.75078084  0.13736023  1
  Al  Al147  1  0.36364444  0.75301703  0.63558551  1
  Al  Al148  1  0.86095611  0.25042616  0.13986611  1
  Al  Al149  1  0.86641003  0.25487201  0.63502424  1
  Al  Al150  1  0.86333502  0.74623287  0.13321150  1
  Al  Al151  1  0.86748434  0.74126872  0.63667077  1
  Al  Al152  1  0.36250687  0.25166222  0.36942990  1
  Al  Al153  1  0.36524278  0.24485674  0.86549028  1
  Al  Al154  1  0.36437844  0.75257988  0.36810618  1
  Al  Al155  1  0.36912639  0.74946444  0.86267248  1
  Al  Al156  1  0.86472370  0.25263808  0.36429544  1
  Al  Al157  1  0.86544436  0.25432061  0.86218336  1
  Al  Al158  1  0.86475162  0.74556677  0.36386427  1
  Al  Al159  1  0.86491044  0.74516723  0.86883873  1
  Al  Al160  1  0.13897910  0.13562172  0.24758937  1
  Al  Al161  1  0.13768071  0.13679833  0.75186401  1
  Al  Al162  1  0.13733429  0.62944978  0.25058011  1
  Al  Al163  1  0.13345570  0.63172862  0.74817469  1
  Al  Al164  1  0.63446431  0.13237673  0.25463792  1
  Al  Al165  1  0.63031864  0.13814726  0.74747968  1
  Al  Al166  1  0.64097802  0.62591970  0.25303460  1
  Al  Al167  1  0.63530010  0.63707994  0.75309753  1
  Al  Al168  1  0.36182580  0.13673880  0.25370591  1
  Al  Al169  1  0.36415663  0.13381070  0.75149377  1
  Al  Al170  1  0.36333893  0.63358283  0.25194664  1
  Al  Al171  1  0.36437905  0.63528871  0.75005251  1
  Al  Al172  1  0.86756487  0.13692010  0.25263956  1
  Al  Al173  1  0.86492740  0.13763798  0.74917056  1
  Al  Al174  1  0.86432656  0.63086915  0.24777375  1
  Al  Al175  1  0.86346747  0.62838373  0.75105325  1
  Al  Al176  1  0.13569250  0.37055534  0.25128101  1
  Al  Al177  1  0.13349193  0.36794937  0.74842425  1
  Al  Al178  1  0.13583929  0.86529294  0.25166415  1
  Al  Al179  1  0.13709050  0.86638161  0.74646506  1
  Al  Al180  1  0.63983206  0.37354627  0.25627834  1
  Al  Al181  1  0.63509123  0.36287155  0.74907358  1
  Al  Al182  1  0.63492526  0.86597083  0.25218394  1
  Al  Al183  1  0.63397662  0.86240549  0.75481029  1
  Al  Al184  1  0.36072098  0.36705237  0.24608063  1
  Al  Al185  1  0.36311142  0.36286825  0.75023044  1
  Al  Al186  1  0.36418800  0.86419211  0.25412742  1
  Al  Al187  1  0.36420982  0.86879258  0.75616066  1
  Al  Al188  1  0.86565794  0.37176853  0.25211744  1
  Al  Al189  1  0.86904975  0.36934535  0.74942651  1
  Al  Al190  1  0.86481104  0.86468025  0.24960715  1
  Al  Al191  1  0.86655993  0.86192305  0.75010708  1
  Al  Al192  1  0.49788750  0.32876499  0.17091388  1
  Al  Al193  1  0.00114884  0.82288590  0.83177423  1
  Al  Al194  1  0.31896848  0.49934370  0.82699813  1
  Al  Al195  1  0.50129594  0.68648925  0.32879262  1
  Al  Al196  1  0.32106629  0.68176529  0.50376554  1
  Al  Al197  1  0.82919265  0.00065479  0.67085445  1
  Al  Al198  1  0.18344633  0.00114593  0.31152596  1
  Al  Al199  1  -0.00006882  0.81178103  0.18352964  1
  Al  Al200  1  0.31623505  0.50017184  0.66905786  1
  Al  Al201  1  0.81710851  0.18985967  0.49962783  1
  Al  Al202  1  0.81830181  0.00005286  0.82358840  1
  Al  Al203  1  0.49942435  0.67472265  0.68211137  1
  Al  Al204  1  0.17464638  0.17554609  0.49799171  1
  Al  Al205  1  0.32314018  -0.00037403  0.67619112  1
  Al  Al206  1  0.66947129  0.81710941  0.49995259  1
  Al  Al207  1  0.00273569  0.17500901  0.18599020  1
  Al  Al208  1  0.67223497  0.33014695  -0.00236974  1
  Al  Al209  1  0.17821755  0.00204748  0.82629678  1
  Al  Al210  1  0.30847656  0.31738530  -0.00103249  1
  Al  Al211  1  0.67745868  0.50133973  0.67129133  1
  Al  Al212  1  0.30943476  0.49935319  0.31425267  1
  Al  Al213  1  0.49973824  0.82789270  0.67786117  1
  Al  Al214  1  0.82650170  0.82052087  0.50108306  1
  Al  Al215  1  0.49818373  0.17351672  0.18869207  1
  Al  Al216  1  0.66530996  0.16714022  0.00409782  1
  Al  Al217  1  0.00061238  0.32067788  0.32963034  1
  Al  Al218  1  0.82452109  0.00403023  0.32172073  1
  Al  Al219  1  0.82874768  0.32773199  0.00256533  1
  Al  Al220  1  0.49886049  0.31621685  0.82789860  1
  Al  Al221  1  0.31279936  0.00133816  0.18197631  1
  Al  Al222  1  0.68416835  0.50028486  0.82648533  1
  Al  Al223  1  0.17312665  0.82936388  0.00274808  1
  Al  Al224  1  0.50088178  0.31400789  0.32722210  1
  Al  Al225  1  0.00111880  0.68016184  0.30825582  1
  Al  Al226  1  0.32895111  0.67368050  -0.00131545  1
  Al  Al227  1  0.49998917  0.31198687  0.67457564  1
  Al  Al228  1  0.00058573  0.82270535  0.66688900  1
  Al  Al229  1  0.00023966  0.33007697  0.17255342  1
  Al  Al230  1  0.17300991  0.67339492  0.00091332  1
  Al  Al231  1  0.49630712  0.67028512  0.17317271  1
  Al  Al232  1  0.32789796  0.82973927  0.00058757  1
  Al  Al233  1  0.49903518  0.82503200  0.18609754  1
  Al  Al234  1  0.67592928  0.82360841  0.00599005  1
  Al  Al235  1  0.83468335  0.16928878  -0.00037511  1
  Al  Al236  1  0.00263682  0.17838801  0.82618509  1
  Al  Al237  1  0.00111693  0.17832923  0.67299637  1
  Al  Al238  1  0.67459816  -0.00130798  0.68072788  1
  Au  Au239  1  0.66851452  0.00257513  0.82862027  1
  Au  Au240  1  0.33148902  -0.00291499  0.33022270  1
  Au  Au241  1  0.00069655  0.33180853  0.33540637  1
  Au  Au242  1  0.16363641  0.00120865  0.66457749  1
  Au  Au243  1  0.85050310  0.17490538  -0.00021454  1
  Au  Au244  1  0.67797243  0.34645922  -0.00360381  1
  Au  Au245  1  0.00264925  0.32801268  0.65975215  1
  Au  Au246  1  0.67681756  0.50158302  0.16850498  1
  Au  Au247  1  0.82659143  0.00044445  0.16562480  1
  Au  Au248  1  0.33031682  0.67321793  0.50110318  1
  Au  Au249  1  0.50123914  0.32174478  0.34236295  1
  Au  Au250  1  0.49609229  0.32946683  0.83858198  1
  Au  Au251  1  0.16454991  0.67286031  0.49724834  1
  Au  Au252  1  0.65915141  -0.00237093  0.32413975  1
  Au  Au253  1  0.00144913  0.32693674  0.83780888  1
  Au  Au254  1  0.83256912  0.00032950  0.33046456  1
  Au  Au255  1  0.67978256  0.50124810  0.33572415  1
  Au  Au256  1  0.16235564  0.17663621  0.49556265  1
  Au  Au257  1  0.66730505  0.66806318  -0.00470535  1
  Au  Au258  1  0.68319536  0.33181103  0.49978595  1
  Au  Au259  1  0.33248027  0.49986048  0.67495132  1
  Au  Au260  1  0.49430416  0.32411947  0.15499500  1
  Au  Au261  1  0.16423522  0.66469190  0.00301044  1
  Au  Au262  1  0.17829616  -0.00059513  0.83897992  1
  Au  Au263  1  0.32628590  0.49934961  0.31889439  1
  Au  Au264  1  0.00115000  0.83337399  0.65455030  1
  Au  Au265  1  0.83175802  0.83269871  0.00432428  1
  Au  Au266  1  0.83814042  0.49749048  0.67602722  1
  Au  Au267  1  0.66093296  0.50296180  0.67498722  1
  Au  Au268  1  0.33568454  -0.00212966  0.67864418  1
  Au  Au269  1  0.32757973  0.17000165  -0.00020620  1
  Au  Au270  1  0.32021430  0.33480707  0.49973808  1
  Au  Au271  1  0.00101227  0.83478600  0.84310012  1
  Au  Au272  1  0.82545344  0.65856852  0.49647165  1
  Au  Au273  1  0.65019144  0.16140255  0.00438343  1
  Au  Au274  1  0.50018128  0.31805235  0.65837857  1
  Au  Au275  1  0.66708080  0.83157180  0.00224276  1
  Au  Au276  1  0.82030236  0.83629651  0.50122182  1
  Au  Au277  1  0.00455928  0.82678362  0.33190626  1
  Au  Au278  1  0.00029495  0.32858181  0.15989289  1
  Au  Au279  1  0.49661996  0.82847489  0.82793872  1
  Au  Au280  1  0.66971313  0.16452147  0.50091061  1
  Au  Au281  1  0.83770103  0.66290753  0.00491722  1
  Au  Au282  1  -0.00381071  0.65869435  0.83045210  1
  Au  Au283  1  0.00389447  0.65805841  0.66633530  1
  Au  Au284  1  0.49253227  0.67528644  0.15680644  1
  Au  Au285  1  0.16877536  0.49698654  0.82844322  1
  Au  Au286  1  0.50255899  0.67511078  0.34132114  1
  Au  Au287  1  0.33882264  0.16872313  0.50023989  1
