# generated using pymatgen
data_Ca24Ti8Al207Au49
_symmetry_space_group_name_H-M   'P 1'
_cell_length_a   17.32049624
_cell_length_b   17.32000775
_cell_length_c   17.31797927
_cell_angle_alpha   90.00000295
_cell_angle_beta   89.99391043
_cell_angle_gamma   89.99490544
_symmetry_Int_Tables_number   1
_chemical_formula_structural   Ca24Ti8Al207Au49
_chemical_formula_sum   'Ca24 Ti8 Al207 Au49'
_cell_volume   5195.24010333
_cell_formula_units_Z   1
loop_
 _symmetry_equiv_pos_site_id
 _symmetry_equiv_pos_as_xyz
  1  'x, y, z'
loop_
 _atom_site_type_symbol
 _atom_site_label
 _atom_site_symmetry_multiplicity
 _atom_site_fract_x
 _atom_site_fract_y
 _atom_site_fract_z
 _atom_site_occupancy
  Ca  Ca0  1  0.25643737  0.00020399  -0.00256390  1
  Ca  Ca1  1  0.25465584  0.00073441  0.50156898  1
  Ca  Ca2  1  0.25660384  0.50572069  -0.00083929  1
  Ca  Ca3  1  0.25043066  0.49937979  0.50376715  1
  Ca  Ca4  1  0.75027915  0.00086428  0.00533025  1
  Ca  Ca5  1  0.74322655  0.00030885  0.49383141  1
  Ca  Ca6  1  0.75112049  0.50287283  0.00102138  1
  Ca  Ca7  1  0.74539484  0.50026034  0.50288877  1
  Ca  Ca8  1  -0.00205406  0.24933041  0.00054395  1
  Ca  Ca9  1  0.00043838  0.24931718  0.49822823  1
  Ca  Ca10  1  -0.00052207  0.74768564  0.00001355  1
  Ca  Ca11  1  -0.00162629  0.74913111  0.50026859  1
  Ca  Ca12  1  0.50471933  0.24828967  0.00376713  1
  Ca  Ca13  1  0.49753409  0.25116715  0.49724060  1
  Ca  Ca14  1  0.50193048  0.74772364  0.00334505  1
  Ca  Ca15  1  0.50107917  0.75347222  0.49660675  1
  Ca  Ca16  1  -0.00427038  -0.00292404  0.24928310  1
  Ca  Ca17  1  -0.00018351  0.00407508  0.74881643  1
  Ca  Ca18  1  -0.00081172  0.50261164  0.24949920  1
  Ca  Ca19  1  -0.00517323  0.50016590  0.74677988  1
  Ca  Ca20  1  0.50499389  -0.00032847  0.25364850  1
  Ca  Ca21  1  0.50045028  -0.00313965  0.74655779  1
  Ca  Ca22  1  0.49827393  0.50026704  0.24942003  1
  Ca  Ca23  1  0.50142459  0.49942756  0.74696567  1
  Ti  Ti24  1  0.25154002  0.24835065  0.25259837  1
  Ti  Ti25  1  0.25280217  0.24808616  0.74795278  1
  Ti  Ti26  1  0.25170036  0.75109440  0.24986102  1
  Ti  Ti27  1  0.25065541  0.75104758  0.74784222  1
  Ti  Ti28  1  0.74908150  0.25039232  0.25239119  1
  Ti  Ti29  1  0.74911615  0.25053129  0.74893496  1
  Ti  Ti30  1  0.74855316  0.74919688  0.25044642  1
  Ti  Ti31  1  0.74851447  0.74806097  0.75034934  1
  Al  Al32  1  0.07204358  0.07762245  0.08126158  1
  Al  Al33  1  0.08157655  0.08694364  0.58927396  1
  Al  Al34  1  0.07938047  0.59385084  0.08700905  1
  Al  Al35  1  0.08641125  0.57622400  0.58671219  1
  Al  Al36  1  0.58945656  0.08454476  0.10054245  1
  Al  Al37  1  0.57146301  0.08846585  0.58262253  1
  Al  Al38  1  0.57682702  0.58969699  0.09056312  1
  Al  Al39  1  0.58434784  0.57823598  0.58916431  1
  Al  Al40  1  0.41992949  0.41589369  0.08711948  1
  Al  Al41  1  0.41644263  0.42021839  0.58539986  1
  Al  Al42  1  0.42308251  0.91275132  0.08431359  1
  Al  Al43  1  0.40771092  0.91632465  0.58437572  1
  Al  Al44  1  0.92069819  0.42586504  0.07685509  1
  Al  Al45  1  0.91507678  0.42017177  0.59384647  1
  Al  Al46  1  0.90488751  0.91623246  0.09110825  1
  Al  Al47  1  0.92167170  0.92150617  0.58255048  1
  Al  Al48  1  0.42829608  0.08685601  0.41678580  1
  Al  Al49  1  0.41832403  0.07919244  0.91446991  1
  Al  Al50  1  0.42743973  0.59391816  0.41786149  1
  Al  Al51  1  0.41233547  0.58959819  0.92485186  1
  Al  Al52  1  0.91288613  0.08581510  0.40009217  1
  Al  Al53  1  0.91726107  0.08984590  0.91107455  1
  Al  Al54  1  0.91788383  0.58362214  0.41884386  1
  Al  Al55  1  0.90504664  0.58524351  0.91807681  1
  Al  Al56  1  0.08276265  0.41245447  0.41711451  1
  Al  Al57  1  0.07646033  0.42367990  0.91248259  1
  Al  Al58  1  0.07993048  0.91879895  0.42618523  1
  Al  Al59  1  0.08013388  0.92348441  0.91874702  1
  Al  Al60  1  0.58698861  0.41682899  0.40790506  1
  Al  Al61  1  0.58537610  0.42081812  0.91688549  1
  Al  Al62  1  0.59006762  0.91018601  0.40564022  1
  Al  Al63  1  0.57720441  0.91573397  0.90912181  1
  Al  Al64  1  0.07311696  0.09035474  0.41494898  1
  Al  Al65  1  0.07441517  0.08709522  0.90435689  1
  Al  Al66  1  0.07709559  0.57837407  0.41857001  1
  Al  Al67  1  0.08384986  0.58238296  0.92158145  1
  Al  Al68  1  0.58790665  0.07867468  0.40191544  1
  Al  Al69  1  0.58004233  0.07717200  0.91918520  1
  Al  Al70  1  0.58548975  0.58036462  0.40356068  1
  Al  Al71  1  0.58682760  0.58000504  0.91590093  1
  Al  Al72  1  0.42688192  0.40687080  0.41323209  1
  Al  Al73  1  0.42153423  0.42043311  0.92373669  1
  Al  Al74  1  0.42686757  0.90660833  0.42277827  1
  Al  Al75  1  0.41939579  0.90866386  0.90929751  1
  Al  Al76  1  0.92263102  0.41813310  0.41260686  1
  Al  Al77  1  0.91182408  0.42439931  0.90582313  1
  Al  Al78  1  0.90652471  0.92624320  0.40965540  1
  Al  Al79  1  0.91619912  0.91947404  0.92482335  1
  Al  Al80  1  0.08024778  0.42797932  0.08203983  1
  Al  Al81  1  0.08926118  0.41615422  0.58550011  1
  Al  Al82  1  0.07326809  0.91744149  0.07773076  1
  Al  Al83  1  0.08401441  0.91679822  0.58615154  1
  Al  Al84  1  0.57669394  0.41392588  0.08530604  1
  Al  Al85  1  0.58710389  0.41908014  0.58415810  1
  Al  Al86  1  0.58597956  0.92206838  0.09717888  1
  Al  Al87  1  0.57875120  0.91241186  0.56857286  1
  Al  Al88  1  0.42949882  0.08899200  0.09169707  1
  Al  Al89  1  0.41256862  0.07997549  0.59621776  1
  Al  Al90  1  0.41490068  0.59097518  0.08738798  1
  Al  Al91  1  0.41506168  0.58179953  0.58408259  1
  Al  Al92  1  0.90713680  0.07643799  0.09230249  1
  Al  Al93  1  0.92278385  0.08351309  0.59028840  1
  Al  Al94  1  0.91645222  0.59824071  0.08088533  1
  Al  Al95  1  0.90677563  0.57901217  0.58799854  1
  Al  Al96  1  0.24927569  0.13336628  0.13773673  1
  Al  Al97  1  0.25338964  0.13276449  0.63223118  1
  Al  Al98  1  0.25211497  0.63804060  0.13510824  1
  Al  Al99  1  0.25088120  0.63602263  0.63443687  1
  Al  Al100  1  0.74950639  0.13020013  0.13992411  1
  Al  Al101  1  0.74901952  0.13830248  0.63423843  1
  Al  Al102  1  0.75425846  0.63582479  0.12984589  1
  Al  Al103  1  0.74713140  0.63181726  0.63544442  1
  Al  Al104  1  0.25076973  0.36113120  0.13778405  1
  Al  Al105  1  0.25307925  0.36116296  0.63629749  1
  Al  Al106  1  0.25580314  0.86221769  0.13715012  1
  Al  Al107  1  0.25280620  0.87014287  0.63263202  1
  Al  Al108  1  0.74748102  0.36692238  0.13900179  1
  Al  Al109  1  0.74983969  0.36482146  0.63697451  1
  Al  Al110  1  0.74721205  0.86562858  0.13928049  1
  Al  Al111  1  0.74663860  0.86234214  0.63735058  1
  Al  Al112  1  0.25338346  0.13471827  0.37203516  1
  Al  Al113  1  0.25634481  0.13415899  0.86023629  1
  Al  Al114  1  0.25306193  0.63905149  0.36145849  1
  Al  Al115  1  0.25166023  0.63421931  0.86298685  1
  Al  Al116  1  0.74775530  0.13027913  0.36563453  1
  Al  Al117  1  0.74953192  0.13752876  0.86304911  1
  Al  Al118  1  0.74619820  0.62959683  0.36257979  1
  Al  Al119  1  0.74999371  0.63256989  0.86888755  1
  Al  Al120  1  0.25098190  0.36248602  0.36464404  1
  Al  Al121  1  0.25105403  0.36330320  0.86014783  1
  Al  Al122  1  0.25311614  0.86528895  0.37131945  1
  Al  Al123  1  0.25405104  0.86819087  0.86150192  1
  Al  Al124  1  0.74917639  0.37166070  0.36365378  1
  Al  Al125  1  0.75208299  0.36430108  0.86039015  1
  Al  Al126  1  0.74810136  0.86959524  0.36320423  1
  Al  Al127  1  0.75142893  0.86432545  0.86280746  1
  Al  Al128  1  0.13131561  0.24593715  0.13657200  1
  Al  Al129  1  0.13349418  0.24722184  0.63529249  1
  Al  Al130  1  0.13076412  0.75013846  0.13507426  1
  Al  Al131  1  0.13754422  0.75309453  0.63295297  1
  Al  Al132  1  0.63622442  0.24694644  0.13989420  1
  Al  Al133  1  0.62993359  0.25009875  0.63547720  1
  Al  Al134  1  0.63429980  0.74394511  0.13768759  1
  Al  Al135  1  0.63460969  0.75328331  0.63320796  1
  Al  Al136  1  0.13539110  0.24680501  0.36503074  1
  Al  Al137  1  0.13159350  0.24442061  0.85960827  1
  Al  Al138  1  0.13709929  0.75140761  0.36514345  1
  Al  Al139  1  0.13536072  0.74785379  0.86291389  1
  Al  Al140  1  0.63483525  0.24833989  0.36278588  1
  Al  Al141  1  0.63142021  0.25155980  0.86255919  1
  Al  Al142  1  0.63645005  0.75608096  0.36677297  1
  Al  Al143  1  0.63835312  0.74802592  0.86694700  1
  Al  Al144  1  0.36589445  0.24590784  0.13794601  1
  Al  Al145  1  0.37064006  0.24663171  0.63209657  1
  Al  Al146  1  0.37124724  0.74475531  0.13504181  1
  Al  Al147  1  0.36531743  0.75644980  0.63360141  1
  Al  Al148  1  0.86383879  0.24885320  0.14233822  1
  Al  Al149  1  0.87153550  0.24839513  0.63692876  1
  Al  Al150  1  0.86726355  0.75008106  0.13973364  1
  Al  Al151  1  0.86221924  0.74633193  0.63746836  1
  Al  Al152  1  0.36660471  0.24977074  0.37095103  1
  Al  Al153  1  0.37286796  0.24581620  0.86114145  1
  Al  Al154  1  0.36871858  0.75397917  0.36436714  1
  Al  Al155  1  0.36461165  0.75263897  0.86053807  1
  Al  Al156  1  0.86240806  0.24773871  0.36356552  1
  Al  Al157  1  0.86958259  0.24470667  0.86092022  1
  Al  Al158  1  0.85886527  0.75094615  0.36289664  1
  Al  Al159  1  0.86290133  0.74522150  0.86604302  1
  Al  Al160  1  0.13432923  0.13350765  0.25365234  1
  Al  Al161  1  0.13368747  0.13487215  0.74540750  1
  Al  Al162  1  0.13542232  0.63799814  0.24594327  1
  Al  Al163  1  0.13233668  0.63621468  0.74518742  1
  Al  Al164  1  0.63672993  0.12919402  0.25032080  1
  Al  Al165  1  0.63004613  0.13740866  0.74930606  1
  Al  Al166  1  0.63606999  0.63278510  0.25071493  1
  Al  Al167  1  0.63556376  0.63278366  0.74803614  1
  Al  Al168  1  0.36531934  0.13209552  0.25293001  1
  Al  Al169  1  0.37153538  0.13152986  0.74573854  1
  Al  Al170  1  0.36934627  0.63675454  0.24805539  1
  Al  Al171  1  0.36498136  0.63553643  0.74989121  1
  Al  Al172  1  0.86004255  0.12716255  0.25268927  1
  Al  Al173  1  0.86654523  0.13470757  0.75102038  1
  Al  Al174  1  0.86249786  0.63235624  0.24954495  1
  Al  Al175  1  0.86200558  0.62871889  0.75026790  1
  Al  Al176  1  0.13602441  0.36308581  0.24846365  1
  Al  Al177  1  0.13396386  0.36553331  0.74517221  1
  Al  Al178  1  0.13671969  0.86703103  0.24638888  1
  Al  Al179  1  0.13574677  0.86466603  0.74955817  1
  Al  Al180  1  0.63079188  0.36767792  0.25746644  1
  Al  Al181  1  0.62903655  0.36635199  0.74630883  1
  Al  Al182  1  0.63515231  0.86838145  0.25203894  1
  Al  Al183  1  0.62679299  0.86048820  0.75223053  1
  Al  Al184  1  0.36784714  0.36213763  0.25357128  1
  Al  Al185  1  0.37284391  0.36049046  0.74782336  1
  Al  Al186  1  0.36815551  0.86698935  0.25352890  1
  Al  Al187  1  0.36883284  0.86735616  0.74551340  1
  Al  Al188  1  0.86259881  0.37140771  0.25076230  1
  Al  Al189  1  0.86645456  0.36680018  0.74844149  1
  Al  Al190  1  0.86161328  0.86970368  0.24869988  1
  Al  Al191  1  0.86389087  0.86211253  0.75249006  1
  Al  Al192  1  0.82479965  -0.00087543  0.68146869  1
  Al  Al193  1  0.32801909  0.32020033  -0.00019078  1
  Al  Al194  1  0.18076307  0.50093141  0.81183581  1
  Al  Al195  1  0.81294994  0.83422330  0.50020661  1
  Al  Al196  1  0.18295899  0.00161992  0.82224738  1
  Al  Al197  1  -0.00231196  0.82967182  0.32116225  1
  Al  Al198  1  0.50207158  0.80984421  0.19184468  1
  Al  Al199  1  -0.00076111  0.67316488  0.31698490  1
  Al  Al200  1  0.31981192  0.49927790  0.17329181  1
  Al  Al201  1  -0.00389690  0.17728649  0.18982497  1
  Al  Al202  1  0.83033584  0.32308824  -0.00169475  1
  Al  Al203  1  0.17784209  0.00034916  0.32664068  1
  Al  Al204  1  0.82499288  0.81495880  0.00206467  1
  Al  Al205  1  0.82669418  0.16982203  0.50252984  1
  Al  Al206  1  0.82921666  0.32582114  0.50134613  1
  Al  Al207  1  0.17344364  0.82753068  -0.00134122  1
  Al  Al208  1  0.67967778  -0.00015496  0.82430272  1
  Al  Al209  1  0.66508366  -0.00140112  0.67302030  1
  Al  Al210  1  0.67059224  0.82480077  0.00287057  1
  Al  Al211  1  0.18426664  0.67532954  -0.00053369  1
  Al  Al212  1  -0.00404715  0.67490836  0.82493789  1
  Al  Al213  1  0.18130448  0.32133530  0.50037883  1
  Al  Al214  1  -0.00029653  0.31264608  0.31900318  1
  Al  Al215  1  0.50100332  0.68864969  0.83092596  1
  Al  Al216  1  0.82485736  0.17412015  0.00322538  1
  Al  Al217  1  0.50347587  0.69147009  0.30992083  1
  Al  Al218  1  0.67293836  0.32428662  0.00127080  1
  Al  Al219  1  0.32686767  0.50114610  0.32824496  1
  Al  Al220  1  0.49956640  0.68015840  0.67472820  1
  Al  Al221  1  0.68857189  0.49935009  0.81051108  1
  Al  Al222  1  0.82277864  0.67649350  0.49906255  1
  Al  Al223  1  0.17050035  0.33009278  -0.00189532  1
  Al  Al224  1  0.17323154  0.67679546  0.49777269  1
  Al  Al225  1  0.67221221  0.32144472  0.49873652  1
  Al  Al226  1  0.31314562  0.49904183  0.68262173  1
  Al  Al227  1  -0.00093916  0.32353828  0.81870908  1
  Al  Al228  1  0.32639649  0.00261847  0.17497424  1
  Al  Al229  1  0.50063152  0.18834771  0.30813213  1
  Al  Al230  1  0.17729382  0.16780270  -0.00197159  1
  Al  Al231  1  0.50046143  0.31032221  0.18841984  1
  Al  Al232  1  -0.00125081  0.81898731  0.68012837  1
  Al  Al233  1  0.67481110  0.49953171  0.18089275  1
  Al  Al234  1  0.67134534  0.17001728  0.00111470  1
  Al  Al235  1  0.17433083  0.49990724  0.32108903  1
  Al  Al236  1  0.32878071  0.80811627  0.00081051  1
  Al  Al237  1  0.32980354  0.68522957  0.49986755  1
  Al  Al238  1  0.66754473  0.68111654  0.49932644  1
  Au  Au239  1  -0.00095579  0.83908978  0.82824812  1
  Au  Au240  1  -0.00176593  0.66601815  0.83342910  1
  Au  Au241  1  0.83761364  0.50702809  0.16712799  1
  Au  Au242  1  0.65478225  0.17201767  0.49610975  1
  Au  Au243  1  0.16817807  0.50663938  0.17044964  1
  Au  Au244  1  0.32970623  0.33546671  0.50064908  1
  Au  Au245  1  0.00361821  0.32377724  0.66522103  1
  Au  Au246  1  0.34614672  0.17248486  0.00299700  1
  Au  Au247  1  0.16186104  0.00231862  0.33210457  1
  Au  Au248  1  0.16003174  0.17371134  0.50050599  1
  Au  Au249  1  -0.00425637  0.16283218  0.18096737  1
  Au  Au250  1  0.82961710  0.00072307  0.83435470  1
  Au  Au251  1  0.34531137  -0.00580339  0.33809797  1
  Au  Au252  1  0.82970369  0.83470640  0.50315210  1
  Au  Au253  1  0.33598955  0.16357828  0.50274222  1
  Au  Au254  1  -0.00221295  0.66936527  0.66062763  1
  Au  Au255  1  0.34021931  0.49819216  0.82925361  1
  Au  Au256  1  0.50387616  0.82327411  0.18106663  1
  Au  Au257  1  0.50283951  0.16178054  0.82332638  1
  Au  Au258  1  0.17668783  0.66491014  0.49600465  1
  Au  Au259  1  0.67141129  0.84046193  -0.00186428  1
  Au  Au260  1  0.16470926  0.50351748  0.81664340  1
  Au  Au261  1  0.17367545  0.00134674  0.66750050  1
  Au  Au262  1  0.66557944  0.66477888  0.49908267  1
  Au  Au263  1  0.17774942  0.34608329  -0.00117830  1
  Au  Au264  1  0.65918690  0.49806994  0.17567158  1
  Au  Au265  1  0.67860021  0.49717874  0.82448348  1
  Au  Au266  1  0.17144901  0.00186813  0.82709119  1
  Au  Au267  1  -0.00338845  0.32361463  0.83134743  1
  Au  Au268  1  -0.00092822  0.34015533  0.17362886  1
  Au  Au269  1  0.82571749  0.50212926  0.33779292  1
  Au  Au270  1  0.82704899  0.33845593  0.50119286  1
  Au  Au271  1  0.17700708  0.83260896  0.50277951  1
  Au  Au272  1  0.49977750  0.67141765  0.83192261  1
  Au  Au273  1  0.50158417  0.32778315  0.66338379  1
  Au  Au274  1  0.49910184  0.83065898  0.66469561  1
  Au  Au275  1  0.83220323  0.15974275  0.49775287  1
  Au  Au276  1  0.33897917  -0.00233273  0.81930416  1
  Au  Au277  1  0.82291133  0.33909490  -0.00272798  1
  Au  Au278  1  -0.00271294  0.82372039  0.33699720  1
  Au  Au279  1  0.17192198  -0.00546694  0.15703335  1
  Au  Au280  1  0.32781760  0.82513293  -0.00204346  1
  Au  Au281  1  -0.00167053  0.82379214  0.16189875  1
  Au  Au282  1  0.16034960  0.16605030  -0.00201363  1
  Au  Au283  1  0.67351451  0.66278617  0.00347133  1
  Au  Au284  1  0.67191822  -0.00123547  0.65765588  1
  Au  Au285  1  0.50050880  0.32943092  0.83631582  1
  Au  Au286  1  0.34106330  0.50233063  0.33621690  1
  Au  Au287  1  0.33518582  0.00076983  0.16617046  1
