# generated using pymatgen
data_Ca24Ti8Al207Au49
_symmetry_space_group_name_H-M   'P 1'
_cell_length_a   17.32015469
_cell_length_b   17.31897387
_cell_length_c   17.31802650
_cell_angle_alpha   90.00163379
_cell_angle_beta   90.00337557
_cell_angle_gamma   90.00063329
_symmetry_Int_Tables_number   1
_chemical_formula_structural   Ca24Ti8Al207Au49
_chemical_formula_sum   'Ca24 Ti8 Al207 Au49'
_cell_volume   5194.84174900
_cell_formula_units_Z   1
loop_
 _symmetry_equiv_pos_site_id
 _symmetry_equiv_pos_as_xyz
  1  'x, y, z'
loop_
 _atom_site_type_symbol
 _atom_site_label
 _atom_site_symmetry_multiplicity
 _atom_site_fract_x
 _atom_site_fract_y
 _atom_site_fract_z
 _atom_site_occupancy
  Ca  Ca0  1  0.24527141  -0.00030756  -0.00120406  1
  Ca  Ca1  1  0.24329864  -0.00456890  0.49945751  1
  Ca  Ca2  1  0.25228439  0.49797969  -0.00371887  1
  Ca  Ca3  1  0.24187980  0.50117811  0.49954889  1
  Ca  Ca4  1  0.75839774  -0.00232511  0.00460705  1
  Ca  Ca5  1  0.75633590  0.00476125  0.49669153  1
  Ca  Ca6  1  0.75508240  0.49966565  0.00180654  1
  Ca  Ca7  1  0.75370598  0.49477369  0.49799669  1
  Ca  Ca8  1  0.00187892  0.24647456  -0.00080148  1
  Ca  Ca9  1  0.00257301  0.24977701  0.49763178  1
  Ca  Ca10  1  -0.00330555  0.75626521  -0.00122398  1
  Ca  Ca11  1  0.00666325  0.75382957  0.49508401  1
  Ca  Ca12  1  0.49893547  0.25027052  0.00020264  1
  Ca  Ca13  1  0.49932444  0.25419509  0.49965543  1
  Ca  Ca14  1  0.50318836  0.74878530  -0.00042385  1
  Ca  Ca15  1  0.49507470  0.75177137  0.50029287  1
  Ca  Ca16  1  0.00328293  -0.00149305  0.25544698  1
  Ca  Ca17  1  0.00297312  0.00091110  0.74709829  1
  Ca  Ca18  1  0.00143817  0.50115096  0.25759354  1
  Ca  Ca19  1  0.00053603  0.50097059  0.75257868  1
  Ca  Ca20  1  0.49784461  0.00167042  0.25201389  1
  Ca  Ca21  1  0.49549324  0.00039114  0.74876481  1
  Ca  Ca22  1  0.49665761  0.49955398  0.25362829  1
  Ca  Ca23  1  0.49891658  0.49927481  0.75209885  1
  Ti  Ti24  1  0.24948121  0.25059332  0.25139422  1
  Ti  Ti25  1  0.24776287  0.24844383  0.74999323  1
  Ti  Ti26  1  0.24910732  0.74805315  0.25074599  1
  Ti  Ti27  1  0.24649812  0.75088751  0.74952271  1
  Ti  Ti28  1  0.74995668  0.24919310  0.25075012  1
  Ti  Ti29  1  0.75216119  0.25049706  0.75027391  1
  Ti  Ti30  1  0.75145227  0.75056950  0.25090398  1
  Ti  Ti31  1  0.75479499  0.75109761  0.74940628  1
  Al  Al32  1  0.08774366  0.07470407  0.08673417  1
  Al  Al33  1  0.09021253  0.08811145  0.58777206  1
  Al  Al34  1  0.07721100  0.59037568  0.09561576  1
  Al  Al35  1  0.09037323  0.60039858  0.57604309  1
  Al  Al36  1  0.58787068  0.08003976  0.09098736  1
  Al  Al37  1  0.57500299  0.08352921  0.56922547  1
  Al  Al38  1  0.57907912  0.58653005  0.09366818  1
  Al  Al39  1  0.57331924  0.57688640  0.58473091  1
  Al  Al40  1  0.41975139  0.42016675  0.07980420  1
  Al  Al41  1  0.42295390  0.41843435  0.58096767  1
  Al  Al42  1  0.41939837  0.92586740  0.08905593  1
  Al  Al43  1  0.40261363  0.90838311  0.58361404  1
  Al  Al44  1  0.92445831  0.41978852  0.08592130  1
  Al  Al45  1  0.91500816  0.40954932  0.57316834  1
  Al  Al46  1  0.90991271  0.90902293  0.08508036  1
  Al  Al47  1  0.92876156  0.91758189  0.57919945  1
  Al  Al48  1  0.41132448  0.07918296  0.41562181  1
  Al  Al49  1  0.41282164  0.08618014  0.92004486  1
  Al  Al50  1  0.41251504  0.58876393  0.41810014  1
  Al  Al51  1  0.41403149  0.57173653  0.90436871  1
  Al  Al52  1  0.92037931  0.07814391  0.41563920  1
  Al  Al53  1  0.91535132  0.07672122  0.90576501  1
  Al  Al54  1  0.92711293  0.58108219  0.40709683  1
  Al  Al55  1  0.92093037  0.58721853  0.92162739  1
  Al  Al56  1  0.08493456  0.41317051  0.40822134  1
  Al  Al57  1  0.09021119  0.41931773  0.90933428  1
  Al  Al58  1  0.08988601  0.90782396  0.40888924  1
  Al  Al59  1  0.07164058  0.91697139  0.90643409  1
  Al  Al60  1  0.59050442  0.41678733  0.41159724  1
  Al  Al61  1  0.57476509  0.41245453  0.90930544  1
  Al  Al62  1  0.57582585  0.92411780  0.41302101  1
  Al  Al63  1  0.58127228  0.91789021  0.92435992  1
  Al  Al64  1  0.08952559  0.08420390  0.41686731  1
  Al  Al65  1  0.07727074  0.08532041  0.90662423  1
  Al  Al66  1  0.08997044  0.59249781  0.41064086  1
  Al  Al67  1  0.08614417  0.57952687  0.90752083  1
  Al  Al68  1  0.58929036  0.08393103  0.41291920  1
  Al  Al69  1  0.57725768  0.08214416  0.92338440  1
  Al  Al70  1  0.58210812  0.57405805  0.40499349  1
  Al  Al71  1  0.57261961  0.57341362  0.91719850  1
  Al  Al72  1  0.42219780  0.42328533  0.41946037  1
  Al  Al73  1  0.41371749  0.41293116  0.90231818  1
  Al  Al74  1  0.40696336  0.91373675  0.41934775  1
  Al  Al75  1  0.42001838  0.92430381  0.91497096  1
  Al  Al76  1  0.91512836  0.40797525  0.41053738  1
  Al  Al77  1  0.92735067  0.42145879  0.91877042  1
  Al  Al78  1  0.92470875  0.91390611  0.40749525  1
  Al  Al79  1  0.91057021  0.91237203  0.90912152  1
  Al  Al80  1  0.08189036  0.41963206  0.08624292  1
  Al  Al81  1  0.07897484  0.41893132  0.57655181  1
  Al  Al82  1  0.08312379  0.91860335  0.09434527  1
  Al  Al83  1  0.09346380  0.91408639  0.58507913  1
  Al  Al84  1  0.57900131  0.42355180  0.08102129  1
  Al  Al85  1  0.58211510  0.41282077  0.58001900  1
  Al  Al86  1  0.59099337  0.92255508  0.09236826  1
  Al  Al87  1  0.56256536  0.91081342  0.58649539  1
  Al  Al88  1  0.41137636  0.08491542  0.08295761  1
  Al  Al89  1  0.41089024  0.07476906  0.58033532  1
  Al  Al90  1  0.42385725  0.58476004  0.09400695  1
  Al  Al91  1  0.41140245  0.58923703  0.58185984  1
  Al  Al92  1  0.91563547  0.06951410  0.08497718  1
  Al  Al93  1  0.92916773  0.09218124  0.58740070  1
  Al  Al94  1  0.91953802  0.59540907  0.08685593  1
  Al  Al95  1  0.93308989  0.58582133  0.58650518  1
  Al  Al96  1  0.24671173  0.12981270  0.13882510  1
  Al  Al97  1  0.24207560  0.13132640  0.63347457  1
  Al  Al98  1  0.24406797  0.62631723  0.14028678  1
  Al  Al99  1  0.24330015  0.63797605  0.63400844  1
  Al  Al100  1  0.75130917  0.13069174  0.13632136  1
  Al  Al101  1  0.75273098  0.13521397  0.63693405  1
  Al  Al102  1  0.75364512  0.63329959  0.13945969  1
  Al  Al103  1  0.75338460  0.64108914  0.63435439  1
  Al  Al104  1  0.24777805  0.37420154  0.13793201  1
  Al  Al105  1  0.24581383  0.36556915  0.63681152  1
  Al  Al106  1  0.24452917  0.86800856  0.13850226  1
  Al  Al107  1  0.24812683  0.86136486  0.63395782  1
  Al  Al108  1  0.74861379  0.36753292  0.13507844  1
  Al  Al109  1  0.75181179  0.36281416  0.62987894  1
  Al  Al110  1  0.75606699  0.86745745  0.13865197  1
  Al  Al111  1  0.75756461  0.86335819  0.63832311  1
  Al  Al112  1  0.24058645  0.13148979  0.36855176  1
  Al  Al113  1  0.24393772  0.12891383  0.86252341  1
  Al  Al114  1  0.24570170  0.62914186  0.36567269  1
  Al  Al115  1  0.24370226  0.63407974  0.86246318  1
  Al  Al116  1  0.75049781  0.13478748  0.36433321  1
  Al  Al117  1  0.75756252  0.13503065  0.86342356  1
  Al  Al118  1  0.75284164  0.63645093  0.36229021  1
  Al  Al119  1  0.75367670  0.63862723  0.85914687  1
  Al  Al120  1  0.24754621  0.37086198  0.36493903  1
  Al  Al121  1  0.24990536  0.36556508  0.86469696  1
  Al  Al122  1  0.24815734  0.86316137  0.36463193  1
  Al  Al123  1  0.24460573  0.86981124  0.86175276  1
  Al  Al124  1  0.74976649  0.36352612  0.36984389  1
  Al  Al125  1  0.75111992  0.36133029  0.86806111  1
  Al  Al126  1  0.74930588  0.86413196  0.36213015  1
  Al  Al127  1  0.76003224  0.86623539  0.86548947  1
  Al  Al128  1  0.14021256  0.25315175  0.13627430  1
  Al  Al129  1  0.12929093  0.24266531  0.63475633  1
  Al  Al130  1  0.13489479  0.74686823  0.13659195  1
  Al  Al131  1  0.12784211  0.74994604  0.63472933  1
  Al  Al132  1  0.63707808  0.24697709  0.13563681  1
  Al  Al133  1  0.63586893  0.25136819  0.63571948  1
  Al  Al134  1  0.63920198  0.74986531  0.13795183  1
  Al  Al135  1  0.62916173  0.75289353  0.63634322  1
  Al  Al136  1  0.13497702  0.25201228  0.36288971  1
  Al  Al137  1  0.13110802  0.24633793  0.86393556  1
  Al  Al138  1  0.13183092  0.74688369  0.36381601  1
  Al  Al139  1  0.12833425  0.75316780  0.86439935  1
  Al  Al140  1  0.63507550  0.24827927  0.36390508  1
  Al  Al141  1  0.63050611  0.25165792  0.86441059  1
  Al  Al142  1  0.63403668  0.74739160  0.36262964  1
  Al  Al143  1  0.63851288  0.75415378  0.86418783  1
  Al  Al144  1  0.36058857  0.25073809  0.13707624  1
  Al  Al145  1  0.35946720  0.24885973  0.63668522  1
  Al  Al146  1  0.36134524  0.74545602  0.13714324  1
  Al  Al147  1  0.36768001  0.75132143  0.63486373  1
  Al  Al148  1  0.86125196  0.25350303  0.13309809  1
  Al  Al149  1  0.86906650  0.24802616  0.63562665  1
  Al  Al150  1  0.86619576  0.75140066  0.13526950  1
  Al  Al151  1  0.87504143  0.75164198  0.63620280  1
  Al  Al152  1  0.36007734  0.24553884  0.36403862  1
  Al  Al153  1  0.36731912  0.25227440  0.86308025  1
  Al  Al154  1  0.36185819  0.74884691  0.36496580  1
  Al  Al155  1  0.36048111  0.75176489  0.86267134  1
  Al  Al156  1  0.86570876  0.25488798  0.36595936  1
  Al  Al157  1  0.87252144  0.24801128  0.86495542  1
  Al  Al158  1  0.87058556  0.75046349  0.36215466  1
  Al  Al159  1  0.87362985  0.75216670  0.86373510  1
  Al  Al160  1  0.13526639  0.13059538  0.25207212  1
  Al  Al161  1  0.13208893  0.12992543  0.74790944  1
  Al  Al162  1  0.13073712  0.63307820  0.25492491  1
  Al  Al163  1  0.12702899  0.63950750  0.75043373  1
  Al  Al164  1  0.63245627  0.13009360  0.24909611  1
  Al  Al165  1  0.63528721  0.13542739  0.75561321  1
  Al  Al166  1  0.62989080  0.63552452  0.25090521  1
  Al  Al167  1  0.63627910  0.63595031  0.74565151  1
  Al  Al168  1  0.36765864  0.13429773  0.24879215  1
  Al  Al169  1  0.36306577  0.13511619  0.75308400  1
  Al  Al170  1  0.36526041  0.63132457  0.25397467  1
  Al  Al171  1  0.36128949  0.63599713  0.74771368  1
  Al  Al172  1  0.86384252  0.13567501  0.25003600  1
  Al  Al173  1  0.87052344  0.13541397  0.74980714  1
  Al  Al174  1  0.87235690  0.63874923  0.24971492  1
  Al  Al175  1  0.87419980  0.63882405  0.74910163  1
  Al  Al176  1  0.13496980  0.37155198  0.25490421  1
  Al  Al177  1  0.13408338  0.36438086  0.75310841  1
  Al  Al178  1  0.13197897  0.86443013  0.25544226  1
  Al  Al179  1  0.13076871  0.86722561  0.74602859  1
  Al  Al180  1  0.63559556  0.36444955  0.25432616  1
  Al  Al181  1  0.63780207  0.36308101  0.74995266  1
  Al  Al182  1  0.63702684  0.87099945  0.24693422  1
  Al  Al183  1  0.64006270  0.86627146  0.75007320  1
  Al  Al184  1  0.36298899  0.37032969  0.25113623  1
  Al  Al185  1  0.36388391  0.36543442  0.75452341  1
  Al  Al186  1  0.36302290  0.86623549  0.24719139  1
  Al  Al187  1  0.36415041  0.86526520  0.74717053  1
  Al  Al188  1  0.86532954  0.36571053  0.25275405  1
  Al  Al189  1  0.86806796  0.36275221  0.74855374  1
  Al  Al190  1  0.86898639  0.86638437  0.25085037  1
  Al  Al191  1  0.87707082  0.86587333  0.75343905  1
  Al  Al192  1  0.16848908  0.50307644  0.68394075  1
  Al  Al193  1  0.83260924  0.00036418  0.68216363  1
  Al  Al194  1  0.17690464  0.32259660  0.00145614  1
  Al  Al195  1  0.49957768  0.67344058  0.81788951  1
  Al  Al196  1  0.31497367  0.18147979  -0.00033742  1
  Al  Al197  1  0.49844265  0.32599206  0.68461206  1
  Al  Al198  1  0.50079455  0.81372120  0.16789726  1
  Al  Al199  1  0.00098133  0.81342634  0.18610418  1
  Al  Al200  1  0.82792979  0.17112715  -0.00199354  1
  Al  Al201  1  0.00146722  0.32400518  0.18876642  1
  Al  Al202  1  0.69264419  0.82712980  0.00300263  1
  Al  Al203  1  0.68738269  -0.00041303  0.83013258  1
  Al  Al204  1  0.67036131  0.67075882  -0.00160171  1
  Al  Al205  1  0.16980036  0.67479958  0.00114885  1
  Al  Al206  1  0.83423410  0.67034641  0.49780850  1
  Al  Al207  1  0.31164868  0.17432972  0.50069637  1
  Al  Al208  1  0.66787680  0.00036987  0.66832259  1
  Al  Al209  1  0.67892366  0.18120669  0.50088573  1
  Al  Al210  1  0.82439245  0.50094565  0.66973437  1
  Al  Al211  1  0.49965056  0.32211742  0.17502507  1
  Al  Al212  1  -0.00008696  0.18407909  0.32817910  1
  Al  Al213  1  0.31109282  -0.00119873  0.67863761  1
  Al  Al214  1  0.32629777  0.32962190  0.50010971  1
  Al  Al215  1  0.18716318  0.81017094  0.49896705  1
  Al  Al216  1  0.30602254  0.69265786  0.50054274  1
  Al  Al217  1  0.81722034  0.50018277  0.32170665  1
  Al  Al218  1  0.67013672  0.66674562  0.49928298  1
  Al  Al219  1  0.49755872  0.32217834  0.32774854  1
  Al  Al220  1  0.00082263  0.32274416  0.67658104  1
  Al  Al221  1  0.31904001  0.83029367  0.00198308  1
  Al  Al222  1  0.17416021  0.31564011  0.50007225  1
  Al  Al223  1  0.82457836  0.68650757  -0.00109449  1
  Al  Al224  1  0.50135208  0.83112145  0.81446944  1
  Al  Al225  1  0.66834997  0.83021045  0.50117248  1
  Al  Al226  1  0.82111886  -0.00047029  0.31527290  1
  Al  Al227  1  0.31186075  -0.00108213  0.32077446  1
  Al  Al228  1  0.83222706  0.17927210  0.49951689  1
  Al  Al229  1  0.82839522  0.50078922  0.82724191  1
  Al  Al230  1  0.67363541  0.32740139  -0.00085261  1
  Al  Al231  1  0.67821892  0.50045019  0.18859427  1
  Al  Al232  1  0.49779107  0.81957800  0.32618677  1
  Al  Al233  1  0.82810407  0.82830947  0.49809697  1
  Al  Al234  1  0.00022042  0.17458012  0.16929244  1
  Al  Al235  1  0.32873395  0.66722619  -0.00280690  1
  Al  Al236  1  0.67444508  0.49986556  0.82372532  1
  Al  Al237  1  0.32441375  0.49842701  0.68539323  1
  Al  Al238  1  0.49814948  0.16991355  0.67788057  1
  Au  Au239  1  0.33136807  0.00298460  0.82503483  1
  Au  Au240  1  0.84358484  0.50472058  0.17470257  1
  Au  Au241  1  -0.00015354  0.16075437  0.17770665  1
  Au  Au242  1  0.16248915  -0.00226638  0.82006255  1
  Au  Au243  1  0.33164344  0.84148407  0.00176269  1
  Au  Au244  1  0.00096328  0.32507136  0.83016329  1
  Au  Au245  1  0.65846849  0.49549653  0.67598990  1
  Au  Au246  1  0.84659151  0.67382754  0.49739256  1
  Au  Au247  1  0.15717357  0.83815065  -0.00299622  1
  Au  Au248  1  0.67164222  0.84649810  0.50341470  1
  Au  Au249  1  0.66328214  0.33447470  -0.00084721  1
  Au  Au250  1  0.33285433  0.49978291  0.17079214  1
  Au  Au251  1  0.16599869  0.66337159  -0.00231212  1
  Au  Au252  1  0.49909101  0.67616133  0.66763865  1
  Au  Au253  1  0.49856680  0.17276069  0.33848010  1
  Au  Au254  1  0.68045494  0.83906111  0.00529091  1
  Au  Au255  1  0.49888817  0.17771693  0.83934382  1
  Au  Au256  1  0.32083374  0.00215753  0.17392998  1
  Au  Au257  1  0.33812781  0.49573429  0.67584488  1
  Au  Au258  1  0.32371845  0.49880755  0.33874570  1
  Au  Au259  1  0.65251533  0.00099756  0.66430781  1
  Au  Au260  1  0.66227156  0.49870783  0.18359336  1
  Au  Au261  1  0.31655574  0.67898610  0.50076162  1
  Au  Au262  1  0.67216628  0.00134885  0.83813976  1
  Au  Au263  1  0.67330715  0.16153190  0.00236786  1
  Au  Au264  1  0.15636391  0.50485186  0.67230486  1
  Au  Au265  1  0.00344321  0.82738833  0.66945854  1
  Au  Au266  1  0.67549831  0.33032976  0.49926936  1
  Au  Au267  1  0.32360982  0.16936462  0.50064073  1
  Au  Au268  1  0.50143559  0.82973586  0.17444264  1
  Au  Au269  1  0.49923725  0.17285119  0.16370396  1
  Au  Au270  1  0.84210562  0.00092408  0.66863979  1
  Au  Au271  1  0.83714215  0.33592189  -0.00033196  1
  Au  Au272  1  0.84121790  0.50262592  0.67135498  1
  Au  Au273  1  0.49777000  0.17635447  0.66213142  1
  Au  Au274  1  0.34610192  0.66451455  -0.00381063  1
  Au  Au275  1  -0.00045104  0.82761714  0.17737105  1
  Au  Au276  1  -0.00017630  0.67090805  0.82714283  1
  Au  Au277  1  0.49916843  0.66797796  0.32618488  1
  Au  Au278  1  0.67019350  0.65137126  0.49562846  1
  Au  Au279  1  0.67190821  -0.00031860  0.32057664  1
  Au  Au280  1  0.83276658  0.16075385  0.00276963  1
  Au  Au281  1  0.67199388  0.65421660  -0.00505716  1
  Au  Au282  1  0.16895967  0.15852132  -0.00154359  1
  Au  Au283  1  0.16112761  0.50227047  0.17940255  1
  Au  Au284  1  0.34040383  0.32832593  -0.00267768  1
  Au  Au285  1  -0.00116518  0.32115871  0.66416185  1
  Au  Au286  1  0.16842400  0.33174298  -0.00047933  1
  Au  Au287  1  0.50142843  0.82498375  0.83082075  1
