# generated using pymatgen
data_Ca24Ti8Al207Au49
_symmetry_space_group_name_H-M   'P 1'
_cell_length_a   17.31561253
_cell_length_b   17.31642074
_cell_length_c   17.31700557
_cell_angle_alpha   90.00008366
_cell_angle_beta   89.99782336
_cell_angle_gamma   89.99698236
_symmetry_Int_Tables_number   1
_chemical_formula_structural   Ca24Ti8Al207Au49
_chemical_formula_sum   'Ca24 Ti8 Al207 Au49'
_cell_volume   5192.40768636
_cell_formula_units_Z   1
loop_
 _symmetry_equiv_pos_site_id
 _symmetry_equiv_pos_as_xyz
  1  'x, y, z'
loop_
 _atom_site_type_symbol
 _atom_site_label
 _atom_site_symmetry_multiplicity
 _atom_site_fract_x
 _atom_site_fract_y
 _atom_site_fract_z
 _atom_site_occupancy
  Ca  Ca0  1  0.24642151  0.00320451  0.00081987  1
  Ca  Ca1  1  0.24040810  -0.00208672  0.50161510  1
  Ca  Ca2  1  0.24737151  0.49949336  0.00044926  1
  Ca  Ca3  1  0.24361268  0.50303685  0.49692571  1
  Ca  Ca4  1  0.74962328  0.00335753  -0.00034468  1
  Ca  Ca5  1  0.75379233  -0.00026952  0.49886449  1
  Ca  Ca6  1  0.74957605  0.49676653  -0.00188768  1
  Ca  Ca7  1  0.74716813  0.50028258  0.49810468  1
  Ca  Ca8  1  -0.00443905  0.24917855  -0.00143296  1
  Ca  Ca9  1  0.00286260  0.24770457  0.50211489  1
  Ca  Ca10  1  -0.00196566  0.74727332  0.00323985  1
  Ca  Ca11  1  -0.00001655  0.74808731  0.49628727  1
  Ca  Ca12  1  0.50660792  0.24927999  0.00468262  1
  Ca  Ca13  1  0.49903514  0.25531950  0.49795011  1
  Ca  Ca14  1  0.49950106  0.74739824  0.00339868  1
  Ca  Ca15  1  0.49946854  0.74446122  0.49837063  1
  Ca  Ca16  1  -0.00071688  0.00566324  0.24548505  1
  Ca  Ca17  1  0.00495340  0.00477973  0.74757797  1
  Ca  Ca18  1  0.00101290  0.50100150  0.25231590  1
  Ca  Ca19  1  -0.00084608  0.49783241  0.75166596  1
  Ca  Ca20  1  0.50215205  0.00037895  0.24431989  1
  Ca  Ca21  1  0.49912819  -0.00054199  0.75379767  1
  Ca  Ca22  1  0.50111201  0.49928835  0.25171063  1
  Ca  Ca23  1  0.50617916  0.49948064  0.75263112  1
  Ti  Ti24  1  0.25015084  0.25181733  0.24835491  1
  Ti  Ti25  1  0.24714901  0.24869760  0.74912455  1
  Ti  Ti26  1  0.24706445  0.74786911  0.24902940  1
  Ti  Ti27  1  0.24966088  0.74915963  0.75086926  1
  Ti  Ti28  1  0.74868933  0.25004497  0.24828162  1
  Ti  Ti29  1  0.75261969  0.25121285  0.75076268  1
  Ti  Ti30  1  0.75249732  0.75046182  0.24691783  1
  Ti  Ti31  1  0.75069462  0.74828792  0.75305942  1
  Al  Al32  1  0.09249097  0.08943669  0.08883207  1
  Al  Al33  1  0.08625229  0.08424126  0.58555060  1
  Al  Al34  1  0.08877886  0.58969978  0.08293587  1
  Al  Al35  1  0.08616382  0.58468577  0.57333621  1
  Al  Al36  1  0.59420006  0.08070888  0.09161548  1
  Al  Al37  1  0.57697674  0.07469138  0.57715636  1
  Al  Al38  1  0.58628408  0.57919746  0.08383700  1
  Al  Al39  1  0.58858706  0.57815675  0.59169958  1
  Al  Al40  1  0.41720432  0.41951000  0.08888048  1
  Al  Al41  1  0.41991443  0.42315404  0.58133323  1
  Al  Al42  1  0.42438361  0.92455750  0.08296728  1
  Al  Al43  1  0.41184353  0.91893757  0.58341491  1
  Al  Al44  1  0.91153894  0.41283875  0.07016820  1
  Al  Al45  1  0.92373082  0.41522691  0.59865975  1
  Al  Al46  1  0.92047249  0.91639369  0.08196616  1
  Al  Al47  1  0.91497191  0.92286595  0.58582807  1
  Al  Al48  1  0.42717646  0.08316202  0.41254282  1
  Al  Al49  1  0.40046514  0.08537207  0.91953527  1
  Al  Al50  1  0.41782195  0.58011633  0.41779356  1
  Al  Al51  1  0.42530702  0.59343072  0.91460381  1
  Al  Al52  1  0.92540986  0.08678068  0.41380691  1
  Al  Al53  1  0.91410177  0.09193997  0.92382736  1
  Al  Al54  1  0.92291583  0.58967403  0.40640819  1
  Al  Al55  1  0.91436566  0.57169542  0.91354444  1
  Al  Al56  1  0.09251509  0.41844208  0.42040608  1
  Al  Al57  1  0.07281723  0.41574207  0.90917704  1
  Al  Al58  1  0.08121723  0.91109919  0.41007057  1
  Al  Al59  1  0.07961636  0.91907653  0.91456363  1
  Al  Al60  1  0.58389766  0.41589839  0.40704935  1
  Al  Al61  1  0.59369446  0.41579816  0.91560799  1
  Al  Al62  1  0.60193736  0.91859758  0.41091504  1
  Al  Al63  1  0.58236498  0.90988761  0.93421904  1
  Al  Al64  1  0.08321225  0.08990186  0.41080243  1
  Al  Al65  1  0.09135911  0.09155527  0.92331793  1
  Al  Al66  1  0.08793595  0.59178779  0.40911683  1
  Al  Al67  1  0.08702024  0.57990778  0.92177526  1
  Al  Al68  1  0.58560680  0.07773227  0.39802322  1
  Al  Al69  1  0.58184716  0.08745703  0.93486603  1
  Al  Al70  1  0.58366769  0.57562766  0.41178239  1
  Al  Al71  1  0.58767119  0.58489731  0.90485129  1
  Al  Al72  1  0.42122146  0.41332324  0.40823024  1
  Al  Al73  1  0.42949458  0.41982415  0.92468415  1
  Al  Al74  1  0.42096545  0.92399686  0.42428991  1
  Al  Al75  1  0.41099155  0.92578340  0.91388755  1
  Al  Al76  1  0.92310147  0.42863989  0.41769627  1
  Al  Al77  1  0.90910109  0.40857795  0.90821160  1
  Al  Al78  1  0.92291523  0.91273446  0.41185270  1
  Al  Al79  1  0.92097803  0.91249273  0.91908450  1
  Al  Al80  1  0.07943091  0.42246142  0.08027849  1
  Al  Al81  1  0.08576387  0.40313202  0.58399976  1
  Al  Al82  1  0.08681350  0.92519950  0.09096507  1
  Al  Al83  1  0.08621920  0.92218992  0.58344036  1
  Al  Al84  1  0.59117649  0.41314541  0.08289270  1
  Al  Al85  1  0.58697751  0.42253110  0.58450791  1
  Al  Al86  1  0.59370278  0.91673239  0.09267384  1
  Al  Al87  1  0.59270933  0.91076104  0.57008611  1
  Al  Al88  1  0.40890185  0.08733752  0.08027079  1
  Al  Al89  1  0.41631687  0.07686607  0.58603706  1
  Al  Al90  1  0.41411160  0.57974748  0.08444620  1
  Al  Al91  1  0.41541326  0.58182001  0.58268005  1
  Al  Al92  1  0.91984801  0.09604265  0.08486382  1
  Al  Al93  1  0.91663365  0.08089019  0.58693562  1
  Al  Al94  1  0.92497518  0.57977775  0.07968823  1
  Al  Al95  1  0.91861975  0.57537086  0.58323595  1
  Al  Al96  1  0.24690942  0.13668901  0.13226669  1
  Al  Al97  1  0.24564716  0.13434932  0.63722370  1
  Al  Al98  1  0.24394240  0.63568403  0.12989031  1
  Al  Al99  1  0.24791270  0.63670730  0.63161474  1
  Al  Al100  1  0.74365573  0.13566999  0.13243876  1
  Al  Al101  1  0.75717014  0.13637929  0.63777282  1
  Al  Al102  1  0.75244116  0.63666143  0.12934125  1
  Al  Al103  1  0.74672300  0.63286133  0.63789523  1
  Al  Al104  1  0.24658801  0.36222837  0.13291536  1
  Al  Al105  1  0.24274736  0.36186580  0.63490219  1
  Al  Al106  1  0.24296106  0.86406332  0.13532273  1
  Al  Al107  1  0.24707015  0.86635412  0.63416769  1
  Al  Al108  1  0.75018140  0.36314420  0.13603193  1
  Al  Al109  1  0.74954266  0.36563509  0.63695641  1
  Al  Al110  1  0.75018150  0.86553386  0.12982154  1
  Al  Al111  1  0.74972237  0.86210985  0.63499368  1
  Al  Al112  1  0.24715556  0.13697467  0.35927552  1
  Al  Al113  1  0.24656419  0.13481398  0.86553118  1
  Al  Al114  1  0.24559855  0.62940035  0.36597070  1
  Al  Al115  1  0.24829936  0.63656224  0.87165704  1
  Al  Al116  1  0.74686708  0.13606438  0.35905602  1
  Al  Al117  1  0.75198038  0.13447646  0.86256622  1
  Al  Al118  1  0.74926545  0.63709411  0.36161843  1
  Al  Al119  1  0.74938388  0.63414250  0.87095861  1
  Al  Al120  1  0.24903290  0.37146194  0.36139297  1
  Al  Al121  1  0.24315808  0.36182574  0.86200244  1
  Al  Al122  1  0.24383947  0.86233280  0.36527464  1
  Al  Al123  1  0.25223477  0.86638763  0.86926265  1
  Al  Al124  1  0.74611808  0.36548779  0.36080817  1
  Al  Al125  1  0.75537965  0.36572913  0.86654741  1
  Al  Al126  1  0.74738441  0.86592201  0.36326249  1
  Al  Al127  1  0.74890976  0.86407495  0.87140583  1
  Al  Al128  1  0.13127107  0.24483613  0.13225813  1
  Al  Al129  1  0.12746909  0.25023328  0.63615972  1
  Al  Al130  1  0.12580012  0.74746276  0.13799133  1
  Al  Al131  1  0.13506174  0.75118094  0.62918422  1
  Al  Al132  1  0.62845595  0.24964384  0.13688126  1
  Al  Al133  1  0.63103981  0.25214612  0.63875668  1
  Al  Al134  1  0.63844590  0.75034501  0.12910541  1
  Al  Al135  1  0.63644883  0.74899256  0.63563238  1
  Al  Al136  1  0.13758937  0.25123244  0.36178708  1
  Al  Al137  1  0.12985745  0.24775767  0.86134060  1
  Al  Al138  1  0.13296241  0.74452321  0.36644954  1
  Al  Al139  1  0.13614523  0.74784962  0.86577796  1
  Al  Al140  1  0.63189607  0.25243240  0.36109756  1
  Al  Al141  1  0.63867734  0.24912577  0.86446716  1
  Al  Al142  1  0.63808932  0.75337400  0.36272633  1
  Al  Al143  1  0.63521379  0.74691084  0.86906782  1
  Al  Al144  1  0.36840623  0.24739992  0.13526134  1
  Al  Al145  1  0.36851846  0.24789284  0.63857334  1
  Al  Al146  1  0.35930900  0.74751187  0.12937340  1
  Al  Al147  1  0.36450675  0.74900143  0.63470306  1
  Al  Al148  1  0.86282959  0.24779103  0.13410138  1
  Al  Al149  1  0.87188961  0.25463574  0.63962776  1
  Al  Al150  1  0.86925568  0.75339674  0.13126021  1
  Al  Al151  1  0.86399414  0.74751174  0.63680252  1
  Al  Al152  1  0.36514965  0.25597152  0.36427167  1
  Al  Al153  1  0.36077138  0.24644471  0.86596270  1
  Al  Al154  1  0.35982973  0.74491103  0.36686643  1
  Al  Al155  1  0.36284794  0.74700364  0.87149000  1
  Al  Al156  1  0.86541537  0.24739032  0.36228289  1
  Al  Al157  1  0.87136763  0.25364073  0.86436454  1
  Al  Al158  1  0.86488307  0.75150997  0.36418184  1
  Al  Al159  1  0.86255065  0.74970213  0.87163524  1
  Al  Al160  1  0.13203577  0.13484806  0.24606206  1
  Al  Al161  1  0.12825916  0.13474622  0.74888699  1
  Al  Al162  1  0.13101233  0.63039403  0.25118528  1
  Al  Al163  1  0.13352935  0.63629970  0.74676279  1
  Al  Al164  1  0.63437438  0.13136446  0.24752587  1
  Al  Al165  1  0.63634501  0.13371578  0.74418125  1
  Al  Al166  1  0.63697220  0.63862647  0.24689380  1
  Al  Al167  1  0.63226289  0.63764187  0.75254690  1
  Al  Al168  1  0.36296953  0.13436519  0.24614325  1
  Al  Al169  1  0.36266667  0.13156118  0.75343641  1
  Al  Al170  1  0.36067278  0.63461000  0.24920706  1
  Al  Al171  1  0.36670077  0.63761508  0.75240388  1
  Al  Al172  1  0.86749845  0.13527024  0.24705677  1
  Al  Al173  1  0.87304902  0.13814796  0.75032723  1
  Al  Al174  1  0.87146445  0.63861388  0.25001430  1
  Al  Al175  1  0.86740130  0.63359229  0.75640903  1
  Al  Al176  1  0.13397361  0.37118987  0.24995140  1
  Al  Al177  1  0.12801415  0.36291627  0.74668270  1
  Al  Al178  1  0.12858234  0.86188227  0.25249934  1
  Al  Al179  1  0.13658756  0.86526497  0.74998990  1
  Al  Al180  1  0.62977668  0.36432210  0.25036810  1
  Al  Al181  1  0.63756922  0.36524719  0.75021226  1
  Al  Al182  1  0.63837816  0.86890948  0.24546391  1
  Al  Al183  1  0.63637289  0.86479063  0.75322937  1
  Al  Al184  1  0.36916675  0.36425277  0.24916373  1
  Al  Al185  1  0.36281973  0.36186070  0.74864203  1
  Al  Al186  1  0.36098750  0.86187524  0.24636220  1
  Al  Al187  1  0.36465142  0.86529085  0.75489117  1
  Al  Al188  1  0.86684380  0.36444417  0.25179738  1
  Al  Al189  1  0.86818295  0.36812964  0.75341078  1
  Al  Al190  1  0.86901286  0.86578747  0.25168728  1
  Al  Al191  1  0.86241942  0.86432592  0.74845763  1
  Al  Al192  1  0.00087654  0.67698419  0.67504781  1
  Al  Al193  1  0.49993222  0.81678467  0.17262768  1
  Al  Al194  1  0.17361902  0.49969298  0.81683993  1
  Al  Al195  1  0.81549107  0.50202900  0.32266091  1
  Al  Al196  1  0.81105971  0.50048765  0.69093760  1
  Al  Al197  1  0.32744786  -0.00144055  0.32539401  1
  Al  Al198  1  0.83175926  -0.00002146  0.81802945  1
  Al  Al199  1  0.17276485  0.18514418  0.49977057  1
  Al  Al200  1  0.31355697  -0.00061960  0.17267926  1
  Al  Al201  1  0.17278329  -0.00025706  0.31291442  1
  Al  Al202  1  0.80927847  0.19172169  -0.00173468  1
  Al  Al203  1  0.49991395  0.81576713  0.82965986  1
  Al  Al204  1  0.67924245  0.49986700  0.18805354  1
  Al  Al205  1  0.17041954  0.31379088  -0.00271477  1
  Al  Al206  1  0.81659703  0.00234633  0.17115738  1
  Al  Al207  1  0.31513990  0.49858075  0.18053235  1
  Al  Al208  1  0.67138546  0.17480471  0.50122968  1
  Al  Al209  1  0.81688556  0.82895981  0.49810864  1
  Al  Al210  1  0.49998822  0.67414092  0.31971280  1
  Al  Al211  1  0.32636954  0.49899813  0.83430291  1
  Al  Al212  1  0.17343207  0.81816360  0.00132896  1
  Al  Al213  1  0.18326383  0.00068856  0.81777833  1
  Al  Al214  1  0.31596648  0.50011402  0.67519299  1
  Al  Al215  1  0.31903421  0.82219585  0.49631561  1
  Al  Al216  1  0.82632354  0.67080028  0.49974776  1
  Al  Al217  1  0.83029743  0.49965886  0.17020339  1
  Al  Al218  1  0.66864107  0.68218811  0.49816101  1
  Al  Al219  1  0.82836930  0.17357325  0.49968065  1
  Al  Al220  1  0.81438380  0.00105813  0.32989239  1
  Al  Al221  1  0.49909906  0.16735324  0.82744768  1
  Al  Al222  1  0.69044904  0.50050538  0.81047508  1
  Al  Al223  1  0.00288441  0.31478825  0.33122132  1
  Al  Al224  1  0.68816148  -0.00034603  0.67081106  1
  Al  Al225  1  -0.00046917  0.81566286  0.81979314  1
  Al  Al226  1  -0.00163659  0.31505987  0.17135220  1
  Al  Al227  1  0.31362530  0.32979737  0.50055046  1
  Al  Al228  1  0.32691419  0.31711007  -0.00034735  1
  Al  Al229  1  0.82577176  0.33171687  0.49819254  1
  Al  Al230  1  0.50268679  0.82169672  0.67208927  1
  Al  Al231  1  0.66737609  0.00025451  0.83163481  1
  Al  Al232  1  0.31104559  -0.00112574  0.68604008  1
  Al  Al233  1  0.32732431  0.16960432  0.49768968  1
  Al  Al234  1  0.49889072  0.83220113  0.32404220  1
  Al  Al235  1  0.67250131  0.32820633  0.49953663  1
  Al  Al236  1  0.50114477  0.32487542  0.82255015  1
  Al  Al237  1  0.68982749  0.31069423  0.00030059  1
  Al  Al238  1  0.49844076  0.18527695  0.31557558  1
  Au  Au239  1  0.33352539  0.83810422  0.00372448  1
  Au  Au240  1  0.16798279  0.50127829  0.17170170  1
  Au  Au241  1  0.32782347  0.83098751  0.49842891  1
  Au  Au242  1  0.82287925  0.50095297  0.67854618  1
  Au  Au243  1  0.67443755  -0.00302999  0.66072711  1
  Au  Au244  1  -0.00023764  0.83851227  0.17969939  1
  Au  Au245  1  0.33009753  0.50045212  0.32713825  1
  Au  Au246  1  0.66210944  0.67263360  -0.00146668  1
  Au  Au247  1  0.50033082  0.16947423  0.66310831  1
  Au  Au248  1  0.83120119  0.00263602  0.33345723  1
  Au  Au249  1  0.32567693  0.66350869  0.00092795  1
  Au  Au250  1  0.66272376  -0.00061147  0.84669665  1
  Au  Au251  1  0.16117549  0.82389601  0.49902424  1
  Au  Au252  1  0.49654804  0.17266370  0.84350521  1
  Au  Au253  1  0.32201138  0.15400158  0.49381844  1
  Au  Au254  1  0.83093966  0.66133549  -0.00086883  1
  Au  Au255  1  0.00119398  0.66763895  0.83989714  1
  Au  Au256  1  0.00388696  0.32957023  0.33802506  1
  Au  Au257  1  0.32444262  0.34220812  0.49958178  1
  Au  Au258  1  0.49928422  0.65651077  0.67903884  1
  Au  Au259  1  0.50422383  0.82778702  0.65561249  1
  Au  Au260  1  0.17134604  0.00125646  0.82970802  1
  Au  Au261  1  0.50092209  0.33690775  0.17789196  1
  Au  Au262  1  0.82479141  0.00461878  0.15715195  1
  Au  Au263  1  0.66917330  0.16267828  0.48979940  1
  Au  Au264  1  0.50182784  0.34169222  0.67332164  1
  Au  Au265  1  0.34139755  0.49943858  0.82646074  1
  Au  Au266  1  0.82575243  0.83253441  -0.00002901  1
  Au  Au267  1  -0.00072644  0.17359457  0.66769364  1
  Au  Au268  1  0.16199249  0.32814652  -0.00636897  1
  Au  Au269  1  0.49848772  0.82725431  0.84212260  1
  Au  Au270  1  -0.00059332  0.66802734  0.17474063  1
  Au  Au271  1  0.00000734  0.67011771  0.66451817  1
  Au  Au272  1  0.83356125  0.82782550  0.50178961  1
  Au  Au273  1  0.49953304  0.66454031  0.16992941  1
  Au  Au274  1  0.32460565  0.66480310  0.49949462  1
  Au  Au275  1  0.84145066  0.33028389  0.50392054  1
  Au  Au276  1  0.15890841  0.82687591  0.00144071  1
  Au  Au277  1  0.66806753  0.66500617  0.49840402  1
  Au  Au278  1  0.16845011  0.00008860  0.32507644  1
  Au  Au279  1  0.00068262  0.17804528  0.83884788  1
  Au  Au280  1  0.84635848  0.00075176  0.82573087  1
  Au  Au281  1  0.16582372  0.49783439  0.66384890  1
  Au  Au282  1  -0.00514082  0.32504685  0.15895205  1
  Au  Au283  1  0.00143094  0.84329859  0.67512232  1
  Au  Au284  1  0.32752901  -0.00155173  0.68067863  1
  Au  Au285  1  0.49945367  0.16489795  0.16788198  1
  Au  Au286  1  0.34339736  0.32157319  0.00056911  1
  Au  Au287  1  0.50489460  0.83072625  0.33926551  1
