# generated using pymatgen
data_Ca24Ti8Al207Au49
_symmetry_space_group_name_H-M   'P 1'
_cell_length_a   17.32148183
_cell_length_b   17.32007482
_cell_length_c   17.31882874
_cell_angle_alpha   89.99649310
_cell_angle_beta   89.99890712
_cell_angle_gamma   89.99616542
_symmetry_Int_Tables_number   1
_chemical_formula_structural   Ca24Ti8Al207Au49
_chemical_formula_sum   'Ca24 Ti8 Al207 Au49'
_cell_volume   5195.81072738
_cell_formula_units_Z   1
loop_
 _symmetry_equiv_pos_site_id
 _symmetry_equiv_pos_as_xyz
  1  'x, y, z'
loop_
 _atom_site_type_symbol
 _atom_site_label
 _atom_site_symmetry_multiplicity
 _atom_site_fract_x
 _atom_site_fract_y
 _atom_site_fract_z
 _atom_site_occupancy
  Ca  Ca0  1  0.25609231  0.00017465  -0.00458510  1
  Ca  Ca1  1  0.24696005  0.00380412  0.50262395  1
  Ca  Ca2  1  0.25105136  0.50300599  -0.00001874  1
  Ca  Ca3  1  0.25011339  0.50029805  0.49974009  1
  Ca  Ca4  1  0.74651436  0.00275408  0.00102150  1
  Ca  Ca5  1  0.75308410  0.00003278  0.49937495  1
  Ca  Ca6  1  0.74311848  0.49790720  0.00026602  1
  Ca  Ca7  1  0.74683673  0.49970412  0.50103048  1
  Ca  Ca8  1  -0.00096791  0.24668177  -0.00502060  1
  Ca  Ca9  1  0.00780086  0.24898566  0.50708764  1
  Ca  Ca10  1  0.00264661  0.74909799  -0.00201422  1
  Ca  Ca11  1  0.00030032  0.74910956  0.50093319  1
  Ca  Ca12  1  0.50366016  0.24750415  0.00207702  1
  Ca  Ca13  1  0.49730836  0.25417444  0.49702874  1
  Ca  Ca14  1  0.49868704  0.74558551  -0.00296753  1
  Ca  Ca15  1  0.49932939  0.74820384  0.50163332  1
  Ca  Ca16  1  -0.00181909  -0.00186778  0.24890958  1
  Ca  Ca17  1  0.00344163  -0.00486286  0.74723998  1
  Ca  Ca18  1  -0.00208872  0.50138101  0.25290058  1
  Ca  Ca19  1  -0.00293983  0.50499113  0.74553305  1
  Ca  Ca20  1  0.50065487  0.00331227  0.24467644  1
  Ca  Ca21  1  0.49751344  0.00075632  0.75287686  1
  Ca  Ca22  1  0.50172525  0.49654945  0.25070990  1
  Ca  Ca23  1  0.50139204  0.50065077  0.74941092  1
  Ti  Ti24  1  0.25212584  0.24943946  0.25111305  1
  Ti  Ti25  1  0.25148304  0.24833020  0.74942287  1
  Ti  Ti26  1  0.25153333  0.74934608  0.24890536  1
  Ti  Ti27  1  0.25031211  0.75076714  0.74989621  1
  Ti  Ti28  1  0.74753804  0.24998457  0.24828066  1
  Ti  Ti29  1  0.74805181  0.25093943  0.75253633  1
  Ti  Ti30  1  0.74843723  0.74884955  0.25118371  1
  Ti  Ti31  1  0.74910800  0.74990306  0.74892037  1
  Al  Al32  1  0.07408100  0.08216725  0.07980076  1
  Al  Al33  1  0.08883994  0.08704337  0.59583241  1
  Al  Al34  1  0.08137796  0.58551574  0.08025643  1
  Al  Al35  1  0.07936112  0.58871053  0.58551178  1
  Al  Al36  1  0.58217966  0.08556175  0.09137926  1
  Al  Al37  1  0.57772250  0.07669340  0.58331174  1
  Al  Al38  1  0.57910872  0.57915497  0.09341542  1
  Al  Al39  1  0.59279873  0.58588186  0.58442572  1
  Al  Al40  1  0.42786620  0.41021305  0.08804334  1
  Al  Al41  1  0.42326292  0.42038486  0.57418549  1
  Al  Al42  1  0.42471966  0.91576636  0.08048533  1
  Al  Al43  1  0.40902759  0.91118275  0.58369702  1
  Al  Al44  1  0.90917813  0.42219197  0.08077341  1
  Al  Al45  1  0.91539485  0.42075534  0.58910678  1
  Al  Al46  1  0.92086581  0.92321818  0.09342438  1
  Al  Al47  1  0.91806924  0.92008506  0.58240844  1
  Al  Al48  1  0.41602583  0.09637917  0.41994816  1
  Al  Al49  1  0.41396715  0.09324804  0.91566380  1
  Al  Al50  1  0.41352801  0.58894271  0.42169491  1
  Al  Al51  1  0.41520716  0.59493503  0.91613927  1
  Al  Al52  1  0.92543818  0.08404518  0.41134173  1
  Al  Al53  1  0.90793157  0.08143275  0.91490675  1
  Al  Al54  1  0.92019044  0.58449586  0.41502983  1
  Al  Al55  1  0.91800825  0.58202635  0.90435561  1
  Al  Al56  1  0.09160545  0.41482191  0.42399488  1
  Al  Al57  1  0.08519863  0.43156307  0.91174892  1
  Al  Al58  1  0.07597406  0.90792538  0.42056911  1
  Al  Al59  1  0.09032062  0.91650198  0.91265565  1
  Al  Al60  1  0.58236037  0.41744459  0.40708597  1
  Al  Al61  1  0.58481069  0.42258569  0.91466856  1
  Al  Al62  1  0.58293470  0.91807371  0.41893327  1
  Al  Al63  1  0.57678725  0.91635402  0.90923145  1
  Al  Al64  1  0.07959571  0.09387150  0.42210372  1
  Al  Al65  1  0.09057115  0.07422149  0.90913727  1
  Al  Al66  1  0.08230765  0.58771943  0.41768507  1
  Al  Al67  1  0.08396958  0.58767794  0.90699168  1
  Al  Al68  1  0.57280030  0.08091038  0.40890042  1
  Al  Al69  1  0.57674639  0.08571644  0.91415508  1
  Al  Al70  1  0.58950341  0.58176274  0.42049859  1
  Al  Al71  1  0.57901720  0.58567099  0.90530672  1
  Al  Al72  1  0.42213220  0.40898373  0.41091586  1
  Al  Al73  1  0.42055940  0.42141479  0.92006983  1
  Al  Al74  1  0.41261675  0.90991395  0.42472750  1
  Al  Al75  1  0.41912600  0.91185794  0.90935153  1
  Al  Al76  1  0.92033728  0.42169885  0.42164139  1
  Al  Al77  1  0.90875505  0.42522434  0.91376977  1
  Al  Al78  1  0.91866525  0.90977848  0.41719763  1
  Al  Al79  1  0.91772480  0.92386153  0.90605196  1
  Al  Al80  1  0.07772958  0.42535363  0.07620779  1
  Al  Al81  1  0.08573137  0.41092007  0.58076061  1
  Al  Al82  1  0.07715144  0.91154085  0.07744991  1
  Al  Al83  1  0.08896689  0.92178252  0.59094964  1
  Al  Al84  1  0.58646489  0.41650061  0.09946788  1
  Al  Al85  1  0.58533500  0.42584271  0.58551203  1
  Al  Al86  1  0.58446894  0.92150758  0.09277222  1
  Al  Al87  1  0.58206632  0.91511389  0.58336086  1
  Al  Al88  1  0.42001484  0.09772689  0.07909991  1
  Al  Al89  1  0.40776810  0.08552219  0.57958945  1
  Al  Al90  1  0.41808317  0.58970819  0.07993204  1
  Al  Al91  1  0.41583184  0.59275405  0.57927177  1
  Al  Al92  1  0.91218354  0.08459117  0.08510595  1
  Al  Al93  1  0.92711716  0.08156395  0.59423044  1
  Al  Al94  1  0.91683804  0.57855446  0.08876317  1
  Al  Al95  1  0.91669797  0.58365294  0.59365877  1
  Al  Al96  1  0.25608231  0.13389601  0.13414524  1
  Al  Al97  1  0.24860777  0.13128979  0.63269499  1
  Al  Al98  1  0.25136823  0.63541499  0.12638033  1
  Al  Al99  1  0.25537119  0.63454382  0.63772937  1
  Al  Al100  1  0.74350085  0.13439638  0.13526300  1
  Al  Al101  1  0.74798526  0.13361600  0.63996098  1
  Al  Al102  1  0.74393058  0.63366646  0.13279408  1
  Al  Al103  1  0.74484224  0.63360396  0.63330258  1
  Al  Al104  1  0.25126610  0.36518095  0.13509604  1
  Al  Al105  1  0.24664273  0.36577378  0.63252767  1
  Al  Al106  1  0.25275419  0.86526207  0.13513736  1
  Al  Al107  1  0.25027092  0.86779653  0.64054454  1
  Al  Al108  1  0.74507196  0.36400001  0.13083257  1
  Al  Al109  1  0.74735476  0.36449414  0.63649309  1
  Al  Al110  1  0.74482671  0.86463091  0.13690374  1
  Al  Al111  1  0.74603469  0.86344534  0.63838295  1
  Al  Al112  1  0.25596623  0.13787590  0.37293510  1
  Al  Al113  1  0.25016677  0.12916160  0.86279868  1
  Al  Al114  1  0.25268224  0.63704630  0.36499994  1
  Al  Al115  1  0.25101798  0.63858921  0.86859463  1
  Al  Al116  1  0.74565380  0.13476895  0.36072529  1
  Al  Al117  1  0.74808874  0.12852540  0.86367932  1
  Al  Al118  1  0.74744310  0.63590269  0.36789043  1
  Al  Al119  1  0.74737428  0.62940894  0.86240685  1
  Al  Al120  1  0.24983410  0.36347548  0.36664507  1
  Al  Al121  1  0.25179080  0.36354310  0.86717346  1
  Al  Al122  1  0.25834836  0.86102260  0.36693953  1
  Al  Al123  1  0.25066354  0.87000037  0.86349118  1
  Al  Al124  1  0.74892375  0.36204345  0.36393778  1
  Al  Al125  1  0.74728896  0.37021108  0.86795312  1
  Al  Al126  1  0.74625696  0.86661787  0.36571955  1
  Al  Al127  1  0.74826750  0.86971783  0.86264757  1
  Al  Al128  1  0.13822165  0.24754809  0.13326224  1
  Al  Al129  1  0.13844465  0.24674523  0.63388729  1
  Al  Al130  1  0.13431938  0.74674802  0.13495806  1
  Al  Al131  1  0.13043931  0.75065120  0.63847383  1
  Al  Al132  1  0.62973209  0.25136627  0.13215849  1
  Al  Al133  1  0.63563182  0.24879574  0.63975564  1
  Al  Al134  1  0.63227529  0.74497721  0.13390558  1
  Al  Al135  1  0.63302591  0.74727444  0.63030878  1
  Al  Al136  1  0.13957046  0.24608533  0.37265100  1
  Al  Al137  1  0.13800745  0.24560572  0.86411883  1
  Al  Al138  1  0.13678294  0.75186711  0.36635673  1
  Al  Al139  1  0.13531498  0.74962075  0.86190904  1
  Al  Al140  1  0.63161884  0.25324142  0.35890466  1
  Al  Al141  1  0.63761096  0.24896877  0.86925858  1
  Al  Al142  1  0.63468576  0.74849597  0.37059499  1
  Al  Al143  1  0.63480737  0.74717201  0.86285515  1
  Al  Al144  1  0.37139313  0.24825722  0.13610040  1
  Al  Al145  1  0.36210347  0.24493988  0.63325946  1
  Al  Al146  1  0.36670811  0.74572849  0.13099933  1
  Al  Al147  1  0.36620034  0.75161973  0.63447728  1
  Al  Al148  1  0.85950974  0.24949421  0.13489210  1
  Al  Al149  1  0.86377193  0.24930557  0.64137168  1
  Al  Al150  1  0.86138977  0.74718279  0.13604102  1
  Al  Al151  1  0.86972211  0.74744201  0.63691679  1
  Al  Al152  1  0.36750759  0.25207493  0.36523674  1
  Al  Al153  1  0.36567706  0.24264047  0.86656131  1
  Al  Al154  1  0.36823075  0.74682034  0.36834916  1
  Al  Al155  1  0.36615038  0.75078342  0.86242172  1
  Al  Al156  1  0.86566378  0.24655973  0.36288223  1
  Al  Al157  1  0.86063268  0.24989968  0.86497109  1
  Al  Al158  1  0.86466832  0.75147368  0.36720521  1
  Al  Al159  1  0.86257641  0.74981453  0.86163660  1
  Al  Al160  1  0.13866519  0.13606316  0.25138365  1
  Al  Al161  1  0.13588629  0.13251296  0.74652079  1
  Al  Al162  1  0.13883946  0.63556746  0.24863347  1
  Al  Al163  1  0.13879912  0.63234913  0.74988424  1
  Al  Al164  1  0.62849097  0.13590863  0.24273537  1
  Al  Al165  1  0.63270865  0.13079337  0.75496753  1
  Al  Al166  1  0.63255691  0.63316705  0.24736285  1
  Al  Al167  1  0.63307687  0.63185086  0.74906574  1
  Al  Al168  1  0.36732961  0.13492552  0.24650085  1
  Al  Al169  1  0.36144191  0.12696910  0.75050130  1
  Al  Al170  1  0.36690922  0.63690376  0.24605169  1
  Al  Al171  1  0.37167338  0.63742154  0.75226163  1
  Al  Al172  1  0.86285717  0.13535307  0.25033166  1
  Al  Al173  1  0.86461340  0.13368370  0.75188472  1
  Al  Al174  1  0.86170345  0.63469035  0.25222619  1
  Al  Al175  1  0.86238927  0.63418601  0.74857591  1
  Al  Al176  1  0.13645921  0.36209549  0.25366547  1
  Al  Al177  1  0.13879575  0.36609222  0.75077341  1
  Al  Al178  1  0.13637300  0.86333711  0.25162270  1
  Al  Al179  1  0.13219861  0.86578569  0.75020095  1
  Al  Al180  1  0.63086113  0.36458255  0.24708848  1
  Al  Al181  1  0.63586415  0.37185005  0.75314586  1
  Al  Al182  1  0.63280406  0.86254785  0.25076413  1
  Al  Al183  1  0.63283625  0.86770640  0.75305141  1
  Al  Al184  1  0.36913835  0.36156090  0.24873490  1
  Al  Al185  1  0.36318807  0.36491521  0.75196764  1
  Al  Al186  1  0.36495158  0.86561400  0.24938353  1
  Al  Al187  1  0.36357008  0.87100522  0.75239049  1
  Al  Al188  1  0.86216860  0.36514747  0.25081413  1
  Al  Al189  1  0.86218957  0.36646987  0.75215016  1
  Al  Al190  1  0.86340528  0.86373996  0.25339535  1
  Al  Al191  1  0.87020840  0.86338484  0.74945901  1
  Al  Al192  1  0.50161760  0.67663905  0.31858139  1
  Al  Al193  1  0.32613736  0.49905043  0.17093873  1
  Al  Al194  1  0.83420913  0.17004841  0.50393675  1
  Al  Al195  1  0.80834544  0.49929938  0.18114203  1
  Al  Al196  1  0.81050729  0.49986400  0.68797260  1
  Al  Al197  1  0.32547853  0.31490338  0.00200628  1
  Al  Al198  1  0.68262156  0.49938847  0.31263194  1
  Al  Al199  1  0.00132846  0.31587029  0.67257868  1
  Al  Al200  1  0.18463385  0.67325434  0.50258669  1
  Al  Al201  1  -0.00087517  0.81849799  0.18831228  1
  Al  Al202  1  0.81983692  0.67155673  0.50189719  1
  Al  Al203  1  0.32920483  0.00129147  0.32851910  1
  Al  Al204  1  -0.00057162  0.17234227  0.18520830  1
  Al  Al205  1  0.49821750  0.82002904  0.68673168  1
  Al  Al206  1  0.67913143  0.00164685  0.30994180  1
  Al  Al207  1  0.00052552  0.16974163  0.81751738  1
  Al  Al208  1  0.17032767  -0.00137182  0.33100113  1
  Al  Al209  1  0.67038230  0.17377057  0.49823828  1
  Al  Al210  1  0.49829587  0.16928103  0.68574745  1
  Al  Al211  1  0.17700507  -0.00217230  0.16856585  1
  Al  Al212  1  -0.00026747  0.68104524  0.80940249  1
  Al  Al213  1  0.50014598  0.32671993  0.67284367  1
  Al  Al214  1  0.00098973  0.68914005  0.31938424  1
  Al  Al215  1  0.00054317  0.33176424  0.82705222  1
  Al  Al216  1  0.19131287  0.82840938  0.50329869  1
  Al  Al217  1  0.50055491  0.31369093  0.83081826  1
  Al  Al218  1  0.82620426  0.32696871  0.50180764  1
  Al  Al219  1  0.00344515  0.31448645  0.33265829  1
  Al  Al220  1  0.82405765  -0.00152708  0.68433940  1
  Al  Al221  1  0.17635338  0.81604133  -0.00078654  1
  Al  Al222  1  0.32792736  0.49894921  0.32831902  1
  Al  Al223  1  0.32956677  0.81855107  -0.00174425  1
  Al  Al224  1  0.31702029  0.31764167  0.49990073  1
  Al  Al225  1  0.18339895  0.17483662  -0.00020992  1
  Al  Al226  1  0.66714408  0.82523571  0.00033072  1
  Al  Al227  1  0.31692711  0.50282111  0.82283776  1
  Al  Al228  1  0.81194213  0.00031387  0.18049543  1
  Al  Al229  1  0.81648535  0.82752131  0.50298746  1
  Al  Al230  1  0.17461909  0.50004716  0.67342459  1
  Al  Al231  1  0.82429917  0.66746254  -0.00401875  1
  Al  Al232  1  0.81764551  0.17876574  -0.00022328  1
  Al  Al233  1  0.49972129  0.81314597  0.17981949  1
  Al  Al234  1  0.49845502  0.18716140  0.31322955  1
  Al  Al235  1  -0.00120866  0.32769108  0.17222861  1
  Al  Al236  1  0.17397517  0.50080965  0.32401457  1
  Al  Al237  1  0.67068881  0.32921151  0.50023060  1
  Al  Al238  1  0.82744713  0.82813350  0.00067083  1
  Au  Au239  1  0.49735667  0.83816553  0.32674444  1
  Au  Au240  1  0.33234104  0.32503170  0.49982183  1
  Au  Au241  1  0.66764373  0.16432765  0.00075609  1
  Au  Au242  1  0.16747925  0.34112419  -0.00492409  1
  Au  Au243  1  0.16184957  0.49917495  0.67630062  1
  Au  Au244  1  -0.00178039  0.67128732  0.17328246  1
  Au  Au245  1  0.00488971  0.32089318  0.34786126  1
  Au  Au246  1  0.31963077  -0.00032073  0.66228985  1
  Au  Au247  1  0.66979655  0.00106508  0.83173418  1
  Au  Au248  1  0.00011742  0.15426398  0.82238002  1
  Au  Au249  1  0.33264431  0.00537768  0.33973236  1
  Au  Au250  1  0.66341404  0.33545198  0.00370903  1
  Au  Au251  1  0.66665334  0.82461035  0.50005325  1
  Au  Au252  1  0.83808457  0.84200272  0.00145100  1
  Au  Au253  1  0.83081397  0.49882060  0.32781224  1
  Au  Au254  1  0.65428897  0.17521720  0.49322525  1
  Au  Au255  1  0.66024667  0.66141397  0.00151607  1
  Au  Au256  1  0.33998931  0.32396582  0.00254106  1
  Au  Au257  1  0.32945857  0.00234042  0.83288502  1
  Au  Au258  1  0.17087703  0.16307534  -0.00138268  1
  Au  Au259  1  0.16644003  -0.00211832  0.16184318  1
  Au  Au260  1  0.15288381  0.00205474  0.33149178  1
  Au  Au261  1  0.00022095  0.34645998  0.82123387  1
  Au  Au262  1  0.50319101  0.66090940  0.67541470  1
  Au  Au263  1  -0.00193665  0.32203530  0.15637394  1
  Au  Au264  1  0.32962988  0.83122588  0.00056890  1
  Au  Au265  1  0.50234291  0.66267512  0.32723682  1
  Au  Au266  1  0.85044546  0.17469104  0.50454517  1
  Au  Au267  1  0.33476355  0.49967724  0.66077806  1
  Au  Au268  1  -0.00094109  0.82521278  0.66366410  1
  Au  Au269  1  0.83221441  0.32853496  -0.00401729  1
  Au  Au270  1  0.32615932  0.50389629  0.83706078  1
  Au  Au271  1  0.34110109  0.00453580  0.16372846  1
  Au  Au272  1  0.66623127  0.00117243  0.32069117  1
  Au  Au273  1  0.50060207  0.33022533  0.82578951  1
  Au  Au274  1  0.67693713  0.50179091  0.82117079  1
  Au  Au275  1  0.83547424  0.66363216  0.00041092  1
  Au  Au276  1  0.49782279  0.83495825  0.67908147  1
  Au  Au277  1  0.17126973  0.17210836  0.50423954  1
  Au  Au278  1  0.17228547  0.66596070  -0.00347924  1
  Au  Au279  1  0.66342018  0.83643193  -0.00397406  1
  Au  Au280  1  0.49524795  0.17070596  0.66889583  1
  Au  Au281  1  0.00252172  0.82845171  0.83192699  1
  Au  Au282  1  0.67696611  -0.00082473  0.66399565  1
  Au  Au283  1  0.16191551  0.49972836  0.17506975  1
  Au  Au284  1  0.17461657  0.82668246  0.50206765  1
  Au  Au285  1  0.84300717  -0.00185199  0.32691598  1
  Au  Au286  1  0.33868068  0.49963848  0.17377921  1
  Au  Au287  1  0.83204865  0.66805285  0.50283921  1
