# generated using pymatgen
data_Ca24Ti8Al207Au49
_symmetry_space_group_name_H-M   'P 1'
_cell_length_a   17.31766954
_cell_length_b   17.31754703
_cell_length_c   17.31804649
_cell_angle_alpha   90.00004328
_cell_angle_beta   89.99925896
_cell_angle_gamma   89.99957610
_symmetry_Int_Tables_number   1
_chemical_formula_structural   Ca24Ti8Al207Au49
_chemical_formula_sum   'Ca24 Ti8 Al207 Au49'
_cell_volume   5193.67446361
_cell_formula_units_Z   1
loop_
 _symmetry_equiv_pos_site_id
 _symmetry_equiv_pos_as_xyz
  1  'x, y, z'
loop_
 _atom_site_type_symbol
 _atom_site_label
 _atom_site_symmetry_multiplicity
 _atom_site_fract_x
 _atom_site_fract_y
 _atom_site_fract_z
 _atom_site_occupancy
  Ca  Ca0  1  0.24913731  -0.00451000  -0.00128117  1
  Ca  Ca1  1  0.24983492  -0.00264579  0.50117132  1
  Ca  Ca2  1  0.24639008  0.50249589  -0.00746320  1
  Ca  Ca3  1  0.24717254  0.50389460  0.50614990  1
  Ca  Ca4  1  0.75452640  0.00094903  0.00155123  1
  Ca  Ca5  1  0.75627600  0.00031984  0.49953642  1
  Ca  Ca6  1  0.75288404  0.50173561  0.00377019  1
  Ca  Ca7  1  0.75410511  0.49963816  0.49959068  1
  Ca  Ca8  1  0.00126954  0.24574305  -0.00202242  1
  Ca  Ca9  1  0.00216172  0.24468657  0.50228411  1
  Ca  Ca10  1  0.00137792  0.74750434  -0.00245396  1
  Ca  Ca11  1  0.00597145  0.75219346  0.50171925  1
  Ca  Ca12  1  0.49639341  0.24523360  0.00768813  1
  Ca  Ca13  1  0.49778195  0.24516616  0.49583507  1
  Ca  Ca14  1  0.49863375  0.75171784  0.00238092  1
  Ca  Ca15  1  0.49685897  0.75362375  0.49860441  1
  Ca  Ca16  1  0.00065903  0.00011456  0.24383768  1
  Ca  Ca17  1  0.00226813  -0.00177778  0.74982562  1
  Ca  Ca18  1  -0.00050467  0.50120813  0.24380048  1
  Ca  Ca19  1  0.00359137  0.50404382  0.75330326  1
  Ca  Ca20  1  0.49706309  -0.00202228  0.24939437  1
  Ca  Ca21  1  0.49840534  0.00071201  0.75441240  1
  Ca  Ca22  1  0.50354910  0.50307772  0.24582767  1
  Ca  Ca23  1  0.49634212  0.50484416  0.75343077  1
  Ti  Ti24  1  0.24950602  0.24730532  0.24850726  1
  Ti  Ti25  1  0.24820840  0.24813814  0.75021457  1
  Ti  Ti26  1  0.24902625  0.75232001  0.24907941  1
  Ti  Ti27  1  0.24895410  0.75114539  0.75115211  1
  Ti  Ti28  1  0.75124040  0.25015412  0.24896515  1
  Ti  Ti29  1  0.75150175  0.24920477  0.74968773  1
  Ti  Ti30  1  0.75113639  0.75014656  0.24830510  1
  Ti  Ti31  1  0.75160391  0.75000562  0.75218868  1
  Al  Al32  1  0.07896558  0.08911339  0.08614644  1
  Al  Al33  1  0.08413359  0.08054004  0.59403817  1
  Al  Al34  1  0.08051261  0.59606501  0.07184771  1
  Al  Al35  1  0.09071945  0.59828931  0.59276585  1
  Al  Al36  1  0.58034487  0.09501825  0.08591309  1
  Al  Al37  1  0.58809572  0.08719395  0.57459593  1
  Al  Al38  1  0.59182146  0.57732227  0.08620874  1
  Al  Al39  1  0.57523548  0.57834665  0.57355658  1
  Al  Al40  1  0.42619966  0.40888970  0.08437596  1
  Al  Al41  1  0.40380157  0.41495539  0.57946868  1
  Al  Al42  1  0.41424838  0.92082290  0.08811365  1
  Al  Al43  1  0.40362352  0.92151230  0.58649254  1
  Al  Al44  1  0.91745561  0.42264021  0.08128426  1
  Al  Al45  1  0.91677687  0.40593663  0.57885500  1
  Al  Al46  1  0.91263597  0.91215673  0.07790908  1
  Al  Al47  1  0.91766281  0.91004226  0.58139500  1
  Al  Al48  1  0.41495038  0.08441652  0.41882746  1
  Al  Al49  1  0.41218365  0.07168071  0.91936707  1
  Al  Al50  1  0.41909079  0.59130331  0.42040394  1
  Al  Al51  1  0.40413592  0.58699185  0.90953120  1
  Al  Al52  1  0.92152987  0.08155289  0.42053520  1
  Al  Al53  1  0.91066166  0.08884673  0.92191792  1
  Al  Al54  1  0.92361975  0.58256242  0.42118546  1
  Al  Al55  1  0.92657632  0.58657681  0.91493960  1
  Al  Al56  1  0.07544658  0.41447661  0.42656078  1
  Al  Al57  1  0.08808907  0.42279896  0.90166047  1
  Al  Al58  1  0.09267497  0.91423329  0.42131229  1
  Al  Al59  1  0.08667670  0.91900187  0.91295646  1
  Al  Al60  1  0.58393774  0.41550239  0.41320587  1
  Al  Al61  1  0.57886957  0.42641112  0.93162693  1
  Al  Al62  1  0.57345566  0.91181252  0.41271098  1
  Al  Al63  1  0.58265159  0.90185441  0.91470698  1
  Al  Al64  1  0.08356813  0.07601743  0.41279725  1
  Al  Al65  1  0.08872900  0.07948359  0.91338734  1
  Al  Al66  1  0.08372830  0.59910454  0.43096351  1
  Al  Al67  1  0.09080185  0.58811189  0.90797614  1
  Al  Al68  1  0.58060929  0.08981469  0.41895898  1
  Al  Al69  1  0.59132548  0.08604459  0.92569496  1
  Al  Al70  1  0.57893805  0.58485320  0.40926477  1
  Al  Al71  1  0.58185918  0.58747967  0.92317337  1
  Al  Al72  1  0.41459385  0.40570361  0.42079154  1
  Al  Al73  1  0.40701693  0.42906348  0.91813155  1
  Al  Al74  1  0.41311469  0.91085387  0.41251460  1
  Al  Al75  1  0.41777390  0.91231291  0.90732118  1
  Al  Al76  1  0.91261851  0.40922803  0.42173666  1
  Al  Al77  1  0.92774058  0.41848603  0.91144370  1
  Al  Al78  1  0.91311582  0.91440450  0.42447101  1
  Al  Al79  1  0.91236288  0.91218541  0.92100970  1
  Al  Al80  1  0.07612625  0.41830255  0.07228857  1
  Al  Al81  1  0.08320306  0.41899670  0.58629678  1
  Al  Al82  1  0.08208839  0.91717248  0.07995588  1
  Al  Al83  1  0.09101767  0.91211609  0.58568823  1
  Al  Al84  1  0.58698499  0.41426783  0.09954087  1
  Al  Al85  1  0.57968942  0.41695835  0.57296828  1
  Al  Al86  1  0.58027926  0.91044301  0.07585889  1
  Al  Al87  1  0.57704654  0.92420330  0.57488903  1
  Al  Al88  1  0.41710293  0.08366373  0.09762360  1
  Al  Al89  1  0.40461652  0.08118128  0.58168275  1
  Al  Al90  1  0.41859629  0.58237275  0.07186080  1
  Al  Al91  1  0.40835636  0.57787763  0.57737155  1
  Al  Al92  1  0.91556388  0.09474700  0.08376384  1
  Al  Al93  1  0.92462454  0.08835401  0.58731782  1
  Al  Al94  1  0.91934753  0.58744928  0.08669905  1
  Al  Al95  1  0.93114217  0.59587346  0.58775841  1
  Al  Al96  1  0.24964313  0.12833522  0.13709736  1
  Al  Al97  1  0.24746341  0.12616014  0.63699913  1
  Al  Al98  1  0.24773637  0.63957538  0.12672480  1
  Al  Al99  1  0.24678449  0.63720337  0.63755417  1
  Al  Al100  1  0.75058911  0.13896010  0.12974295  1
  Al  Al101  1  0.74897620  0.13860357  0.63326143  1
  Al  Al102  1  0.75062149  0.63787812  0.12835837  1
  Al  Al103  1  0.75287940  0.63865457  0.63057157  1
  Al  Al104  1  0.24649690  0.36427889  0.13263650  1
  Al  Al105  1  0.24759609  0.36541131  0.63876166  1
  Al  Al106  1  0.24942035  0.87017261  0.13492091  1
  Al  Al107  1  0.24672398  0.86632361  0.63293070  1
  Al  Al108  1  0.74901429  0.36330506  0.13372194  1
  Al  Al109  1  0.75448858  0.36305717  0.63310797  1
  Al  Al110  1  0.74983464  0.86314490  0.12963441  1
  Al  Al111  1  0.75215108  0.86215052  0.63476329  1
  Al  Al112  1  0.25160696  0.13289986  0.36199432  1
  Al  Al113  1  0.24590357  0.13182297  0.86349132  1
  Al  Al114  1  0.24772126  0.63836797  0.36510370  1
  Al  Al115  1  0.24669291  0.63804207  0.86948538  1
  Al  Al116  1  0.74899122  0.13795246  0.36474360  1
  Al  Al117  1  0.75287969  0.13440487  0.86647835  1
  Al  Al118  1  0.75014622  0.63761629  0.36943976  1
  Al  Al119  1  0.75083715  0.64035172  0.87318379  1
  Al  Al120  1  0.25463599  0.36339728  0.36451643  1
  Al  Al121  1  0.24703863  0.36861769  0.86537972  1
  Al  Al122  1  0.24898191  0.86436746  0.37150679  1
  Al  Al123  1  0.24800518  0.86247578  0.86518965  1
  Al  Al124  1  0.74943372  0.36567470  0.36371998  1
  Al  Al125  1  0.75047058  0.36489772  0.86533171  1
  Al  Al126  1  0.75470841  0.86300257  0.36584159  1
  Al  Al127  1  0.74946046  0.86117716  0.87103740  1
  Al  Al128  1  0.13113384  0.24952979  0.13512673  1
  Al  Al129  1  0.13466794  0.24527555  0.63486415  1
  Al  Al130  1  0.13013608  0.75080364  0.13419394  1
  Al  Al131  1  0.13216585  0.75005684  0.63890378  1
  Al  Al132  1  0.63086681  0.24958374  0.13904996  1
  Al  Al133  1  0.63182676  0.24844135  0.63304605  1
  Al  Al134  1  0.63625751  0.75128839  0.13064343  1
  Al  Al135  1  0.63406503  0.75002160  0.63572236  1
  Al  Al136  1  0.13590445  0.24574609  0.36829374  1
  Al  Al137  1  0.13248167  0.25072074  0.86143848  1
  Al  Al138  1  0.13625983  0.75189365  0.36841327  1
  Al  Al139  1  0.12970196  0.74554479  0.86498348  1
  Al  Al140  1  0.63426627  0.25050192  0.36476821  1
  Al  Al141  1  0.63931701  0.24228306  0.86933830  1
  Al  Al142  1  0.63509120  0.75009298  0.36558858  1
  Al  Al143  1  0.63196149  0.75132549  0.87280019  1
  Al  Al144  1  0.36560464  0.24478528  0.13439841  1
  Al  Al145  1  0.36171437  0.25065065  0.63542072  1
  Al  Al146  1  0.36374490  0.75106917  0.13655783  1
  Al  Al147  1  0.36250627  0.75290094  0.63480647  1
  Al  Al148  1  0.86941195  0.24572862  0.13098619  1
  Al  Al149  1  0.86845186  0.24881125  0.63542606  1
  Al  Al150  1  0.86709452  0.75002946  0.12866999  1
  Al  Al151  1  0.86903752  0.75069122  0.63337223  1
  Al  Al152  1  0.36406864  0.24881523  0.36115813  1
  Al  Al153  1  0.35964882  0.24370083  0.86819162  1
  Al  Al154  1  0.36396451  0.75575701  0.36485219  1
  Al  Al155  1  0.36838282  0.74986338  0.86357202  1
  Al  Al156  1  0.86380228  0.25116021  0.36754194  1
  Al  Al157  1  0.86749698  0.24688829  0.86383742  1
  Al  Al158  1  0.86514041  0.74853899  0.37065453  1
  Al  Al159  1  0.86715347  0.74899220  0.86992498  1
  Al  Al160  1  0.13019978  0.13477897  0.24601613  1
  Al  Al161  1  0.13436063  0.12797386  0.74939057  1
  Al  Al162  1  0.13489999  0.63791624  0.24491547  1
  Al  Al163  1  0.13229102  0.63568002  0.75399763  1
  Al  Al164  1  0.63423660  0.13603975  0.24385538  1
  Al  Al165  1  0.63507232  0.13401769  0.75211815  1
  Al  Al166  1  0.63959775  0.63372979  0.24760484  1
  Al  Al167  1  0.63749936  0.63678540  0.75772279  1
  Al  Al168  1  0.36438252  0.12881547  0.24690638  1
  Al  Al169  1  0.36541967  0.13321833  0.74518674  1
  Al  Al170  1  0.35987895  0.63307724  0.24816311  1
  Al  Al171  1  0.36201312  0.63521782  0.75526886  1
  Al  Al172  1  0.86783669  0.13796322  0.24876110  1
  Al  Al173  1  0.86591599  0.13482047  0.74849853  1
  Al  Al174  1  0.86410128  0.63940635  0.24669943  1
  Al  Al175  1  0.86814667  0.63952777  0.75069609  1
  Al  Al176  1  0.13294319  0.36150447  0.25248456  1
  Al  Al177  1  0.13175711  0.36595528  0.75310904  1
  Al  Al178  1  0.13297506  0.86470772  0.24500960  1
  Al  Al179  1  0.13586553  0.87025254  0.74949694  1
  Al  Al180  1  0.63658515  0.36790563  0.24817601  1
  Al  Al181  1  0.63636700  0.36039041  0.74805562  1
  Al  Al182  1  0.63649284  0.86211733  0.25117791  1
  Al  Al183  1  0.63594533  0.86313088  0.75764314  1
  Al  Al184  1  0.36324632  0.36563455  0.24251898  1
  Al  Al185  1  0.36255274  0.36474568  0.75318523  1
  Al  Al186  1  0.35993744  0.87161609  0.25090248  1
  Al  Al187  1  0.36202646  0.86537329  0.74992478  1
  Al  Al188  1  0.87019860  0.36067041  0.24511717  1
  Al  Al189  1  0.86925468  0.36403097  0.75357834  1
  Al  Al190  1  0.86548227  0.86206169  0.24430560  1
  Al  Al191  1  0.86522627  0.86250135  0.75204748  1
  Al  Al192  1  0.32286772  0.32174059  -0.00170728  1
  Al  Al193  1  0.50097153  0.32857955  0.83087707  1
  Al  Al194  1  0.49984961  0.17046686  0.82897067  1
  Al  Al195  1  0.33074477  0.50068571  0.32620136  1
  Al  Al196  1  0.50016838  0.83202242  0.68483543  1
  Al  Al197  1  0.32331199  0.50102084  0.68449169  1
  Al  Al198  1  0.16929640  0.50237839  0.33113203  1
  Al  Al199  1  0.81765460  0.50091361  0.17301373  1
  Al  Al200  1  0.18910881  0.31979317  0.50105093  1
  Al  Al201  1  0.83217474  -0.00041188  0.67321885  1
  Al  Al202  1  0.31009740  -0.00135647  0.81230298  1
  Al  Al203  1  0.00065818  0.67243807  0.31690290  1
  Al  Al204  1  0.66972952  -0.00131907  0.17170078  1
  Al  Al205  1  0.82877728  0.00182584  0.17188642  1
  Al  Al206  1  0.49700332  0.32158814  0.66831754  1
  Al  Al207  1  0.17467858  0.81683434  -0.00088610  1
  Al  Al208  1  0.50103270  0.67102694  0.17050844  1
  Al  Al209  1  -0.00019385  0.31961824  0.32271291  1
  Al  Al210  1  0.49824202  0.82457233  0.18630036  1
  Al  Al211  1  0.82317139  -0.00114858  0.82775824  1
  Al  Al212  1  0.32825620  0.82249608  -0.00027583  1
  Al  Al213  1  0.82860824  0.00039434  0.32570282  1
  Al  Al214  1  0.67431782  0.00037064  0.67678517  1
  Al  Al215  1  0.00071265  0.17604363  0.81673871  1
  Al  Al216  1  0.31637871  0.18659881  0.49954117  1
  Al  Al217  1  0.00149936  0.31645777  0.68552260  1
  Al  Al218  1  0.81794888  0.18288206  0.50018780  1
  Al  Al219  1  0.82528436  0.50289467  0.82756689  1
  Al  Al220  1  0.17220779  0.50106278  0.68541519  1
  Al  Al221  1  0.68328167  0.82254086  0.49948299  1
  Al  Al222  1  0.67092019  0.31485967  0.00314562  1
  Al  Al223  1  0.31243521  0.68193280  0.50057199  1
  Al  Al224  1  0.49877918  0.32753615  0.30867230  1
  Al  Al225  1  0.49797870  0.67020074  0.67757866  1
  Al  Al226  1  0.17845711  0.17822758  -0.00006531  1
  Al  Al227  1  -0.00048121  0.82384093  0.82156327  1
  Al  Al228  1  0.82104512  0.50225264  0.32684122  1
  Al  Al229  1  0.18331701  -0.00195911  0.31486555  1
  Al  Al230  1  0.17484759  0.50408415  0.16583461  1
  Al  Al231  1  -0.00030903  0.82486072  0.32531461  1
  Al  Al232  1  0.49810513  0.69018663  0.32100316  1
  Al  Al233  1  0.67027491  0.00135114  0.32572135  1
  Al  Al234  1  0.82892842  0.31755047  -0.00298062  1
  Al  Al235  1  0.68418582  0.31327113  0.49946418  1
  Al  Al236  1  0.83181674  0.50119335  0.67090093  1
  Al  Al237  1  0.49862979  0.17152140  0.31412325  1
  Al  Al238  1  0.66881560  0.50008637  0.68411777  1
  Au  Au239  1  0.32306115  0.82913192  0.50160187  1
  Au  Au240  1  0.00093119  0.82111954  0.66512000  1
  Au  Au241  1  0.67303289  0.00157375  0.33823506  1
  Au  Au242  1  0.34442023  0.49897381  0.16783691  1
  Au  Au243  1  0.16671041  0.50589945  0.15181822  1
  Au  Au244  1  0.15883739  0.50583696  0.34271736  1
  Au  Au245  1  0.17681890  -0.00233100  0.67967889  1
  Au  Au246  1  0.49771057  0.15835821  0.66450103  1
  Au  Au247  1  0.68017575  0.00302458  0.66085540  1
  Au  Au248  1  0.67785291  0.32945383  0.49892168  1
  Au  Au249  1  0.00205796  0.32248182  0.66938047  1
  Au  Au250  1  0.66904976  0.67756511  0.00357548  1
  Au  Au251  1  0.67338447  -0.00512139  0.84599332  1
  Au  Au252  1  0.32121922  0.67246080  -0.00069271  1
  Au  Au253  1  0.49711598  0.33258347  0.66215014  1
  Au  Au254  1  0.65557619  0.32021868  0.00562203  1
  Au  Au255  1  0.17037419  0.15693807  0.50076868  1
  Au  Au256  1  0.49520722  0.16670205  0.83991302  1
  Au  Au257  1  0.49271425  0.66991927  0.66118622  1
  Au  Au258  1  0.67243209  -0.00062516  0.15927103  1
  Au  Au259  1  0.83749119  0.49828969  0.32638550  1
  Au  Au260  1  0.49821457  0.84576537  0.67510430  1
  Au  Au261  1  0.66241995  0.50174903  0.31924634  1
  Au  Au262  1  0.67235356  0.65935027  0.49814271  1
  Au  Au263  1  0.83936287  0.67455944  -0.00118307  1
  Au  Au264  1  0.00039393  0.16342829  0.32296507  1
  Au  Au265  1  0.84320944  0.32573312  -0.00572609  1
  Au  Au266  1  0.49758815  0.34594023  0.83072970  1
  Au  Au267  1  0.49835122  0.32163106  0.32475824  1
  Au  Au268  1  0.67664457  0.50208520  0.84540256  1
  Au  Au269  1  0.15868230  0.32715800  -0.00834720  1
  Au  Au270  1  0.33391063  0.50332051  0.33781212  1
  Au  Au271  1  0.33184306  0.33035584  0.00026739  1
  Au  Au272  1  0.33207339  0.00074259  0.32726726  1
  Au  Au273  1  -0.00248014  0.82278574  0.15957025  1
  Au  Au274  1  -0.00062323  0.32547933  0.33384900  1
  Au  Au275  1  0.16916054  0.00154677  0.16622261  1
  Au  Au276  1  0.00008271  0.83351186  0.33630968  1
  Au  Au277  1  0.66025496  0.49990613  0.66957217  1
  Au  Au278  1  0.84760600  0.50462209  0.67140757  1
  Au  Au279  1  0.84321304  0.67734827  0.50201132  1
  Au  Au280  1  -0.00204678  0.82269613  0.83402949  1
  Au  Au281  1  0.00052617  0.32665930  0.16493558  1
  Au  Au282  1  0.82987194  0.17057381  0.50266507  1
  Au  Au283  1  0.00048520  0.16810457  0.83151584  1
  Au  Au284  1  0.50019339  0.67492556  0.83825499  1
  Au  Au285  1  0.66814150  0.83035305  0.49893047  1
  Au  Au286  1  0.18053974  0.33440177  0.50232890  1
  Au  Au287  1  0.32638558  0.15587803  0.00521498  1
