# generated using pymatgen
data_Ca24Ti8Al207Au49
_symmetry_space_group_name_H-M   'P 1'
_cell_length_a   17.31847114
_cell_length_b   17.31764977
_cell_length_c   17.31679610
_cell_angle_alpha   90.00001422
_cell_angle_beta   90.00015746
_cell_angle_gamma   89.99815706
_symmetry_Int_Tables_number   1
_chemical_formula_structural   Ca24Ti8Al207Au49
_chemical_formula_sum   'Ca24 Ti8 Al207 Au49'
_cell_volume   5193.57067010
_cell_formula_units_Z   1
loop_
 _symmetry_equiv_pos_site_id
 _symmetry_equiv_pos_as_xyz
  1  'x, y, z'
loop_
 _atom_site_type_symbol
 _atom_site_label
 _atom_site_symmetry_multiplicity
 _atom_site_fract_x
 _atom_site_fract_y
 _atom_site_fract_z
 _atom_site_occupancy
  Ca  Ca0  1  0.24082022  0.00582330  -0.00134861  1
  Ca  Ca1  1  0.24747238  0.00176149  0.50195183  1
  Ca  Ca2  1  0.24289071  0.49403719  0.00276318  1
  Ca  Ca3  1  0.24871933  0.50235301  0.49657864  1
  Ca  Ca4  1  0.75676842  0.00079524  0.00007261  1
  Ca  Ca5  1  0.75279412  -0.00098880  0.50330076  1
  Ca  Ca6  1  0.74582362  0.49820555  0.00411025  1
  Ca  Ca7  1  0.74720070  0.50482146  0.49696373  1
  Ca  Ca8  1  -0.00039315  0.24496524  0.00159790  1
  Ca  Ca9  1  0.00199063  0.24606076  0.49958413  1
  Ca  Ca10  1  -0.00231691  0.74692051  0.00244662  1
  Ca  Ca11  1  -0.00058181  0.75528511  0.49819286  1
  Ca  Ca12  1  0.50281858  0.24886765  0.00155010  1
  Ca  Ca13  1  0.49664749  0.24524141  0.49479742  1
  Ca  Ca14  1  0.50252651  0.74479915  0.00314255  1
  Ca  Ca15  1  0.50133456  0.74888784  0.49387684  1
  Ca  Ca16  1  0.00059164  0.00110866  0.24689760  1
  Ca  Ca17  1  0.00086292  0.00225368  0.75336075  1
  Ca  Ca18  1  -0.00007016  0.50015702  0.24683732  1
  Ca  Ca19  1  -0.00094349  0.49833195  0.75762159  1
  Ca  Ca20  1  0.50158031  0.00576220  0.24923733  1
  Ca  Ca21  1  0.50080564  -0.00120667  0.74939283  1
  Ca  Ca22  1  0.50313314  0.49584370  0.24716902  1
  Ca  Ca23  1  0.50037503  0.50314784  0.75468860  1
  Ti  Ti24  1  0.24945534  0.25131729  0.24916507  1
  Ti  Ti25  1  0.24748831  0.24790677  0.75169333  1
  Ti  Ti26  1  0.24794899  0.74964554  0.25346199  1
  Ti  Ti27  1  0.24679364  0.75230319  0.74739671  1
  Ti  Ti28  1  0.75036371  0.24948065  0.24685859  1
  Ti  Ti29  1  0.75223376  0.24760002  0.75440400  1
  Ti  Ti30  1  0.75019881  0.75076148  0.24874354  1
  Ti  Ti31  1  0.75165710  0.75153554  0.74981397  1
  Al  Al32  1  0.08190755  0.09667997  0.08216038  1
  Al  Al33  1  0.08504230  0.08401390  0.58866111  1
  Al  Al34  1  0.07462637  0.58409273  0.08616857  1
  Al  Al35  1  0.07712219  0.58772630  0.57930798  1
  Al  Al36  1  0.59290922  0.09444859  0.07788587  1
  Al  Al37  1  0.58389931  0.07525437  0.59192988  1
  Al  Al38  1  0.59022839  0.57255281  0.08279081  1
  Al  Al39  1  0.58706055  0.59857474  0.57694659  1
  Al  Al40  1  0.42145542  0.40684697  0.09602014  1
  Al  Al41  1  0.41855205  0.41707250  0.56946993  1
  Al  Al42  1  0.42537618  0.93105229  0.08342310  1
  Al  Al43  1  0.40240797  0.91401746  0.58207906  1
  Al  Al44  1  0.91215875  0.40671113  0.08089065  1
  Al  Al45  1  0.93032790  0.41432808  0.57714784  1
  Al  Al46  1  0.91295751  0.92107735  0.09579797  1
  Al  Al47  1  0.91369945  0.92231281  0.59120034  1
  Al  Al48  1  0.42431752  0.07585016  0.42836038  1
  Al  Al49  1  0.40815945  0.08613843  0.91555976  1
  Al  Al50  1  0.42247460  0.59226405  0.40894878  1
  Al  Al51  1  0.42995444  0.57885695  0.91898705  1
  Al  Al52  1  0.92550340  0.08595707  0.41206505  1
  Al  Al53  1  0.91797253  0.08888699  0.91364544  1
  Al  Al54  1  0.91790118  0.59722690  0.41373535  1
  Al  Al55  1  0.91726331  0.59599076  0.91980016  1
  Al  Al56  1  0.08484878  0.39733823  0.41599025  1
  Al  Al57  1  0.08062025  0.39464304  0.91815259  1
  Al  Al58  1  0.08232673  0.91339517  0.41003252  1
  Al  Al59  1  0.07629155  0.91892720  0.90767821  1
  Al  Al60  1  0.57898643  0.42135132  0.41357015  1
  Al  Al61  1  0.58993637  0.41317374  0.92991033  1
  Al  Al62  1  0.57774033  0.90496606  0.41165605  1
  Al  Al63  1  0.59131089  0.92503907  0.91372164  1
  Al  Al64  1  0.08367726  0.08840303  0.41188496  1
  Al  Al65  1  0.08584077  0.09608725  0.91618972  1
  Al  Al66  1  0.07563134  0.59016859  0.41290465  1
  Al  Al67  1  0.07517163  0.58842711  0.91568375  1
  Al  Al68  1  0.58104832  0.07627863  0.41836642  1
  Al  Al69  1  0.59796049  0.08633410  0.91629114  1
  Al  Al70  1  0.58585262  0.59335957  0.41362829  1
  Al  Al71  1  0.58926905  0.58977008  0.92190821  1
  Al  Al72  1  0.41580055  0.41503576  0.41151489  1
  Al  Al73  1  0.42223611  0.41997629  0.92956217  1
  Al  Al74  1  0.41530511  0.89824813  0.41951937  1
  Al  Al75  1  0.41483217  0.93177037  0.90763351  1
  Al  Al76  1  0.92736651  0.40981131  0.41108731  1
  Al  Al77  1  0.91807427  0.39443289  0.91907807  1
  Al  Al78  1  0.92502380  0.91528796  0.40950154  1
  Al  Al79  1  0.91554807  0.91715586  0.90781018  1
  Al  Al80  1  0.08447453  0.40624581  0.08071078  1
  Al  Al81  1  0.08810248  0.39968671  0.57684031  1
  Al  Al82  1  0.07229879  0.91915305  0.08836404  1
  Al  Al83  1  0.08418090  0.92068343  0.58658073  1
  Al  Al84  1  0.58944800  0.40810989  0.09158315  1
  Al  Al85  1  0.57643888  0.42611001  0.56996724  1
  Al  Al86  1  0.58574626  0.92129545  0.08164377  1
  Al  Al87  1  0.59030718  0.91836024  0.58471682  1
  Al  Al88  1  0.41564404  0.08726151  0.08005780  1
  Al  Al89  1  0.40993518  0.07564076  0.59269090  1
  Al  Al90  1  0.41841951  0.56594140  0.08957839  1
  Al  Al91  1  0.42804440  0.59680439  0.58180037  1
  Al  Al92  1  0.91666994  0.08673683  0.08993761  1
  Al  Al93  1  0.91953796  0.07910301  0.59877052  1
  Al  Al94  1  0.91571078  0.58922589  0.08375429  1
  Al  Al95  1  0.92023930  0.59569622  0.57483245  1
  Al  Al96  1  0.24332418  0.13946607  0.13452085  1
  Al  Al97  1  0.24959280  0.13437390  0.63735435  1
  Al  Al98  1  0.25414313  0.63180506  0.14085249  1
  Al  Al99  1  0.24411652  0.63966953  0.62830295  1
  Al  Al100  1  0.74991562  0.13742587  0.12760001  1
  Al  Al101  1  0.75548012  0.13230137  0.63769691  1
  Al  Al102  1  0.74623208  0.63204134  0.13454246  1
  Al  Al103  1  0.75282476  0.63737361  0.63700728  1
  Al  Al104  1  0.24716799  0.36440078  0.13989659  1
  Al  Al105  1  0.24372277  0.36215731  0.63730478  1
  Al  Al106  1  0.24480408  0.86346468  0.13704382  1
  Al  Al107  1  0.24890891  0.86458946  0.63104465  1
  Al  Al108  1  0.74851976  0.36438885  0.13294615  1
  Al  Al109  1  0.75654116  0.36165120  0.63814548  1
  Al  Al110  1  0.74956028  0.87177984  0.13466194  1
  Al  Al111  1  0.75096486  0.86334038  0.63597780  1
  Al  Al112  1  0.24687495  0.13997680  0.36217451  1
  Al  Al113  1  0.24650735  0.13079498  0.86426036  1
  Al  Al114  1  0.25135061  0.63610018  0.37096823  1
  Al  Al115  1  0.24638267  0.63371698  0.85912729  1
  Al  Al116  1  0.75169626  0.13462805  0.35929206  1
  Al  Al117  1  0.75015079  0.13371861  0.87645321  1
  Al  Al118  1  0.74676760  0.63465148  0.36358107  1
  Al  Al119  1  0.75219694  0.63658618  0.86404629  1
  Al  Al120  1  0.24592145  0.36825661  0.35948940  1
  Al  Al121  1  0.24200586  0.36424154  0.86725159  1
  Al  Al122  1  0.25072336  0.86144513  0.37359721  1
  Al  Al123  1  0.24600153  0.86998794  0.86324532  1
  Al  Al124  1  0.74913316  0.36520185  0.35812087  1
  Al  Al125  1  0.75359860  0.36000936  0.87298738  1
  Al  Al126  1  0.74824154  0.86646557  0.36324661  1
  Al  Al127  1  0.74967191  0.86609920  0.86650559  1
  Al  Al128  1  0.12874531  0.25091617  0.13437995  1
  Al  Al129  1  0.13293003  0.24952639  0.63722048  1
  Al  Al130  1  0.13439046  0.74631435  0.13726897  1
  Al  Al131  1  0.12792713  0.75329295  0.63110891  1
  Al  Al132  1  0.63363423  0.25168272  0.13212318  1
  Al  Al133  1  0.63926156  0.24546327  0.64093414  1
  Al  Al134  1  0.63569260  0.74769916  0.13438730  1
  Al  Al135  1  0.63387127  0.74587938  0.63221286  1
  Al  Al136  1  0.13257624  0.25208282  0.36386094  1
  Al  Al137  1  0.13303877  0.24638083  0.87104625  1
  Al  Al138  1  0.13400882  0.75203491  0.37150990  1
  Al  Al139  1  0.13202004  0.75110130  0.86349425  1
  Al  Al140  1  0.63002958  0.24853613  0.35872258  1
  Al  Al141  1  0.63719218  0.24745831  0.87341136  1
  Al  Al142  1  0.63361437  0.74947441  0.36376411  1
  Al  Al143  1  0.63539264  0.74660070  0.86691223  1
  Al  Al144  1  0.37116246  0.25126914  0.13612644  1
  Al  Al145  1  0.36289327  0.24931885  0.63780236  1
  Al  Al146  1  0.36483703  0.75142748  0.13714956  1
  Al  Al147  1  0.36045357  0.75151499  0.62738387  1
  Al  Al148  1  0.86590527  0.24996033  0.12892170  1
  Al  Al149  1  0.86707218  0.24826892  0.63396686  1
  Al  Al150  1  0.86229621  0.75070909  0.13627213  1
  Al  Al151  1  0.87267769  0.75195129  0.63706520  1
  Al  Al152  1  0.36881763  0.25467572  0.36144172  1
  Al  Al153  1  0.36612332  0.24600767  0.86535268  1
  Al  Al154  1  0.36554556  0.75016772  0.36925954  1
  Al  Al155  1  0.36123786  0.75206377  0.85996687  1
  Al  Al156  1  0.86399047  0.25003384  0.36380726  1
  Al  Al157  1  0.86461002  0.24687352  0.87378874  1
  Al  Al158  1  0.86531226  0.75183742  0.36096518  1
  Al  Al159  1  0.86633778  0.75319328  0.86503899  1
  Al  Al160  1  0.13176088  0.13752332  0.24493055  1
  Al  Al161  1  0.13239114  0.13435173  0.75622222  1
  Al  Al162  1  0.13603492  0.63146558  0.25052621  1
  Al  Al163  1  0.12882564  0.63653672  0.74929549  1
  Al  Al164  1  0.63288622  0.13256507  0.24277312  1
  Al  Al165  1  0.63820366  0.13375059  0.75835636  1
  Al  Al166  1  0.63500563  0.63489865  0.25047141  1
  Al  Al167  1  0.63680145  0.63825588  0.74894748  1
  Al  Al168  1  0.36861157  0.13835874  0.24758390  1
  Al  Al169  1  0.36104256  0.12845329  0.75208060  1
  Al  Al170  1  0.36780302  0.63970513  0.25441932  1
  Al  Al171  1  0.36389229  0.63961964  0.74502028  1
  Al  Al172  1  0.86584803  0.13164781  0.23956508  1
  Al  Al173  1  0.86604378  0.13652238  0.75703684  1
  Al  Al174  1  0.86400449  0.63209337  0.24545093  1
  Al  Al175  1  0.87096096  0.63697829  0.75251685  1
  Al  Al176  1  0.12371229  0.36392885  0.24819130  1
  Al  Al177  1  0.12455370  0.35990893  0.75720845  1
  Al  Al178  1  0.13328825  0.86209146  0.25368392  1
  Al  Al179  1  0.13023563  0.86472474  0.74969483  1
  Al  Al180  1  0.63067507  0.36631032  0.24423145  1
  Al  Al181  1  0.64115166  0.36216559  0.75758818  1
  Al  Al182  1  0.63610786  0.86822804  0.24919673  1
  Al  Al183  1  0.63339131  0.86237640  0.75124403  1
  Al  Al184  1  0.36918961  0.36709420  0.24707575  1
  Al  Al185  1  0.36151914  0.36257637  0.75697644  1
  Al  Al186  1  0.36442262  0.86181795  0.25648030  1
  Al  Al187  1  0.36380730  0.86885566  0.74652696  1
  Al  Al188  1  0.87137357  0.36130801  0.24522843  1
  Al  Al189  1  0.87270015  0.35932790  0.75732077  1
  Al  Al190  1  0.86510014  0.86841027  0.24788934  1
  Al  Al191  1  0.87013173  0.86574521  0.75079286  1
  Al  Al192  1  0.66914054  0.50054981  0.66976800  1
  Al  Al193  1  0.49727010  0.81359063  0.66714795  1
  Al  Al194  1  0.68089241  0.81393063  0.00070819  1
  Al  Al195  1  0.17405077  0.67191796  0.00046614  1
  Al  Al196  1  0.50057675  0.67454783  0.81615262  1
  Al  Al197  1  0.33038473  0.66739605  0.00113408  1
  Al  Al198  1  0.16732172  0.49775357  0.67641343  1
  Al  Al199  1  0.50162113  0.32478384  0.82944620  1
  Al  Al200  1  0.17315251  0.18334579  0.50068117  1
  Al  Al201  1  0.30537136  0.32817221  0.49792945  1
  Al  Al202  1  0.50031772  0.67165138  0.18023673  1
  Al  Al203  1  0.82301535  0.49834014  0.17560904  1
  Al  Al204  1  -0.00143940  0.19029208  0.30757087  1
  Al  Al205  1  0.83299708  0.83088740  0.49957447  1
  Al  Al206  1  0.67974484  0.50011337  0.32108724  1
  Al  Al207  1  0.67577617  0.49978313  0.82931894  1
  Al  Al208  1  0.33152762  0.83401142  -0.00115469  1
  Al  Al209  1  0.83232433  0.50047618  0.66981853  1
  Al  Al210  1  0.81045416  0.68130579  0.49823864  1
  Al  Al211  1  0.31682901  0.00267715  0.17545190  1
  Al  Al212  1  0.69001106  -0.00113571  0.69260435  1
  Al  Al213  1  0.83029112  0.49741372  0.83506379  1
  Al  Al214  1  0.18663070  -0.00043223  0.68296218  1
  Al  Al215  1  0.00050623  0.17843118  0.68910319  1
  Al  Al216  1  0.32602719  0.17147954  0.50020627  1
  Al  Al217  1  0.32206505  0.50025165  0.82983311  1
  Al  Al218  1  0.16759038  0.82947092  -0.00086958  1
  Al  Al219  1  0.82934957  0.32422808  0.49686544  1
  Al  Al220  1  0.80936868  -0.00019778  0.81056770  1
  Al  Al221  1  0.00078511  0.69197576  0.30792934  1
  Al  Al222  1  0.81211836  0.68293684  0.00125778  1
  Al  Al223  1  0.32161374  0.50279555  0.31233891  1
  Al  Al224  1  0.31133293  0.17484465  0.00042259  1
  Al  Al225  1  0.67377222  0.32703726  0.49842537  1
  Al  Al226  1  0.67664344  0.17093067  0.50065147  1
  Al  Al227  1  0.50250050  0.32835727  0.67146889  1
  Al  Al228  1  0.49901783  0.17037856  0.68211094  1
  Al  Al229  1  0.50091629  0.82664623  0.18321869  1
  Al  Al230  1  0.32374308  0.00081995  0.33336853  1
  Al  Al231  1  0.17340423  0.00077778  0.31667695  1
  Al  Al232  1  0.17273539  0.49934205  0.17562456  1
  Al  Al233  1  0.67799669  0.81345772  0.49863721  1
  Al  Al234  1  0.82390819  0.00093297  0.32328558  1
  Al  Al235  1  0.49942339  0.82978318  0.82605128  1
  Al  Al236  1  0.33094145  0.50326304  0.67129553  1
  Al  Al237  1  0.31245249  0.32919519  0.00274847  1
  Al  Al238  1  -0.00137482  0.81123882  0.18908934  1
  Au  Au239  1  0.32207026  0.32327396  0.49740845  1
  Au  Au240  1  0.82644187  0.33655803  0.49489180  1
  Au  Au241  1  0.33802017  0.67629501  0.49831541  1
  Au  Au242  1  0.50335725  0.32030655  0.65573529  1
  Au  Au243  1  -0.00077703  0.83964970  0.67766104  1
  Au  Au244  1  0.83232698  0.49388335  0.85030795  1
  Au  Au245  1  -0.00007155  0.32481579  0.67602534  1
  Au  Au246  1  0.66401946  -0.00387560  0.32847283  1
  Au  Au247  1  0.66031047  0.17271602  0.50493877  1
  Au  Au248  1  0.49925749  0.82869648  0.83872807  1
  Au  Au249  1  0.15513667  0.82656806  -0.00111681  1
  Au  Au250  1  0.33060516  0.85040478  0.00253518  1
  Au  Au251  1  0.82072942  0.49965051  0.16303779  1
  Au  Au252  1  0.16541974  0.00412011  0.16492661  1
  Au  Au253  1  0.82366964  0.00106203  0.81932205  1
  Au  Au254  1  0.67827568  0.00523755  0.16019064  1
  Au  Au255  1  0.50255465  0.33134988  0.32384931  1
  Au  Au256  1  0.17235692  0.83971639  0.50063775  1
  Au  Au257  1  0.66781975  0.49982063  0.32572229  1
  Au  Au258  1  0.32814406  0.65108466  0.00509830  1
  Au  Au259  1  0.83076448  0.17250553  0.00247384  1
  Au  Au260  1  0.34760873  0.50463643  0.66602127  1
  Au  Au261  1  0.15882857  0.49498144  0.84329012  1
  Au  Au262  1  0.84269111  0.16133740  0.50511636  1
  Au  Au263  1  0.50397369  0.65617791  0.17392453  1
  Au  Au264  1  0.50142924  0.15974917  0.83223827  1
  Au  Au265  1  0.49712436  0.16625415  0.33234897  1
  Au  Au266  1  0.33389360  0.50135568  0.83427526  1
  Au  Au267  1  -0.00057144  0.67158108  0.67755797  1
  Au  Au268  1  0.84261720  0.50018936  0.33256273  1
  Au  Au269  1  0.33905553  -0.00470631  0.33153971  1
  Au  Au270  1  0.17094974  0.00200894  0.83028975  1
  Au  Au271  1  0.83618571  0.00255365  0.32020641  1
  Au  Au272  1  0.50159436  0.17487349  0.16153515  1
  Au  Au273  1  0.66743844  0.82441194  -0.00004231  1
  Au  Au274  1  0.32910580  0.32592413  0.00449977  1
  Au  Au275  1  0.50643379  0.33564080  0.83332137  1
  Au  Au276  1  0.17534124  0.50108586  0.16319779  1
  Au  Au277  1  0.83983341  0.50172398  0.65558649  1
  Au  Au278  1  -0.00208383  0.31951894  0.17187184  1
  Au  Au279  1  0.49676139  0.82896904  0.66204828  1
  Au  Au280  1  0.67309127  0.82537262  0.49884499  1
  Au  Au281  1  0.16306401  0.49778243  0.66046108  1
  Au  Au282  1  0.15834542  0.49609570  0.33818131  1
  Au  Au283  1  0.84412918  0.82956055  0.00241297  1
  Au  Au284  1  0.16759934  0.67058888  0.49757109  1
  Au  Au285  1  0.65316979  0.50407447  0.67397117  1
  Au  Au286  1  0.33612128  0.50341514  0.32137917  1
  Au  Au287  1  0.49609034  0.84329318  0.18214106  1
