# generated using pymatgen
data_Ca24Ti8Al207Au49
_symmetry_space_group_name_H-M   'P 1'
_cell_length_a   17.31711011
_cell_length_b   17.31720671
_cell_length_c   17.31624739
_cell_angle_alpha   90.00202544
_cell_angle_beta   89.99460478
_cell_angle_gamma   90.00029495
_symmetry_Int_Tables_number   1
_chemical_formula_structural   Ca24Ti8Al207Au49
_chemical_formula_sum   'Ca24 Ti8 Al207 Au49'
_cell_volume   5192.86507756
_cell_formula_units_Z   1
loop_
 _symmetry_equiv_pos_site_id
 _symmetry_equiv_pos_as_xyz
  1  'x, y, z'
loop_
 _atom_site_type_symbol
 _atom_site_label
 _atom_site_symmetry_multiplicity
 _atom_site_fract_x
 _atom_site_fract_y
 _atom_site_fract_z
 _atom_site_occupancy
  Ca  Ca0  1  0.24588014  -0.00077083  0.00086241  1
  Ca  Ca1  1  0.24868711  -0.00120224  0.50105430  1
  Ca  Ca2  1  0.25501707  0.50365457  -0.00477524  1
  Ca  Ca3  1  0.24833746  0.50146163  0.50308580  1
  Ca  Ca4  1  0.75293249  -0.00222102  -0.00294012  1
  Ca  Ca5  1  0.75013732  0.00142680  0.50279990  1
  Ca  Ca6  1  0.74581338  0.50211766  0.00167723  1
  Ca  Ca7  1  0.75228100  0.50151647  0.49576292  1
  Ca  Ca8  1  -0.00140067  0.24780467  0.00042797  1
  Ca  Ca9  1  0.00184822  0.24625684  0.50170969  1
  Ca  Ca10  1  -0.00216211  0.75394964  0.00437411  1
  Ca  Ca11  1  0.00212393  0.75181463  0.49567923  1
  Ca  Ca12  1  0.50413611  0.25202138  0.00635934  1
  Ca  Ca13  1  0.50104190  0.24668004  0.49276515  1
  Ca  Ca14  1  0.50011231  0.74746214  -0.00159483  1
  Ca  Ca15  1  0.49958197  0.75015567  0.50314505  1
  Ca  Ca16  1  -0.00022455  -0.00472048  0.25035039  1
  Ca  Ca17  1  0.00001034  -0.00261089  0.75322420  1
  Ca  Ca18  1  -0.00285934  0.50709455  0.25187259  1
  Ca  Ca19  1  0.00312326  0.50032288  0.74694421  1
  Ca  Ca20  1  0.50306633  -0.00013260  0.25182318  1
  Ca  Ca21  1  0.49871498  -0.00696626  0.74763024  1
  Ca  Ca22  1  0.50488361  0.49817501  0.24469025  1
  Ca  Ca23  1  0.49849621  0.50742254  0.75182685  1
  Ti  Ti24  1  0.24993983  0.24613612  0.25010116  1
  Ti  Ti25  1  0.24879068  0.25002367  0.75011206  1
  Ti  Ti26  1  0.24898527  0.75310346  0.25130571  1
  Ti  Ti27  1  0.24998830  0.74880363  0.74801123  1
  Ti  Ti28  1  0.74832061  0.25119133  0.24815306  1
  Ti  Ti29  1  0.75101706  0.24965674  0.75123142  1
  Ti  Ti30  1  0.74966212  0.74767698  0.24929247  1
  Ti  Ti31  1  0.75061855  0.74955405  0.75240808  1
  Al  Al32  1  0.08073573  0.07605580  0.08344170  1
  Al  Al33  1  0.08818862  0.08837138  0.57702494  1
  Al  Al34  1  0.07433714  0.58944491  0.08770987  1
  Al  Al35  1  0.09289644  0.58355400  0.57965760  1
  Al  Al36  1  0.59080634  0.08048397  0.09331370  1
  Al  Al37  1  0.57947340  0.07407218  0.57130155  1
  Al  Al38  1  0.58948997  0.57755097  0.08978936  1
  Al  Al39  1  0.58355209  0.58942782  0.59870283  1
  Al  Al40  1  0.43241748  0.41354893  0.08044911  1
  Al  Al41  1  0.41048553  0.42725092  0.58344165  1
  Al  Al42  1  0.41986478  0.92030359  0.08213673  1
  Al  Al43  1  0.41015082  0.90718292  0.58721880  1
  Al  Al44  1  0.90940850  0.42284447  0.08698369  1
  Al  Al45  1  0.91486341  0.42064636  0.57769052  1
  Al  Al46  1  0.91863635  0.90775558  0.08134530  1
  Al  Al47  1  0.91093329  0.91946445  0.58482701  1
  Al  Al48  1  0.41572017  0.08759571  0.41153847  1
  Al  Al49  1  0.40790948  0.07495360  0.91335842  1
  Al  Al50  1  0.41943484  0.58174259  0.42143824  1
  Al  Al51  1  0.41694381  0.58666056  0.90578111  1
  Al  Al52  1  0.92113181  0.07801613  0.42209497  1
  Al  Al53  1  0.91474972  0.08048852  0.90252835  1
  Al  Al54  1  0.91564838  0.59773203  0.41209060  1
  Al  Al55  1  0.91771438  0.58367594  0.92397176  1
  Al  Al56  1  0.07490582  0.41477919  0.42352734  1
  Al  Al57  1  0.08826270  0.42580042  0.90767934  1
  Al  Al58  1  0.08831447  0.91495600  0.40423186  1
  Al  Al59  1  0.08541458  0.91695536  0.92204257  1
  Al  Al60  1  0.58381673  0.41819805  0.41248445  1
  Al  Al61  1  0.58862592  0.41997240  0.92888267  1
  Al  Al62  1  0.58674022  0.92901496  0.41419180  1
  Al  Al63  1  0.58499993  0.91148909  0.91681917  1
  Al  Al64  1  0.09834046  0.07929919  0.41522555  1
  Al  Al65  1  0.07669618  0.08038586  0.90779614  1
  Al  Al66  1  0.07930113  0.59892540  0.41834339  1
  Al  Al67  1  0.09043836  0.58218514  0.90979810  1
  Al  Al68  1  0.58074772  0.08869477  0.39913881  1
  Al  Al69  1  0.58692039  0.07543947  0.92485072  1
  Al  Al70  1  0.58515053  0.58087311  0.41390083  1
  Al  Al71  1  0.57859025  0.58338721  0.91351544  1
  Al  Al72  1  0.42102277  0.41800008  0.41730124  1
  Al  Al73  1  0.41181101  0.42787194  0.91941938  1
  Al  Al74  1  0.40745606  0.92159954  0.42653310  1
  Al  Al75  1  0.41518137  0.91474903  0.90636015  1
  Al  Al76  1  0.91617985  0.41429958  0.41654214  1
  Al  Al77  1  0.91850750  0.41901431  0.92318271  1
  Al  Al78  1  0.92429856  0.90870169  0.41326281  1
  Al  Al79  1  0.91296967  0.91799947  0.91743842  1
  Al  Al80  1  0.07535024  0.42646686  0.07906350  1
  Al  Al81  1  0.09326859  0.42242609  0.58603352  1
  Al  Al82  1  0.08270584  0.90584721  0.08529091  1
  Al  Al83  1  0.07828825  0.92043915  0.57341621  1
  Al  Al84  1  0.59383344  0.41317442  0.09141576  1
  Al  Al85  1  0.59055659  0.42879855  0.58650467  1
  Al  Al86  1  0.59396172  0.91717482  0.08752277  1
  Al  Al87  1  0.57319617  0.91200919  0.58568596  1
  Al  Al88  1  0.42130333  0.08308508  0.08493116  1
  Al  Al89  1  0.40984652  0.07387122  0.57194152  1
  Al  Al90  1  0.43167460  0.58354051  0.07962850  1
  Al  Al91  1  0.41725670  0.58941588  0.59469312  1
  Al  Al92  1  0.92067729  0.07783605  0.07696185  1
  Al  Al93  1  0.91472309  0.07842459  0.58885960  1
  Al  Al94  1  0.91343463  0.58788758  0.09275882  1
  Al  Al95  1  0.91050086  0.58552579  0.57354894  1
  Al  Al96  1  0.25136471  0.12977983  0.13312959  1
  Al  Al97  1  0.24649135  0.13461360  0.63665719  1
  Al  Al98  1  0.24462187  0.64164676  0.13969465  1
  Al  Al99  1  0.25123437  0.62936875  0.63521487  1
  Al  Al100  1  0.74532625  0.13534391  0.13135637  1
  Al  Al101  1  0.75273929  0.13807645  0.63132953  1
  Al  Al102  1  0.74953045  0.63619741  0.12958382  1
  Al  Al103  1  0.74669970  0.63583550  0.63290120  1
  Al  Al104  1  0.25028325  0.36224402  0.13862427  1
  Al  Al105  1  0.24686248  0.37389762  0.63898407  1
  Al  Al106  1  0.24680590  0.87004325  0.13598912  1
  Al  Al107  1  0.25075023  0.86217253  0.62658824  1
  Al  Al108  1  0.74611775  0.36553316  0.12957230  1
  Al  Al109  1  0.74701780  0.36666653  0.63481851  1
  Al  Al110  1  0.74773987  0.86294780  0.13657659  1
  Al  Al111  1  0.75186845  0.86338257  0.63718014  1
  Al  Al112  1  0.24673391  0.13106710  0.36533207  1
  Al  Al113  1  0.25020037  0.13506247  0.87012447  1
  Al  Al114  1  0.24931326  0.63834823  0.36572695  1
  Al  Al115  1  0.25099833  0.63425147  0.86617215  1
  Al  Al116  1  0.74462725  0.13379613  0.36743061  1
  Al  Al117  1  0.75486956  0.13186331  0.87048672  1
  Al  Al118  1  0.74861395  0.63267286  0.36786641  1
  Al  Al119  1  0.74799786  0.63580787  0.87186262  1
  Al  Al120  1  0.25221131  0.35897963  0.36605797  1
  Al  Al121  1  0.24794635  0.36422590  0.86415198  1
  Al  Al122  1  0.24792872  0.86398632  0.37126641  1
  Al  Al123  1  0.25204541  0.86332611  0.86293440  1
  Al  Al124  1  0.74481130  0.36915387  0.36172242  1
  Al  Al125  1  0.75001628  0.36346945  0.87014847  1
  Al  Al126  1  0.74949794  0.86101477  0.36024432  1
  Al  Al127  1  0.75460357  0.86666724  0.86775359  1
  Al  Al128  1  0.13538233  0.24271932  0.13503673  1
  Al  Al129  1  0.13147627  0.24849797  0.63400308  1
  Al  Al130  1  0.13170279  0.75712882  0.13277205  1
  Al  Al131  1  0.14011972  0.74719862  0.62507299  1
  Al  Al132  1  0.63417881  0.25283506  0.13156531  1
  Al  Al133  1  0.63411184  0.24585567  0.63006879  1
  Al  Al134  1  0.63253849  0.74291406  0.13592977  1
  Al  Al135  1  0.63293318  0.74906823  0.63465479  1
  Al  Al136  1  0.13677405  0.24422289  0.36715572  1
  Al  Al137  1  0.13297631  0.24367074  0.86521288  1
  Al  Al138  1  0.13584391  0.75108241  0.37206297  1
  Al  Al139  1  0.13758696  0.74959638  0.86675896  1
  Al  Al140  1  0.63407223  0.24986845  0.36562658  1
  Al  Al141  1  0.63761767  0.24901961  0.87292089  1
  Al  Al142  1  0.63198174  0.74573610  0.36219653  1
  Al  Al143  1  0.63432551  0.74819209  0.86500338  1
  Al  Al144  1  0.36694953  0.24644763  0.13652062  1
  Al  Al145  1  0.36224672  0.25270945  0.63734331  1
  Al  Al146  1  0.36621251  0.75144019  0.13533602  1
  Al  Al147  1  0.36495781  0.75136294  0.63354478  1
  Al  Al148  1  0.86145307  0.24947562  0.12734708  1
  Al  Al149  1  0.87154984  0.24735414  0.63891302  1
  Al  Al150  1  0.86237685  0.75107934  0.13097827  1
  Al  Al151  1  0.86324796  0.74766269  0.63518698  1
  Al  Al152  1  0.36784422  0.24570725  0.36319690  1
  Al  Al153  1  0.36323332  0.25060749  0.86358595  1
  Al  Al154  1  0.36672982  0.75572249  0.36769977  1
  Al  Al155  1  0.36724896  0.74514903  0.86349531  1
  Al  Al156  1  0.86110573  0.24593361  0.36419379  1
  Al  Al157  1  0.86522352  0.24850722  0.87011002  1
  Al  Al158  1  0.86566884  0.74620986  0.36422826  1
  Al  Al159  1  0.86252820  0.75012285  0.87393210  1
  Al  Al160  1  0.13517903  0.12433848  0.24953058  1
  Al  Al161  1  0.13009965  0.13492352  0.74995268  1
  Al  Al162  1  0.13159717  0.64212009  0.25488013  1
  Al  Al163  1  0.13401733  0.63701704  0.74683828  1
  Al  Al164  1  0.63524496  0.13496981  0.25105040  1
  Al  Al165  1  0.63967381  0.13534938  0.75561334  1
  Al  Al166  1  0.63745316  0.62752917  0.24761605  1
  Al  Al167  1  0.63586319  0.63534315  0.75001533  1
  Al  Al168  1  0.36675378  0.13271576  0.25195394  1
  Al  Al169  1  0.36279125  0.13370134  0.75346459  1
  Al  Al170  1  0.36307711  0.63763834  0.24859674  1
  Al  Al171  1  0.36156794  0.62921906  0.75142072  1
  Al  Al172  1  0.86272066  0.13442479  0.24841969  1
  Al  Al173  1  0.87128375  0.13646938  0.75436844  1
  Al  Al174  1  0.86363886  0.63641185  0.25216063  1
  Al  Al175  1  0.86571004  0.63696547  0.75128019  1
  Al  Al176  1  0.13596386  0.36211783  0.25082361  1
  Al  Al177  1  0.13204726  0.36320426  0.74925323  1
  Al  Al178  1  0.13653002  0.86819073  0.25314319  1
  Al  Al179  1  0.13765513  0.86138690  0.74874914  1
  Al  Al180  1  0.63307708  0.36885343  0.24460038  1
  Al  Al181  1  0.63621990  0.36235987  0.74988916  1
  Al  Al182  1  0.63402784  0.86517586  0.24867061  1
  Al  Al183  1  0.63592515  0.86582762  0.75033130  1
  Al  Al184  1  0.36708705  0.36237449  0.24723374  1
  Al  Al185  1  0.36556928  0.37213800  0.75055393  1
  Al  Al186  1  0.36601513  0.86555635  0.24841095  1
  Al  Al187  1  0.36521020  0.86210036  0.74848720  1
  Al  Al188  1  0.86176370  0.36323103  0.24831068  1
  Al  Al189  1  0.86472332  0.36483125  0.74937563  1
  Al  Al190  1  0.86777611  0.86385828  0.24575758  1
  Al  Al191  1  0.86565314  0.86349500  0.75508201  1
  Al  Al192  1  0.32588931  0.49992428  0.32488867  1
  Al  Al193  1  -0.00113194  0.31585264  0.32020672  1
  Al  Al194  1  0.49765765  0.69171547  0.69476269  1
  Al  Al195  1  0.50013933  0.33017205  0.67028194  1
  Al  Al196  1  0.81488429  0.50166846  0.67413419  1
  Al  Al197  1  0.30946637  0.18078502  0.49969778  1
  Al  Al198  1  0.82650210  0.50012201  0.82962973  1
  Al  Al199  1  0.50000381  0.80889231  0.81006472  1
  Al  Al200  1  0.50096182  0.31520867  0.31298117  1
  Al  Al201  1  0.67315289  0.82051465  0.49922899  1
  Al  Al202  1  0.49967695  0.33168922  0.83153222  1
  Al  Al203  1  -0.00069271  0.31751348  0.82288895  1
  Al  Al204  1  0.31238764  0.82884778  0.00028825  1
  Al  Al205  1  0.81471713  -0.00080727  0.17142202  1
  Al  Al206  1  0.67408803  0.49943868  0.81736087  1
  Al  Al207  1  0.68634271  0.81804853  0.00065924  1
  Al  Al208  1  0.17448118  0.49879968  0.33268887  1
  Al  Al209  1  0.31638936  0.68274515  0.50021674  1
  Al  Al210  1  0.00062632  0.82853443  0.67354564  1
  Al  Al211  1  0.00133232  0.67150265  0.67117672  1
  Al  Al212  1  0.50262829  0.18521782  0.18623139  1
  Al  Al213  1  0.18174233  0.32185168  0.50054015  1
  Al  Al214  1  0.00092915  0.82171214  0.83007176  1
  Al  Al215  1  0.49869477  0.67753843  0.31212706  1
  Al  Al216  1  0.82880354  0.81682919  0.49880332  1
  Al  Al217  1  0.32279809  -0.00191717  0.68447126  1
  Al  Al218  1  0.19515172  0.50018447  0.80226564  1
  Al  Al219  1  0.50248849  0.17044164  0.82959277  1
  Al  Al220  1  0.81412052  -0.00123090  0.32754507  1
  Al  Al221  1  0.32676129  0.50068713  0.16345830  1
  Al  Al222  1  0.17080384  0.32794715  0.00176000  1
  Al  Al223  1  0.17362121  0.50284393  0.17543672  1
  Al  Al224  1  0.31543423  -0.00175297  0.32335648  1
  Al  Al225  1  0.49651362  0.16859847  0.66813928  1
  Al  Al226  1  0.80732517  0.50112523  0.18380820  1
  Al  Al227  1  0.81617121  0.00086796  0.69351873  1
  Al  Al228  1  0.82072824  0.31929738  0.49960310  1
  Al  Al229  1  0.00154136  0.80870088  0.30996651  1
  Al  Al230  1  0.18487132  -0.00107670  0.82357048  1
  Al  Al231  1  0.32942374  0.67172428  0.00237775  1
  Al  Al232  1  0.32914596  0.32129629  0.00184584  1
  Al  Al233  1  0.17361272  0.68175736  0.00256164  1
  Al  Al234  1  0.50215993  0.82250010  0.17750279  1
  Al  Al235  1  0.17073831  -0.00241796  0.67118300  1
  Al  Al236  1  -0.00230011  0.69253933  0.19038652  1
  Al  Al237  1  -0.00275201  0.17527282  0.18070503  1
  Al  Al238  1  0.68272437  -0.00138526  0.81779568  1
  Au  Au239  1  0.00033970  0.33480295  0.66112932  1
  Au  Au240  1  0.31843324  0.50091664  0.68277237  1
  Au  Au241  1  0.67367186  0.34078846  0.50084102  1
  Au  Au242  1  0.00225975  0.67447102  0.65871356  1
  Au  Au243  1  0.16971233  0.31833370  0.49911174  1
  Au  Au244  1  0.66718417  0.17236768  0.00330496  1
  Au  Au245  1  0.16892611  0.66966921  0.00291953  1
  Au  Au246  1  0.82202412  0.33786431  0.00129213  1
  Au  Au247  1  0.68067283  -0.00203197  0.83023976  1
  Au  Au248  1  0.15871608  0.50457409  0.33205328  1
  Au  Au249  1  0.67387432  0.65839748  0.50243613  1
  Au  Au250  1  0.83879949  0.50229526  0.32923534  1
  Au  Au251  1  0.65936455  0.67183466  0.00000613  1
  Au  Au252  1  0.50447129  0.34146433  0.66745568  1
  Au  Au253  1  0.17718759  0.34373893  0.00240946  1
  Au  Au254  1  -0.00326539  0.17144711  0.16856871  1
  Au  Au255  1  0.66458073  0.16558715  0.49374533  1
  Au  Au256  1  0.49178355  0.16631924  0.65686961  1
  Au  Au257  1  0.50322054  0.17090275  0.17780259  1
  Au  Au258  1  -0.00081206  0.34382238  0.17505281  1
  Au  Au259  1  -0.00046064  0.32725164  0.83677647  1
  Au  Au260  1  0.49789857  0.15918965  0.83271904  1
  Au  Au261  1  0.83188059  0.67656211  0.00258178  1
  Au  Au262  1  0.33558268  0.16987740  0.00067001  1
  Au  Au263  1  0.82445980  -0.00357730  0.15834355  1
  Au  Au264  1  0.32909823  0.83157550  -0.00157909  1
  Au  Au265  1  0.33320834  0.00079424  0.17586288  1
  Au  Au266  1  0.00162735  0.15982146  0.67479412  1
  Au  Au267  1  -0.00216459  0.67076254  0.83549036  1
  Au  Au268  1  0.34221766  0.49848064  0.17049165  1
  Au  Au269  1  0.83640492  0.17194334  0.50304425  1
  Au  Au270  1  0.49924283  0.32898978  0.32270694  1
  Au  Au271  1  0.32888401  0.67098096  0.50121887  1
  Au  Au272  1  0.49578840  0.84042319  0.33980937  1
  Au  Au273  1  0.83632169  0.16667135  -0.00499749  1
  Au  Au274  1  0.66934020  -0.00016092  0.66478144  1
  Au  Au275  1  0.50335007  0.33487577  0.84291901  1
  Au  Au276  1  0.16968284  0.83079946  0.49901115  1
  Au  Au277  1  0.16273944  0.16160080  -0.00392581  1
  Au  Au278  1  0.50175932  0.82288360  0.81961287  1
  Au  Au279  1  0.82403740  -0.00431712  0.34103257  1
  Au  Au280  1  0.50281106  0.82572552  0.16492780  1
  Au  Au281  1  0.49803784  0.66341910  0.32193305  1
  Au  Au282  1  0.82688425  0.50169019  0.66941412  1
  Au  Au283  1  0.67465919  0.83707419  0.49697491  1
  Au  Au284  1  0.33533524  0.32799964  0.49972036  1
  Au  Au285  1  0.00543617  0.16754417  0.34060398  1
  Au  Au286  1  0.16314780  -0.00593538  0.17391520  1
  Au  Au287  1  0.67169663  0.49900860  0.31796570  1
