# generated using pymatgen
data_Ca24Ti8Al207Au49
_symmetry_space_group_name_H-M   'P 1'
_cell_length_a   17.31959629
_cell_length_b   17.32119812
_cell_length_c   17.32093120
_cell_angle_alpha   89.99745231
_cell_angle_beta   89.99866140
_cell_angle_gamma   90.00408921
_symmetry_Int_Tables_number   1
_chemical_formula_structural   Ca24Ti8Al207Au49
_chemical_formula_sum   'Ca24 Ti8 Al207 Au49'
_cell_volume   5196.21280425
_cell_formula_units_Z   1
loop_
 _symmetry_equiv_pos_site_id
 _symmetry_equiv_pos_as_xyz
  1  'x, y, z'
loop_
 _atom_site_type_symbol
 _atom_site_label
 _atom_site_symmetry_multiplicity
 _atom_site_fract_x
 _atom_site_fract_y
 _atom_site_fract_z
 _atom_site_occupancy
  Ca  Ca0  1  0.25649192  -0.00243599  0.00163293  1
  Ca  Ca1  1  0.25354988  -0.00285075  0.49559548  1
  Ca  Ca2  1  0.25247658  0.49818783  0.00535700  1
  Ca  Ca3  1  0.25362099  0.50492301  0.49570039  1
  Ca  Ca4  1  0.74690980  -0.00157235  -0.00260605  1
  Ca  Ca5  1  0.75231023  0.00224784  0.50139448  1
  Ca  Ca6  1  0.74613005  0.49995035  0.00153737  1
  Ca  Ca7  1  0.74427142  0.49843801  0.49784595  1
  Ca  Ca8  1  0.00241198  0.25989551  0.00014594  1
  Ca  Ca9  1  0.00127470  0.25259676  0.49900983  1
  Ca  Ca10  1  0.00386706  0.74845635  -0.00018108  1
  Ca  Ca11  1  0.00123218  0.74875030  0.50044605  1
  Ca  Ca12  1  0.49721185  0.25441783  0.00313457  1
  Ca  Ca13  1  0.49805394  0.24823764  0.49827533  1
  Ca  Ca14  1  0.49490990  0.74892139  -0.00229725  1
  Ca  Ca15  1  0.49828789  0.74250457  0.50092189  1
  Ca  Ca16  1  0.00499226  -0.00029431  0.25458503  1
  Ca  Ca17  1  0.00370414  0.00137601  0.74872815  1
  Ca  Ca18  1  0.00402535  0.49729566  0.24604191  1
  Ca  Ca19  1  -0.00014611  0.49644420  0.75506616  1
  Ca  Ca20  1  0.49762179  -0.00203250  0.24772008  1
  Ca  Ca21  1  0.49255876  -0.00488359  0.75588470  1
  Ca  Ca22  1  0.49348932  0.50489629  0.24566101  1
  Ca  Ca23  1  0.49904213  0.50712114  0.75516616  1
  Ti  Ti24  1  0.25113476  0.25205439  0.25044145  1
  Ti  Ti25  1  0.25072909  0.25141828  0.74918083  1
  Ti  Ti26  1  0.25243908  0.74981575  0.24822781  1
  Ti  Ti27  1  0.25132599  0.74874207  0.75152886  1
  Ti  Ti28  1  0.74995958  0.25201761  0.24974703  1
  Ti  Ti29  1  0.75022655  0.25087814  0.74987505  1
  Ti  Ti30  1  0.74606998  0.74806833  0.24753208  1
  Ti  Ti31  1  0.74760391  0.74880888  0.75260095  1
  Al  Al32  1  0.08680121  0.08038686  0.08263256  1
  Al  Al33  1  0.08508357  0.08074504  0.58454628  1
  Al  Al34  1  0.09921518  0.57824338  0.08414600  1
  Al  Al35  1  0.09421817  0.58755319  0.57392715  1
  Al  Al36  1  0.57293723  0.08349493  0.07905237  1
  Al  Al37  1  0.58770470  0.08630454  0.57258884  1
  Al  Al38  1  0.57239877  0.58929778  0.08850948  1
  Al  Al39  1  0.57657005  0.58621287  0.59557408  1
  Al  Al40  1  0.40667633  0.41468874  0.09221224  1
  Al  Al41  1  0.41692199  0.42414052  0.57336607  1
  Al  Al42  1  0.41372244  0.90479053  0.07729330  1
  Al  Al43  1  0.41057846  0.91664708  0.59874087  1
  Al  Al44  1  0.91675353  0.40929667  0.08522019  1
  Al  Al45  1  0.91643268  0.41127302  0.58019277  1
  Al  Al46  1  0.92302582  0.91756581  0.08274815  1
  Al  Al47  1  0.92530767  0.92196074  0.57260986  1
  Al  Al48  1  0.41046524  0.08310273  0.41670634  1
  Al  Al49  1  0.40721748  0.07400488  0.91501781  1
  Al  Al50  1  0.40859618  0.59133598  0.40615478  1
  Al  Al51  1  0.41474282  0.59656980  0.92085501  1
  Al  Al52  1  0.92036223  0.08409689  0.41618927  1
  Al  Al53  1  0.92269669  0.08664432  0.91855966  1
  Al  Al54  1  0.92929861  0.57522604  0.41899110  1
  Al  Al55  1  0.91906618  0.57023419  0.92329433  1
  Al  Al56  1  0.08942885  0.42540276  0.40612133  1
  Al  Al57  1  0.09043836  0.41095572  0.91940174  1
  Al  Al58  1  0.08845587  0.92131784  0.41098216  1
  Al  Al59  1  0.09363002  0.91856249  0.92284402  1
  Al  Al60  1  0.58149540  0.42206045  0.41856306  1
  Al  Al61  1  0.58537157  0.42807599  0.91484903  1
  Al  Al62  1  0.56873063  0.90997253  0.41140285  1
  Al  Al63  1  0.57704065  0.90371258  0.91313451  1
  Al  Al64  1  0.08703491  0.08026983  0.41021061  1
  Al  Al65  1  0.08638560  0.08391067  0.91605356  1
  Al  Al66  1  0.10299174  0.58480538  0.41234502  1
  Al  Al67  1  0.09694994  0.57727498  0.92647686  1
  Al  Al68  1  0.57524572  0.09171747  0.42075575  1
  Al  Al69  1  0.57410632  0.07149839  0.92417578  1
  Al  Al70  1  0.57184364  0.58635612  0.40667674  1
  Al  Al71  1  0.57941181  0.58882935  0.90810353  1
  Al  Al72  1  0.40938174  0.42656506  0.41050155  1
  Al  Al73  1  0.40858575  0.41402918  0.93059556  1
  Al  Al74  1  0.41325076  0.91773783  0.40540399  1
  Al  Al75  1  0.41237999  0.90778380  0.91027208  1
  Al  Al76  1  0.91841965  0.41308005  0.42037278  1
  Al  Al77  1  0.91505817  0.40668942  0.91881963  1
  Al  Al78  1  0.92334163  0.92170474  0.41522544  1
  Al  Al79  1  0.91882829  0.92268028  0.92543686  1
  Al  Al80  1  0.09256816  0.41234070  0.08740040  1
  Al  Al81  1  0.07981089  0.42335838  0.58218913  1
  Al  Al82  1  0.09023487  0.91372249  0.08313764  1
  Al  Al83  1  0.08730481  0.92235451  0.58128984  1
  Al  Al84  1  0.57093184  0.41685057  0.08777928  1
  Al  Al85  1  0.59042796  0.42654497  0.58003760  1
  Al  Al86  1  0.58017357  0.90329808  0.07495756  1
  Al  Al87  1  0.56743938  0.91357859  0.58683485  1
  Al  Al88  1  0.41506892  0.08370740  0.07945967  1
  Al  Al89  1  0.39984130  0.07874254  0.58042253  1
  Al  Al90  1  0.40838875  0.58897713  0.08965571  1
  Al  Al91  1  0.41447086  0.59502584  0.58220926  1
  Al  Al92  1  0.92177904  0.08207581  0.08110114  1
  Al  Al93  1  0.91942667  0.08600042  0.57619577  1
  Al  Al94  1  0.92115424  0.57006892  0.08099730  1
  Al  Al95  1  0.92477681  0.57419851  0.58075038  1
  Al  Al96  1  0.24928523  0.13806353  0.13502624  1
  Al  Al97  1  0.25478488  0.13429952  0.63315107  1
  Al  Al98  1  0.25674987  0.63272888  0.13370160  1
  Al  Al99  1  0.25173045  0.63659628  0.62899240  1
  Al  Al100  1  0.75224826  0.13726889  0.13600640  1
  Al  Al101  1  0.75008628  0.13630698  0.63178421  1
  Al  Al102  1  0.74118099  0.63652065  0.12971213  1
  Al  Al103  1  0.74904151  0.63693475  0.63764098  1
  Al  Al104  1  0.25286007  0.36480761  0.13124104  1
  Al  Al105  1  0.25169488  0.36590505  0.63036363  1
  Al  Al106  1  0.25454481  0.86199306  0.12883320  1
  Al  Al107  1  0.25628423  0.86330471  0.63546850  1
  Al  Al108  1  0.75199143  0.36369825  0.13408929  1
  Al  Al109  1  0.74789547  0.36378878  0.63746676  1
  Al  Al110  1  0.74299117  0.86096399  0.13501645  1
  Al  Al111  1  0.74812765  0.86145169  0.63822891  1
  Al  Al112  1  0.25336805  0.13596865  0.36545277  1
  Al  Al113  1  0.25255117  0.13799841  0.86601161  1
  Al  Al114  1  0.25290238  0.63593807  0.36684490  1
  Al  Al115  1  0.25472254  0.63655004  0.87155455  1
  Al  Al116  1  0.74899431  0.13952641  0.36845812  1
  Al  Al117  1  0.75185879  0.14018691  0.86423995  1
  Al  Al118  1  0.74479626  0.63748431  0.36089495  1
  Al  Al119  1  0.74437232  0.63430527  0.87020334  1
  Al  Al120  1  0.25043646  0.36703165  0.36666775  1
  Al  Al121  1  0.25025575  0.36156104  0.87188777  1
  Al  Al122  1  0.25233731  0.86353390  0.36354724  1
  Al  Al123  1  0.25391714  0.86252928  0.87463447  1
  Al  Al124  1  0.74670718  0.36465377  0.36231366  1
  Al  Al125  1  0.75179441  0.36115781  0.86747131  1
  Al  Al126  1  0.74658071  0.86128738  0.35876048  1
  Al  Al127  1  0.74594995  0.86349070  0.86739161  1
  Al  Al128  1  0.13516107  0.25986004  0.13486531  1
  Al  Al129  1  0.13587651  0.25214009  0.63209528  1
  Al  Al130  1  0.14368467  0.74478380  0.12873213  1
  Al  Al131  1  0.13431639  0.74703900  0.63685215  1
  Al  Al132  1  0.62934350  0.25072085  0.13555656  1
  Al  Al133  1  0.63358941  0.24971242  0.63081164  1
  Al  Al134  1  0.62673450  0.74838835  0.13025091  1
  Al  Al135  1  0.63083879  0.74665152  0.63792480  1
  Al  Al136  1  0.13716779  0.25398939  0.36726581  1
  Al  Al137  1  0.13184264  0.25546032  0.86531753  1
  Al  Al138  1  0.13864069  0.74411834  0.36434325  1
  Al  Al139  1  0.13993226  0.74832898  0.87344273  1
  Al  Al140  1  0.63364136  0.25185116  0.36963899  1
  Al  Al141  1  0.62818153  0.25171465  0.86355102  1
  Al  Al142  1  0.62753185  0.74913215  0.36287021  1
  Al  Al143  1  0.63249471  0.75171902  0.87286454  1
  Al  Al144  1  0.36994230  0.25517813  0.13524649  1
  Al  Al145  1  0.36319266  0.24866365  0.62822398  1
  Al  Al146  1  0.37149028  0.74613084  0.13370147  1
  Al  Al147  1  0.36671801  0.74499303  0.63444469  1
  Al  Al148  1  0.86901621  0.25944623  0.13263186  1
  Al  Al149  1  0.86716926  0.24984956  0.63452632  1
  Al  Al150  1  0.86244555  0.74679813  0.13395041  1
  Al  Al151  1  0.86919463  0.74768468  0.63819035  1
  Al  Al152  1  0.36321600  0.25270679  0.36834059  1
  Al  Al153  1  0.36923678  0.25103696  0.86211938  1
  Al  Al154  1  0.36805071  0.74640103  0.36484517  1
  Al  Al155  1  0.36545295  0.75210603  0.86914510  1
  Al  Al156  1  0.86516263  0.25162853  0.36340017  1
  Al  Al157  1  0.87042809  0.25419007  0.86627840  1
  Al  Al158  1  0.86405529  0.74766773  0.36046873  1
  Al  Al159  1  0.86431404  0.74664331  0.86760102  1
  Al  Al160  1  0.13838612  0.13456971  0.25151090  1
  Al  Al161  1  0.13745560  0.13720448  0.75165960  1
  Al  Al162  1  0.14054047  0.63074291  0.25225894  1
  Al  Al163  1  0.13997033  0.63526225  0.75069040  1
  Al  Al164  1  0.63491117  0.13711932  0.24940657  1
  Al  Al165  1  0.63273473  0.13843806  0.74998458  1
  Al  Al166  1  0.62604870  0.63821424  0.24697012  1
  Al  Al167  1  0.63318435  0.63706651  0.75348231  1
  Al  Al168  1  0.36461361  0.13771268  0.24582575  1
  Al  Al169  1  0.36480914  0.13359008  0.75134184  1
  Al  Al170  1  0.36832264  0.63595245  0.24799987  1
  Al  Al171  1  0.36394096  0.63404766  0.75209386  1
  Al  Al172  1  0.86508969  0.13876578  0.24650311  1
  Al  Al173  1  0.86635014  0.13797988  0.75104965  1
  Al  Al174  1  0.86575553  0.63396399  0.24871707  1
  Al  Al175  1  0.86479820  0.63178656  0.75057362  1
  Al  Al176  1  0.13392595  0.36617260  0.25131452  1
  Al  Al177  1  0.13329258  0.36438207  0.75077897  1
  Al  Al178  1  0.13867839  0.86117720  0.24970285  1
  Al  Al179  1  0.13886788  0.86116952  0.75143432  1
  Al  Al180  1  0.63410538  0.36546977  0.24392920  1
  Al  Al181  1  0.63488575  0.36581981  0.75468225  1
  Al  Al182  1  0.62348803  0.86022804  0.24810416  1
  Al  Al183  1  0.63076951  0.86198580  0.75436949  1
  Al  Al184  1  0.36439546  0.36863846  0.24503967  1
  Al  Al185  1  0.36272712  0.36852642  0.75290770  1
  Al  Al186  1  0.37284346  0.85859012  0.24805494  1
  Al  Al187  1  0.36381655  0.86375958  0.75612394  1
  Al  Al188  1  0.87231854  0.36517314  0.24969571  1
  Al  Al189  1  0.87011736  0.36481614  0.75193212  1
  Al  Al190  1  0.86329726  0.86270746  0.24692525  1
  Al  Al191  1  0.86325432  0.86282247  0.75031650  1
  Al  Al192  1  0.49830913  0.69229468  0.81172912  1
  Al  Al193  1  0.00267555  0.18778287  0.16794547  1
  Al  Al194  1  0.81427512  0.82018302  0.00105495  1
  Al  Al195  1  0.18246256  0.49817920  0.82291346  1
  Al  Al196  1  0.82779175  0.49934256  0.32863509  1
  Al  Al197  1  0.18836975  -0.00051675  0.67292490  1
  Al  Al198  1  0.00127775  0.82157629  0.32599685  1
  Al  Al199  1  0.49565484  0.16695755  0.67405958  1
  Al  Al200  1  0.00380423  0.66596794  0.82609275  1
  Al  Al201  1  0.19377801  -0.00196406  0.82567550  1
  Al  Al202  1  0.00464462  0.67016509  0.17476791  1
  Al  Al203  1  0.49686874  0.80993452  0.69243891  1
  Al  Al204  1  0.67286641  0.82662094  0.50021140  1
  Al  Al205  1  0.68050778  0.33073201  0.00139925  1
  Al  Al206  1  0.82357569  0.67662578  0.49927994  1
  Al  Al207  1  0.17165746  0.19033462  0.00029901  1
  Al  Al208  1  0.17034620  0.81176192  0.49971157  1
  Al  Al209  1  0.49711376  0.17612687  0.31818472  1
  Al  Al210  1  0.82491878  0.00097327  0.32242491  1
  Al  Al211  1  0.67299721  0.50198759  0.31831332  1
  Al  Al212  1  0.66937202  -0.00012289  0.82844980  1
  Al  Al213  1  0.81634952  0.49939632  0.17503428  1
  Al  Al214  1  0.30814431  0.50186901  0.30715508  1
  Al  Al215  1  0.33273381  0.82073427  0.49733871  1
  Al  Al216  1  0.67234900  0.17396172  -0.00157952  1
  Al  Al217  1  0.18077841  -0.00024390  0.18530348  1
  Al  Al218  1  0.31226234  0.00001314  0.31408316  1
  Al  Al219  1  0.19245680  0.49792259  0.18746642  1
  Al  Al220  1  0.67923406  0.50213327  0.68954593  1
  Al  Al221  1  0.67489448  -0.00131389  0.16677751  1
  Al  Al222  1  0.00289327  0.82442888  0.17350638  1
  Al  Al223  1  0.83129350  0.18761705  0.00108591  1
  Al  Al224  1  0.82621747  0.82888561  0.49772100  1
  Al  Al225  1  0.18306730  0.17597550  0.49915496  1
  Al  Al226  1  0.49993985  0.33149995  0.31250131  1
  Al  Al227  1  -0.00119711  0.17834147  0.67874008  1
  Al  Al228  1  0.82597893  0.00084795  0.81936996  1
  Al  Al229  1  0.81622631  0.31695595  0.49959274  1
  Al  Al230  1  0.66938061  0.00067941  0.33123497  1
  Al  Al231  1  0.32766340  0.18661850  -0.00064209  1
  Al  Al232  1  0.66723118  0.66813932  0.49950322  1
  Al  Al233  1  0.32296595  0.50525381  0.67406510  1
  Al  Al234  1  0.50107010  0.33228624  0.67692565  1
  Al  Al235  1  0.00071522  0.82904658  0.82220831  1
  Al  Al236  1  0.81270633  0.49812925  0.82151863  1
  Al  Al237  1  0.67462077  -0.00154709  0.67301242  1
  Al  Al238  1  0.00210195  0.18255678  0.32507008  1
  Au  Au239  1  0.65640720  0.82692817  0.50102534  1
  Au  Au240  1  0.49665195  0.33720531  0.84109164  1
  Au  Au241  1  0.66357395  0.33184154  0.00140864  1
  Au  Au242  1  0.82877094  0.65988180  0.00245946  1
  Au  Au243  1  0.00171498  0.83680480  0.83793944  1
  Au  Au244  1  0.33656493  0.32702087  0.49783199  1
  Au  Au245  1  0.16613583  0.50252559  0.67320624  1
  Au  Au246  1  0.82635827  0.17091478  0.00145787  1
  Au  Au247  1  0.49842314  0.16418524  0.84021590  1
  Au  Au248  1  0.49833920  0.17480761  0.16743192  1
  Au  Au249  1  0.82393791  0.49682090  0.65961020  1
  Au  Au250  1  0.17231891  -0.00236298  0.17588111  1
  Au  Au251  1  0.00237629  0.33419035  0.32830918  1
  Au  Au252  1  0.00106495  0.33526523  0.67602177  1
  Au  Au253  1  0.17585232  0.16096244  0.49859191  1
  Au  Au254  1  0.66924327  0.00538654  0.34671279  1
  Au  Au255  1  0.00436143  0.66633888  0.66130449  1
  Au  Au256  1  0.83627714  -0.00290279  0.66049538  1
  Au  Au257  1  0.82649233  0.83241586  0.00359293  1
  Au  Au258  1  0.50238094  0.34636113  0.66870632  1
  Au  Au259  1  0.82755446  0.00213801  0.83639379  1
  Au  Au260  1  0.82109349  0.49591860  0.83610200  1
  Au  Au261  1  0.17031555  0.34280900  0.49830316  1
  Au  Au262  1  0.33591391  -0.00398689  0.16790818  1
  Au  Au263  1  0.49872118  0.82194897  0.16948033  1
  Au  Au264  1  0.32980713  0.50183029  0.84359268  1
  Au  Au265  1  0.16851328  0.82797828  0.49823320  1
  Au  Au266  1  0.33208360  0.50297314  0.66588501  1
  Au  Au267  1  0.84295633  -0.00115079  0.17559157  1
  Au  Au268  1  0.00222590  0.17931540  0.83470750  1
  Au  Au269  1  0.66295060  0.50241989  0.17043942  1
  Au  Au270  1  0.49883538  0.33433411  0.32893786  1
  Au  Au271  1  0.00123855  0.16944140  0.67028317  1
  Au  Au272  1  0.66919071  -0.00199111  0.15145099  1
  Au  Au273  1  0.49445538  0.16032109  0.65959253  1
  Au  Au274  1  0.00239858  0.66972049  0.15858444  1
  Au  Au275  1  0.66917227  0.32902425  0.49933845  1
  Au  Au276  1  0.00613906  0.67068782  0.33985243  1
  Au  Au277  1  0.34336786  0.82565193  0.50162934  1
  Au  Au278  1  0.00277761  0.17166888  0.17430308  1
  Au  Au279  1  0.17690395  0.82246043  0.00228658  1
  Au  Au280  1  0.82557960  0.16891596  0.49668830  1
  Au  Au281  1  -0.00017450  0.83523703  0.66405947  1
  Au  Au282  1  0.17690567  0.00076863  0.82394503  1
  Au  Au283  1  0.83178990  0.66235830  0.49803770  1
  Au  Au284  1  0.65858684  -0.00036842  0.66989380  1
  Au  Au285  1  0.17787942  0.17416890  0.00056734  1
  Au  Au286  1  0.00615244  0.65951833  0.84157192  1
  Au  Au287  1  0.65714484  0.67259092  0.00032395  1
