# generated using pymatgen
data_Ca24Ti8Al207Au49
_symmetry_space_group_name_H-M   'P 1'
_cell_length_a   17.32433635
_cell_length_b   17.32447499
_cell_length_c   17.32461832
_cell_angle_alpha   90.00189482
_cell_angle_beta   90.00045890
_cell_angle_gamma   89.99834514
_symmetry_Int_Tables_number   1
_chemical_formula_structural   Ca24Ti8Al207Au49
_chemical_formula_sum   'Ca24 Ti8 Al207 Au49'
_cell_volume   5199.72486548
_cell_formula_units_Z   1
loop_
 _symmetry_equiv_pos_site_id
 _symmetry_equiv_pos_as_xyz
  1  'x, y, z'
loop_
 _atom_site_type_symbol
 _atom_site_label
 _atom_site_symmetry_multiplicity
 _atom_site_fract_x
 _atom_site_fract_y
 _atom_site_fract_z
 _atom_site_occupancy
  Ca  Ca0  1  0.25294339  0.00271921  -0.00182019  1
  Ca  Ca1  1  0.25167620  -0.00179494  0.50066429  1
  Ca  Ca2  1  0.25293817  0.50027585  -0.00168862  1
  Ca  Ca3  1  0.25148572  0.50245491  0.50318539  1
  Ca  Ca4  1  0.74830335  0.00322994  0.00129079  1
  Ca  Ca5  1  0.75303358  0.00170230  0.49752426  1
  Ca  Ca6  1  0.74901088  0.49738649  0.00220614  1
  Ca  Ca7  1  0.75311387  0.50070218  0.50079774  1
  Ca  Ca8  1  0.00248624  0.24654378  0.00012384  1
  Ca  Ca9  1  -0.00223073  0.24710650  0.49992962  1
  Ca  Ca10  1  0.00239153  0.74948318  -0.00562702  1
  Ca  Ca11  1  0.00139167  0.74647821  0.50506689  1
  Ca  Ca12  1  0.49774827  0.24531529  0.00369205  1
  Ca  Ca13  1  0.50177800  0.24874153  0.49709725  1
  Ca  Ca14  1  0.49570789  0.74918751  0.00523199  1
  Ca  Ca15  1  0.49824928  0.74873415  0.49714889  1
  Ca  Ca16  1  -0.00236908  0.00133043  0.24538834  1
  Ca  Ca17  1  0.00390316  -0.00155274  0.74880988  1
  Ca  Ca18  1  -0.00181042  0.49638120  0.24992557  1
  Ca  Ca19  1  -0.00425462  0.50502440  0.74529308  1
  Ca  Ca20  1  0.50056050  0.00209349  0.24521044  1
  Ca  Ca21  1  0.49684469  0.00019345  0.74963474  1
  Ca  Ca22  1  0.50212993  0.49853784  0.24790166  1
  Ca  Ca23  1  0.50494873  0.49792295  0.74635251  1
  Ti  Ti24  1  0.24872940  0.24900188  0.24976858  1
  Ti  Ti25  1  0.25061665  0.24768843  0.75071760  1
  Ti  Ti26  1  0.25150429  0.75063222  0.24982341  1
  Ti  Ti27  1  0.25007235  0.75138314  0.74963684  1
  Ti  Ti28  1  0.75039081  0.24951854  0.24968800  1
  Ti  Ti29  1  0.74980508  0.24779294  0.74935334  1
  Ti  Ti30  1  0.74797843  0.75043139  0.24979018  1
  Ti  Ti31  1  0.75133823  0.75180381  0.75037805  1
  Al  Al32  1  0.09872989  0.08537735  0.08420395  1
  Al  Al33  1  0.07820893  0.07427492  0.58218343  1
  Al  Al34  1  0.07921390  0.58442018  0.07657149  1
  Al  Al35  1  0.08195146  0.59728783  0.58903959  1
  Al  Al36  1  0.58096364  0.09596500  0.08642097  1
  Al  Al37  1  0.57964118  0.09289394  0.58642738  1
  Al  Al38  1  0.58604685  0.57805143  0.09028876  1
  Al  Al39  1  0.58170347  0.57618021  0.58207238  1
  Al  Al40  1  0.41401308  0.41276223  0.08728508  1
  Al  Al41  1  0.42034771  0.42051159  0.57749830  1
  Al  Al42  1  0.41779984  0.91808188  0.08132946  1
  Al  Al43  1  0.40739208  0.91572413  0.58105477  1
  Al  Al44  1  0.91542301  0.41868520  0.08184042  1
  Al  Al45  1  0.90620938  0.42387949  0.58418215  1
  Al  Al46  1  0.91504525  0.92638599  0.07858377  1
  Al  Al47  1  0.91672871  0.92008349  0.59335996  1
  Al  Al48  1  0.42625223  0.08389598  0.42096221  1
  Al  Al49  1  0.40803984  0.08676565  0.91599396  1
  Al  Al50  1  0.41589205  0.58918371  0.40337370  1
  Al  Al51  1  0.41369986  0.59264480  0.92729375  1
  Al  Al52  1  0.90950732  0.09068123  0.42468076  1
  Al  Al53  1  0.91401929  0.08457926  0.92275943  1
  Al  Al54  1  0.91962204  0.57530823  0.42211634  1
  Al  Al55  1  0.91923622  0.58713035  0.90385664  1
  Al  Al56  1  0.07977688  0.42136372  0.41892377  1
  Al  Al57  1  0.08395339  0.41055922  0.92267927  1
  Al  Al58  1  0.08619558  0.91740698  0.42512991  1
  Al  Al59  1  0.08568475  0.91463296  0.91813226  1
  Al  Al60  1  0.59078107  0.42636553  0.41252324  1
  Al  Al61  1  0.58152932  0.41702744  0.92933487  1
  Al  Al62  1  0.57779916  0.91770525  0.41645655  1
  Al  Al63  1  0.57285400  0.91973344  0.92336696  1
  Al  Al64  1  0.07657184  0.08022539  0.41966916  1
  Al  Al65  1  0.09068798  0.08528966  0.92339864  1
  Al  Al66  1  0.08943887  0.58877435  0.42735866  1
  Al  Al67  1  0.07668702  0.59299181  0.91386087  1
  Al  Al68  1  0.58333446  0.08709617  0.41698177  1
  Al  Al69  1  0.57884155  0.09101767  0.92590934  1
  Al  Al70  1  0.58043523  0.58573853  0.39980820  1
  Al  Al71  1  0.57648671  0.58018012  0.92618766  1
  Al  Al72  1  0.41115648  0.42805222  0.41112005  1
  Al  Al73  1  0.41646473  0.41354110  0.92915314  1
  Al  Al74  1  0.41491202  0.90595252  0.42268571  1
  Al  Al75  1  0.40843670  0.92394636  0.91239533  1
  Al  Al76  1  0.91156633  0.41631091  0.42159699  1
  Al  Al77  1  0.91791601  0.42423407  0.91622381  1
  Al  Al78  1  0.92030093  0.92824935  0.42618020  1
  Al  Al79  1  0.92207893  0.91651628  0.91407599  1
  Al  Al80  1  0.08700003  0.40745558  0.07563686  1
  Al  Al81  1  0.07697058  0.42650955  0.57720270  1
  Al  Al82  1  0.09718854  0.92515823  0.07999114  1
  Al  Al83  1  0.08182792  0.91129921  0.58702013  1
  Al  Al84  1  0.58722486  0.41499522  0.09373526  1
  Al  Al85  1  0.58680478  0.41911110  0.58097888  1
  Al  Al86  1  0.57760939  0.92121606  0.08431902  1
  Al  Al87  1  0.57553755  0.92252596  0.57518650  1
  Al  Al88  1  0.41695672  0.09294463  0.07981497  1
  Al  Al89  1  0.41960857  0.08551427  0.59349602  1
  Al  Al90  1  0.41273833  0.58587788  0.08562848  1
  Al  Al91  1  0.41800337  0.58084707  0.57368353  1
  Al  Al92  1  0.91078354  0.08501603  0.08160859  1
  Al  Al93  1  0.90599614  0.08220768  0.58635381  1
  Al  Al94  1  0.91994154  0.57736778  0.08536893  1
  Al  Al95  1  0.91832049  0.58596879  0.59618905  1
  Al  Al96  1  0.24853717  0.13137700  0.13595204  1
  Al  Al97  1  0.25376548  0.13319269  0.62932856  1
  Al  Al98  1  0.25389855  0.63628726  0.13056062  1
  Al  Al99  1  0.24823223  0.63770968  0.63370362  1
  Al  Al100  1  0.74688130  0.13641886  0.13464873  1
  Al  Al101  1  0.75330648  0.13304639  0.62754065  1
  Al  Al102  1  0.74666332  0.63252443  0.13553112  1
  Al  Al103  1  0.75382475  0.63557930  0.63903939  1
  Al  Al104  1  0.24808181  0.36070740  0.13036682  1
  Al  Al105  1  0.25126623  0.36336448  0.63022459  1
  Al  Al106  1  0.25392687  0.87078496  0.13468298  1
  Al  Al107  1  0.25166217  0.86189253  0.62960216  1
  Al  Al108  1  0.74749171  0.36120180  0.13001459  1
  Al  Al109  1  0.75075210  0.36293174  0.63305666  1
  Al  Al110  1  0.74761363  0.86450847  0.13054141  1
  Al  Al111  1  0.75355222  0.86457760  0.63752396  1
  Al  Al112  1  0.24746765  0.13522379  0.36919364  1
  Al  Al113  1  0.25618697  0.13237649  0.86711378  1
  Al  Al114  1  0.25305597  0.63742597  0.36575972  1
  Al  Al115  1  0.24899742  0.63882478  0.86974877  1
  Al  Al116  1  0.75053525  0.13223103  0.36711681  1
  Al  Al117  1  0.74992795  0.13499519  0.86414481  1
  Al  Al118  1  0.74434199  0.63344875  0.36158379  1
  Al  Al119  1  0.75276730  0.63898977  0.86198828  1
  Al  Al120  1  0.25018861  0.36207009  0.36823584  1
  Al  Al121  1  0.24978688  0.36123700  0.87434090  1
  Al  Al122  1  0.25099913  0.86309785  0.37277132  1
  Al  Al123  1  0.25491306  0.86600395  0.86468593  1
  Al  Al124  1  0.74692048  0.36391128  0.36281270  1
  Al  Al125  1  0.74890770  0.36198607  0.87111327  1
  Al  Al126  1  0.74961149  0.86866174  0.36461190  1
  Al  Al127  1  0.75353320  0.86591369  0.86770376  1
  Al  Al128  1  0.13064539  0.24975489  0.13424812  1
  Al  Al129  1  0.14015720  0.24628647  0.62878265  1
  Al  Al130  1  0.13996046  0.74614338  0.13405231  1
  Al  Al131  1  0.13576584  0.74880535  0.62888365  1
  Al  Al132  1  0.63423415  0.24635975  0.13273998  1
  Al  Al133  1  0.63850102  0.24569404  0.62755658  1
  Al  Al134  1  0.63413364  0.75036591  0.13912346  1
  Al  Al135  1  0.63209189  0.75176059  0.63608983  1
  Al  Al136  1  0.13157002  0.24893642  0.36819504  1
  Al  Al137  1  0.13673516  0.24918789  0.86573312  1
  Al  Al138  1  0.13688680  0.75164474  0.37206436  1
  Al  Al139  1  0.13158384  0.74809587  0.86354343  1
  Al  Al140  1  0.63763453  0.24635466  0.36821061  1
  Al  Al141  1  0.63695257  0.24827035  0.87216833  1
  Al  Al142  1  0.62700647  0.74772873  0.35805678  1
  Al  Al143  1  0.63644529  0.75571208  0.86580932  1
  Al  Al144  1  0.35997174  0.24700558  0.12827888  1
  Al  Al145  1  0.36425857  0.24623971  0.63144813  1
  Al  Al146  1  0.36324671  0.75022243  0.13158010  1
  Al  Al147  1  0.36912110  0.75369005  0.63338281  1
  Al  Al148  1  0.86955423  0.25094306  0.13601227  1
  Al  Al149  1  0.86330028  0.24530009  0.63424234  1
  Al  Al150  1  0.86170714  0.75062550  0.13249726  1
  Al  Al151  1  0.86722644  0.74967852  0.63740434  1
  Al  Al152  1  0.36285440  0.24688766  0.36892464  1
  Al  Al153  1  0.36280260  0.24746361  0.87367484  1
  Al  Al154  1  0.37025670  0.75041704  0.36373549  1
  Al  Al155  1  0.36399360  0.75186211  0.86944997  1
  Al  Al156  1  0.86686932  0.24874040  0.36441683  1
  Al  Al157  1  0.86444136  0.24924030  0.86209302  1
  Al  Al158  1  0.86208597  0.74738745  0.36440503  1
  Al  Al159  1  0.87324927  0.74924291  0.86284582  1
  Al  Al160  1  0.13089476  0.13729932  0.24744222  1
  Al  Al161  1  0.13914735  0.13574470  0.75145744  1
  Al  Al162  1  0.13660777  0.63797781  0.25601253  1
  Al  Al163  1  0.13221369  0.63926128  0.74824249  1
  Al  Al164  1  0.63721638  0.13173474  0.24912835  1
  Al  Al165  1  0.63505576  0.13524622  0.74576897  1
  Al  Al166  1  0.63455694  0.62864673  0.24952381  1
  Al  Al167  1  0.63149798  0.63963273  0.74884002  1
  Al  Al168  1  0.36396442  0.13534346  0.24448857  1
  Al  Al169  1  0.36235210  0.13075523  0.74963482  1
  Al  Al170  1  0.36503699  0.63549560  0.25240515  1
  Al  Al171  1  0.36479155  0.64111265  0.74953968  1
  Al  Al172  1  0.86856691  0.13664596  0.25053975  1
  Al  Al173  1  0.86207418  0.12971078  0.74738826  1
  Al  Al174  1  0.86276349  0.63435047  0.25111679  1
  Al  Al175  1  0.87028947  0.63744789  0.74737807  1
  Al  Al176  1  0.12983334  0.36089382  0.25130024  1
  Al  Al177  1  0.14029424  0.36038433  0.74884166  1
  Al  Al178  1  0.13917905  0.86261684  0.24714764  1
  Al  Al179  1  0.13736996  0.86261859  0.75115420  1
  Al  Al180  1  0.63698884  0.36610699  0.24720054  1
  Al  Al181  1  0.63840653  0.35841562  0.74585304  1
  Al  Al182  1  0.63638313  0.87219132  0.25215591  1
  Al  Al183  1  0.62932025  0.86566158  0.74796893  1
  Al  Al184  1  0.36118066  0.36100463  0.24953343  1
  Al  Al185  1  0.36057797  0.35982036  0.74913243  1
  Al  Al186  1  0.36284149  0.86574125  0.25116686  1
  Al  Al187  1  0.36563793  0.86863383  0.74790341  1
  Al  Al188  1  0.86743726  0.36361439  0.25063113  1
  Al  Al189  1  0.86029354  0.36381470  0.74775233  1
  Al  Al190  1  0.86363791  0.86568384  0.25316546  1
  Al  Al191  1  0.86552628  0.87063427  0.75156086  1
  Al  Al192  1  0.68860728  0.49949826  0.67475254  1
  Al  Al193  1  0.82457549  0.50065610  0.81076349  1
  Al  Al194  1  0.00012380  0.67517031  0.17991521  1
  Al  Al195  1  0.00086294  0.81409929  0.68265740  1
  Al  Al196  1  0.18207722  -0.00028073  0.82845621  1
  Al  Al197  1  0.82183638  0.31402296  0.49943461  1
  Al  Al198  1  0.00209019  0.83082969  0.16749697  1
  Al  Al199  1  0.50050756  0.32461820  0.32243827  1
  Al  Al200  1  0.49772004  0.31072554  0.17304559  1
  Al  Al201  1  0.50138126  0.67942259  0.82568957  1
  Al  Al202  1  0.50018705  0.17494155  0.31143014  1
  Al  Al203  1  0.19310398  0.19045966  0.00070749  1
  Al  Al204  1  0.67537886  0.82677801  0.49889309  1
  Al  Al205  1  0.81498800  0.49765243  0.17551087  1
  Al  Al206  1  0.32752047  0.49912135  0.18571786  1
  Al  Al207  1  0.82944355  0.82852300  0.50180668  1
  Al  Al208  1  0.18777738  0.50076415  0.32835507  1
  Al  Al209  1  0.50091281  0.32576188  0.82723568  1
  Al  Al210  1  0.81843269  0.00070275  0.18083443  1
  Al  Al211  1  0.67562997  0.00100183  0.83013670  1
  Al  Al212  1  0.67736798  0.67327473  0.49856696  1
  Al  Al213  1  0.32685576  0.50068948  0.67339740  1
  Al  Al214  1  -0.00027849  0.32540523  0.82716022  1
  Al  Al215  1  0.17327593  0.50125384  0.67135313  1
  Al  Al216  1  0.00057807  0.32380657  0.67101038  1
  Al  Al217  1  0.32849104  0.00035845  0.32324704  1
  Al  Al218  1  0.67370212  0.67790552  0.00086632  1
  Al  Al219  1  0.16805702  0.50014819  0.82731851  1
  Al  Al220  1  -0.00111065  0.82059450  0.32999909  1
  Al  Al221  1  0.18050686  -0.00164782  0.67572607  1
  Al  Al222  1  0.82989415  0.67467505  -0.00031632  1
  Al  Al223  1  0.81280316  0.18245402  0.00046988  1
  Al  Al224  1  0.49942118  0.67180223  0.18262638  1
  Al  Al225  1  0.68454096  -0.00088053  0.66909961  1
  Al  Al226  1  0.00039504  0.17040293  0.67442219  1
  Al  Al227  1  0.66723067  0.49933121  0.82252041  1
  Al  Al228  1  0.82973745  0.67299235  0.50122730  1
  Al  Al229  1  0.49851080  0.17007473  0.81764628  1
  Al  Al230  1  0.31748936  0.68506348  0.50005700  1
  Al  Al231  1  0.17349308  0.50082018  0.17150133  1
  Al  Al232  1  0.17191060  0.00001890  0.31340976  1
  Al  Al233  1  0.33091106  0.50093224  0.82915848  1
  Al  Al234  1  0.00112748  0.17034519  0.82851584  1
  Al  Al235  1  0.50058843  0.31116723  0.66927259  1
  Al  Al236  1  0.49896300  0.82509433  0.18291750  1
  Al  Al237  1  0.81528903  0.49883486  0.32742162  1
  Al  Al238  1  0.18481341  0.81985612  -0.00084305  1
  Au  Au239  1  0.82755129  0.83865554  -0.00219639  1
  Au  Au240  1  0.16717498  0.16243324  0.50209425  1
  Au  Au241  1  0.67012782  0.00451218  0.16072032  1
  Au  Au242  1  0.31967799  0.32283890  0.00315341  1
  Au  Au243  1  0.18191668  0.50249348  0.34409430  1
  Au  Au244  1  0.17503636  0.49691156  0.15590238  1
  Au  Au245  1  0.16363595  0.33097892  0.50185983  1
  Au  Au246  1  -0.00300641  0.33647498  0.33246236  1
  Au  Au247  1  0.15675763  -0.00046390  0.32119896  1
  Au  Au248  1  0.32920612  -0.00058175  0.67519564  1
  Au  Au249  1  0.33971243  0.16976913  0.50140731  1
  Au  Au250  1  -0.00409154  0.33934909  0.67351692  1
  Au  Au251  1  0.33296906  0.82793153  -0.00047598  1
  Au  Au252  1  0.50058816  0.33701716  0.33289690  1
  Au  Au253  1  0.83270078  0.66262657  0.00205104  1
  Au  Au254  1  0.67544740  0.50106998  0.83743981  1
  Au  Au255  1  0.32882599  0.67267481  0.49697016  1
  Au  Au256  1  0.00000714  0.33186376  0.16541162  1
  Au  Au257  1  0.00363214  0.82346373  0.82964157  1
  Au  Au258  1  0.17501954  0.82795744  0.50300054  1
  Au  Au259  1  0.67086919  -0.00057735  0.65976333  1
  Au  Au260  1  0.49514031  0.83527956  0.82968449  1
  Au  Au261  1  0.34736239  0.50163766  0.82555010  1
  Au  Au262  1  0.65710395  0.82562744  0.00316045  1
  Au  Au263  1  0.32985970  0.33907458  0.49710489  1
  Au  Au264  1  0.66701484  0.32126004  0.00525313  1
  Au  Au265  1  0.66643052  0.00006959  0.33260102  1
  Au  Au266  1  0.66179669  0.66916737  0.49676830  1
  Au  Au267  1  0.67655509  0.33874465  0.49661857  1
  Au  Au268  1  0.50130044  0.67293526  0.83638135  1
  Au  Au269  1  0.32749752  0.00516816  0.15814591  1
  Au  Au270  1  0.50082914  0.32744243  0.66409107  1
  Au  Au271  1  0.49896488  0.83059164  0.65899962  1
  Au  Au272  1  0.17116001  0.67213303  -0.00157926  1
  Au  Au273  1  0.84223940  0.00231349  0.82369678  1
  Au  Au274  1  0.67481493  0.17018184  0.49864082  1
  Au  Au275  1  0.49957803  0.82335732  0.33158332  1
  Au  Au276  1  0.49813055  0.65945759  0.67098180  1
  Au  Au277  1  0.50110836  0.31851066  0.84316390  1
  Au  Au278  1  0.00022587  0.65473724  0.32900187  1
  Au  Au279  1  0.33766882  -0.00011147  0.33662061  1
  Au  Au280  1  0.66844778  0.00298966  0.84458645  1
  Au  Au281  1  -0.00303952  0.17074355  0.33591607  1
  Au  Au282  1  0.83561770  0.32844316  -0.00426540  1
  Au  Au283  1  0.00678010  0.82930275  0.15138154  1
  Au  Au284  1  -0.00336089  0.82717386  0.34521676  1
  Au  Au285  1  0.00205613  0.16180361  0.16505633  1
  Au  Au286  1  0.15151975  0.49888616  0.82406580  1
  Au  Au287  1  0.83615359  0.00246706  0.32928778  1
