# generated using pymatgen
data_Ca24Ti8Al207Au49
_symmetry_space_group_name_H-M   'P 1'
_cell_length_a   17.31836142
_cell_length_b   17.32056044
_cell_length_c   17.32164444
_cell_angle_alpha   90.00195711
_cell_angle_beta   89.99509418
_cell_angle_gamma   89.99491165
_symmetry_Int_Tables_number   1
_chemical_formula_structural   Ca24Ti8Al207Au49
_chemical_formula_sum   'Ca24 Ti8 Al207 Au49'
_cell_volume   5195.86495947
_cell_formula_units_Z   1
loop_
 _symmetry_equiv_pos_site_id
 _symmetry_equiv_pos_as_xyz
  1  'x, y, z'
loop_
 _atom_site_type_symbol
 _atom_site_label
 _atom_site_symmetry_multiplicity
 _atom_site_fract_x
 _atom_site_fract_y
 _atom_site_fract_z
 _atom_site_occupancy
  Ca  Ca0  1  0.25162451  -0.00242072  0.00436629  1
  Ca  Ca1  1  0.25132805  -0.00051534  0.49093544  1
  Ca  Ca2  1  0.25590192  0.50164900  0.00415450  1
  Ca  Ca3  1  0.24768243  0.49750509  0.49800494  1
  Ca  Ca4  1  0.74911782  0.00003969  -0.00403111  1
  Ca  Ca5  1  0.74964313  0.00059654  0.50130507  1
  Ca  Ca6  1  0.74499018  0.50342831  0.00071446  1
  Ca  Ca7  1  0.74783235  0.49868348  0.49972666  1
  Ca  Ca8  1  0.00083894  0.25462920  0.00159892  1
  Ca  Ca9  1  0.00064350  0.24767453  0.49666173  1
  Ca  Ca10  1  -0.00332612  0.74882714  0.00516466  1
  Ca  Ca11  1  -0.00461792  0.75180353  0.49847039  1
  Ca  Ca12  1  0.49575146  0.25147655  -0.00070130  1
  Ca  Ca13  1  0.50053751  0.25114124  0.50191201  1
  Ca  Ca14  1  0.50408496  0.74792246  0.00618418  1
  Ca  Ca15  1  0.50205713  0.74999964  0.49719790  1
  Ca  Ca16  1  -0.00160466  -0.00112630  0.25353508  1
  Ca  Ca17  1  -0.00247491  0.00280243  0.75225551  1
  Ca  Ca18  1  -0.00096350  0.50104824  0.24857925  1
  Ca  Ca19  1  -0.00056985  0.49589751  0.74720209  1
  Ca  Ca20  1  0.50127350  -0.00432418  0.25096259  1
  Ca  Ca21  1  0.50352537  0.00190018  0.74973335  1
  Ca  Ca22  1  0.50137604  0.50261579  0.24575741  1
  Ca  Ca23  1  0.49992668  0.49611959  0.75194252  1
  Ti  Ti24  1  0.25214542  0.24890547  0.24934123  1
  Ti  Ti25  1  0.24958570  0.25310099  0.75191179  1
  Ti  Ti26  1  0.25228931  0.75087876  0.24914851  1
  Ti  Ti27  1  0.25168479  0.74867636  0.75051974  1
  Ti  Ti28  1  0.74860825  0.25302572  0.24973626  1
  Ti  Ti29  1  0.74999494  0.25040365  0.75195209  1
  Ti  Ti30  1  0.74870754  0.74799866  0.25039039  1
  Ti  Ti31  1  0.74859998  0.75086105  0.75054164  1
  Al  Al32  1  0.09669307  0.07583355  0.08963321  1
  Al  Al33  1  0.08653701  0.09339006  0.56955306  1
  Al  Al34  1  0.09044389  0.57849969  0.08990240  1
  Al  Al35  1  0.08596273  0.57120815  0.57220900  1
  Al  Al36  1  0.58048107  0.07428216  0.07406261  1
  Al  Al37  1  0.58396917  0.09159135  0.58175442  1
  Al  Al38  1  0.59145223  0.59277076  0.09247835  1
  Al  Al39  1  0.58938101  0.57813195  0.58045776  1
  Al  Al40  1  0.40374578  0.42398319  0.08380003  1
  Al  Al41  1  0.41626658  0.41875184  0.58967767  1
  Al  Al42  1  0.40897395  0.91865557  0.09461435  1
  Al  Al43  1  0.42462619  0.92773491  0.57262108  1
  Al  Al44  1  0.90498064  0.42371536  0.08736666  1
  Al  Al45  1  0.91848745  0.41417272  0.59557613  1
  Al  Al46  1  0.90514748  0.91748231  0.08673578  1
  Al  Al47  1  0.91537624  0.92166218  0.57075171  1
  Al  Al48  1  0.41143856  0.07704998  0.41846237  1
  Al  Al49  1  0.41575853  0.09488430  0.92689805  1
  Al  Al50  1  0.41658014  0.57937443  0.40490950  1
  Al  Al51  1  0.42339100  0.57650570  0.92927445  1
  Al  Al52  1  0.90933861  0.07934949  0.41223271  1
  Al  Al53  1  0.91930637  0.08064396  0.91709271  1
  Al  Al54  1  0.91155430  0.58250521  0.41637513  1
  Al  Al55  1  0.90187321  0.58364300  0.92819939  1
  Al  Al56  1  0.08618892  0.41912956  0.41980208  1
  Al  Al57  1  0.08366915  0.41322695  0.91788925  1
  Al  Al58  1  0.08716504  0.92467526  0.40492700  1
  Al  Al59  1  0.08888600  0.90741491  0.93561679  1
  Al  Al60  1  0.59168540  0.42191502  0.41607201  1
  Al  Al61  1  0.58166195  0.41209489  0.92358398  1
  Al  Al62  1  0.58286839  0.90601531  0.41313081  1
  Al  Al63  1  0.59753530  0.91637523  0.91722147  1
  Al  Al64  1  0.09639616  0.08533023  0.40958934  1
  Al  Al65  1  0.07583722  0.09016761  0.93085529  1
  Al  Al66  1  0.08537619  0.58186084  0.41389985  1
  Al  Al67  1  0.08247989  0.57426829  0.92675134  1
  Al  Al68  1  0.58872303  0.08491730  0.42501650  1
  Al  Al69  1  0.58854331  0.07901439  0.91156210  1
  Al  Al70  1  0.58988778  0.58342013  0.40797462  1
  Al  Al71  1  0.58728216  0.58715397  0.93053926  1
  Al  Al72  1  0.41450545  0.42382410  0.40994481  1
  Al  Al73  1  0.41621810  0.40887490  0.92135150  1
  Al  Al74  1  0.42111132  0.91352932  0.40459100  1
  Al  Al75  1  0.42574131  0.91932466  0.93243877  1
  Al  Al76  1  0.91921715  0.42439000  0.41557247  1
  Al  Al77  1  0.91581113  0.41901628  0.92142931  1
  Al  Al78  1  0.90864774  0.91979068  0.40791204  1
  Al  Al79  1  0.91104238  0.91729799  0.92453308  1
  Al  Al80  1  0.09246902  0.42119119  0.08922835  1
  Al  Al81  1  0.08080807  0.40715428  0.58632850  1
  Al  Al82  1  0.10195404  0.91594787  0.09195028  1
  Al  Al83  1  0.07798941  0.92192316  0.56731562  1
  Al  Al84  1  0.59882708  0.42246269  0.08516922  1
  Al  Al85  1  0.58836017  0.41778717  0.58221848  1
  Al  Al86  1  0.58704374  0.90616046  0.07875194  1
  Al  Al87  1  0.59002620  0.91388587  0.57335140  1
  Al  Al88  1  0.39707121  0.08142171  0.08474295  1
  Al  Al89  1  0.42015857  0.08877640  0.57993292  1
  Al  Al90  1  0.41780009  0.58701425  0.09541590  1
  Al  Al91  1  0.41298009  0.57280845  0.58681494  1
  Al  Al92  1  0.90934141  0.07500930  0.08994677  1
  Al  Al93  1  0.91958961  0.08423196  0.57430647  1
  Al  Al94  1  0.89485814  0.58381119  0.08836010  1
  Al  Al95  1  0.90205605  0.57143185  0.57962351  1
  Al  Al96  1  0.25172504  0.13018414  0.13666204  1
  Al  Al97  1  0.24752713  0.14000894  0.63540643  1
  Al  Al98  1  0.25197989  0.63320433  0.13828349  1
  Al  Al99  1  0.25194210  0.63033538  0.63591629  1
  Al  Al100  1  0.74990706  0.13523909  0.13542966  1
  Al  Al101  1  0.74862046  0.13542238  0.63568750  1
  Al  Al102  1  0.74612783  0.63497567  0.13327636  1
  Al  Al103  1  0.74691197  0.63574662  0.63403957  1
  Al  Al104  1  0.25477558  0.36948487  0.13635410  1
  Al  Al105  1  0.24888311  0.36891883  0.63839330  1
  Al  Al106  1  0.25243903  0.86422538  0.13319841  1
  Al  Al107  1  0.24902571  0.86278709  0.62781943  1
  Al  Al108  1  0.74716935  0.37403722  0.13759441  1
  Al  Al109  1  0.75299537  0.36643184  0.63793304  1
  Al  Al110  1  0.74734590  0.85862453  0.13536904  1
  Al  Al111  1  0.74873425  0.86778468  0.63476067  1
  Al  Al112  1  0.24796401  0.12732764  0.36171152  1
  Al  Al113  1  0.25405113  0.13537172  0.86759914  1
  Al  Al114  1  0.25578003  0.63406096  0.35888314  1
  Al  Al115  1  0.25202216  0.63193233  0.86594774  1
  Al  Al116  1  0.74961916  0.13529301  0.36230477  1
  Al  Al117  1  0.74734715  0.12855150  0.86466580  1
  Al  Al118  1  0.74492878  0.62648702  0.35990019  1
  Al  Al119  1  0.74811540  0.63406423  0.87028891  1
  Al  Al120  1  0.25266141  0.36581437  0.35961923  1
  Al  Al121  1  0.25628207  0.36915147  0.86752714  1
  Al  Al122  1  0.25096760  0.87030436  0.36325412  1
  Al  Al123  1  0.24898512  0.86306825  0.87323791  1
  Al  Al124  1  0.74614803  0.37408732  0.36033239  1
  Al  Al125  1  0.74669781  0.36799756  0.86600150  1
  Al  Al126  1  0.74849003  0.86316718  0.36137341  1
  Al  Al127  1  0.74729872  0.87061847  0.86798198  1
  Al  Al128  1  0.14056016  0.24827479  0.13817613  1
  Al  Al129  1  0.13544677  0.25283125  0.63618375  1
  Al  Al130  1  0.13492114  0.75440568  0.13733078  1
  Al  Al131  1  0.13535680  0.75319114  0.63466617  1
  Al  Al132  1  0.63748915  0.25594528  0.12897840  1
  Al  Al133  1  0.63780802  0.25000020  0.63619624  1
  Al  Al134  1  0.63073788  0.74807457  0.13613924  1
  Al  Al135  1  0.63636678  0.75283216  0.62949386  1
  Al  Al136  1  0.13850843  0.24633182  0.36013466  1
  Al  Al137  1  0.13583844  0.25450706  0.86686131  1
  Al  Al138  1  0.13917610  0.75031262  0.35896473  1
  Al  Al139  1  0.13436532  0.74995380  0.86608323  1
  Al  Al140  1  0.63235136  0.25096972  0.36184963  1
  Al  Al141  1  0.63785763  0.25046161  0.87180005  1
  Al  Al142  1  0.63593093  0.74746504  0.36829152  1
  Al  Al143  1  0.63843308  0.75130789  0.87125749  1
  Al  Al144  1  0.36266013  0.24950765  0.13146645  1
  Al  Al145  1  0.36450439  0.25183922  0.63779935  1
  Al  Al146  1  0.37254146  0.75305808  0.13889193  1
  Al  Al147  1  0.36541134  0.75284170  0.63349305  1
  Al  Al148  1  0.85869709  0.25610850  0.13942184  1
  Al  Al149  1  0.86408993  0.25098819  0.63872075  1
  Al  Al150  1  0.86522996  0.74303761  0.13496413  1
  Al  Al151  1  0.86266839  0.75338386  0.63549396  1
  Al  Al152  1  0.37010480  0.24627331  0.35738928  1
  Al  Al153  1  0.36404358  0.25099294  0.86846345  1
  Al  Al154  1  0.36821480  0.75723811  0.36185159  1
  Al  Al155  1  0.36546206  0.75293725  0.86569816  1
  Al  Al156  1  0.86163269  0.25225833  0.35841454  1
  Al  Al157  1  0.86183124  0.25319259  0.86302430  1
  Al  Al158  1  0.86123805  0.74578627  0.36011841  1
  Al  Al159  1  0.86061893  0.74874408  0.86535206  1
  Al  Al160  1  0.13870594  0.12678344  0.24859345  1
  Al  Al161  1  0.13680297  0.13730566  0.75364158  1
  Al  Al162  1  0.13088747  0.63498744  0.24659755  1
  Al  Al163  1  0.13547091  0.63443757  0.74775323  1
  Al  Al164  1  0.63277741  0.13745251  0.24960017  1
  Al  Al165  1  0.63457779  0.13661477  0.75492870  1
  Al  Al166  1  0.63314189  0.63272173  0.24661827  1
  Al  Al167  1  0.63822173  0.63836629  0.75282640  1
  Al  Al168  1  0.36221335  0.12569178  0.24883008  1
  Al  Al169  1  0.36328719  0.13872400  0.75114369  1
  Al  Al170  1  0.36853486  0.63406698  0.24588374  1
  Al  Al171  1  0.36339982  0.63017639  0.74889845  1
  Al  Al172  1  0.86221946  0.13183744  0.24931116  1
  Al  Al173  1  0.86232533  0.13081342  0.75114630  1
  Al  Al174  1  0.86271384  0.62700011  0.24784847  1
  Al  Al175  1  0.86205384  0.63515521  0.74639356  1
  Al  Al176  1  0.13722631  0.36630718  0.24693202  1
  Al  Al177  1  0.12795694  0.36504044  0.75039854  1
  Al  Al178  1  0.13765120  0.87160600  0.24877601  1
  Al  Al179  1  0.13796919  0.86338844  0.75409793  1
  Al  Al180  1  0.63335768  0.36994405  0.25003865  1
  Al  Al181  1  0.63626751  0.36369389  0.75122432  1
  Al  Al182  1  0.62671368  0.86088272  0.25063336  1
  Al  Al183  1  0.63560398  0.86382333  0.75202126  1
  Al  Al184  1  0.36809304  0.36690183  0.24775885  1
  Al  Al185  1  0.36439678  0.36990497  0.75031674  1
  Al  Al186  1  0.36545409  0.87122237  0.24745020  1
  Al  Al187  1  0.36558402  0.86260573  0.74997961  1
  Al  Al188  1  0.86174037  0.37504674  0.24910423  1
  Al  Al189  1  0.86938868  0.36597560  0.74982895  1
  Al  Al190  1  0.86264399  0.86563963  0.24795183  1
  Al  Al191  1  0.86138299  0.86853441  0.75473819  1
  Al  Al192  1  0.50034814  0.67275902  0.67099091  1
  Al  Al193  1  0.68027564  -0.00143114  0.32630361  1
  Al  Al194  1  -0.00180516  0.32968263  0.17181397  1
  Al  Al195  1  0.17120808  0.00129002  0.66625953  1
  Al  Al196  1  -0.00099270  0.82146502  0.32699025  1
  Al  Al197  1  0.33071157  -0.00237806  0.83006681  1
  Al  Al198  1  0.00161681  0.32817369  0.32616123  1
  Al  Al199  1  0.32857291  0.00153833  0.67306418  1
  Al  Al200  1  0.00037883  0.18654196  0.66746934  1
  Al  Al201  1  0.82420531  0.32851927  0.49794574  1
  Al  Al202  1  0.17758579  0.50252181  0.81990949  1
  Al  Al203  1  0.81776250  0.50058319  0.81286323  1
  Al  Al204  1  0.16789893  0.00143761  0.83465178  1
  Al  Al205  1  0.17401235  0.68000396  0.49844501  1
  Al  Al206  1  -0.00088827  0.83208968  0.68041377  1
  Al  Al207  1  0.50004535  0.68516578  0.31383645  1
  Al  Al208  1  0.50293766  0.82925595  0.82724915  1
  Al  Al209  1  0.33044470  0.67266315  0.49864612  1
  Al  Al210  1  -0.00288887  0.67329297  0.83152487  1
  Al  Al211  1  0.67508255  0.31362038  0.49863615  1
  Al  Al212  1  -0.00022005  0.82490000  0.17139897  1
  Al  Al213  1  0.68413693  -0.00260379  0.17302596  1
  Al  Al214  1  0.49765202  0.16876391  0.17592202  1
  Al  Al215  1  0.81650520  0.82701064  0.49685795  1
  Al  Al216  1  0.81736041  0.67513766  0.49825316  1
  Al  Al217  1  0.18436968  0.50081820  0.31107512  1
  Al  Al218  1  0.33020848  0.32336003  0.49800096  1
  Al  Al219  1  0.81333863  0.32975439  0.00167434  1
  Al  Al220  1  0.18729703  0.17327019  0.00219738  1
  Al  Al221  1  0.18543350  0.32495293  0.00411796  1
  Al  Al222  1  -0.00056934  0.17578062  0.17167125  1
  Al  Al223  1  0.67580064  0.00189700  0.68111854  1
  Al  Al224  1  0.50024285  0.18334897  0.68087003  1
  Al  Al225  1  -0.00075459  0.17347897  0.32873809  1
  Al  Al226  1  0.50033390  0.31746760  0.82109469  1
  Al  Al227  1  0.50024904  0.67272842  0.83109264  1
  Al  Al228  1  -0.00086704  0.18167618  0.82478339  1
  Al  Al229  1  0.81062722  0.80966582  0.00034709  1
  Al  Al230  1  0.17092435  0.68441706  0.00238098  1
  Al  Al231  1  0.32977052  0.68183674  0.00306820  1
  Al  Al232  1  -0.00129926  0.66700833  0.66551534  1
  Al  Al233  1  0.81995423  0.17374707  -0.00072723  1
  Al  Al234  1  0.68733936  0.50018373  0.68315296  1
  Al  Al235  1  0.17248541  0.31182645  0.49768555  1
  Al  Al236  1  0.81384476  0.17421920  0.49843991  1
  Al  Al237  1  0.31219361  0.17370900  0.49781195  1
  Al  Al238  1  0.49988949  0.33502437  0.16960538  1
  Au  Au239  1  0.50374611  0.33404517  0.67131361  1
  Au  Au240  1  -0.00150411  0.83930128  0.66516761  1
  Au  Au241  1  0.34137748  0.50116002  0.83020799  1
  Au  Au242  1  0.17732680  0.66846899  0.00332373  1
  Au  Au243  1  0.32201288  0.33772892  0.49829422  1
  Au  Au244  1  0.50146172  0.16847943  0.83109375  1
  Au  Au245  1  0.32772706  -0.00146864  0.32279102  1
  Au  Au246  1  0.17643797  0.49743145  0.66253760  1
  Au  Au247  1  0.49921478  0.33373914  0.15710315  1
  Au  Au248  1  -0.00464600  0.66024857  0.16638644  1
  Au  Au249  1  0.34613944  0.00276475  0.83018875  1
  Au  Au250  1  0.67038597  0.67241714  0.49835157  1
  Au  Au251  1  0.81940414  0.82446951  0.00216625  1
  Au  Au252  1  0.50436525  0.82660801  0.83975777  1
  Au  Au253  1  -0.00438684  0.66664575  0.84695452  1
  Au  Au254  1  0.83927434  0.32601059  0.50343957  1
  Au  Au255  1  0.17508202  0.33421694  0.00385612  1
  Au  Au256  1  0.49566787  0.15506703  0.16755587  1
  Au  Au257  1  0.67559060  -0.00213519  0.34197436  1
  Au  Au258  1  0.33532531  0.83770845  0.49811707  1
  Au  Au259  1  0.83016488  0.50060790  0.82413660  1
  Au  Au260  1  0.16222321  0.82832691  0.49000847  1
  Au  Au261  1  0.00097579  0.16964683  0.67100186  1
  Au  Au262  1  0.82437078  0.50091102  0.32586571  1
  Au  Au263  1  0.32449501  0.65650957  0.49842083  1
  Au  Au264  1  0.32738475  0.83232236  0.00367240  1
  Au  Au265  1  0.83567465  0.00157059  0.66640334  1
  Au  Au266  1  0.83632734  0.17697283  0.00212444  1
  Au  Au267  1  0.49923256  0.83663361  0.66254832  1
  Au  Au268  1  0.82638455  0.00015491  0.83394485  1
  Au  Au269  1  0.00384277  0.16027180  0.17376644  1
  Au  Au270  1  0.50414341  0.33909739  0.33288616  1
  Au  Au271  1  0.15356498  0.00079973  0.84203629  1
  Au  Au272  1  -0.00144362  0.67249501  0.33873102  1
  Au  Au273  1  0.16862597  0.49998445  0.82854804  1
  Au  Au274  1  0.66190021  0.00201616  0.67185766  1
  Au  Au275  1  0.50102510  0.67113114  0.32337593  1
  Au  Au276  1  0.68153547  -0.00415439  0.15586542  1
  Au  Au277  1  -0.00260928  0.65284323  0.65770577  1
  Au  Au278  1  0.50023644  0.16838927  0.34416421  1
  Au  Au279  1  0.00207263  0.83737530  0.16984828  1
  Au  Au280  1  0.17785024  0.00269195  0.65059915  1
  Au  Au281  1  0.66003192  0.17701006  -0.00039148  1
  Au  Au282  1  0.00100048  0.83646375  0.84151407  1
  Au  Au283  1  0.17842502  0.50050376  0.32725709  1
  Au  Au284  1  0.50048596  0.83081665  0.17169372  1
  Au  Au285  1  0.65488615  0.50128654  0.83103107  1
  Au  Au286  1  -0.00392537  0.33001892  0.83192781  1
  Au  Au287  1  0.50025359  0.65681104  0.67688308  1
