# generated using pymatgen
data_Ca24Ti8Al207Au49
_symmetry_space_group_name_H-M   'P 1'
_cell_length_a   17.31977398
_cell_length_b   17.32021627
_cell_length_c   17.32029370
_cell_angle_alpha   90.00333066
_cell_angle_beta   89.99919318
_cell_angle_gamma   89.99798702
_symmetry_Int_Tables_number   1
_chemical_formula_structural   Ca24Ti8Al207Au49
_chemical_formula_sum   'Ca24 Ti8 Al207 Au49'
_cell_volume   5195.78033322
_cell_formula_units_Z   1
loop_
 _symmetry_equiv_pos_site_id
 _symmetry_equiv_pos_as_xyz
  1  'x, y, z'
loop_
 _atom_site_type_symbol
 _atom_site_label
 _atom_site_symmetry_multiplicity
 _atom_site_fract_x
 _atom_site_fract_y
 _atom_site_fract_z
 _atom_site_occupancy
  Ca  Ca0  1  0.25980654  -0.00066163  0.00170344  1
  Ca  Ca1  1  0.25506749  -0.00187510  0.49721847  1
  Ca  Ca2  1  0.25445963  0.50101097  -0.00220903  1
  Ca  Ca3  1  0.24814909  0.50301590  0.50290569  1
  Ca  Ca4  1  0.74958264  0.00002978  0.00132281  1
  Ca  Ca5  1  0.74776539  -0.00142618  0.50368062  1
  Ca  Ca6  1  0.74921827  0.50194872  0.00122760  1
  Ca  Ca7  1  0.74821606  0.49748777  0.50111077  1
  Ca  Ca8  1  -0.00163920  0.25067683  -0.00256888  1
  Ca  Ca9  1  0.00220008  0.24883963  0.50203627  1
  Ca  Ca10  1  -0.00152523  0.74846906  -0.00106021  1
  Ca  Ca11  1  0.00218656  0.74751032  0.50004057  1
  Ca  Ca12  1  0.50354102  0.24787155  -0.00100037  1
  Ca  Ca13  1  0.49799837  0.24155864  0.50047145  1
  Ca  Ca14  1  0.50054160  0.74614078  -0.00163302  1
  Ca  Ca15  1  0.49508402  0.75158782  0.50182706  1
  Ca  Ca16  1  -0.00149258  0.00184199  0.24746046  1
  Ca  Ca17  1  -0.00143778  -0.00004269  0.75114831  1
  Ca  Ca18  1  -0.00003653  0.50050290  0.24696138  1
  Ca  Ca19  1  0.00097890  0.49941414  0.75434255  1
  Ca  Ca20  1  0.50121621  -0.00820599  0.24251760  1
  Ca  Ca21  1  0.50197179  -0.00221808  0.75035083  1
  Ca  Ca22  1  0.50133443  0.50410545  0.24034001  1
  Ca  Ca23  1  0.50030118  0.50442214  0.75773460  1
  Ti  Ti24  1  0.24714483  0.24909747  0.24993450  1
  Ti  Ti25  1  0.24892545  0.24976619  0.75071765  1
  Ti  Ti26  1  0.24983613  0.75074837  0.25031263  1
  Ti  Ti27  1  0.25044737  0.74989316  0.75028303  1
  Ti  Ti28  1  0.75297724  0.24994856  0.24688875  1
  Ti  Ti29  1  0.75021215  0.24901555  0.75177418  1
  Ti  Ti30  1  0.75068518  0.74950721  0.24789086  1
  Ti  Ti31  1  0.74989223  0.75030246  0.75133053  1
  Al  Al32  1  0.07616452  0.07854822  0.08365775  1
  Al  Al33  1  0.07185806  0.08164107  0.58146177  1
  Al  Al34  1  0.07376265  0.58649344  0.08631838  1
  Al  Al35  1  0.08327910  0.58950791  0.58954000  1
  Al  Al36  1  0.58826605  0.08715543  0.08021242  1
  Al  Al37  1  0.58930330  0.08174457  0.59666099  1
  Al  Al38  1  0.59073760  0.58627678  0.07880269  1
  Al  Al39  1  0.58736953  0.59074203  0.58251869  1
  Al  Al40  1  0.41378448  0.41468963  0.07533979  1
  Al  Al41  1  0.41682340  0.42183981  0.58339871  1
  Al  Al42  1  0.41699621  0.90217035  0.08673021  1
  Al  Al43  1  0.42072621  0.91454215  0.58558503  1
  Al  Al44  1  0.91696935  0.41239382  0.08642015  1
  Al  Al45  1  0.92693695  0.42162062  0.58355026  1
  Al  Al46  1  0.91038304  0.92016916  0.08988684  1
  Al  Al47  1  0.91578038  0.92172217  0.59812522  1
  Al  Al48  1  0.41875019  0.07064708  0.42323976  1
  Al  Al49  1  0.41898755  0.08303618  0.91850012  1
  Al  Al50  1  0.41653307  0.59079775  0.42371798  1
  Al  Al51  1  0.41443204  0.59088937  0.91141008  1
  Al  Al52  1  0.91967683  0.08244215  0.41954091  1
  Al  Al53  1  0.91270140  0.09170281  0.91602655  1
  Al  Al54  1  0.92017871  0.57954756  0.41321011  1
  Al  Al55  1  0.91332544  0.58524397  0.92051467  1
  Al  Al56  1  0.07988794  0.41027605  0.40940113  1
  Al  Al57  1  0.08174862  0.41426403  0.90506612  1
  Al  Al58  1  0.08303977  0.90748778  0.41458922  1
  Al  Al59  1  0.07811846  0.91802877  0.91973888  1
  Al  Al60  1  0.57807279  0.42824437  0.42212694  1
  Al  Al61  1  0.59228927  0.42572058  0.91859901  1
  Al  Al62  1  0.57745332  0.91224637  0.40621711  1
  Al  Al63  1  0.58561668  0.91281007  0.92122011  1
  Al  Al64  1  0.07828971  0.07964488  0.41585777  1
  Al  Al65  1  0.07217927  0.09052529  0.91031060  1
  Al  Al66  1  0.08064697  0.58493427  0.41873149  1
  Al  Al67  1  0.08573481  0.57548473  0.91127914  1
  Al  Al68  1  0.58308805  0.06823928  0.42718433  1
  Al  Al69  1  0.59034326  0.08685905  0.91947028  1
  Al  Al70  1  0.58721665  0.59290176  0.42240498  1
  Al  Al71  1  0.58794512  0.58984058  0.91418870  1
  Al  Al72  1  0.41704626  0.42417212  0.42448039  1
  Al  Al73  1  0.40899104  0.42250034  0.91879924  1
  Al  Al74  1  0.41852444  0.90781204  0.41284004  1
  Al  Al75  1  0.41227528  0.90633372  0.92282411  1
  Al  Al76  1  0.92387680  0.41689099  0.40227361  1
  Al  Al77  1  0.91919949  0.41228776  0.91234146  1
  Al  Al78  1  0.92695353  0.91594637  0.40794089  1
  Al  Al79  1  0.91466012  0.91881605  0.91732207  1
  Al  Al80  1  0.07557213  0.41339182  0.08797051  1
  Al  Al81  1  0.08392707  0.41937532  0.58307688  1
  Al  Al82  1  0.07889197  0.91863421  0.08290187  1
  Al  Al83  1  0.07598965  0.91066782  0.57765389  1
  Al  Al84  1  0.59238260  0.42216206  0.08120508  1
  Al  Al85  1  0.57781611  0.42517313  0.58423757  1
  Al  Al86  1  0.58188368  0.90580787  0.08569670  1
  Al  Al87  1  0.58249938  0.92074358  0.59249462  1
  Al  Al88  1  0.42175038  0.07928736  0.07957050  1
  Al  Al89  1  0.42751436  0.08010539  0.59068535  1
  Al  Al90  1  0.41615236  0.58976987  0.07340770  1
  Al  Al91  1  0.41453047  0.59042418  0.58211344  1
  Al  Al92  1  0.90753216  0.08402248  0.08277127  1
  Al  Al93  1  0.90682472  0.08053537  0.59391656  1
  Al  Al94  1  0.91386270  0.59168034  0.08306061  1
  Al  Al95  1  0.92440549  0.58879697  0.58928099  1
  Al  Al96  1  0.24783402  0.13776560  0.13841441  1
  Al  Al97  1  0.25005508  0.13580317  0.63933512  1
  Al  Al98  1  0.25434383  0.63988470  0.13456207  1
  Al  Al99  1  0.25356371  0.63501120  0.63784115  1
  Al  Al100  1  0.75077635  0.12949309  0.13583542  1
  Al  Al101  1  0.75087033  0.13150683  0.63819642  1
  Al  Al102  1  0.75084203  0.63091313  0.13631587  1
  Al  Al103  1  0.74259906  0.63615936  0.63568286  1
  Al  Al104  1  0.24836849  0.36404450  0.13524323  1
  Al  Al105  1  0.24855714  0.36474329  0.63783893  1
  Al  Al106  1  0.25330764  0.86268374  0.13712014  1
  Al  Al107  1  0.25371664  0.86241111  0.63588470  1
  Al  Al108  1  0.75413824  0.37156584  0.13529533  1
  Al  Al109  1  0.74785055  0.36427114  0.64181770  1
  Al  Al110  1  0.74898088  0.86865231  0.13704653  1
  Al  Al111  1  0.74954681  0.86676029  0.63423805  1
  Al  Al112  1  0.24881663  0.12954007  0.36170438  1
  Al  Al113  1  0.25056129  0.13067879  0.85940882  1
  Al  Al114  1  0.25042857  0.64136608  0.36240474  1
  Al  Al115  1  0.25150574  0.63881499  0.86577575  1
  Al  Al116  1  0.75373888  0.13634822  0.36223340  1
  Al  Al117  1  0.75073385  0.13303174  0.86358079  1
  Al  Al118  1  0.74826543  0.63900638  0.36134272  1
  Al  Al119  1  0.74525882  0.63487043  0.86479647  1
  Al  Al120  1  0.24952615  0.36364692  0.36247717  1
  Al  Al121  1  0.24862730  0.36463610  0.86401776  1
  Al  Al122  1  0.25373266  0.86887855  0.36266674  1
  Al  Al123  1  0.25470621  0.86574544  0.86401072  1
  Al  Al124  1  0.75299492  0.36591517  0.35830373  1
  Al  Al125  1  0.75236363  0.36301688  0.86463313  1
  Al  Al126  1  0.75009281  0.86198201  0.36467552  1
  Al  Al127  1  0.74919114  0.86297226  0.86528412  1
  Al  Al128  1  0.12424569  0.25339006  0.13752616  1
  Al  Al129  1  0.12829221  0.25016391  0.63971330  1
  Al  Al130  1  0.13253682  0.74789366  0.13373424  1
  Al  Al131  1  0.13628639  0.74772376  0.63630114  1
  Al  Al132  1  0.64027239  0.24882530  0.13280652  1
  Al  Al133  1  0.63617207  0.24496102  0.63908858  1
  Al  Al134  1  0.63284638  0.74764042  0.13399154  1
  Al  Al135  1  0.63467559  0.75163608  0.63702228  1
  Al  Al136  1  0.12758876  0.25181555  0.36231681  1
  Al  Al137  1  0.13140167  0.25156152  0.86618233  1
  Al  Al138  1  0.12831751  0.74869959  0.36437140  1
  Al  Al139  1  0.12883807  0.74801480  0.86502758  1
  Al  Al140  1  0.63834099  0.25326731  0.35960356  1
  Al  Al141  1  0.63460753  0.24564128  0.86342502  1
  Al  Al142  1  0.63368994  0.75140836  0.36225609  1
  Al  Al143  1  0.63178761  0.74475543  0.86476066  1
  Al  Al144  1  0.36347752  0.25283145  0.13420637  1
  Al  Al145  1  0.36332586  0.24650610  0.63236721  1
  Al  Al146  1  0.36987866  0.75242215  0.13230068  1
  Al  Al147  1  0.36625262  0.75114031  0.63204296  1
  Al  Al148  1  0.86877926  0.25225717  0.13404557  1
  Al  Al149  1  0.86975317  0.24870850  0.63914231  1
  Al  Al150  1  0.86513879  0.74917655  0.13364445  1
  Al  Al151  1  0.86287615  0.74703550  0.63447766  1
  Al  Al152  1  0.36073936  0.25078664  0.37203451  1
  Al  Al153  1  0.36474053  0.25264897  0.86560205  1
  Al  Al154  1  0.36631614  0.75348756  0.36948165  1
  Al  Al155  1  0.36638397  0.74831798  0.86886224  1
  Al  Al156  1  0.87058972  0.25118453  0.35844909  1
  Al  Al157  1  0.86816318  0.24945981  0.86409792  1
  Al  Al158  1  0.87125902  0.74938603  0.36442930  1
  Al  Al159  1  0.87026411  0.74978691  0.86281974  1
  Al  Al160  1  0.12681864  0.13639874  0.25148641  1
  Al  Al161  1  0.12782066  0.13721147  0.75298574  1
  Al  Al162  1  0.12987197  0.63799942  0.24957937  1
  Al  Al163  1  0.13271516  0.63452961  0.75263542  1
  Al  Al164  1  0.63922463  0.13335320  0.24466493  1
  Al  Al165  1  0.63170825  0.13021641  0.74746604  1
  Al  Al166  1  0.63123418  0.63471536  0.24209078  1
  Al  Al167  1  0.63211635  0.63150094  0.75313586  1
  Al  Al168  1  0.36454137  0.13763246  0.25131009  1
  Al  Al169  1  0.37146664  0.13759159  0.75279067  1
  Al  Al170  1  0.36999328  0.64227168  0.24708711  1
  Al  Al171  1  0.36972263  0.63873195  0.75405783  1
  Al  Al172  1  0.87104876  0.13585285  0.24381132  1
  Al  Al173  1  0.86635410  0.13302828  0.75126764  1
  Al  Al174  1  0.87102985  0.63814387  0.24788494  1
  Al  Al175  1  0.86721199  0.63697007  0.75147038  1
  Al  Al176  1  0.13230717  0.36581444  0.24995338  1
  Al  Al177  1  0.13076616  0.36736860  0.75441424  1
  Al  Al178  1  0.13362267  0.86338638  0.25327234  1
  Al  Al179  1  0.13626625  0.86473325  0.75433155  1
  Al  Al180  1  0.63546745  0.36700203  0.24110324  1
  Al  Al181  1  0.63555401  0.37188721  0.75573239  1
  Al  Al182  1  0.63195517  0.86201874  0.24511247  1
  Al  Al183  1  0.63315406  0.86582167  0.74822440  1
  Al  Al184  1  0.36550963  0.36125268  0.24616161  1
  Al  Al185  1  0.36548442  0.36546134  0.75030729  1
  Al  Al186  1  0.37115341  0.86096795  0.24933676  1
  Al  Al187  1  0.36863771  0.86160142  0.75014381  1
  Al  Al188  1  0.87032596  0.36576204  0.24540075  1
  Al  Al189  1  0.87274821  0.36237544  0.75206098  1
  Al  Al190  1  0.86525511  0.86414868  0.24895933  1
  Al  Al191  1  0.86258838  0.86983542  0.74904266  1
  Al  Al192  1  0.17190174  0.50153822  0.32567692  1
  Al  Al193  1  0.81565013  0.66958725  0.49865432  1
  Al  Al194  1  0.67883437  0.00106290  0.82128992  1
  Al  Al195  1  0.66772832  0.50266913  0.31666359  1
  Al  Al196  1  0.17131236  -0.00070911  0.67397765  1
  Al  Al197  1  0.32937590  -0.00069867  0.17587636  1
  Al  Al198  1  0.68353672  0.31576675  -0.00085947  1
  Al  Al199  1  0.50053973  0.81585955  0.81830491  1
  Al  Al200  1  0.82533582  0.50191431  0.31545328  1
  Al  Al201  1  0.67562401  -0.00265875  0.31731583  1
  Al  Al202  1  0.31121247  0.50202251  0.82084685  1
  Al  Al203  1  0.80977801  0.18110482  0.00059255  1
  Al  Al204  1  0.32877565  0.00006036  0.68312820  1
  Al  Al205  1  0.66782041  0.82103033  0.50075593  1
  Al  Al206  1  0.17935575  0.17013230  0.49962374  1
  Al  Al207  1  0.17970669  0.32978569  -0.00029060  1
  Al  Al208  1  0.17650273  0.32744670  0.49982050  1
  Al  Al209  1  0.32813261  0.18316552  0.00055292  1
  Al  Al210  1  0.49979187  0.33154819  0.31920625  1
  Al  Al211  1  0.17133534  0.50263262  0.17211959  1
  Al  Al212  1  0.82569904  0.17405705  0.50095556  1
  Al  Al213  1  0.80946351  0.68392039  -0.00129169  1
  Al  Al214  1  0.67309869  0.32834648  0.50110865  1
  Al  Al215  1  0.50083868  0.68565603  0.68279221  1
  Al  Al216  1  0.18019955  0.67088876  0.00019498  1
  Al  Al217  1  -0.00045914  0.81605315  0.18290580  1
  Al  Al218  1  0.83163523  0.33185442  0.49632504  1
  Al  Al219  1  0.82169225  0.50039810  0.67309623  1
  Al  Al220  1  0.17259026  0.17004400  -0.00066539  1
  Al  Al221  1  0.83065584  0.83049523  0.50021380  1
  Al  Al222  1  0.32653735  0.50196493  0.16842111  1
  Al  Al223  1  0.18247611  0.82307196  0.49889181  1
  Al  Al224  1  0.83202660  0.00105331  0.31351296  1
  Al  Al225  1  0.81719237  0.49997308  0.82996618  1
  Al  Al226  1  0.50052346  0.67948914  0.32489261  1
  Al  Al227  1  0.68097933  0.80949975  0.00030068  1
  Al  Al228  1  0.18162829  0.67173101  0.50046542  1
  Al  Al229  1  0.50113524  0.32607103  0.83303802  1
  Al  Al230  1  0.17520194  -0.00028117  0.17819983  1
  Al  Al231  1  0.50008461  0.31046062  0.67375693  1
  Al  Al232  1  0.32926233  0.50225434  0.31938104  1
  Al  Al233  1  0.18622894  0.82683322  -0.00018017  1
  Al  Al234  1  0.67297339  0.17008592  0.49982086  1
  Al  Al235  1  0.17897912  0.50053174  0.68323557  1
  Al  Al236  1  0.00029615  0.81434996  0.68015876  1
  Al  Al237  1  0.50482753  0.16721621  0.33080979  1
  Al  Al238  1  0.50029787  0.17983451  0.17231084  1
  Au  Au239  1  0.66856099  -0.00217820  0.16494030  1
  Au  Au240  1  0.83749479  0.50018054  0.67943222  1
  Au  Au241  1  0.84758511  0.32655903  0.49410755  1
  Au  Au242  1  0.65713450  0.32246176  0.50043911  1
  Au  Au243  1  0.32477833  0.33798727  0.50206636  1
  Au  Au244  1  0.49951522  0.68250899  0.33753768  1
  Au  Au245  1  0.50107160  0.33549601  0.83715806  1
  Au  Au246  1  0.17379930  0.65586194  0.00048721  1
  Au  Au247  1  0.17269939  0.34428420  -0.00102474  1
  Au  Au248  1  -0.00162261  0.17762539  0.33278727  1
  Au  Au249  1  0.83504024  0.00229620  0.82320287  1
  Au  Au250  1  0.49573204  0.33363372  0.33564512  1
  Au  Au251  1  0.67423282  0.50371374  0.33272671  1
  Au  Au252  1  -0.00152516  0.83120939  0.82682083  1
  Au  Au253  1  0.17633779  0.15777004  -0.00093606  1
  Au  Au254  1  0.66226851  0.50229931  0.67649328  1
  Au  Au255  1  0.50076808  0.82373736  0.83304923  1
  Au  Au256  1  0.16322452  0.17530009  0.50010464  1
  Au  Au257  1  0.00018273  0.67122019  0.32646024  1
  Au  Au258  1  0.33704871  0.50390392  0.67544230  1
  Au  Au259  1  0.83264401  0.32748841  -0.00212725  1
  Au  Au260  1  0.82478042  0.65533863  0.49910376  1
  Au  Au261  1  0.50289994  0.33044243  0.15400582  1
  Au  Au262  1  0.17322809  -0.00577105  0.65797820  1
  Au  Au263  1  -0.00063096  0.83153646  0.17538579  1
  Au  Au264  1  0.49850623  0.32341012  0.66324441  1
  Au  Au265  1  0.82668826  0.83258790  0.00225526  1
  Au  Au266  1  0.18014933  0.84260984  0.00171752  1
  Au  Au267  1  0.50202166  0.16495507  0.82791714  1
  Au  Au268  1  0.82772590  0.00061624  0.33016434  1
  Au  Au269  1  -0.00359902  0.17455170  0.16268201  1
  Au  Au270  1  0.50093987  0.67376195  0.16149849  1
  Au  Au271  1  0.33972250  0.16407740  0.50546989  1
  Au  Au272  1  0.33489058  -0.00257674  0.83379278  1
  Au  Au273  1  0.50685031  0.15153176  0.32499127  1
  Au  Au274  1  0.50091283  0.67889486  0.66732352  1
  Au  Au275  1  0.67014740  -0.00152310  0.83010591  1
  Au  Au276  1  0.83174398  0.50262336  0.16636132  1
  Au  Au277  1  -0.00396890  0.16439812  0.67940087  1
  Au  Au278  1  0.84493709  0.83680331  0.50087173  1
  Au  Au279  1  0.32529768  0.50803893  0.33481698  1
  Au  Au280  1  0.00326977  0.33159464  0.67718198  1
  Au  Au281  1  0.65207291  0.82712890  0.50169415  1
  Au  Au282  1  0.33264889  0.82671318  0.50279959  1
  Au  Au283  1  0.33494065  -0.00410089  0.32505461  1
  Au  Au284  1  -0.00042612  0.66071122  0.82509366  1
  Au  Au285  1  0.16019061  -0.00288025  0.32612049  1
  Au  Au286  1  0.16231614  0.00261480  0.83343602  1
  Au  Au287  1  0.16652862  0.50049164  0.68304496  1
