# generated using pymatgen
data_Ca24Ti8Al207Au49
_symmetry_space_group_name_H-M   'P 1'
_cell_length_a   17.32132359
_cell_length_b   17.32197514
_cell_length_c   17.32017249
_cell_angle_alpha   90.00339036
_cell_angle_beta   90.00406036
_cell_angle_gamma   89.99954374
_symmetry_Int_Tables_number   1
_chemical_formula_structural   Ca24Ti8Al207Au49
_chemical_formula_sum   'Ca24 Ti8 Al207 Au49'
_cell_volume   5196.73650460
_cell_formula_units_Z   1
loop_
 _symmetry_equiv_pos_site_id
 _symmetry_equiv_pos_as_xyz
  1  'x, y, z'
loop_
 _atom_site_type_symbol
 _atom_site_label
 _atom_site_symmetry_multiplicity
 _atom_site_fract_x
 _atom_site_fract_y
 _atom_site_fract_z
 _atom_site_occupancy
  Ca  Ca0  1  0.24891725  0.00216650  -0.00366498  1
  Ca  Ca1  1  0.24838749  0.00154844  0.50329035  1
  Ca  Ca2  1  0.25043323  0.49822249  -0.00275009  1
  Ca  Ca3  1  0.25080417  0.50065617  0.49948913  1
  Ca  Ca4  1  0.75105585  0.00323700  -0.00337340  1
  Ca  Ca5  1  0.74487039  0.00009964  0.50107574  1
  Ca  Ca6  1  0.74846898  0.49776289  -0.00240281  1
  Ca  Ca7  1  0.74120602  0.50373919  0.49865752  1
  Ca  Ca8  1  0.00311181  0.24843959  -0.00051345  1
  Ca  Ca9  1  0.00484660  0.24867153  0.50145087  1
  Ca  Ca10  1  0.00327167  0.75752920  -0.00078576  1
  Ca  Ca11  1  0.00329556  0.75508682  0.50194348  1
  Ca  Ca12  1  0.49944696  0.24627121  0.00051496  1
  Ca  Ca13  1  0.49698977  0.24534748  0.49963270  1
  Ca  Ca14  1  0.49851856  0.75000854  -0.00171596  1
  Ca  Ca15  1  0.50030102  0.74886923  0.49928786  1
  Ca  Ca16  1  0.00305396  -0.00520147  0.24580536  1
  Ca  Ca17  1  0.00426969  -0.00169423  0.75000969  1
  Ca  Ca18  1  0.00132615  0.50464872  0.24772197  1
  Ca  Ca19  1  0.00430445  0.49925354  0.74757108  1
  Ca  Ca20  1  0.49951198  0.00061914  0.25248562  1
  Ca  Ca21  1  0.49606456  0.00512687  0.75101897  1
  Ca  Ca22  1  0.49655587  0.49845743  0.25211068  1
  Ca  Ca23  1  0.49662995  0.49763499  0.75193864  1
  Ti  Ti24  1  0.25027088  0.24968970  0.24974158  1
  Ti  Ti25  1  0.24888878  0.24892592  0.74954333  1
  Ti  Ti26  1  0.25134680  0.75010467  0.25230928  1
  Ti  Ti27  1  0.24886737  0.75087287  0.74945077  1
  Ti  Ti28  1  0.74804919  0.24963216  0.24680839  1
  Ti  Ti29  1  0.74990955  0.24915461  0.75236693  1
  Ti  Ti30  1  0.74856761  0.75098419  0.25029198  1
  Ti  Ti31  1  0.75038872  0.75135846  0.74899649  1
  Al  Al32  1  0.09165053  0.08274752  0.07935792  1
  Al  Al33  1  0.09088471  0.08492985  0.58279569  1
  Al  Al34  1  0.07907337  0.57944264  0.08722784  1
  Al  Al35  1  0.09421567  0.58460633  0.58797412  1
  Al  Al36  1  0.58009880  0.08071282  0.08613057  1
  Al  Al37  1  0.57073570  0.08393828  0.59595714  1
  Al  Al38  1  0.58520179  0.57690770  0.09153164  1
  Al  Al39  1  0.59513506  0.58873355  0.57873101  1
  Al  Al40  1  0.41742147  0.41794459  0.08139237  1
  Al  Al41  1  0.41422053  0.42002348  0.58305336  1
  Al  Al42  1  0.41903377  0.91625393  0.08236904  1
  Al  Al43  1  0.40900481  0.92870226  0.58301812  1
  Al  Al44  1  0.92267221  0.41965124  0.07604165  1
  Al  Al45  1  0.92487150  0.41582355  0.58405096  1
  Al  Al46  1  0.92232282  0.91145954  0.08637064  1
  Al  Al47  1  0.92482949  0.91310714  0.59262983  1
  Al  Al48  1  0.40953766  0.08592141  0.42691408  1
  Al  Al49  1  0.41325625  0.08892504  0.90722847  1
  Al  Al50  1  0.41926177  0.58452576  0.40655427  1
  Al  Al51  1  0.41106495  0.58616874  0.90709096  1
  Al  Al52  1  0.91817568  0.07091013  0.41960063  1
  Al  Al53  1  0.91365609  0.07709071  0.91051056  1
  Al  Al54  1  0.91992990  0.58174917  0.42522460  1
  Al  Al55  1  0.92778603  0.58515765  0.91784793  1
  Al  Al56  1  0.08874730  0.42228696  0.42238267  1
  Al  Al57  1  0.09018869  0.41308339  0.90194217  1
  Al  Al58  1  0.09098184  0.91449521  0.41534245  1
  Al  Al59  1  0.08622910  0.92129233  0.91342527  1
  Al  Al60  1  0.57233570  0.42228143  0.41743135  1
  Al  Al61  1  0.57857387  0.42172957  0.92079033  1
  Al  Al62  1  0.58372634  0.90033827  0.41406666  1
  Al  Al63  1  0.58284328  0.92573130  0.90573952  1
  Al  Al64  1  0.09758800  0.07765927  0.41929732  1
  Al  Al65  1  0.09271047  0.08347643  0.91674740  1
  Al  Al66  1  0.09312371  0.58425849  0.42418497  1
  Al  Al67  1  0.08668317  0.57638360  0.90140115  1
  Al  Al68  1  0.57493259  0.07471408  0.41854609  1
  Al  Al69  1  0.58384973  0.08568492  0.90077022  1
  Al  Al70  1  0.58206465  0.59954115  0.41537490  1
  Al  Al71  1  0.57287181  0.58692462  0.91036380  1
  Al  Al72  1  0.41125072  0.42014924  0.41082864  1
  Al  Al73  1  0.40827163  0.42338103  0.91235868  1
  Al  Al74  1  0.42065618  0.91041835  0.41354184  1
  Al  Al75  1  0.41544828  0.92267946  0.91094087  1
  Al  Al76  1  0.92226259  0.42225299  0.42819484  1
  Al  Al77  1  0.92926400  0.40932505  0.91205805  1
  Al  Al78  1  0.92232447  0.91759328  0.41195894  1
  Al  Al79  1  0.91354681  0.91838194  0.91157006  1
  Al  Al80  1  0.08440139  0.41960732  0.07696682  1
  Al  Al81  1  0.09120762  0.41885050  0.59169196  1
  Al  Al82  1  0.08373742  0.91619871  0.08839488  1
  Al  Al83  1  0.08785992  0.91261660  0.58293793  1
  Al  Al84  1  0.58743033  0.41995199  0.09017574  1
  Al  Al85  1  0.58632242  0.42794934  0.59077699  1
  Al  Al86  1  0.57993154  0.92239423  0.08817869  1
  Al  Al87  1  0.58963602  0.91786257  0.57590284  1
  Al  Al88  1  0.41823827  0.08731054  0.07814304  1
  Al  Al89  1  0.40662734  0.09010773  0.59317366  1
  Al  Al90  1  0.41836782  0.58079226  0.07901757  1
  Al  Al91  1  0.41631336  0.57924128  0.58169149  1
  Al  Al92  1  0.92144635  0.07694978  0.07876388  1
  Al  Al93  1  0.92528687  0.07591664  0.58670762  1
  Al  Al94  1  0.92180962  0.58636548  0.08209140  1
  Al  Al95  1  0.92264638  0.58368741  0.58463359  1
  Al  Al96  1  0.24886568  0.13605736  0.13167149  1
  Al  Al97  1  0.24995702  0.12781291  0.63722861  1
  Al  Al98  1  0.25157588  0.63555703  0.13670876  1
  Al  Al99  1  0.24767296  0.63229102  0.63763482  1
  Al  Al100  1  0.74969913  0.13661974  0.12815767  1
  Al  Al101  1  0.74938422  0.13081377  0.63827456  1
  Al  Al102  1  0.74585848  0.63591259  0.13556479  1
  Al  Al103  1  0.74441552  0.63538161  0.63465905  1
  Al  Al104  1  0.24919235  0.36520177  0.12872924  1
  Al  Al105  1  0.24726985  0.36617587  0.63470968  1
  Al  Al106  1  0.25400301  0.86582200  0.13686392  1
  Al  Al107  1  0.24419500  0.86893003  0.63319057  1
  Al  Al108  1  0.74679930  0.36355695  0.12908316  1
  Al  Al109  1  0.74526753  0.36184193  0.63892317  1
  Al  Al110  1  0.74973856  0.86513203  0.13678042  1
  Al  Al111  1  0.74913733  0.86758189  0.63735558  1
  Al  Al112  1  0.24708077  0.13079980  0.36967481  1
  Al  Al113  1  0.24708239  0.13418776  0.86384556  1
  Al  Al114  1  0.25198694  0.63141602  0.36492306  1
  Al  Al115  1  0.24825511  0.63106965  0.86212068  1
  Al  Al116  1  0.74700939  0.13478945  0.36657698  1
  Al  Al117  1  0.74869240  0.13337619  0.86777996  1
  Al  Al118  1  0.74209432  0.63633597  0.36696631  1
  Al  Al119  1  0.75053183  0.63514810  0.86517512  1
  Al  Al120  1  0.25182644  0.37178660  0.36577202  1
  Al  Al121  1  0.24824570  0.36458274  0.86699619  1
  Al  Al122  1  0.24348403  0.86926610  0.37052924  1
  Al  Al123  1  0.24945748  0.86725673  0.86218277  1
  Al  Al124  1  0.74563492  0.36567422  0.36219938  1
  Al  Al125  1  0.74629591  0.36305197  0.86862452  1
  Al  Al126  1  0.74338085  0.86195441  0.36737003  1
  Al  Al127  1  0.74943574  0.86794626  0.86167027  1
  Al  Al128  1  0.13774959  0.24959040  0.13032780  1
  Al  Al129  1  0.13952051  0.24825415  0.63291343  1
  Al  Al130  1  0.13633693  0.75423972  0.13694340  1
  Al  Al131  1  0.13043691  0.75302264  0.63819682  1
  Al  Al132  1  0.63486067  0.25077981  0.12911679  1
  Al  Al133  1  0.63292717  0.24068469  0.63935942  1
  Al  Al134  1  0.63394974  0.74848428  0.13702917  1
  Al  Al135  1  0.63450573  0.75082107  0.63327281  1
  Al  Al136  1  0.14129360  0.24756402  0.37329860  1
  Al  Al137  1  0.13606408  0.25078474  0.86780205  1
  Al  Al138  1  0.13776264  0.75364000  0.36766687  1
  Al  Al139  1  0.13539820  0.75370897  0.86155449  1
  Al  Al140  1  0.63461791  0.24785387  0.36469983  1
  Al  Al141  1  0.63453125  0.24553094  0.86846093  1
  Al  Al142  1  0.62855692  0.74910928  0.36520914  1
  Al  Al143  1  0.63428015  0.74645247  0.86149818  1
  Al  Al144  1  0.36399480  0.25313061  0.13392589  1
  Al  Al145  1  0.36270433  0.24420173  0.63090741  1
  Al  Al146  1  0.36422763  0.75081398  0.13762513  1
  Al  Al147  1  0.36227846  0.74815362  0.63476581  1
  Al  Al148  1  0.86394473  0.24981340  0.12995282  1
  Al  Al149  1  0.86382197  0.25097735  0.63886600  1
  Al  Al150  1  0.86303357  0.74969160  0.13532499  1
  Al  Al151  1  0.86947464  0.75148494  0.63550917  1
  Al  Al152  1  0.36025987  0.24462906  0.36738914  1
  Al  Al153  1  0.36288604  0.24634197  0.86194557  1
  Al  Al154  1  0.36764734  0.75056296  0.36657787  1
  Al  Al155  1  0.36280225  0.75021201  0.86145678  1
  Al  Al156  1  0.86057286  0.24962900  0.36321950  1
  Al  Al157  1  0.86470886  0.24980089  0.86922970  1
  Al  Al158  1  0.86220827  0.75178931  0.36611290  1
  Al  Al159  1  0.86451554  0.75234361  0.86257181  1
  Al  Al160  1  0.14030619  0.13568138  0.25145631  1
  Al  Al161  1  0.13712092  0.12807738  0.75009910  1
  Al  Al162  1  0.13828198  0.63613688  0.25208400  1
  Al  Al163  1  0.13558972  0.63217211  0.74805432  1
  Al  Al164  1  0.63500019  0.13535860  0.25059343  1
  Al  Al165  1  0.63534945  0.13036941  0.75394808  1
  Al  Al166  1  0.63226491  0.63372721  0.25348871  1
  Al  Al167  1  0.63825347  0.63028017  0.74983395  1
  Al  Al168  1  0.36233814  0.13428040  0.25000447  1
  Al  Al169  1  0.36554001  0.13495621  0.74702693  1
  Al  Al170  1  0.36804300  0.63370823  0.25819790  1
  Al  Al171  1  0.36640487  0.63121860  0.75548625  1
  Al  Al172  1  0.86241277  0.13625986  0.24728410  1
  Al  Al173  1  0.86486685  0.13362623  0.75520211  1
  Al  Al174  1  0.86090778  0.63509354  0.25023643  1
  Al  Al175  1  0.86572918  0.63372198  0.74485132  1
  Al  Al176  1  0.13872440  0.36071248  0.25266180  1
  Al  Al177  1  0.13200697  0.36206628  0.75143395  1
  Al  Al178  1  0.13726725  0.86583442  0.25093020  1
  Al  Al179  1  0.13273176  0.87023983  0.74836053  1
  Al  Al180  1  0.63588473  0.36935243  0.24715422  1
  Al  Al181  1  0.63464290  0.36794357  0.75063320  1
  Al  Al182  1  0.63265605  0.86383133  0.25528497  1
  Al  Al183  1  0.63574276  0.86959471  0.75035202  1
  Al  Al184  1  0.36292611  0.36418013  0.25099395  1
  Al  Al185  1  0.36342878  0.36482415  0.75158712  1
  Al  Al186  1  0.36477826  0.86573278  0.25687524  1
  Al  Al187  1  0.36178606  0.86629529  0.74610083  1
  Al  Al188  1  0.86128586  0.36379590  0.24512499  1
  Al  Al189  1  0.87171961  0.36290699  0.75308565  1
  Al  Al190  1  0.86520016  0.86331853  0.24746607  1
  Al  Al191  1  0.87067897  0.86632893  0.75180860  1
  Al  Al192  1  0.82541947  0.16726057  0.50182180  1
  Al  Al193  1  0.81435907  0.49961139  0.16966434  1
  Al  Al194  1  0.18428863  0.69084897  0.50273129  1
  Al  Al195  1  0.68272134  0.00097701  0.18324700  1
  Al  Al196  1  -0.00138441  0.32867275  0.32959706  1
  Al  Al197  1  0.00258698  0.17833039  0.82592760  1
  Al  Al198  1  0.66716487  0.32566121  0.50073851  1
  Al  Al199  1  0.31654365  0.18036365  -0.00203268  1
  Al  Al200  1  0.17351592  0.67449267  -0.00038030  1
  Al  Al201  1  0.49966961  0.81896839  0.82520164  1
  Al  Al202  1  0.18141707  0.00037649  0.18558900  1
  Al  Al203  1  0.00221054  0.17212153  0.17108247  1
  Al  Al204  1  0.50254970  0.67098377  0.68653255  1
  Al  Al205  1  0.49980072  0.82774516  0.18589826  1
  Al  Al206  1  0.31815578  0.82153036  0.50423789  1
  Al  Al207  1  0.00311438  0.16594328  0.32950262  1
  Al  Al208  1  0.81666231  0.83160575  0.50136285  1
  Al  Al209  1  -0.00052572  0.67894691  0.32312759  1
  Al  Al210  1  0.66754093  0.83060140  -0.00280926  1
  Al  Al211  1  0.81748938  -0.00172007  0.31747416  1
  Al  Al212  1  0.00088863  0.68365289  0.81621222  1
  Al  Al213  1  0.00160413  0.82821583  0.31445758  1
  Al  Al214  1  0.49885757  0.67313435  0.18288475  1
  Al  Al215  1  0.82530925  0.82428096  -0.00055415  1
  Al  Al216  1  0.82134336  -0.00120139  0.68163809  1
  Al  Al217  1  0.00065101  0.68797381  0.17398460  1
  Al  Al218  1  0.49955560  0.18156376  0.18277214  1
  Al  Al219  1  0.32276729  0.32161281  0.49765846  1
  Al  Al220  1  0.32213204  0.00035635  0.32325719  1
  Al  Al221  1  0.49831181  0.82981183  0.66885505  1
  Al  Al222  1  0.49885359  0.31844404  0.31941677  1
  Al  Al223  1  0.81776047  0.50031960  0.32713208  1
  Al  Al224  1  0.67758104  0.66902822  -0.00085564  1
  Al  Al225  1  0.49989919  0.31320108  0.82625236  1
  Al  Al226  1  0.50041958  0.31290022  0.67112996  1
  Al  Al227  1  0.00226921  0.18159332  0.67372647  1
  Al  Al228  1  0.17366839  0.49833520  0.18125979  1
  Al  Al229  1  0.00141479  0.32631740  0.17196973  1
  Al  Al230  1  0.82600393  0.32519238  0.50123293  1
  Al  Al231  1  0.18166397  0.82874019  -0.00010822  1
  Al  Al232  1  0.31163041  0.49932553  0.68882606  1
  Al  Al233  1  0.32642040  0.68092874  -0.00138515  1
  Al  Al234  1  0.31364868  0.00147558  0.81135070  1
  Al  Al235  1  0.81431283  0.49696644  0.67106860  1
  Al  Al236  1  0.32592566  0.50082066  0.18180504  1
  Al  Al237  1  0.80970596  0.67683012  0.50134761  1
  Al  Al238  1  0.82155071  0.49774265  0.82959833  1
  Au  Au239  1  0.49849050  0.66949851  0.17065325  1
  Au  Au240  1  0.66650400  0.66311621  -0.00106343  1
  Au  Au241  1  0.67176324  0.84702964  -0.00327567  1
  Au  Au242  1  0.84199634  0.67629262  -0.00193697  1
  Au  Au243  1  0.33386819  0.83219730  -0.00371644  1
  Au  Au244  1  0.00505132  0.15067874  0.32466296  1
  Au  Au245  1  0.00210542  0.66710966  0.33518907  1
  Au  Au246  1  0.17977052  0.50149851  0.33061313  1
  Au  Au247  1  0.50115621  0.32927398  0.66552948  1
  Au  Au248  1  0.83128313  0.16251650  -0.00141381  1
  Au  Au249  1  0.83724795  0.49898572  0.83567940  1
  Au  Au250  1  0.83319330  -0.00233814  0.16873600  1
  Au  Au251  1  0.82945780  0.50000109  0.16150607  1
  Au  Au252  1  0.65770974  0.50085025  0.82296892  1
  Au  Au253  1  0.16664621  0.32326481  0.50200801  1
  Au  Au254  1  0.49868641  0.84210558  0.67236295  1
  Au  Au255  1  0.66704653  0.00138776  0.67721293  1
  Au  Au256  1  0.32810647  0.00278674  0.16036176  1
  Au  Au257  1  0.65721199  0.16186242  0.50459756  1
  Au  Au258  1  0.32699003  0.83038915  0.50159415  1
  Au  Au259  1  0.82613185  0.49818153  0.34204263  1
  Au  Au260  1  -0.00162748  0.34444999  0.32366792  1
  Au  Au261  1  0.16288116  0.66236874  -0.00209617  1
  Au  Au262  1  0.00204196  0.83394368  0.82814207  1
  Au  Au263  1  0.84179118  0.17218577  0.50127526  1
  Au  Au264  1  0.65371400  0.50366442  0.32525024  1
  Au  Au265  1  0.16311532  0.32514072  -0.00216229  1
  Au  Au266  1  0.66158806  0.16314474  -0.00209228  1
  Au  Au267  1  0.31988843  -0.00118997  0.33570653  1
  Au  Au268  1  0.32365285  0.49957329  0.67615656  1
  Au  Au269  1  0.83972909  0.32802170  -0.00193337  1
  Au  Au270  1  0.33043846  0.32897497  -0.00204308  1
  Au  Au271  1  0.67316094  0.34161436  0.49996533  1
  Au  Au272  1  0.49720350  0.32489759  0.83823704  1
  Au  Au273  1  0.83381530  -0.00218437  0.67898097  1
  Au  Au274  1  0.82429575  0.66745249  0.50274544  1
  Au  Au275  1  0.83076808  0.84105920  0.50043963  1
  Au  Au276  1  0.67009506  0.33692937  0.00024239  1
  Au  Au277  1  0.49628137  0.16938083  0.33370568  1
  Au  Au278  1  0.50051560  0.33205249  0.17048208  1
  Au  Au279  1  0.66807542  -0.00384130  0.33433486  1
  Au  Au280  1  0.00304839  0.33134746  0.67519264  1
  Au  Au281  1  0.82295395  0.49681237  0.65645044  1
  Au  Au282  1  0.33072733  0.66517356  0.49493769  1
  Au  Au283  1  0.00276072  0.16709192  0.83489895  1
  Au  Au284  1  0.50420508  0.66004015  0.67391269  1
  Au  Au285  1  0.33377340  0.32578645  0.50261973  1
  Au  Au286  1  0.00401577  0.67270628  0.66839582  1
  Au  Au287  1  0.17322114  -0.00115447  0.67354259  1
