# generated using pymatgen
data_Ca24Ti8Al207Au49
_symmetry_space_group_name_H-M   'P 1'
_cell_length_a   17.32329972
_cell_length_b   17.32497694
_cell_length_c   17.32539509
_cell_angle_alpha   90.00327009
_cell_angle_beta   90.00201268
_cell_angle_gamma   90.00222898
_symmetry_Int_Tables_number   1
_chemical_formula_structural   Ca24Ti8Al207Au49
_chemical_formula_sum   'Ca24 Ti8 Al207 Au49'
_cell_volume   5199.79749845
_cell_formula_units_Z   1
loop_
 _symmetry_equiv_pos_site_id
 _symmetry_equiv_pos_as_xyz
  1  'x, y, z'
loop_
 _atom_site_type_symbol
 _atom_site_label
 _atom_site_symmetry_multiplicity
 _atom_site_fract_x
 _atom_site_fract_y
 _atom_site_fract_z
 _atom_site_occupancy
  Ca  Ca0  1  0.24966307  0.00449840  -0.00112512  1
  Ca  Ca1  1  0.24198550  0.00269919  0.50303172  1
  Ca  Ca2  1  0.24993083  0.49828059  -0.00532181  1
  Ca  Ca3  1  0.24523035  0.49612799  0.50737094  1
  Ca  Ca4  1  0.75257711  -0.00109041  -0.00087748  1
  Ca  Ca5  1  0.75235679  -0.00401435  0.50012910  1
  Ca  Ca6  1  0.75070369  0.50193846  -0.00023296  1
  Ca  Ca7  1  0.75109356  0.50037225  0.50095289  1
  Ca  Ca8  1  -0.00397501  0.25344012  -0.00210360  1
  Ca  Ca9  1  0.00106035  0.25076378  0.50215156  1
  Ca  Ca10  1  -0.00136546  0.74729955  -0.00194263  1
  Ca  Ca11  1  0.00045077  0.75198475  0.50251164  1
  Ca  Ca12  1  0.50477031  0.25510498  0.00076615  1
  Ca  Ca13  1  0.49991067  0.24816519  0.50133213  1
  Ca  Ca14  1  0.50380563  0.74511961  -0.00051175  1
  Ca  Ca15  1  0.50234665  0.74890073  0.50083242  1
  Ca  Ca16  1  -0.00288375  0.00326713  0.25222753  1
  Ca  Ca17  1  0.00361064  0.00065703  0.74530956  1
  Ca  Ca18  1  -0.00549812  0.49535354  0.25073690  1
  Ca  Ca19  1  -0.00111303  0.49962442  0.74974970  1
  Ca  Ca20  1  0.49916130  -0.00178152  0.25107630  1
  Ca  Ca21  1  0.49839745  -0.00247565  0.74757494  1
  Ca  Ca22  1  0.50850397  0.50327939  0.24363695  1
  Ca  Ca23  1  0.50332941  0.50296141  0.74982525  1
  Ti  Ti24  1  0.24837557  0.24974231  0.25011102  1
  Ti  Ti25  1  0.24811776  0.25039418  0.75030276  1
  Ti  Ti26  1  0.25190437  0.75260842  0.25112646  1
  Ti  Ti27  1  0.25132525  0.74783524  0.74950456  1
  Ti  Ti28  1  0.75178632  0.25045461  0.25029921  1
  Ti  Ti29  1  0.75179449  0.24942798  0.74908111  1
  Ti  Ti30  1  0.74910806  0.74920792  0.25013305  1
  Ti  Ti31  1  0.74872860  0.74919570  0.75087059  1
  Al  Al32  1  0.07865864  0.08958193  0.09292757  1
  Al  Al33  1  0.08692967  0.08703288  0.59334811  1
  Al  Al34  1  0.07264540  0.57246480  0.07021436  1
  Al  Al35  1  0.08242830  0.58151588  0.58509390  1
  Al  Al36  1  0.58383440  0.08119528  0.07555581  1
  Al  Al37  1  0.59207145  0.08135282  0.57984777  1
  Al  Al38  1  0.59614631  0.58712029  0.09000582  1
  Al  Al39  1  0.58372976  0.58805787  0.59115925  1
  Al  Al40  1  0.43009901  0.41044546  0.07820486  1
  Al  Al41  1  0.40853269  0.42296197  0.58093875  1
  Al  Al42  1  0.41767919  0.91419530  0.08134701  1
  Al  Al43  1  0.41682027  0.92005636  0.58732292  1
  Al  Al44  1  0.90853864  0.40957617  0.08141788  1
  Al  Al45  1  0.91314315  0.41971247  0.58649494  1
  Al  Al46  1  0.91718561  0.91703693  0.08078623  1
  Al  Al47  1  0.91748687  0.91214991  0.57375303  1
  Al  Al48  1  0.41442401  0.07741942  0.42752417  1
  Al  Al49  1  0.41634220  0.07892821  0.91784371  1
  Al  Al50  1  0.42507058  0.58403842  0.42326973  1
  Al  Al51  1  0.41365503  0.57977217  0.90923233  1
  Al  Al52  1  0.91792581  0.08297388  0.41798863  1
  Al  Al53  1  0.91237892  0.09227466  0.92589632  1
  Al  Al54  1  0.91222525  0.57690544  0.41763823  1
  Al  Al55  1  0.91865705  0.58561261  0.91058564  1
  Al  Al56  1  0.08392028  0.41045457  0.42366567  1
  Al  Al57  1  0.09222037  0.41598382  0.91103852  1
  Al  Al58  1  0.07250815  0.91326608  0.41415490  1
  Al  Al59  1  0.08154043  0.92667489  0.90977348  1
  Al  Al60  1  0.59193372  0.42460126  0.41039029  1
  Al  Al61  1  0.57855501  0.42557047  0.93130782  1
  Al  Al62  1  0.59314704  0.91363620  0.42189660  1
  Al  Al63  1  0.58391329  0.91418376  0.91924589  1
  Al  Al64  1  0.08016747  0.08468259  0.41901547  1
  Al  Al65  1  0.08676830  0.08143082  0.91518919  1
  Al  Al66  1  0.08087322  0.57723055  0.42646914  1
  Al  Al67  1  0.08311840  0.57905200  0.89992406  1
  Al  Al68  1  0.59433712  0.07874479  0.42531957  1
  Al  Al69  1  0.58781172  0.08547400  0.91868268  1
  Al  Al70  1  0.59210089  0.58273735  0.41394968  1
  Al  Al71  1  0.58501992  0.58769989  0.92677785  1
  Al  Al72  1  0.41932117  0.41379163  0.42428880  1
  Al  Al73  1  0.40692503  0.42286712  0.91452040  1
  Al  Al74  1  0.42130224  0.91843453  0.42039531  1
  Al  Al75  1  0.41662636  0.91728458  0.91940500  1
  Al  Al76  1  0.91614019  0.41931721  0.41698205  1
  Al  Al77  1  0.91339803  0.41620014  0.91841630  1
  Al  Al78  1  0.91290758  0.90244839  0.41465457  1
  Al  Al79  1  0.91928361  0.91772947  0.92210944  1
  Al  Al80  1  0.08314107  0.40639042  0.07226774  1
  Al  Al81  1  0.08738734  0.41245813  0.58317807  1
  Al  Al82  1  0.07858510  0.92825887  0.08784736  1
  Al  Al83  1  0.08091168  0.92491824  0.58647217  1
  Al  Al84  1  0.59181984  0.41861137  0.09407561  1
  Al  Al85  1  0.58519020  0.42696355  0.57856032  1
  Al  Al86  1  0.58163635  0.91290526  0.07946108  1
  Al  Al87  1  0.59123719  0.91316596  0.58035631  1
  Al  Al88  1  0.41627497  0.07975472  0.08122078  1
  Al  Al89  1  0.40797815  0.07860016  0.58538013  1
  Al  Al90  1  0.43478583  0.58791576  0.08080468  1
  Al  Al91  1  0.42163542  0.58533099  0.59446404  1
  Al  Al92  1  0.91742502  0.10184566  0.08652565  1
  Al  Al93  1  0.92547020  0.08923764  0.58486983  1
  Al  Al94  1  0.90943827  0.57756067  0.07747201  1
  Al  Al95  1  0.90903862  0.58138562  0.58929399  1
  Al  Al96  1  0.24963146  0.13643604  0.13512695  1
  Al  Al97  1  0.24553214  0.13597291  0.63664156  1
  Al  Al98  1  0.25112437  0.63956343  0.13145791  1
  Al  Al99  1  0.25294759  0.63469045  0.64023422  1
  Al  Al100  1  0.75601608  0.13472248  0.13379170  1
  Al  Al101  1  0.75264477  0.13510588  0.62776226  1
  Al  Al102  1  0.74862079  0.63206609  0.13025475  1
  Al  Al103  1  0.75085488  0.63549987  0.63526499  1
  Al  Al104  1  0.24398891  0.36219251  0.12752046  1
  Al  Al105  1  0.24891571  0.36260122  0.63190455  1
  Al  Al106  1  0.25205967  0.86402135  0.13985157  1
  Al  Al107  1  0.24969702  0.86231755  0.63721018  1
  Al  Al108  1  0.75212242  0.37088049  0.13579889  1
  Al  Al109  1  0.75133290  0.36363944  0.63377946  1
  Al  Al110  1  0.74942255  0.86415891  0.13718821  1
  Al  Al111  1  0.74960916  0.86365059  0.63274725  1
  Al  Al112  1  0.24747415  0.13110136  0.36358156  1
  Al  Al113  1  0.24737254  0.13632692  0.86541897  1
  Al  Al114  1  0.25305073  0.63841343  0.36254401  1
  Al  Al115  1  0.25275161  0.62797085  0.86053040  1
  Al  Al116  1  0.75432906  0.13474899  0.36987556  1
  Al  Al117  1  0.75275013  0.13122433  0.86307252  1
  Al  Al118  1  0.74618602  0.63414235  0.36482830  1
  Al  Al119  1  0.74931919  0.63676393  0.86768336  1
  Al  Al120  1  0.24990869  0.36223219  0.37017473  1
  Al  Al121  1  0.24530766  0.36630524  0.86823051  1
  Al  Al122  1  0.25103702  0.87186094  0.36138878  1
  Al  Al123  1  0.25062598  0.86152200  0.86084718  1
  Al  Al124  1  0.74533166  0.36631689  0.36399466  1
  Al  Al125  1  0.75719801  0.36476135  0.86584867  1
  Al  Al126  1  0.75225219  0.86303495  0.36748815  1
  Al  Al127  1  0.74596411  0.86617712  0.86403960  1
  Al  Al128  1  0.13370643  0.24666454  0.13108483  1
  Al  Al129  1  0.12839360  0.25373679  0.63740599  1
  Al  Al130  1  0.13380496  0.75241818  0.13730219  1
  Al  Al131  1  0.13568537  0.74535172  0.63700452  1
  Al  Al132  1  0.63682955  0.25447692  0.13526323  1
  Al  Al133  1  0.63643113  0.24362842  0.63189449  1
  Al  Al134  1  0.63068610  0.74411458  0.13541857  1
  Al  Al135  1  0.63359343  0.75075897  0.63286640  1
  Al  Al136  1  0.13491391  0.24967047  0.36705125  1
  Al  Al137  1  0.13431135  0.25082721  0.87027852  1
  Al  Al138  1  0.13546876  0.75253825  0.36463122  1
  Al  Al139  1  0.13385770  0.74173608  0.86069427  1
  Al  Al140  1  0.63680229  0.24825310  0.36566285  1
  Al  Al141  1  0.63820633  0.24960849  0.86562692  1
  Al  Al142  1  0.63622345  0.75018867  0.37055191  1
  Al  Al143  1  0.62954312  0.74586243  0.86404449  1
  Al  Al144  1  0.36582603  0.25380939  0.13344063  1
  Al  Al145  1  0.36442283  0.25112737  0.63729958  1
  Al  Al146  1  0.37019211  0.75036977  0.13586728  1
  Al  Al147  1  0.37343570  0.74870785  0.63675079  1
  Al  Al148  1  0.86178956  0.25048248  0.12915323  1
  Al  Al149  1  0.87155755  0.24903989  0.63612721  1
  Al  Al150  1  0.86349335  0.74806320  0.13604882  1
  Al  Al151  1  0.86192471  0.75177364  0.63187258  1
  Al  Al152  1  0.36634629  0.25263641  0.36313093  1
  Al  Al153  1  0.36370791  0.25200400  0.86519020  1
  Al  Al154  1  0.36822290  0.75271424  0.36750711  1
  Al  Al155  1  0.36937919  0.74603218  0.86376090  1
  Al  Al156  1  0.86563648  0.24554187  0.36420283  1
  Al  Al157  1  0.86443232  0.24841680  0.86755119  1
  Al  Al158  1  0.86499659  0.75353887  0.36872478  1
  Al  Al159  1  0.86810895  0.74327133  0.86376672  1
  Al  Al160  1  0.12760923  0.13871990  0.25112061  1
  Al  Al161  1  0.13109068  0.13794480  0.74644768  1
  Al  Al162  1  0.13750221  0.63469682  0.25047221  1
  Al  Al163  1  0.12959939  0.63186264  0.75107228  1
  Al  Al164  1  0.63830443  0.13672830  0.24696379  1
  Al  Al165  1  0.63230624  0.13684284  0.75166209  1
  Al  Al166  1  0.63482669  0.63343105  0.24652011  1
  Al  Al167  1  0.63170885  0.63652204  0.74806745  1
  Al  Al168  1  0.36233892  0.13093240  0.24878211  1
  Al  Al169  1  0.36827721  0.13703902  0.74985728  1
  Al  Al170  1  0.36974573  0.63804393  0.24478706  1
  Al  Al171  1  0.37220101  0.63488745  0.75204139  1
  Al  Al172  1  0.86882244  0.13382559  0.24887802  1
  Al  Al173  1  0.86393215  0.13306122  0.74569694  1
  Al  Al174  1  0.86307984  0.63424795  0.25017389  1
  Al  Al175  1  0.86873970  0.63718168  0.74701309  1
  Al  Al176  1  0.13631644  0.36004663  0.24946762  1
  Al  Al177  1  0.13612503  0.36623609  0.75229910  1
  Al  Al178  1  0.12929779  0.86462915  0.25287891  1
  Al  Al179  1  0.13392575  0.86395636  0.74854558  1
  Al  Al180  1  0.63675447  0.36815782  0.24588089  1
  Al  Al181  1  0.63854659  0.36359727  0.75011303  1
  Al  Al182  1  0.63138440  0.86004771  0.25000952  1
  Al  Al183  1  0.62922408  0.86060066  0.74952907  1
  Al  Al184  1  0.36400771  0.36334373  0.24428788  1
  Al  Al185  1  0.36239509  0.36684070  0.75640133  1
  Al  Al186  1  0.37124072  0.86684142  0.24962807  1
  Al  Al187  1  0.37196809  0.86177266  0.74981271  1
  Al  Al188  1  0.86495072  0.36396483  0.24710857  1
  Al  Al189  1  0.86525089  0.36525316  0.74486623  1
  Al  Al190  1  0.86692217  0.86627861  0.25148847  1
  Al  Al191  1  0.86262731  0.86379274  0.75415228  1
  Al  Al192  1  0.50097800  0.32415850  0.67096127  1
  Al  Al193  1  0.00115820  0.68272028  0.33086463  1
  Al  Al194  1  0.17436180  0.49910798  0.68270514  1
  Al  Al195  1  -0.00033658  0.32151609  0.32557021  1
  Al  Al196  1  0.67229459  0.31927988  0.49994515  1
  Al  Al197  1  0.32505023  0.82148038  0.50122242  1
  Al  Al198  1  0.67344318  0.50049631  0.83121340  1
  Al  Al199  1  -0.00068343  0.32708493  0.81900922  1
  Al  Al200  1  -0.00091127  0.81711518  0.67324393  1
  Al  Al201  1  -0.00227945  0.17092695  0.81998330  1
  Al  Al202  1  0.18103621  0.67423725  0.49997192  1
  Al  Al203  1  0.68503332  0.32960094  0.00051440  1
  Al  Al204  1  0.16783259  0.83123870  0.00063414  1
  Al  Al205  1  0.83292550  -0.00281309  0.67493445  1
  Al  Al206  1  -0.00088342  0.31527462  0.17103504  1
  Al  Al207  1  0.17678060  0.66803052  -0.00441153  1
  Al  Al208  1  0.17080818  0.49775516  0.32831814  1
  Al  Al209  1  0.49969321  0.18386697  0.17145881  1
  Al  Al210  1  0.68180938  -0.00074296  0.32600039  1
  Al  Al211  1  0.00054335  0.67892997  0.17388575  1
  Al  Al212  1  0.32484449  0.81791972  -0.00066104  1
  Al  Al213  1  0.68764699  0.50050056  0.67847931  1
  Al  Al214  1  0.33183593  0.49925356  0.16508109  1
  Al  Al215  1  0.31998937  0.18000964  -0.00338748  1
  Al  Al216  1  0.68792364  0.17728148  0.00016127  1
  Al  Al217  1  0.82093730  0.67846703  0.50058120  1
  Al  Al218  1  0.18255955  0.00123136  0.80750846  1
  Al  Al219  1  0.32808845  0.50013123  0.32926142  1
  Al  Al220  1  0.32229682  0.17949765  0.50000813  1
  Al  Al221  1  0.50240480  0.33064834  0.31356287  1
  Al  Al222  1  0.82574840  0.50145457  0.81275701  1
  Al  Al223  1  0.17049491  0.18272149  0.50247374  1
  Al  Al224  1  0.50113730  0.32836901  0.83115011  1
  Al  Al225  1  0.67670955  -0.00097784  0.17062864  1
  Al  Al226  1  0.17903846  0.00206566  0.18348496  1
  Al  Al227  1  0.67498538  0.81285129  0.00038242  1
  Al  Al228  1  0.32554040  0.50025031  0.68829702  1
  Al  Al229  1  0.82583052  0.81887125  -0.00087281  1
  Al  Al230  1  0.00044138  0.81892800  0.82931723  1
  Al  Al231  1  0.50154579  0.67380942  0.32000269  1
  Al  Al232  1  0.82819110  0.31903119  0.49889605  1
  Al  Al233  1  0.50148693  0.16792563  0.32929315  1
  Al  Al234  1  0.67627689  -0.00082428  0.68024648  1
  Al  Al235  1  0.16826559  0.82928405  0.50112833  1
  Al  Al236  1  0.81289808  0.49860607  0.31903143  1
  Al  Al237  1  0.30917375  -0.00038468  0.68334625  1
  Al  Al238  1  0.16885305  0.49712994  0.17200878  1
  Au  Au239  1  0.50380122  0.82625996  0.66146417  1
  Au  Au240  1  0.50662676  0.66285839  0.32360030  1
  Au  Au241  1  0.32776145  -0.00296632  0.82934557  1
  Au  Au242  1  0.17457121  0.84675389  0.00135141  1
  Au  Au243  1  0.32668819  -0.00320484  0.16413391  1
  Au  Au244  1  0.49941064  0.16695857  0.83468536  1
  Au  Au245  1  -0.00136169  0.84096599  0.17788042  1
  Au  Au246  1  0.50415072  0.83618339  0.33270395  1
  Au  Au247  1  -0.00021826  0.17405778  0.83233272  1
  Au  Au248  1  0.83540231  0.00486011  0.16227686  1
  Au  Au249  1  0.50530926  0.33963839  0.83465150  1
  Au  Au250  1  0.50351240  0.66096387  0.82555365  1
  Au  Au251  1  0.83268144  0.00139370  0.83941321  1
  Au  Au252  1  0.83084343  -0.00438300  0.33730688  1
  Au  Au253  1  0.50338755  0.16332333  0.34594380  1
  Au  Au254  1  -0.00089899  0.17270898  0.32581270  1
  Au  Au255  1  -0.00240403  0.66924272  0.15957790  1
  Au  Au256  1  0.32245242  0.83399557  0.50000982  1
  Au  Au257  1  0.49881106  0.34019876  0.66617748  1
  Au  Au258  1  0.33085354  0.00139049  0.33344186  1
  Au  Au259  1  0.32275428  0.32665362  0.50179807  1
  Au  Au260  1  0.83175146  0.67409678  0.49561245  1
  Au  Au261  1  0.66369558  -0.00173336  0.82821117  1
  Au  Au262  1  0.32883823  0.17140653  -0.00097342  1
  Au  Au263  1  0.15606145  0.49496917  0.16713855  1
  Au  Au264  1  0.32387858  0.33588815  -0.00025459  1
  Au  Au265  1  0.34879182  0.50117045  0.16716382  1
  Au  Au266  1  0.32951826  0.66100146  0.50745419  1
  Au  Au267  1  0.16241954  0.17269726  0.00247288  1
  Au  Au268  1  0.66862481  0.33155013  0.49905253  1
  Au  Au269  1  0.50068691  0.82146437  0.16257317  1
  Au  Au270  1  -0.00076691  0.66599032  0.67248816  1
  Au  Au271  1  0.66508622  0.67661415  0.50377242  1
  Au  Au272  1  0.50119075  0.15924118  0.66293558  1
  Au  Au273  1  0.50221886  0.34556617  0.32143811  1
  Au  Au274  1  -0.00101166  0.33011157  0.66735829  1
  Au  Au275  1  0.16620896  0.65903090  -0.00537574  1
  Au  Au276  1  0.66418431  -0.00101406  0.17388866  1
  Au  Au277  1  0.32172848  0.50095084  0.34539181  1
  Au  Au278  1  0.50265453  0.17550393  0.15700678  1
  Au  Au279  1  0.83096872  0.17012093  0.50179455  1
  Au  Au280  1  0.82440516  0.49962925  0.17190472  1
  Au  Au281  1  0.83013831  -0.00144495  0.66267211  1
  Au  Au282  1  0.34167221  0.66995639  -0.00027978  1
  Au  Au283  1  0.00175891  0.66735146  0.33804101  1
  Au  Au284  1  0.49844763  0.82889786  0.83375929  1
  Au  Au285  1  -0.00128907  0.83136096  0.82604684  1
  Au  Au286  1  0.16068775  -0.00230886  0.33090059  1
  Au  Au287  1  0.82378914  0.66984992  -0.00347960  1
