# generated using pymatgen
data_Ca24Ti8Al207Au49
_symmetry_space_group_name_H-M   'P 1'
_cell_length_a   17.32019570
_cell_length_b   17.31962136
_cell_length_c   17.31919352
_cell_angle_alpha   89.99966196
_cell_angle_beta   90.00225418
_cell_angle_gamma   89.99839881
_symmetry_Int_Tables_number   1
_chemical_formula_structural   Ca24Ti8Al207Au49
_chemical_formula_sum   'Ca24 Ti8 Al207 Au49'
_cell_volume   5195.39835494
_cell_formula_units_Z   1
loop_
 _symmetry_equiv_pos_site_id
 _symmetry_equiv_pos_as_xyz
  1  'x, y, z'
loop_
 _atom_site_type_symbol
 _atom_site_label
 _atom_site_symmetry_multiplicity
 _atom_site_fract_x
 _atom_site_fract_y
 _atom_site_fract_z
 _atom_site_occupancy
  Ca  Ca0  1  0.24574562  -0.00106460  -0.00286681  1
  Ca  Ca1  1  0.24697397  -0.00035841  0.50363136  1
  Ca  Ca2  1  0.24398907  0.50238285  -0.00736680  1
  Ca  Ca3  1  0.25043105  0.50255240  0.50863893  1
  Ca  Ca4  1  0.74975685  0.00133702  0.00451304  1
  Ca  Ca5  1  0.74709050  0.00115556  0.49315711  1
  Ca  Ca6  1  0.74948245  0.50032327  -0.00253298  1
  Ca  Ca7  1  0.74722659  0.50053422  0.50161243  1
  Ca  Ca8  1  -0.00084215  0.24530240  -0.00009501  1
  Ca  Ca9  1  0.00079828  0.25199319  0.49809825  1
  Ca  Ca10  1  0.00142243  0.75239448  0.00681973  1
  Ca  Ca11  1  0.00209858  0.75274000  0.49680684  1
  Ca  Ca12  1  0.50082312  0.24590203  -0.00182675  1
  Ca  Ca13  1  0.50141830  0.25377944  0.50521325  1
  Ca  Ca14  1  0.50030916  0.75205773  -0.00071347  1
  Ca  Ca15  1  0.50092364  0.74877086  0.49950458  1
  Ca  Ca16  1  -0.00164361  0.00402074  0.24278031  1
  Ca  Ca17  1  0.00548304  0.00043358  0.75363548  1
  Ca  Ca18  1  -0.00106341  0.49536415  0.24968086  1
  Ca  Ca19  1  0.00335530  0.50126006  0.75117215  1
  Ca  Ca20  1  0.50181093  -0.00216835  0.24959676  1
  Ca  Ca21  1  0.49692831  -0.00053072  0.75070571  1
  Ca  Ca22  1  0.50194985  0.49906457  0.25121808  1
  Ca  Ca23  1  0.50060192  0.50308728  0.75032930  1
  Ti  Ti24  1  0.24797891  0.24797123  0.25056898  1
  Ti  Ti25  1  0.25072978  0.25051224  0.75070979  1
  Ti  Ti26  1  0.24857848  0.75230677  0.24763832  1
  Ti  Ti27  1  0.25058025  0.75045033  0.75207320  1
  Ti  Ti28  1  0.75103800  0.25029236  0.24995393  1
  Ti  Ti29  1  0.74904232  0.25243826  0.75139534  1
  Ti  Ti30  1  0.74981897  0.75034474  0.24887574  1
  Ti  Ti31  1  0.74902351  0.74803749  0.75120935  1
  Al  Al32  1  0.08068637  0.07646529  0.09000407  1
  Al  Al33  1  0.08515792  0.07666884  0.59198081  1
  Al  Al34  1  0.08099226  0.59342661  0.08726242  1
  Al  Al35  1  0.09300714  0.58088163  0.58742409  1
  Al  Al36  1  0.59069993  0.07842794  0.09437799  1
  Al  Al37  1  0.57260703  0.07950358  0.57821580  1
  Al  Al38  1  0.58027586  0.58343571  0.08165442  1
  Al  Al39  1  0.58270475  0.58516598  0.59356062  1
  Al  Al40  1  0.42501266  0.42250285  0.07266706  1
  Al  Al41  1  0.41924854  0.42061825  0.59853776  1
  Al  Al42  1  0.42400742  0.90946664  0.08587151  1
  Al  Al43  1  0.41120114  0.91924473  0.58820384  1
  Al  Al44  1  0.92045591  0.41500729  0.08519694  1
  Al  Al45  1  0.90883595  0.41078221  0.57852419  1
  Al  Al46  1  0.91924762  0.91165990  0.08931747  1
  Al  Al47  1  0.91812862  0.91949777  0.57621434  1
  Al  Al48  1  0.42869319  0.09057846  0.41594111  1
  Al  Al49  1  0.41637441  0.07880949  0.90756474  1
  Al  Al50  1  0.42670142  0.57861210  0.43046012  1
  Al  Al51  1  0.41455137  0.58993776  0.90725128  1
  Al  Al52  1  0.91780070  0.08364763  0.40232030  1
  Al  Al53  1  0.91448197  0.08771249  0.92694698  1
  Al  Al54  1  0.91814262  0.57806477  0.41900929  1
  Al  Al55  1  0.91361720  0.57809806  0.91729287  1
  Al  Al56  1  0.07274441  0.41409251  0.41085146  1
  Al  Al57  1  0.08722202  0.42001648  0.91524108  1
  Al  Al58  1  0.09023476  0.91710145  0.41906548  1
  Al  Al59  1  0.09256569  0.91522417  0.92376063  1
  Al  Al60  1  0.58347014  0.41682449  0.42056127  1
  Al  Al61  1  0.58438928  0.41720502  0.91388808  1
  Al  Al62  1  0.59398828  0.91437242  0.40733604  1
  Al  Al63  1  0.57712376  0.91345668  0.92231067  1
  Al  Al64  1  0.07712660  0.08244661  0.40472689  1
  Al  Al65  1  0.08663236  0.07681601  0.91410112  1
  Al  Al66  1  0.08267375  0.58135018  0.42364244  1
  Al  Al67  1  0.08740744  0.57942067  0.91649859  1
  Al  Al68  1  0.58715626  0.07842596  0.39732478  1
  Al  Al69  1  0.57720625  0.08788677  0.92115124  1
  Al  Al70  1  0.58316237  0.58169775  0.42654766  1
  Al  Al71  1  0.57849346  0.58813735  0.90447104  1
  Al  Al72  1  0.42276733  0.41641897  0.42589824  1
  Al  Al73  1  0.41751642  0.42368770  0.90784798  1
  Al  Al74  1  0.42608973  0.91461793  0.42364556  1
  Al  Al75  1  0.41350700  0.91671415  0.91180960  1
  Al  Al76  1  0.91318000  0.40080194  0.41657588  1
  Al  Al77  1  0.91358014  0.42104236  0.91172739  1
  Al  Al78  1  0.91180779  0.92204147  0.41358439  1
  Al  Al79  1  0.91483364  0.91588426  0.93045622  1
  Al  Al80  1  0.07872492  0.41397326  0.08032746  1
  Al  Al81  1  0.08550272  0.42324157  0.58730614  1
  Al  Al82  1  0.08589521  0.91165008  0.08826621  1
  Al  Al83  1  0.09696088  0.91703987  0.58139585  1
  Al  Al84  1  0.58448063  0.41739918  0.07552219  1
  Al  Al85  1  0.58319456  0.41941980  0.59545209  1
  Al  Al86  1  0.58659296  0.91536369  0.09790679  1
  Al  Al87  1  0.58425592  0.90717996  0.57046497  1
  Al  Al88  1  0.42695735  0.07950890  0.08192591  1
  Al  Al89  1  0.41215671  0.07922714  0.59014121  1
  Al  Al90  1  0.41990840  0.58916661  0.07220625  1
  Al  Al91  1  0.41820417  0.58396986  0.59758288  1
  Al  Al92  1  0.91698238  0.08709314  0.08775946  1
  Al  Al93  1  0.92426293  0.07901913  0.58160631  1
  Al  Al94  1  0.92308851  0.59256306  0.08731417  1
  Al  Al95  1  0.91694430  0.57711399  0.58180960  1
  Al  Al96  1  0.24519919  0.13336881  0.13110992  1
  Al  Al97  1  0.25206722  0.13669373  0.63350509  1
  Al  Al98  1  0.24659045  0.63990974  0.13164244  1
  Al  Al99  1  0.25270840  0.63393753  0.63732483  1
  Al  Al100  1  0.75006509  0.13024640  0.13396733  1
  Al  Al101  1  0.74754269  0.13997964  0.63333406  1
  Al  Al102  1  0.74881254  0.63308467  0.13298512  1
  Al  Al103  1  0.74541837  0.63020000  0.63517024  1
  Al  Al104  1  0.24827599  0.36048108  0.13737251  1
  Al  Al105  1  0.25407821  0.36554300  0.63547690  1
  Al  Al106  1  0.24421637  0.86434063  0.12520096  1
  Al  Al107  1  0.25264699  0.86462005  0.63614296  1
  Al  Al108  1  0.75301643  0.36862924  0.13672212  1
  Al  Al109  1  0.74766534  0.36574231  0.63519193  1
  Al  Al110  1  0.75153570  0.86887906  0.13194947  1
  Al  Al111  1  0.74489127  0.85963316  0.62902641  1
  Al  Al112  1  0.24562314  0.13852110  0.36649506  1
  Al  Al113  1  0.25116219  0.13128342  0.86864733  1
  Al  Al114  1  0.24719494  0.64082235  0.36344797  1
  Al  Al115  1  0.24879670  0.62759045  0.86196781  1
  Al  Al116  1  0.74986203  0.13562311  0.36460065  1
  Al  Al117  1  0.74783789  0.13835182  0.87258997  1
  Al  Al118  1  0.75247334  0.63000802  0.36315398  1
  Al  Al119  1  0.74992382  0.62689044  0.86402593  1
  Al  Al120  1  0.25191720  0.36074522  0.36758662  1
  Al  Al121  1  0.25149607  0.37332248  0.86004789  1
  Al  Al122  1  0.24605724  0.86462577  0.36117885  1
  Al  Al123  1  0.25408679  0.86876068  0.86899879  1
  Al  Al124  1  0.74995931  0.36472046  0.37185693  1
  Al  Al125  1  0.74921241  0.37120513  0.86302880  1
  Al  Al126  1  0.74611481  0.86707098  0.36587137  1
  Al  Al127  1  0.74602671  0.86399352  0.87373411  1
  Al  Al128  1  0.13138370  0.24422462  0.13424725  1
  Al  Al129  1  0.13718315  0.25057086  0.63615261  1
  Al  Al130  1  0.13222091  0.75174706  0.13032535  1
  Al  Al131  1  0.13967194  0.75232828  0.63754057  1
  Al  Al132  1  0.63902277  0.24608578  0.13761721  1
  Al  Al133  1  0.62878579  0.25585555  0.63754701  1
  Al  Al134  1  0.63712956  0.75605434  0.13092930  1
  Al  Al135  1  0.63118096  0.74506747  0.63949396  1
  Al  Al136  1  0.13177068  0.25223990  0.36678638  1
  Al  Al137  1  0.13215615  0.24635553  0.86459241  1
  Al  Al138  1  0.13176539  0.75468347  0.36326084  1
  Al  Al139  1  0.13924272  0.75285497  0.87248328  1
  Al  Al140  1  0.63038069  0.24967668  0.35985489  1
  Al  Al141  1  0.63454420  0.25348560  0.86248257  1
  Al  Al142  1  0.63611914  0.75320402  0.36220665  1
  Al  Al143  1  0.63615214  0.74506263  0.86812647  1
  Al  Al144  1  0.36352684  0.24343795  0.13470968  1
  Al  Al145  1  0.37243926  0.25065166  0.64089641  1
  Al  Al146  1  0.36358431  0.75556699  0.13087192  1
  Al  Al147  1  0.36841904  0.74517164  0.63994824  1
  Al  Al148  1  0.86541958  0.24539843  0.13414381  1
  Al  Al149  1  0.86344737  0.25431554  0.63544371  1
  Al  Al150  1  0.86417729  0.75234204  0.13289854  1
  Al  Al151  1  0.86176007  0.74921660  0.63574918  1
  Al  Al152  1  0.37013643  0.24703500  0.36426128  1
  Al  Al153  1  0.36271268  0.25120632  0.86109232  1
  Al  Al154  1  0.36471725  0.75482834  0.36341227  1
  Al  Al155  1  0.36355200  0.74795901  0.86090558  1
  Al  Al156  1  0.86466838  0.25313751  0.36532959  1
  Al  Al157  1  0.86912812  0.24919787  0.86374870  1
  Al  Al158  1  0.86315279  0.75447854  0.36404314  1
  Al  Al159  1  0.86285899  0.75225761  0.86759375  1
  Al  Al160  1  0.13282546  0.13400376  0.24633526  1
  Al  Al161  1  0.13692968  0.13303010  0.75504777  1
  Al  Al162  1  0.13482458  0.63850894  0.24537144  1
  Al  Al163  1  0.13611371  0.63677080  0.75212959  1
  Al  Al164  1  0.63945897  0.12881573  0.25074775  1
  Al  Al165  1  0.63587027  0.13507507  0.75022310  1
  Al  Al166  1  0.63683918  0.63284686  0.24793841  1
  Al  Al167  1  0.63366328  0.63075700  0.75076042  1
  Al  Al168  1  0.36353185  0.13241736  0.25121138  1
  Al  Al169  1  0.36159350  0.12771304  0.74889797  1
  Al  Al170  1  0.36269235  0.64007440  0.24694408  1
  Al  Al171  1  0.36601467  0.62958469  0.74950824  1
  Al  Al172  1  0.86481067  0.13439209  0.24544612  1
  Al  Al173  1  0.86092579  0.13659246  0.75359307  1
  Al  Al174  1  0.86451026  0.63338384  0.24605677  1
  Al  Al175  1  0.86304576  0.63242367  0.75125905  1
  Al  Al176  1  0.13406400  0.36329405  0.25144202  1
  Al  Al177  1  0.13527646  0.36477855  0.75423226  1
  Al  Al178  1  0.13193930  0.86683225  0.23967010  1
  Al  Al179  1  0.13740615  0.86730769  0.75592397  1
  Al  Al180  1  0.63922034  0.37126386  0.25394779  1
  Al  Al181  1  0.63231165  0.37195771  0.74968740  1
  Al  Al182  1  0.63852874  0.87028395  0.24706334  1
  Al  Al183  1  0.63660655  0.86340280  0.75482254  1
  Al  Al184  1  0.36595038  0.36126588  0.25214829  1
  Al  Al185  1  0.37020809  0.37168642  0.74939982  1
  Al  Al186  1  0.36378799  0.86511686  0.24434011  1
  Al  Al187  1  0.36351506  0.87038886  0.74965869  1
  Al  Al188  1  0.86445027  0.36837151  0.25187095  1
  Al  Al189  1  0.86486051  0.36692885  0.75472629  1
  Al  Al190  1  0.86539473  0.86618495  0.24326547  1
  Al  Al191  1  0.85838476  0.86403944  0.75382917  1
  Al  Al192  1  0.49968965  0.81314400  0.82651641  1
  Al  Al193  1  0.19039578  0.49936449  0.69337777  1
  Al  Al194  1  0.81189765  0.00024459  0.31461309  1
  Al  Al195  1  0.17565567  0.00025207  0.31347515  1
  Al  Al196  1  0.66999011  -0.00339951  0.67154500  1
  Al  Al197  1  0.32818580  0.50147341  0.16817295  1
  Al  Al198  1  0.32943379  -0.00172686  0.33037810  1
  Al  Al199  1  0.83233458  0.18109862  0.50127132  1
  Al  Al200  1  0.50108303  0.82666609  0.31370336  1
  Al  Al201  1  0.31379645  -0.00148481  0.16893198  1
  Al  Al202  1  0.50055862  0.69149278  0.17290240  1
  Al  Al203  1  0.67516008  0.31661900  -0.00044154  1
  Al  Al204  1  0.00024187  0.67202987  0.67283826  1
  Al  Al205  1  0.81624903  0.49797066  0.68320413  1
  Al  Al206  1  0.82627344  0.67973783  0.50047407  1
  Al  Al207  1  0.31723190  0.68206524  -0.00418391  1
  Al  Al208  1  0.33011471  0.50343049  0.33068729  1
  Al  Al209  1  -0.00083286  0.30935322  0.18998516  1
  Al  Al210  1  -0.00033031  0.17441564  0.68081424  1
  Al  Al211  1  0.50203269  0.17115851  0.18654929  1
  Al  Al212  1  -0.00011044  0.67267499  0.31424635  1
  Al  Al213  1  0.30966645  0.82793824  0.49926458  1
  Al  Al214  1  0.32693910  0.32158709  -0.00120764  1
  Al  Al215  1  0.17521049  0.68539831  0.50045821  1
  Al  Al216  1  -0.00020942  0.32769354  0.67586456  1
  Al  Al217  1  -0.00021285  0.67010150  0.82765572  1
  Al  Al218  1  0.82718720  0.00015736  0.67561931  1
  Al  Al219  1  0.82248398  0.00053718  0.83394373  1
  Al  Al220  1  0.50130929  0.32818655  0.17845843  1
  Al  Al221  1  0.67086786  0.68454671  0.50069454  1
  Al  Al222  1  0.00015608  0.83083489  0.31608862  1
  Al  Al223  1  0.50004636  0.67284487  0.32901763  1
  Al  Al224  1  0.32471482  0.17661899  0.50128195  1
  Al  Al225  1  0.83122924  0.31508717  -0.00129145  1
  Al  Al226  1  0.66826872  0.18014985  0.49696156  1
  Al  Al227  1  0.17263249  0.50044831  0.32698293  1
  Al  Al228  1  0.19237864  0.00046168  0.69008560  1
  Al  Al229  1  -0.00126020  0.19038591  0.30694009  1
  Al  Al230  1  0.17315120  0.32639583  0.49789007  1
  Al  Al231  1  0.17218722  0.31853649  -0.00133156  1
  Al  Al232  1  0.00286989  0.82975023  0.67459346  1
  Al  Al233  1  0.49834590  0.18277264  0.81800754  1
  Al  Al234  1  0.82276727  0.67543532  0.00000761  1
  Al  Al235  1  0.00235135  0.82601779  0.83103055  1
  Al  Al236  1  0.50040865  0.82056754  0.67644816  1
  Al  Al237  1  0.32916593  0.67186276  0.50179649  1
  Al  Al238  1  0.17047284  0.49901694  0.17212442  1
  Au  Au239  1  0.33803227  0.33178009  0.51056228  1
  Au  Au240  1  0.32256410  0.50209301  0.81895228  1
  Au  Au241  1  0.32072754  -0.00068873  0.81921433  1
  Au  Au242  1  0.32483483  0.33794125  -0.00537211  1
  Au  Au243  1  0.83111639  0.49742765  0.67496682  1
  Au  Au244  1  0.66472478  0.66878347  -0.00357104  1
  Au  Au245  1  -0.00265441  0.82958013  0.84189077  1
  Au  Au246  1  -0.00008618  0.16392633  0.83050915  1
  Au  Au247  1  0.65841692  0.00093395  0.83529490  1
  Au  Au248  1  0.49740163  0.67480396  0.17492960  1
  Au  Au249  1  0.50126442  0.32194139  0.16262833  1
  Au  Au250  1  0.00200963  0.33985344  0.82573669  1
  Au  Au251  1  0.00102584  0.84505877  0.32408623  1
  Au  Au252  1  0.82734048  0.00008055  0.16750295  1
  Au  Au253  1  0.00311997  0.82690622  0.66205645  1
  Au  Au254  1  0.83215138  0.49282436  0.33607006  1
  Au  Au255  1  0.50000177  0.32204921  0.33919689  1
  Au  Au256  1  0.33138662  0.82938172  -0.00182998  1
  Au  Au257  1  0.50050972  0.83188301  0.66806619  1
  Au  Au258  1  0.67043443  0.49858815  0.16273030  1
  Au  Au259  1  0.67162843  0.50024587  0.82768637  1
  Au  Au260  1  0.83782125  0.50426690  0.16824426  1
  Au  Au261  1  0.32787035  -0.00167543  0.16075080  1
  Au  Au262  1  0.83520969  0.67922144  -0.00038564  1
  Au  Au263  1  0.33543433  0.16996495  0.50067955  1
  Au  Au264  1  0.50100074  0.33104893  0.82523290  1
  Au  Au265  1  0.16483025  0.33560986  0.49988573  1
  Au  Au266  1  0.67424785  0.34156116  0.50742237  1
  Au  Au267  1  0.16819540  0.67255396  -0.00135205  1
  Au  Au268  1  0.67214405  0.83854264  0.00441696  1
  Au  Au269  1  0.00158531  0.65792160  0.32158314  1
  Au  Au270  1  0.65861362  0.16758613  0.49434661  1
  Au  Au271  1  0.83509462  0.00010051  0.83148306  1
  Au  Au272  1  0.67557947  -0.00363343  0.65533111  1
  Au  Au273  1  0.16031981  0.16641916  0.00353034  1
  Au  Au274  1  0.32423504  0.50463064  0.34649880  1
  Au  Au275  1  0.82606746  0.33138604  -0.00183086  1
  Au  Au276  1  0.16027267  0.16127857  0.49877092  1
  Au  Au277  1  0.82053060  0.83853758  0.49818640  1
  Au  Au278  1  0.32856864  0.00389944  0.34522328  1
  Au  Au279  1  0.49909888  0.17017979  0.67197525  1
  Au  Au280  1  0.32234774  0.50337894  0.15236288  1
  Au  Au281  1  0.84506935  0.17118790  0.49925121  1
  Au  Au282  1  0.33747040  0.16268951  -0.00159088  1
  Au  Au283  1  0.66382557  0.50373024  0.33135415  1
  Au  Au284  1  0.67024275  0.16643349  0.00381940  1
  Au  Au285  1  0.00163983  0.32129234  0.17799583  1
  Au  Au286  1  0.32607916  0.82324177  0.50070808  1
  Au  Au287  1  0.82566139  0.66704169  0.50264188  1
