# generated using pymatgen
data_Ca24Ti8Al207Au49
_symmetry_space_group_name_H-M   'P 1'
_cell_length_a   17.31820689
_cell_length_b   17.31841597
_cell_length_c   17.31830983
_cell_angle_alpha   90.00139903
_cell_angle_beta   90.00231629
_cell_angle_gamma   90.00046018
_symmetry_Int_Tables_number   1
_chemical_formula_structural   Ca24Ti8Al207Au49
_chemical_formula_sum   'Ca24 Ti8 Al207 Au49'
_cell_volume   5194.17520474
_cell_formula_units_Z   1
loop_
 _symmetry_equiv_pos_site_id
 _symmetry_equiv_pos_as_xyz
  1  'x, y, z'
loop_
 _atom_site_type_symbol
 _atom_site_label
 _atom_site_symmetry_multiplicity
 _atom_site_fract_x
 _atom_site_fract_y
 _atom_site_fract_z
 _atom_site_occupancy
  Ca  Ca0  1  0.25026648  0.00084805  -0.00023137  1
  Ca  Ca1  1  0.24966314  -0.00272821  0.50159713  1
  Ca  Ca2  1  0.25870194  0.50022209  0.00216477  1
  Ca  Ca3  1  0.25972336  0.50044629  0.49850900  1
  Ca  Ca4  1  0.74810033  -0.00226427  0.00048389  1
  Ca  Ca5  1  0.75191954  -0.00222705  0.50022166  1
  Ca  Ca6  1  0.74407542  0.50048264  0.00574013  1
  Ca  Ca7  1  0.74286102  0.50416895  0.49321997  1
  Ca  Ca8  1  0.00169126  0.24216716  -0.00283391  1
  Ca  Ca9  1  -0.00127757  0.24203086  0.50382998  1
  Ca  Ca10  1  -0.00076202  0.75494606  -0.00321730  1
  Ca  Ca11  1  -0.00133713  0.75732344  0.50225488  1
  Ca  Ca12  1  0.49975322  0.24943639  0.00367591  1
  Ca  Ca13  1  0.49975191  0.24640055  0.49700393  1
  Ca  Ca14  1  0.49949054  0.74765919  0.00077114  1
  Ca  Ca15  1  0.50692017  0.75219886  0.50066656  1
  Ca  Ca16  1  0.00464041  -0.00601442  0.25707520  1
  Ca  Ca17  1  0.00243948  -0.00495278  0.74453681  1
  Ca  Ca18  1  -0.00322104  0.50275620  0.25228231  1
  Ca  Ca19  1  0.00198808  0.50652890  0.75109567  1
  Ca  Ca20  1  0.49633987  0.00333221  0.25147447  1
  Ca  Ca21  1  0.49979672  -0.00270852  0.74441860  1
  Ca  Ca22  1  0.50288580  0.49527970  0.25537880  1
  Ca  Ca23  1  0.49734868  0.50354923  0.75357125  1
  Ti  Ti24  1  0.25248700  0.24807165  0.25055124  1
  Ti  Ti25  1  0.25049182  0.24776853  0.74985653  1
  Ti  Ti26  1  0.24926609  0.75205483  0.24931839  1
  Ti  Ti27  1  0.25009939  0.75117627  0.74990208  1
  Ti  Ti28  1  0.74685789  0.24964514  0.25048841  1
  Ti  Ti29  1  0.74947253  0.24650929  0.74907033  1
  Ti  Ti30  1  0.74955713  0.74907015  0.25087940  1
  Ti  Ti31  1  0.75050601  0.75216840  0.74905451  1
  Al  Al32  1  0.09663809  0.08418247  0.07517843  1
  Al  Al33  1  0.08296778  0.07992412  0.59293648  1
  Al  Al34  1  0.07882901  0.58252203  0.07476085  1
  Al  Al35  1  0.07328342  0.59201719  0.58722536  1
  Al  Al36  1  0.58736300  0.08714269  0.08477791  1
  Al  Al37  1  0.59077206  0.07999139  0.58140840  1
  Al  Al38  1  0.58453074  0.57860916  0.08130863  1
  Al  Al39  1  0.58475223  0.59879527  0.57555776  1
  Al  Al40  1  0.42341107  0.41839084  0.08452176  1
  Al  Al41  1  0.41046436  0.40901096  0.57500548  1
  Al  Al42  1  0.40736220  0.92465400  0.08188276  1
  Al  Al43  1  0.40598201  0.91526927  0.57943134  1
  Al  Al44  1  0.90841556  0.42234696  0.07862201  1
  Al  Al45  1  0.92265985  0.41383354  0.57941320  1
  Al  Al46  1  0.90776211  0.91653568  0.09034104  1
  Al  Al47  1  0.91430420  0.90695829  0.58340025  1
  Al  Al48  1  0.41553583  0.08399683  0.40761249  1
  Al  Al49  1  0.41427875  0.07935373  0.91848256  1
  Al  Al50  1  0.42927662  0.58586657  0.41301258  1
  Al  Al51  1  0.41396162  0.59051167  0.91425896  1
  Al  Al52  1  0.92014170  0.07567566  0.42315014  1
  Al  Al53  1  0.91932132  0.08059288  0.91995533  1
  Al  Al54  1  0.90789416  0.58705872  0.41695659  1
  Al  Al55  1  0.91857430  0.59689816  0.91663554  1
  Al  Al56  1  0.08812777  0.42228306  0.42265077  1
  Al  Al57  1  0.08363036  0.41287519  0.92061797  1
  Al  Al58  1  0.09180606  0.90915411  0.41599205  1
  Al  Al59  1  0.08298366  0.92008337  0.90314560  1
  Al  Al60  1  0.58216836  0.41528849  0.40646476  1
  Al  Al61  1  0.58137470  0.40367401  0.92052742  1
  Al  Al62  1  0.58782931  0.91325745  0.42770429  1
  Al  Al63  1  0.58607453  0.91068298  0.91780653  1
  Al  Al64  1  0.08273072  0.07077628  0.41993582  1
  Al  Al65  1  0.09679450  0.08219766  0.91170328  1
  Al  Al66  1  0.08339346  0.58135371  0.41677161  1
  Al  Al67  1  0.07733310  0.59558767  0.91338198  1
  Al  Al68  1  0.57854725  0.09237052  0.42067644  1
  Al  Al69  1  0.59080446  0.08797741  0.92294940  1
  Al  Al70  1  0.59104879  0.59338930  0.41060800  1
  Al  Al71  1  0.57436818  0.58838793  0.91674317  1
  Al  Al72  1  0.41863874  0.40129576  0.41261391  1
  Al  Al73  1  0.42240915  0.41689724  0.91529681  1
  Al  Al74  1  0.40560731  0.91911630  0.41609049  1
  Al  Al75  1  0.41692308  0.91744620  0.91627981  1
  Al  Al76  1  0.90925938  0.42661848  0.41787884  1
  Al  Al77  1  0.91884672  0.41534388  0.92251458  1
  Al  Al78  1  0.91702129  0.90738407  0.41924942  1
  Al  Al79  1  0.92087754  0.91220721  0.91272484  1
  Al  Al80  1  0.08893728  0.41852936  0.07345753  1
  Al  Al81  1  0.08047642  0.40920202  0.58088952  1
  Al  Al82  1  0.08150578  0.92373745  0.08584992  1
  Al  Al83  1  0.09167247  0.91127920  0.58768775  1
  Al  Al84  1  0.58585976  0.40740155  0.08459592  1
  Al  Al85  1  0.57269791  0.42282846  0.57193863  1
  Al  Al86  1  0.59122776  0.92049481  0.07705738  1
  Al  Al87  1  0.59780766  0.91740607  0.58739469  1
  Al  Al88  1  0.41103428  0.08452649  0.09149885  1
  Al  Al89  1  0.41734903  0.07497980  0.57818580  1
  Al  Al90  1  0.41117353  0.58397875  0.07589498  1
  Al  Al91  1  0.42645940  0.58596713  0.58598583  1
  Al  Al92  1  0.90539393  0.07285728  0.08318963  1
  Al  Al93  1  0.91897375  0.08492874  0.58854797  1
  Al  Al94  1  0.91229478  0.58448796  0.07667606  1
  Al  Al95  1  0.91795159  0.59965002  0.58291908  1
  Al  Al96  1  0.25413186  0.12791808  0.13984345  1
  Al  Al97  1  0.25391927  0.13177481  0.63494233  1
  Al  Al98  1  0.25183787  0.63976271  0.13131086  1
  Al  Al99  1  0.24952850  0.63489370  0.63702159  1
  Al  Al100  1  0.74623574  0.13630882  0.13357404  1
  Al  Al101  1  0.75041063  0.12845070  0.63239606  1
  Al  Al102  1  0.74462033  0.62909124  0.13815404  1
  Al  Al103  1  0.74846804  0.64112734  0.62714088  1
  Al  Al104  1  0.25300766  0.36183921  0.13625975  1
  Al  Al105  1  0.25391672  0.36372064  0.63073469  1
  Al  Al106  1  0.25097462  0.86993454  0.13814400  1
  Al  Al107  1  0.25016436  0.86632237  0.63203011  1
  Al  Al108  1  0.74341382  0.36797829  0.13265437  1
  Al  Al109  1  0.74261350  0.36300779  0.63317580  1
  Al  Al110  1  0.75314073  0.86189683  0.13261406  1
  Al  Al111  1  0.74966939  0.86903516  0.63168111  1
  Al  Al112  1  0.25765613  0.13079067  0.36472793  1
  Al  Al113  1  0.24628745  0.13109677  0.86500058  1
  Al  Al114  1  0.24858211  0.63860558  0.36665847  1
  Al  Al115  1  0.25323855  0.63909085  0.87033338  1
  Al  Al116  1  0.74431824  0.13780253  0.37371983  1
  Al  Al117  1  0.74417054  0.13299159  0.86786424  1
  Al  Al118  1  0.74707109  0.63972352  0.37264907  1
  Al  Al119  1  0.74629162  0.63737665  0.86548175  1
  Al  Al120  1  0.25757462  0.36089423  0.37175009  1
  Al  Al121  1  0.24641119  0.36285745  0.86525966  1
  Al  Al122  1  0.25011035  0.86547725  0.36726671  1
  Al  Al123  1  0.24965529  0.86450188  0.86140341  1
  Al  Al124  1  0.74656877  0.36590033  0.36393030  1
  Al  Al125  1  0.74810981  0.36094180  0.87077895  1
  Al  Al126  1  0.74911055  0.86447892  0.36914626  1
  Al  Al127  1  0.74933795  0.86362003  0.86887397  1
  Al  Al128  1  0.13941536  0.24637279  0.12891085  1
  Al  Al129  1  0.13611044  0.24352425  0.63399950  1
  Al  Al130  1  0.13046879  0.74993110  0.13634693  1
  Al  Al131  1  0.13403806  0.75831461  0.63260431  1
  Al  Al132  1  0.63417933  0.24847569  0.13299494  1
  Al  Al133  1  0.63559475  0.24232531  0.63023546  1
  Al  Al134  1  0.63771453  0.74883354  0.13034770  1
  Al  Al135  1  0.63729632  0.75670028  0.63129852  1
  Al  Al136  1  0.13983507  0.24898852  0.36624430  1
  Al  Al137  1  0.13572752  0.24421547  0.87165244  1
  Al  Al138  1  0.13223496  0.75894040  0.36796352  1
  Al  Al139  1  0.13330629  0.74670656  0.86566337  1
  Al  Al140  1  0.62974041  0.25126868  0.36487165  1
  Al  Al141  1  0.63458402  0.24767486  0.86729971  1
  Al  Al142  1  0.63251547  0.74688795  0.36587336  1
  Al  Al143  1  0.63440654  0.75067018  0.86892508  1
  Al  Al144  1  0.36652075  0.24581642  0.13566529  1
  Al  Al145  1  0.36619964  0.25088032  0.63489897  1
  Al  Al146  1  0.36532846  0.74908365  0.13725877  1
  Al  Al147  1  0.36407449  0.75642929  0.63177607  1
  Al  Al148  1  0.85865306  0.25436613  0.13185162  1
  Al  Al149  1  0.86084420  0.24402605  0.62899365  1
  Al  Al150  1  0.86959398  0.75351542  0.13527983  1
  Al  Al151  1  0.86229367  0.75587571  0.62518069  1
  Al  Al152  1  0.37256015  0.24796726  0.36327064  1
  Al  Al153  1  0.36348356  0.24865205  0.86531461  1
  Al  Al154  1  0.36354202  0.75418869  0.36532594  1
  Al  Al155  1  0.36722416  0.74845948  0.86441858  1
  Al  Al156  1  0.86082923  0.24802007  0.36735673  1
  Al  Al157  1  0.86566001  0.24377204  0.86490737  1
  Al  Al158  1  0.86354755  0.75201898  0.37203587  1
  Al  Al159  1  0.86581528  0.75283298  0.86476933  1
  Al  Al160  1  0.13796627  0.13439825  0.24887673  1
  Al  Al161  1  0.13298144  0.13451299  0.75165572  1
  Al  Al162  1  0.13447827  0.63912497  0.25299611  1
  Al  Al163  1  0.13388785  0.63987887  0.74840735  1
  Al  Al164  1  0.62830865  0.13737759  0.25228999  1
  Al  Al165  1  0.63663355  0.12835276  0.74823764  1
  Al  Al166  1  0.63435830  0.63008753  0.25511484  1
  Al  Al167  1  0.63614805  0.63876916  0.74993523  1
  Al  Al168  1  0.37156256  0.13473967  0.25144890  1
  Al  Al169  1  0.36572000  0.13347774  0.74950056  1
  Al  Al170  1  0.36485516  0.63647716  0.25634523  1
  Al  Al171  1  0.36497790  0.63818319  0.75046009  1
  Al  Al172  1  0.85954368  0.13638564  0.24831286  1
  Al  Al173  1  0.86949721  0.13409813  0.74692103  1
  Al  Al174  1  0.86389863  0.63884929  0.25107545  1
  Al  Al175  1  0.86321437  0.63882803  0.74870925  1
  Al  Al176  1  0.13969809  0.36077638  0.25126647  1
  Al  Al177  1  0.13766941  0.36015506  0.74463886  1
  Al  Al178  1  0.13159404  0.86501542  0.24895391  1
  Al  Al179  1  0.13517242  0.86496863  0.74862159  1
  Al  Al180  1  0.63412754  0.36598785  0.25079601  1
  Al  Al181  1  0.63368076  0.35902026  0.75484461  1
  Al  Al182  1  0.63828836  0.86197248  0.25125850  1
  Al  Al183  1  0.63613721  0.87026080  0.74835015  1
  Al  Al184  1  0.36730486  0.36366603  0.25531973  1
  Al  Al185  1  0.36492904  0.36280086  0.75233153  1
  Al  Al186  1  0.36408556  0.87004154  0.25303937  1
  Al  Al187  1  0.36693486  0.86786386  0.74451610  1
  Al  Al188  1  0.86013760  0.36604034  0.24813435  1
  Al  Al189  1  0.85929149  0.36450353  0.74879854  1
  Al  Al190  1  0.86819522  0.86013073  0.25141832  1
  Al  Al191  1  0.86652924  0.86455479  0.74351847  1
  Al  Al192  1  0.00081590  0.81274478  0.80956288  1
  Al  Al193  1  0.66947740  0.49500776  0.83058059  1
  Al  Al194  1  -0.00054811  0.68599815  0.32394809  1
  Al  Al195  1  0.49993403  0.83154381  0.17099004  1
  Al  Al196  1  0.67070233  0.50288458  0.66931665  1
  Al  Al197  1  0.50069406  0.32849849  0.68355010  1
  Al  Al198  1  0.17398021  0.17413943  0.49899200  1
  Al  Al199  1  -0.00018267  0.31848862  0.82624769  1
  Al  Al200  1  0.82159805  -0.00131909  0.82084913  1
  Al  Al201  1  0.17467786  0.68742928  0.50035059  1
  Al  Al202  1  -0.00071789  0.33120493  0.33089486  1
  Al  Al203  1  -0.00231575  0.69754247  0.68939041  1
  Al  Al204  1  0.00056756  0.32793273  0.17049139  1
  Al  Al205  1  0.18783019  -0.00000481  0.68847881  1
  Al  Al206  1  0.32647459  0.81841228  0.00035051  1
  Al  Al207  1  0.18604549  -0.00135700  0.31969415  1
  Al  Al208  1  0.50125075  0.68746096  0.69015107  1
  Al  Al209  1  0.67188768  0.00209672  0.32894763  1
  Al  Al210  1  0.82138709  0.17835599  0.00066971  1
  Al  Al211  1  0.17097070  0.50344691  0.82734699  1
  Al  Al212  1  0.32558935  0.32708229  0.00017970  1
  Al  Al213  1  0.81383567  0.68447432  0.00199508  1
  Al  Al214  1  0.32750262  0.50014351  0.82026561  1
  Al  Al215  1  0.50095972  0.81889953  0.82051846  1
  Al  Al216  1  0.67517490  0.32486937  0.49748067  1
  Al  Al217  1  0.31180407  0.00022975  0.81039688  1
  Al  Al218  1  0.80900420  0.50384736  0.32007813  1
  Al  Al219  1  0.50027224  0.18498968  0.82908044  1
  Al  Al220  1  0.82820994  0.50356354  0.82849565  1
  Al  Al221  1  0.17511875  0.50028792  0.66705392  1
  Al  Al222  1  0.33138937  0.68245937  0.49921729  1
  Al  Al223  1  0.17797587  0.50258630  0.17005049  1
  Al  Al224  1  0.82640040  -0.00154335  0.31182904  1
  Al  Al225  1  0.68717024  -0.00097443  0.17397622  1
  Al  Al226  1  0.18596032  0.49901172  0.32745983  1
  Al  Al227  1  0.32991621  0.18034043  0.49982516  1
  Al  Al228  1  0.50018921  0.82108422  0.33072027  1
  Al  Al229  1  0.32861246  0.50024457  0.18213257  1
  Al  Al230  1  -0.00232668  0.31112279  0.67161593  1
  Al  Al231  1  -0.00097060  0.16479782  0.16866994  1
  Al  Al232  1  0.49963687  0.31742477  0.18599734  1
  Al  Al233  1  0.82792612  0.49926434  0.66754209  1
  Al  Al234  1  0.50086014  0.16942645  0.67165035  1
  Al  Al235  1  0.49893708  0.67018510  0.18331530  1
  Al  Al236  1  0.00001328  0.17221215  0.32703237  1
  Al  Al237  1  0.17212992  0.82445575  0.00024192  1
  Al  Al238  1  0.31526965  0.17297285  0.00076013  1
  Au  Au239  1  0.50072785  0.81564589  0.83310626  1
  Au  Au240  1  -0.00046842  0.84016018  0.17556733  1
  Au  Au241  1  0.65974408  0.00448442  0.33075159  1
  Au  Au242  1  -0.00216057  0.67399083  0.15761524  1
  Au  Au243  1  0.17634308  0.50390114  0.84437911  1
  Au  Au244  1  0.50100684  0.16913440  0.83432339  1
  Au  Au245  1  0.66708193  0.50733629  0.65823412  1
  Au  Au246  1  0.33866783  0.50028987  0.66779067  1
  Au  Au247  1  0.83750457  -0.00391095  0.32388559  1
  Au  Au248  1  0.66283263  0.32208858  0.49894531  1
  Au  Au249  1  0.66601281  0.49566731  0.17681741  1
  Au  Au250  1  0.82772338  0.16245312  0.49990280  1
  Au  Au251  1  0.17377867  0.84023999  -0.00490757  1
  Au  Au252  1  -0.00091336  0.67090122  0.33169523  1
  Au  Au253  1  0.65833779  0.49952546  0.83401222  1
  Au  Au254  1  0.50026350  0.83357110  0.65800134  1
  Au  Au255  1  0.33830881  0.49904921  0.33480031  1
  Au  Au256  1  0.82797111  0.33186814  0.50037456  1
  Au  Au257  1  0.18053346  0.00053317  0.17178467  1
  Au  Au258  1  0.17776439  0.66558126  0.00055245  1
  Au  Au259  1  -0.00034592  0.33459388  0.82044768  1
  Au  Au260  1  0.82313525  0.67859698  0.49945387  1
  Au  Au261  1  0.83334714  0.50435935  0.17544083  1
  Au  Au262  1  0.50049437  0.83222826  0.33657140  1
  Au  Au263  1  0.16365941  0.67460309  0.50222674  1
  Au  Au264  1  0.83904730  0.50414908  0.66454398  1
  Au  Au265  1  0.16266675  0.50005033  0.66947295  1
  Au  Au266  1  0.50104325  0.16899651  0.17433164  1
  Au  Au267  1  0.82111519  0.16581540  0.00302189  1
  Au  Au268  1  0.81721538  0.33182888  0.00059118  1
  Au  Au269  1  0.49947372  0.32822786  0.66663580  1
  Au  Au270  1  0.00346726  0.15653222  0.82366203  1
  Au  Au271  1  0.66539973  0.67477288  -0.00083854  1
  Au  Au272  1  0.32121648  -0.00188161  0.82478494  1
  Au  Au273  1  0.50019054  0.84881020  0.16706312  1
  Au  Au274  1  0.49639464  0.65600635  0.17521880  1
  Au  Au275  1  -0.00045571  0.33267116  0.15435565  1
  Au  Au276  1  -0.00078070  0.14875795  0.17402066  1
  Au  Au277  1  0.16281306  0.50315129  0.17791979  1
  Au  Au278  1  0.34741896  0.67832419  0.49854612  1
  Au  Au279  1  0.82721381  0.83254137  -0.00048490  1
  Au  Au280  1  0.18142013  0.33487827  0.50071835  1
  Au  Au281  1  0.17078588  0.16234863  0.49736121  1
  Au  Au282  1  0.66573265  -0.00139138  0.82987242  1
  Au  Au283  1  0.82819623  -0.00311293  0.66478665  1
  Au  Au284  1  0.83101274  0.49898697  0.83994642  1
  Au  Au285  1  0.00021041  0.32579751  0.34689471  1
  Au  Au286  1  0.17618183  0.31937068  -0.00026104  1
  Au  Au287  1  0.83074791  -0.00037790  0.82929526  1
