# generated using pymatgen
data_Ca24Ti8Al207Au49
_symmetry_space_group_name_H-M   'P 1'
_cell_length_a   17.32069476
_cell_length_b   17.32124378
_cell_length_c   17.31898084
_cell_angle_alpha   89.99334974
_cell_angle_beta   90.00479037
_cell_angle_gamma   89.99572902
_symmetry_Int_Tables_number   1
_chemical_formula_structural   Ca24Ti8Al207Au49
_chemical_formula_sum   'Ca24 Ti8 Al207 Au49'
_cell_volume   5195.97087921
_cell_formula_units_Z   1
loop_
 _symmetry_equiv_pos_site_id
 _symmetry_equiv_pos_as_xyz
  1  'x, y, z'
loop_
 _atom_site_type_symbol
 _atom_site_label
 _atom_site_symmetry_multiplicity
 _atom_site_fract_x
 _atom_site_fract_y
 _atom_site_fract_z
 _atom_site_occupancy
  Ca  Ca0  1  0.24266700  0.00639999  0.00365995  1
  Ca  Ca1  1  0.25497850  -0.00446901  0.49390834  1
  Ca  Ca2  1  0.24895735  0.49847671  0.00158312  1
  Ca  Ca3  1  0.25418999  0.50168332  0.49631357  1
  Ca  Ca4  1  0.75190065  0.00192356  0.00405594  1
  Ca  Ca5  1  0.74842758  0.00101167  0.49396874  1
  Ca  Ca6  1  0.74907313  0.49963851  0.00158014  1
  Ca  Ca7  1  0.74867054  0.50107896  0.49782671  1
  Ca  Ca8  1  0.00178499  0.24876305  0.00259102  1
  Ca  Ca9  1  -0.00744288  0.24764996  0.49664803  1
  Ca  Ca10  1  -0.00461841  0.75256897  0.00339610  1
  Ca  Ca11  1  -0.00095990  0.75084810  0.49503984  1
  Ca  Ca12  1  0.50144435  0.25103983  0.00065029  1
  Ca  Ca13  1  0.50573714  0.24477541  0.50038121  1
  Ca  Ca14  1  0.50121212  0.74654373  0.00378140  1
  Ca  Ca15  1  0.50313044  0.74467678  0.49375628  1
  Ca  Ca16  1  -0.00662615  -0.00312274  0.25023763  1
  Ca  Ca17  1  -0.00605503  -0.00041245  0.75060939  1
  Ca  Ca18  1  -0.00258854  0.50229014  0.25172002  1
  Ca  Ca19  1  -0.00348026  0.50100623  0.75120873  1
  Ca  Ca20  1  0.50602074  0.00187826  0.25697941  1
  Ca  Ca21  1  0.50689917  0.00497244  0.74060721  1
  Ca  Ca22  1  0.50475938  0.49891870  0.25823321  1
  Ca  Ca23  1  0.50126557  0.49097310  0.74608408  1
  Ti  Ti24  1  0.25105291  0.24982618  0.25040131  1
  Ti  Ti25  1  0.25256425  0.25051671  0.75173327  1
  Ti  Ti26  1  0.24799507  0.75006714  0.25272231  1
  Ti  Ti27  1  0.24791932  0.74860800  0.74702743  1
  Ti  Ti28  1  0.75083949  0.24895594  0.25195237  1
  Ti  Ti29  1  0.74804702  0.24940000  0.74844685  1
  Ti  Ti30  1  0.74990352  0.75044046  0.25048295  1
  Ti  Ti31  1  0.74929634  0.74990009  0.74894059  1
  Al  Al32  1  0.08332699  0.08737881  0.08197224  1
  Al  Al33  1  0.07660062  0.07270158  0.57128721  1
  Al  Al34  1  0.08064546  0.58088677  0.09040795  1
  Al  Al35  1  0.07720293  0.58480647  0.57647872  1
  Al  Al36  1  0.58840653  0.08091642  0.10758605  1
  Al  Al37  1  0.58405995  0.08978807  0.58430039  1
  Al  Al38  1  0.58728861  0.58249662  0.09145915  1
  Al  Al39  1  0.58909038  0.58300523  0.57213364  1
  Al  Al40  1  0.41539650  0.41557528  0.08158958  1
  Al  Al41  1  0.42916139  0.41412450  0.59043492  1
  Al  Al42  1  0.42825464  0.92962647  0.08392753  1
  Al  Al43  1  0.42422295  0.92843514  0.56711728  1
  Al  Al44  1  0.91770072  0.41926500  0.08195953  1
  Al  Al45  1  0.91128315  0.41037665  0.57676835  1
  Al  Al46  1  0.91060006  0.92007091  0.10466283  1
  Al  Al47  1  0.91857558  0.91548241  0.57753182  1
  Al  Al48  1  0.41081777  0.09041096  0.41110713  1
  Al  Al49  1  0.42382252  0.09434615  0.91534511  1
  Al  Al50  1  0.42421491  0.58760464  0.41205317  1
  Al  Al51  1  0.42483842  0.56739920  0.92363381  1
  Al  Al52  1  0.89998490  0.07941657  0.40970834  1
  Al  Al53  1  0.91218496  0.08865366  0.92289165  1
  Al  Al54  1  0.90683995  0.59500446  0.40973341  1
  Al  Al55  1  0.91844694  0.57923583  0.91064119  1
  Al  Al56  1  0.06919632  0.42894613  0.41900449  1
  Al  Al57  1  0.08932927  0.40618058  0.92309720  1
  Al  Al58  1  0.07885835  0.91127424  0.40156711  1
  Al  Al59  1  0.07604576  0.91740680  0.92600138  1
  Al  Al60  1  0.59605345  0.41455694  0.41651296  1
  Al  Al61  1  0.58176778  0.41464198  0.89792408  1
  Al  Al62  1  0.59198999  0.92377264  0.41006033  1
  Al  Al63  1  0.59801225  0.91806417  0.92984401  1
  Al  Al64  1  0.08661495  0.07149117  0.40788862  1
  Al  Al65  1  0.08032976  0.09360571  0.92391719  1
  Al  Al66  1  0.07140016  0.59216608  0.40915547  1
  Al  Al67  1  0.07519302  0.58417622  0.91660339  1
  Al  Al68  1  0.58848620  0.08770171  0.40748846  1
  Al  Al69  1  0.58194110  0.08287497  0.91174217  1
  Al  Al70  1  0.59325330  0.58722187  0.40974991  1
  Al  Al71  1  0.59251440  0.57345920  0.91630831  1
  Al  Al72  1  0.42714964  0.42156009  0.41636715  1
  Al  Al73  1  0.42101332  0.40478781  0.91259548  1
  Al  Al74  1  0.41091391  0.92675011  0.40784131  1
  Al  Al75  1  0.42762509  0.93308125  0.92747141  1
  Al  Al76  1  0.90387003  0.42032024  0.41716374  1
  Al  Al77  1  0.91440801  0.41808290  0.91633450  1
  Al  Al78  1  0.91396978  0.91091010  0.40125270  1
  Al  Al79  1  0.91830436  0.92536483  0.92105115  1
  Al  Al80  1  0.09279023  0.41361007  0.08132077  1
  Al  Al81  1  0.06738689  0.42411368  0.58165272  1
  Al  Al82  1  0.07133933  0.90978332  0.08887022  1
  Al  Al83  1  0.07711207  0.91500451  0.58324724  1
  Al  Al84  1  0.57961807  0.42507199  0.08969154  1
  Al  Al85  1  0.58796775  0.40608804  0.58062754  1
  Al  Al86  1  0.60224068  0.91971030  0.09153801  1
  Al  Al87  1  0.59424991  0.92912510  0.57950361  1
  Al  Al88  1  0.42668238  0.09232094  0.09123666  1
  Al  Al89  1  0.41953597  0.09242480  0.57551420  1
  Al  Al90  1  0.42437129  0.57874706  0.08996295  1
  Al  Al91  1  0.42017447  0.57715616  0.57425008  1
  Al  Al92  1  0.90339774  0.08262651  0.08586467  1
  Al  Al93  1  0.90823825  0.08680275  0.56988686  1
  Al  Al94  1  0.92006911  0.58239066  0.09003568  1
  Al  Al95  1  0.90916227  0.58945531  0.57231112  1
  Al  Al96  1  0.24502458  0.13528409  0.13573481  1
  Al  Al97  1  0.25310056  0.13709386  0.63240694  1
  Al  Al98  1  0.24576592  0.63948058  0.13664863  1
  Al  Al99  1  0.24795180  0.63530518  0.63261915  1
  Al  Al100  1  0.75275918  0.12779057  0.14032995  1
  Al  Al101  1  0.74619670  0.13533081  0.62686164  1
  Al  Al102  1  0.75386841  0.63737803  0.13681464  1
  Al  Al103  1  0.74855425  0.63421623  0.62780497  1
  Al  Al104  1  0.25009752  0.35829132  0.13078152  1
  Al  Al105  1  0.25652998  0.36228901  0.63735379  1
  Al  Al106  1  0.24669132  0.86366446  0.14134068  1
  Al  Al107  1  0.24809886  0.86421486  0.62913132  1
  Al  Al108  1  0.75076370  0.36007601  0.13534336  1
  Al  Al109  1  0.74405063  0.36278762  0.63265470  1
  Al  Al110  1  0.75023202  0.87199885  0.14153456  1
  Al  Al111  1  0.74868647  0.86548582  0.63279194  1
  Al  Al112  1  0.25632824  0.13385069  0.36433933  1
  Al  Al113  1  0.24799765  0.13931816  0.86963956  1
  Al  Al114  1  0.24722990  0.63825145  0.36277416  1
  Al  Al115  1  0.24878911  0.62938762  0.86392685  1
  Al  Al116  1  0.74952702  0.13300415  0.36948141  1
  Al  Al117  1  0.74580742  0.13628609  0.86729728  1
  Al  Al118  1  0.74895983  0.63881026  0.37023397  1
  Al  Al119  1  0.74604553  0.63438922  0.86770490  1
  Al  Al120  1  0.25487440  0.36143077  0.36489581  1
  Al  Al121  1  0.25088693  0.36664445  0.86871206  1
  Al  Al122  1  0.24652113  0.86382140  0.36827001  1
  Al  Al123  1  0.24816667  0.86189938  0.86477651  1
  Al  Al124  1  0.74504871  0.36490734  0.36662235  1
  Al  Al125  1  0.74806067  0.36578430  0.86546382  1
  Al  Al126  1  0.75169959  0.86994289  0.36374752  1
  Al  Al127  1  0.74664943  0.86682570  0.86755043  1
  Al  Al128  1  0.13087369  0.24926446  0.13664864  1
  Al  Al129  1  0.13786953  0.25216130  0.63495211  1
  Al  Al130  1  0.12585900  0.75123653  0.14192361  1
  Al  Al131  1  0.13448918  0.74953112  0.62675986  1
  Al  Al132  1  0.63144277  0.24002407  0.14290658  1
  Al  Al133  1  0.63506336  0.24620668  0.63003708  1
  Al  Al134  1  0.64198136  0.75247113  0.13171112  1
  Al  Al135  1  0.63811758  0.74666536  0.63038032  1
  Al  Al136  1  0.13309900  0.24934550  0.36311381  1
  Al  Al137  1  0.13581384  0.25254049  0.86996995  1
  Al  Al138  1  0.13040829  0.75160035  0.36851103  1
  Al  Al139  1  0.13522473  0.74789468  0.86542951  1
  Al  Al140  1  0.63389905  0.24598578  0.36792783  1
  Al  Al141  1  0.63390608  0.25267080  0.86525778  1
  Al  Al142  1  0.63181937  0.75174229  0.36443273  1
  Al  Al143  1  0.63946262  0.75268964  0.87211599  1
  Al  Al144  1  0.37083092  0.24347077  0.13762315  1
  Al  Al145  1  0.36888801  0.24418554  0.63184977  1
  Al  Al146  1  0.36475114  0.74977253  0.13942818  1
  Al  Al147  1  0.36344581  0.75088211  0.63393910  1
  Al  Al148  1  0.86459559  0.24496096  0.13245428  1
  Al  Al149  1  0.86138941  0.24745404  0.63350609  1
  Al  Al150  1  0.87301039  0.75602950  0.13957865  1
  Al  Al151  1  0.86104915  0.74782168  0.62691659  1
  Al  Al152  1  0.37207427  0.24558339  0.36752324  1
  Al  Al153  1  0.36860456  0.25186865  0.86985224  1
  Al  Al154  1  0.36962806  0.75294737  0.36359118  1
  Al  Al155  1  0.36424246  0.74913463  0.86361157  1
  Al  Al156  1  0.86292968  0.24639423  0.36629898  1
  Al  Al157  1  0.85978686  0.24920247  0.87210656  1
  Al  Al158  1  0.86423304  0.75050593  0.36639863  1
  Al  Al159  1  0.86187497  0.75156954  0.86540736  1
  Al  Al160  1  0.13602593  0.13264838  0.25425664  1
  Al  Al161  1  0.13899989  0.14061243  0.75113627  1
  Al  Al162  1  0.12611907  0.63806659  0.25313718  1
  Al  Al163  1  0.13370669  0.63470829  0.74882175  1
  Al  Al164  1  0.64081341  0.12736329  0.25584886  1
  Al  Al165  1  0.63738408  0.13102593  0.74675322  1
  Al  Al166  1  0.63783842  0.63452741  0.25743484  1
  Al  Al167  1  0.63930421  0.63573017  0.75055257  1
  Al  Al168  1  0.37025146  0.13599397  0.25550467  1
  Al  Al169  1  0.36708315  0.13842824  0.74859708  1
  Al  Al170  1  0.36566124  0.63645637  0.25266097  1
  Al  Al171  1  0.36271673  0.63529178  0.75032858  1
  Al  Al172  1  0.86313386  0.12901423  0.25185544  1
  Al  Al173  1  0.85922704  0.13728104  0.75160431  1
  Al  Al174  1  0.87025237  0.63870908  0.25297497  1
  Al  Al175  1  0.86011881  0.63672735  0.74636796  1
  Al  Al176  1  0.13126709  0.36318739  0.24842090  1
  Al  Al177  1  0.13580639  0.36416767  0.75594333  1
  Al  Al178  1  0.12939675  0.86400092  0.25532250  1
  Al  Al179  1  0.13538931  0.86156134  0.74865118  1
  Al  Al180  1  0.63417222  0.36329322  0.25499606  1
  Al  Al181  1  0.63455343  0.36617672  0.75074593  1
  Al  Al182  1  0.63691151  0.86927938  0.25313860  1
  Al  Al183  1  0.63692611  0.86933070  0.74790541  1
  Al  Al184  1  0.36726677  0.36152338  0.24932105  1
  Al  Al185  1  0.36676174  0.36151458  0.75282456  1
  Al  Al186  1  0.36363493  0.86944659  0.25802766  1
  Al  Al187  1  0.36203821  0.86354967  0.74730632  1
  Al  Al188  1  0.86795501  0.36029645  0.24894181  1
  Al  Al189  1  0.86150721  0.36073087  0.75199341  1
  Al  Al190  1  0.86415519  0.86685190  0.25261133  1
  Al  Al191  1  0.86142781  0.86463376  0.74920619  1
  Al  Al192  1  -0.00306630  0.18286665  0.82642811  1
  Al  Al193  1  0.32332708  0.66968113  -0.00019068  1
  Al  Al194  1  0.81358691  0.00220446  0.66727324  1
  Al  Al195  1  0.32871471  0.00340695  0.18667152  1
  Al  Al196  1  0.50220529  0.66674063  0.82711519  1
  Al  Al197  1  -0.00472042  0.17090661  0.32393186  1
  Al  Al198  1  0.50359881  0.67288468  0.18816135  1
  Al  Al199  1  0.18306579  0.16767420  0.49708758  1
  Al  Al200  1  0.32570002  0.50017895  0.32224807  1
  Al  Al201  1  0.50242066  0.18891742  0.80413553  1
  Al  Al202  1  0.32165645  0.17564274  0.00597101  1
  Al  Al203  1  0.32795014  0.49984290  0.67708126  1
  Al  Al204  1  0.50027714  0.67316946  0.66822157  1
  Al  Al205  1  0.82117811  0.67077929  -0.00018761  1
  Al  Al206  1  0.17075231  0.82068342  0.00422907  1
  Al  Al207  1  0.68006871  0.16887280  0.00649375  1
  Al  Al208  1  0.50389670  0.82962250  0.83374470  1
  Al  Al209  1  0.68038385  0.82100493  0.49986041  1
  Al  Al210  1  0.00053955  0.16504004  0.67431494  1
  Al  Al211  1  0.67335561  0.33111036  0.00016181  1
  Al  Al212  1  0.50375562  0.82754538  0.17768125  1
  Al  Al213  1  -0.00209042  0.32464076  0.68094980  1
  Al  Al214  1  0.80946449  0.31261618  0.49912020  1
  Al  Al215  1  0.16880776  0.49745675  0.67740040  1
  Al  Al216  1  0.17062741  0.49990891  0.32877682  1
  Al  Al217  1  -0.00251140  0.68280375  0.81507864  1
  Al  Al218  1  -0.00224704  0.81755920  0.68181156  1
  Al  Al219  1  0.17130506  -0.00376662  0.18332629  1
  Al  Al220  1  0.81898790  0.00209582  0.82508091  1
  Al  Al221  1  0.33083923  0.00171037  0.82458565  1
  Al  Al222  1  0.32856190  0.00185042  0.66634254  1
  Al  Al223  1  0.67370868  0.50025369  0.68107686  1
  Al  Al224  1  0.32259387  0.68015735  0.49767000  1
  Al  Al225  1  0.16862286  0.33013762  0.49887767  1
  Al  Al226  1  0.68279067  0.49939646  0.19142336  1
  Al  Al227  1  0.50200469  0.32309684  0.18076327  1
  Al  Al228  1  0.80931144  0.50141991  0.31860703  1
  Al  Al229  1  0.50194743  0.30576041  0.68980783  1
  Al  Al230  1  0.82935357  0.49805161  0.66968047  1
  Al  Al231  1  0.81568423  0.83233422  0.00464019  1
  Al  Al232  1  0.32841175  0.83465204  0.00298940  1
  Al  Al233  1  0.50132789  0.83097676  0.66994619  1
  Al  Al234  1  0.81257186  0.50072857  0.82173974  1
  Al  Al235  1  0.18326521  0.49889191  0.17688780  1
  Al  Al236  1  0.16929676  0.00167544  0.83165381  1
  Al  Al237  1  0.33306231  0.31799743  0.50055597  1
  Al  Al238  1  0.17317277  0.00064819  0.67332471  1
  Au  Au239  1  0.17833455  0.15162685  0.49538007  1
  Au  Au240  1  0.32255616  0.33220612  -0.00032218  1
  Au  Au241  1  0.66897751  0.50028774  0.66910464  1
  Au  Au242  1  0.33930085  0.49379047  0.82643826  1
  Au  Au243  1  0.83259516  0.66546568  -0.00047360  1
  Au  Au244  1  -0.00595154  0.16574357  0.16797380  1
  Au  Au245  1  0.33947301  0.66485972  0.00106485  1
  Au  Au246  1  0.32915243  0.16574882  0.00283173  1
  Au  Au247  1  0.34673637  0.00178476  0.81809198  1
  Au  Au248  1  0.50021412  0.83218111  0.33757784  1
  Au  Au249  1  0.50328918  0.65076126  0.82026973  1
  Au  Au250  1  0.17189204  0.66328709  0.49372766  1
  Au  Au251  1  -0.00632201  0.66960787  0.66490476  1
  Au  Au252  1  0.66590070  0.34549089  -0.00180504  1
  Au  Au253  1  0.17444611  0.49721163  0.66142014  1
  Au  Au254  1  0.67020234  0.15568453  0.00831442  1
  Au  Au255  1  -0.00000849  0.33378227  0.83075485  1
  Au  Au256  1  -0.00634393  0.33551322  0.33366987  1
  Au  Au257  1  0.83864594  0.32226407  0.00175935  1
  Au  Au258  1  0.82700689  0.84388593  0.00652371  1
  Au  Au259  1  0.33171932  0.49883148  0.17405867  1
  Au  Au260  1  0.00021287  0.16062977  0.32907299  1
  Au  Au261  1  0.82804490  0.49777163  0.17309723  1
  Au  Au262  1  0.50541309  0.32371784  0.33562613  1
  Au  Au263  1  -0.00331972  0.83072117  0.83253333  1
  Au  Au264  1  0.16878156  0.50018639  0.84198809  1
  Au  Au265  1  -0.00119848  0.67469410  0.17844704  1
  Au  Au266  1  0.66129827  0.67294136  0.00212866  1
  Au  Au267  1  0.67483898  0.17309265  0.49828621  1
  Au  Au268  1  0.50611080  0.83114658  0.85030669  1
  Au  Au269  1  0.16313283  0.83661578  0.49675722  1
  Au  Au270  1  0.15146102  0.33168171  0.49867321  1
  Au  Au271  1  0.00305053  0.33462807  0.16588605  1
  Au  Au272  1  0.83038243  -0.00028953  0.66780359  1
  Au  Au273  1  0.33392299  0.83084728  0.49643071  1
  Au  Au274  1  0.34073415  0.33306492  0.50160467  1
  Au  Au275  1  0.15726770  -0.00411640  0.17460064  1
  Au  Au276  1  0.50412398  0.18634876  0.82122272  1
  Au  Au277  1  0.00090592  0.17276410  0.65910035  1
  Au  Au278  1  0.31993611  0.84966986  0.00292014  1
  Au  Au279  1  0.34514661  0.00568853  0.18366963  1
  Au  Au280  1  0.50710941  0.82407031  0.16139173  1
  Au  Au281  1  0.15482347  0.67284151  0.00229811  1
  Au  Au282  1  0.50030157  0.31988575  0.16860058  1
  Au  Au283  1  0.83640396  0.82374071  0.49605543  1
  Au  Au284  1  0.15314524  0.00403377  0.82728045  1
  Au  Au285  1  0.67105809  0.82925874  0.49710985  1
  Au  Au286  1  0.50269556  0.83392010  0.65392217  1
  Au  Au287  1  0.66913904  -0.00122340  0.82656632  1
