# generated using pymatgen
data_Ca24Ti8Al207Au49
_symmetry_space_group_name_H-M   'P 1'
_cell_length_a   17.32166067
_cell_length_b   17.32282620
_cell_length_c   17.32244401
_cell_angle_alpha   89.99821250
_cell_angle_beta   89.99916793
_cell_angle_gamma   90.00199746
_symmetry_Int_Tables_number   1
_chemical_formula_structural   Ca24Ti8Al207Au49
_chemical_formula_sum   'Ca24 Ti8 Al207 Au49'
_cell_volume   5197.77457677
_cell_formula_units_Z   1
loop_
 _symmetry_equiv_pos_site_id
 _symmetry_equiv_pos_as_xyz
  1  'x, y, z'
loop_
 _atom_site_type_symbol
 _atom_site_label
 _atom_site_symmetry_multiplicity
 _atom_site_fract_x
 _atom_site_fract_y
 _atom_site_fract_z
 _atom_site_occupancy
  Ca  Ca0  1  0.24895572  0.00141367  0.00109563  1
  Ca  Ca1  1  0.24346849  0.00132867  0.49857117  1
  Ca  Ca2  1  0.25016196  0.49982663  0.00467232  1
  Ca  Ca3  1  0.24648828  0.50252506  0.49715047  1
  Ca  Ca4  1  0.75198246  0.00389586  -0.00019338  1
  Ca  Ca5  1  0.75607484  -0.00139314  0.49960229  1
  Ca  Ca6  1  0.75121929  0.49530243  0.00484514  1
  Ca  Ca7  1  0.74994651  0.49994501  0.49532593  1
  Ca  Ca8  1  -0.00100164  0.24920571  0.00229706  1
  Ca  Ca9  1  -0.00459730  0.24493493  0.49964932  1
  Ca  Ca10  1  0.00252234  0.75045905  0.00049582  1
  Ca  Ca11  1  -0.00324046  0.75129869  0.50053641  1
  Ca  Ca12  1  0.50497629  0.25082830  0.00170307  1
  Ca  Ca13  1  0.50347725  0.25054953  0.49897292  1
  Ca  Ca14  1  0.49799721  0.74481867  0.00284950  1
  Ca  Ca15  1  0.50520143  0.75121843  0.50302888  1
  Ca  Ca16  1  -0.00489846  -0.00063319  0.24945103  1
  Ca  Ca17  1  -0.00756399  -0.00081696  0.74862868  1
  Ca  Ca18  1  0.00224096  0.50261342  0.24897801  1
  Ca  Ca19  1  -0.00042421  0.50324421  0.74760925  1
  Ca  Ca20  1  0.50392611  0.00048132  0.24725299  1
  Ca  Ca21  1  0.50607838  -0.00092165  0.74976711  1
  Ca  Ca22  1  0.49960823  0.49664518  0.24569734  1
  Ca  Ca23  1  0.50080104  0.50013728  0.75315238  1
  Ti  Ti24  1  0.24932082  0.25018529  0.24838354  1
  Ti  Ti25  1  0.24789392  0.25128233  0.75090648  1
  Ti  Ti26  1  0.24739115  0.74990411  0.24737622  1
  Ti  Ti27  1  0.24845605  0.74958326  0.75150052  1
  Ti  Ti28  1  0.75136968  0.25040745  0.25001161  1
  Ti  Ti29  1  0.75137402  0.24881797  0.75018012  1
  Ti  Ti30  1  0.75244131  0.74990938  0.24959869  1
  Ti  Ti31  1  0.75055711  0.75149465  0.74917163  1
  Al  Al32  1  0.08208304  0.08524538  0.07850884  1
  Al  Al33  1  0.07713387  0.07411743  0.59525819  1
  Al  Al34  1  0.08796424  0.58011566  0.08850704  1
  Al  Al35  1  0.07299241  0.58840515  0.58425639  1
  Al  Al36  1  0.58770260  0.09122885  0.07676118  1
  Al  Al37  1  0.59686982  0.07765914  0.58685140  1
  Al  Al38  1  0.58282980  0.57255735  0.08757409  1
  Al  Al39  1  0.58548164  0.58483280  0.57877507  1
  Al  Al40  1  0.41071890  0.41991529  0.08813783  1
  Al  Al41  1  0.41778903  0.42062299  0.58450581  1
  Al  Al42  1  0.41449171  0.91685533  0.08049121  1
  Al  Al43  1  0.42548131  0.91807007  0.57840825  1
  Al  Al44  1  0.91493169  0.41201692  0.09303963  1
  Al  Al45  1  0.91806469  0.41598960  0.57797386  1
  Al  Al46  1  0.91680233  0.91787030  0.09092779  1
  Al  Al47  1  0.91146873  0.90510407  0.58660766  1
  Al  Al48  1  0.42391487  0.07751176  0.41528919  1
  Al  Al49  1  0.42485451  0.09387958  0.92433033  1
  Al  Al50  1  0.42041187  0.57475744  0.41033427  1
  Al  Al51  1  0.41085114  0.58755285  0.92541309  1
  Al  Al52  1  0.90598121  0.08439243  0.41381386  1
  Al  Al53  1  0.91311289  0.08787735  0.91058951  1
  Al  Al54  1  0.91578186  0.59338566  0.41434862  1
  Al  Al55  1  0.92593251  0.58894241  0.91409434  1
  Al  Al56  1  0.08589770  0.42740216  0.40706443  1
  Al  Al57  1  0.07706010  0.41906620  0.91969706  1
  Al  Al58  1  0.07123572  0.92050699  0.41770994  1
  Al  Al59  1  0.07594544  0.91211265  0.91982922  1
  Al  Al60  1  0.57984194  0.40894868  0.41293547  1
  Al  Al61  1  0.59339952  0.41175454  0.92402056  1
  Al  Al62  1  0.60005208  0.91619531  0.42148732  1
  Al  Al63  1  0.58749593  0.92931729  0.90860785  1
  Al  Al64  1  0.06775911  0.07783160  0.41886944  1
  Al  Al65  1  0.07700863  0.09387691  0.91444722  1
  Al  Al66  1  0.07851127  0.58747728  0.40840323  1
  Al  Al67  1  0.08157736  0.59292011  0.91375560  1
  Al  Al68  1  0.59154210  0.07964483  0.41669537  1
  Al  Al69  1  0.59395193  0.08984956  0.91357917  1
  Al  Al70  1  0.58360975  0.58470066  0.41737802  1
  Al  Al71  1  0.57751521  0.57292639  0.92058406  1
  Al  Al72  1  0.41967547  0.41391199  0.40188344  1
  Al  Al73  1  0.42002990  0.41899030  0.92377555  1
  Al  Al74  1  0.42027926  0.92038559  0.42354532  1
  Al  Al75  1  0.42162405  0.91281091  0.92478011  1
  Al  Al76  1  0.91625021  0.42117971  0.41933074  1
  Al  Al77  1  0.91783975  0.41248061  0.92459988  1
  Al  Al78  1  0.90350420  0.91265786  0.41394112  1
  Al  Al79  1  0.91698478  0.92083848  0.91034331  1
  Al  Al80  1  0.07968096  0.41699609  0.09554301  1
  Al  Al81  1  0.07595164  0.42262460  0.57955810  1
  Al  Al82  1  0.07548729  0.90769754  0.08446405  1
  Al  Al83  1  0.07427689  0.91344029  0.59954319  1
  Al  Al84  1  0.59394990  0.41138964  0.08511736  1
  Al  Al85  1  0.58208390  0.41956854  0.57539367  1
  Al  Al86  1  0.58021598  0.92634372  0.08014124  1
  Al  Al87  1  0.60299902  0.91612929  0.58452406  1
  Al  Al88  1  0.41742641  0.09108742  0.07948042  1
  Al  Al89  1  0.42635527  0.07753276  0.58073416  1
  Al  Al90  1  0.40289774  0.58298760  0.08625858  1
  Al  Al91  1  0.42000965  0.57711819  0.58383214  1
  Al  Al92  1  0.91087285  0.08124492  0.08245124  1
  Al  Al93  1  0.91358480  0.08519445  0.58095305  1
  Al  Al94  1  0.91363768  0.57522341  0.09169816  1
  Al  Al95  1  0.91423774  0.60134037  0.58035684  1
  Al  Al96  1  0.25129922  0.13246413  0.13506565  1
  Al  Al97  1  0.24334551  0.13291030  0.63730229  1
  Al  Al98  1  0.25049059  0.63584020  0.13640587  1
  Al  Al99  1  0.24734278  0.63947923  0.63894638  1
  Al  Al100  1  0.74687923  0.13809640  0.13230203  1
  Al  Al101  1  0.75130173  0.12930420  0.63281732  1
  Al  Al102  1  0.75487040  0.63735117  0.13620105  1
  Al  Al103  1  0.75362726  0.63889356  0.63297122  1
  Al  Al104  1  0.25212060  0.36607535  0.13786369  1
  Al  Al105  1  0.24989386  0.36408198  0.63154960  1
  Al  Al106  1  0.24837951  0.86869612  0.13504099  1
  Al  Al107  1  0.24447937  0.86229959  0.63948725  1
  Al  Al108  1  0.75177767  0.36090818  0.13113887  1
  Al  Al109  1  0.75162319  0.36494811  0.63673776  1
  Al  Al110  1  0.75033322  0.86275211  0.13541389  1
  Al  Al111  1  0.75138221  0.86852749  0.63278383  1
  Al  Al112  1  0.25054114  0.13500431  0.36361815  1
  Al  Al113  1  0.25022269  0.13560190  0.86387704  1
  Al  Al114  1  0.24288812  0.63070517  0.35924860  1
  Al  Al115  1  0.25353587  0.63507817  0.86516358  1
  Al  Al116  1  0.75417456  0.13581701  0.37218241  1
  Al  Al117  1  0.74700730  0.13350804  0.86688896  1
  Al  Al118  1  0.75585385  0.63730482  0.36781116  1
  Al  Al119  1  0.74966118  0.63741007  0.86314408  1
  Al  Al120  1  0.24871524  0.36576105  0.36534217  1
  Al  Al121  1  0.24894660  0.36395173  0.86483945  1
  Al  Al122  1  0.24479729  0.86327443  0.36114170  1
  Al  Al123  1  0.25026441  0.86678002  0.86231886  1
  Al  Al124  1  0.75151246  0.36728821  0.36265623  1
  Al  Al125  1  0.75212816  0.35958605  0.87243353  1
  Al  Al126  1  0.75424574  0.86338556  0.36810248  1
  Al  Al127  1  0.74941860  0.86526559  0.86100752  1
  Al  Al128  1  0.12959548  0.24909701  0.13804913  1
  Al  Al129  1  0.13353507  0.25464631  0.63451222  1
  Al  Al130  1  0.12870820  0.74768121  0.13689450  1
  Al  Al131  1  0.12539136  0.74836743  0.63855206  1
  Al  Al132  1  0.63704728  0.25351388  0.13059566  1
  Al  Al133  1  0.63281281  0.24254434  0.63654888  1
  Al  Al134  1  0.63097212  0.74639576  0.13713849  1
  Al  Al135  1  0.63477248  0.75517489  0.63338390  1
  Al  Al136  1  0.13549239  0.25230247  0.36448310  1
  Al  Al137  1  0.12924218  0.24716456  0.86452295  1
  Al  Al138  1  0.12899674  0.74465501  0.36084418  1
  Al  Al139  1  0.13346778  0.74835874  0.86384734  1
  Al  Al140  1  0.63768768  0.24943785  0.36478207  1
  Al  Al141  1  0.63902456  0.24879151  0.86995515  1
  Al  Al142  1  0.63966354  0.75361578  0.36592345  1
  Al  Al143  1  0.63390294  0.74865259  0.86236694  1
  Al  Al144  1  0.36468865  0.24898312  0.13313329  1
  Al  Al145  1  0.36349858  0.25100774  0.63481640  1
  Al  Al146  1  0.36539318  0.74909018  0.13006780  1
  Al  Al147  1  0.36872683  0.74875867  0.63687473  1
  Al  Al148  1  0.87087215  0.25032529  0.13604211  1
  Al  Al149  1  0.86310358  0.24492761  0.63343398  1
  Al  Al150  1  0.87334598  0.75015086  0.13748069  1
  Al  Al151  1  0.86497598  0.75418530  0.63084690  1
  Al  Al152  1  0.36533893  0.25599962  0.36299881  1
  Al  Al153  1  0.36537073  0.24805381  0.86760616  1
  Al  Al154  1  0.36129725  0.74825714  0.35965107  1
  Al  Al155  1  0.36640952  0.75192171  0.87102011  1
  Al  Al156  1  0.86618469  0.24966350  0.36280056  1
  Al  Al157  1  0.86986457  0.24818563  0.86498936  1
  Al  Al158  1  0.86623141  0.75058412  0.36849388  1
  Al  Al159  1  0.86451772  0.74771254  0.86330760  1
  Al  Al160  1  0.13592614  0.12927579  0.24444783  1
  Al  Al161  1  0.13318849  0.13399664  0.75123209  1
  Al  Al162  1  0.12805285  0.63471651  0.24890519  1
  Al  Al163  1  0.12903512  0.63650229  0.75213841  1
  Al  Al164  1  0.63881015  0.13659874  0.25083520  1
  Al  Al165  1  0.64087697  0.12903232  0.75132663  1
  Al  Al166  1  0.63853786  0.63471695  0.25121169  1
  Al  Al167  1  0.63307625  0.63714051  0.74419199  1
  Al  Al168  1  0.36529157  0.13379373  0.25090226  1
  Al  Al169  1  0.36543812  0.13592992  0.74726978  1
  Al  Al170  1  0.36445887  0.63393596  0.24486400  1
  Al  Al171  1  0.36945912  0.63887656  0.75289638  1
  Al  Al172  1  0.86181030  0.13391926  0.25019330  1
  Al  Al173  1  0.86344423  0.13367421  0.75078791  1
  Al  Al174  1  0.87309706  0.63831411  0.25137075  1
  Al  Al175  1  0.87316310  0.64110645  0.74289399  1
  Al  Al176  1  0.13373137  0.36540400  0.24885637  1
  Al  Al177  1  0.12764938  0.36382680  0.75313348  1
  Al  Al178  1  0.13081058  0.86703694  0.24642579  1
  Al  Al179  1  0.12971895  0.86566646  0.74695406  1
  Al  Al180  1  0.63079349  0.36150086  0.24916805  1
  Al  Al181  1  0.63542035  0.35974344  0.75067956  1
  Al  Al182  1  0.63729435  0.86534028  0.24799801  1
  Al  Al183  1  0.63673426  0.86989654  0.74700682  1
  Al  Al184  1  0.37003275  0.36394042  0.24714887  1
  Al  Al185  1  0.36668093  0.36275960  0.75281886  1
  Al  Al186  1  0.36424553  0.86630726  0.24435734  1
  Al  Al187  1  0.36635380  0.86377423  0.74747116  1
  Al  Al188  1  0.86610239  0.37051691  0.24311123  1
  Al  Al189  1  0.87205929  0.35973060  0.74861162  1
  Al  Al190  1  0.86525645  0.86525445  0.25095863  1
  Al  Al191  1  0.86695541  0.86521182  0.74468712  1
  Al  Al192  1  0.17102498  0.50169772  0.66925905  1
  Al  Al193  1  0.18938334  0.50053001  0.19087770  1
  Al  Al194  1  0.18552681  0.17732746  -0.00022578  1
  Al  Al195  1  0.82532004  0.31525460  0.49887634  1
  Al  Al196  1  0.67114333  0.82449572  -0.00114893  1
  Al  Al197  1  0.31039142  0.49808867  0.30920360  1
  Al  Al198  1  -0.00200449  0.81453619  0.81651947  1
  Al  Al199  1  0.69362287  0.49786401  0.18224776  1
  Al  Al200  1  0.67454554  0.31858902  0.50055862  1
  Al  Al201  1  0.50414164  0.82516892  0.82121688  1
  Al  Al202  1  0.81343618  -0.00018678  0.81698830  1
  Al  Al203  1  0.82585997  0.67075752  0.00107982  1
  Al  Al204  1  0.68812189  0.68779827  0.49995993  1
  Al  Al205  1  0.17800205  0.82466430  -0.00021085  1
  Al  Al206  1  0.17053530  0.67269915  0.49970541  1
  Al  Al207  1  0.69296981  -0.00044936  0.31934176  1
  Al  Al208  1  0.50175750  0.83073740  0.32711204  1
  Al  Al209  1  0.16657916  -0.00096941  0.82080181  1
  Al  Al210  1  0.17450106  0.49909654  0.82519271  1
  Al  Al211  1  0.32133022  -0.00589095  0.32344818  1
  Al  Al212  1  0.82398832  0.50387676  0.66935068  1
  Al  Al213  1  0.16509880  0.17566229  0.50170468  1
  Al  Al214  1  0.82939455  0.82833805  -0.00038454  1
  Al  Al215  1  0.31512770  -0.00143478  0.67118055  1
  Al  Al216  1  0.32414594  0.82509800  0.50004261  1
  Al  Al217  1  0.18237146  0.67285138  0.00145944  1
  Al  Al218  1  0.32169390  0.31557457  0.00114440  1
  Al  Al219  1  -0.00139381  0.17802258  0.68473383  1
  Al  Al220  1  0.82393720  0.50554411  0.31679383  1
  Al  Al221  1  0.32656628  0.17881380  0.49935663  1
  Al  Al222  1  0.67529727  0.49817233  0.82054510  1
  Al  Al223  1  0.50215869  0.18419515  0.17288039  1
  Al  Al224  1  0.16849078  0.32889550  0.00350042  1
  Al  Al225  1  0.81597045  0.17998477  -0.00091957  1
  Al  Al226  1  0.16633664  0.82476850  0.50051325  1
  Al  Al227  1  0.32413429  0.66634681  0.49721466  1
  Al  Al228  1  -0.00039723  0.17433707  0.31541903  1
  Al  Al229  1  0.50365711  0.32096455  0.67629741  1
  Al  Al230  1  -0.00153721  0.81598756  0.31671539  1
  Al  Al231  1  0.50065492  0.67480158  0.31965685  1
  Al  Al232  1  -0.00088993  0.33045090  0.31937479  1
  Al  Al233  1  0.50328073  0.18070275  0.82110601  1
  Al  Al234  1  0.81636961  -0.00034546  0.18673285  1
  Al  Al235  1  0.50162424  0.18453552  0.33049922  1
  Al  Al236  1  0.32270311  0.50086578  0.68118709  1
  Al  Al237  1  0.83284413  0.50068775  0.82308472  1
  Al  Al238  1  0.33371535  0.00424876  0.82884082  1
  Au  Au239  1  0.32630398  0.32760846  0.00109204  1
  Au  Au240  1  0.32602785  0.49886826  0.31577130  1
  Au  Au241  1  0.32597042  0.82325032  0.00075191  1
  Au  Au242  1  0.50051624  0.66525133  0.66935506  1
  Au  Au243  1  0.65962342  0.49642168  0.32537832  1
  Au  Au244  1  0.82671527  0.50178579  0.84001259  1
  Au  Au245  1  0.82616801  -0.00073857  0.66799973  1
  Au  Au246  1  0.50508442  0.32822323  0.84132241  1
  Au  Au247  1  0.15145894  -0.00091855  0.82655268  1
  Au  Au248  1  0.16442456  0.00314882  0.33203138  1
  Au  Au249  1  0.16725004  0.34350879  0.49713328  1
  Au  Au250  1  -0.00245296  0.17035513  0.16565831  1
  Au  Au251  1  0.82672604  0.32683069  0.00459020  1
  Au  Au252  1  0.33441020  0.34132527  0.49688761  1
  Au  Au253  1  0.67954133  0.16874257  0.50122327  1
  Au  Au254  1  -0.00062645  0.32551789  0.66530023  1
  Au  Au255  1  0.16098246  -0.00425286  0.16368051  1
  Au  Au256  1  0.32307428  -0.00521108  0.65626180  1
  Au  Au257  1  0.50104647  0.83143117  0.16378321  1
  Au  Au258  1  0.50609055  0.15673884  0.67485493  1
  Au  Au259  1  0.83314777  0.50413730  0.66484254  1
  Au  Au260  1  0.66904585  0.00575096  0.17188948  1
  Au  Au261  1  0.16368626  0.50415007  0.82899830  1
  Au  Au262  1  0.67452667  0.67728436  0.49765970  1
  Au  Au263  1  0.49775491  0.65800563  0.17075383  1
  Au  Au264  1  0.83393996  0.50011801  0.32219997  1
  Au  Au265  1  0.16794672  0.84061243  0.50646823  1
  Au  Au266  1  0.50157785  0.32966927  0.66736500  1
  Au  Au267  1  0.50208852  0.83405063  0.82992119  1
  Au  Au268  1  0.67391314  0.84074878  -0.00506711  1
  Au  Au269  1  0.32993819  -0.00398310  0.33247825  1
  Au  Au270  1  0.00043374  0.66771444  0.17089341  1
  Au  Au271  1  0.33545640  0.00574736  0.16711256  1
  Au  Au272  1  0.50639759  0.83494403  0.66430710  1
  Au  Au273  1  0.33977670  0.67300285  0.49662134  1
  Au  Au274  1  0.00003044  0.32128581  0.83626211  1
  Au  Au275  1  0.66351430  0.49828433  0.67103471  1
  Au  Au276  1  0.34062911  0.16934001  0.49889561  1
  Au  Au277  1  0.50072766  0.66884802  0.83841706  1
  Au  Au278  1  0.33828022  0.00548343  0.84392080  1
  Au  Au279  1  0.15624787  0.16145083  0.50324505  1
  Au  Au280  1  0.50285655  0.16849968  0.32437756  1
  Au  Au281  1  0.50082152  0.33512791  0.17052104  1
  Au  Au282  1  0.50424962  0.82587293  0.34343127  1
  Au  Au283  1  0.33833369  0.50097621  0.82891831  1
  Au  Au284  1  0.83851662  0.67307073  0.00259807  1
  Au  Au285  1  -0.00433641  0.82777404  0.32849840  1
  Au  Au286  1  0.00095544  0.32736696  0.33182561  1
  Au  Au287  1  0.66830312  0.65710353  0.00138067  1
