# generated using pymatgen
data_Ca24Ti8Al207Au49
_symmetry_space_group_name_H-M   'P 1'
_cell_length_a   17.32474246
_cell_length_b   17.32416868
_cell_length_c   17.32376250
_cell_angle_alpha   89.99378205
_cell_angle_beta   89.99970046
_cell_angle_gamma   89.99523121
_symmetry_Int_Tables_number   1
_chemical_formula_structural   Ca24Ti8Al207Au49
_chemical_formula_sum   'Ca24 Ti8 Al207 Au49'
_cell_volume   5199.49791302
_cell_formula_units_Z   1
loop_
 _symmetry_equiv_pos_site_id
 _symmetry_equiv_pos_as_xyz
  1  'x, y, z'
loop_
 _atom_site_type_symbol
 _atom_site_label
 _atom_site_symmetry_multiplicity
 _atom_site_fract_x
 _atom_site_fract_y
 _atom_site_fract_z
 _atom_site_occupancy
  Ca  Ca0  1  0.24877680  -0.00757890  0.00055233  1
  Ca  Ca1  1  0.24707157  0.00240767  0.49558615  1
  Ca  Ca2  1  0.24631985  0.50575313  0.00116261  1
  Ca  Ca3  1  0.24598560  0.50028501  0.50086786  1
  Ca  Ca4  1  0.75248258  -0.00031573  0.00284018  1
  Ca  Ca5  1  0.75140093  -0.00189895  0.49416575  1
  Ca  Ca6  1  0.75496539  0.50266743  -0.00006490  1
  Ca  Ca7  1  0.75065167  0.50163961  0.50204372  1
  Ca  Ca8  1  0.00050279  0.24143533  0.00261664  1
  Ca  Ca9  1  -0.00222073  0.25184372  0.49801856  1
  Ca  Ca10  1  0.00088043  0.75019761  0.00511485  1
  Ca  Ca11  1  -0.00082965  0.75683076  0.49491020  1
  Ca  Ca12  1  0.50133436  0.23985617  0.00125384  1
  Ca  Ca13  1  0.49961449  0.25464346  0.49749441  1
  Ca  Ca14  1  0.49748933  0.75400580  -0.00150478  1
  Ca  Ca15  1  0.50060176  0.75364161  0.50026764  1
  Ca  Ca16  1  -0.00228606  -0.00555091  0.24572670  1
  Ca  Ca17  1  -0.00103628  -0.00194516  0.75710220  1
  Ca  Ca18  1  0.00087617  0.50579000  0.24559198  1
  Ca  Ca19  1  0.00031803  0.50238126  0.75212004  1
  Ca  Ca20  1  0.50345938  0.00088421  0.24844765  1
  Ca  Ca21  1  0.50022322  0.00000262  0.75502938  1
  Ca  Ca22  1  0.50026026  0.49977974  0.24895167  1
  Ca  Ca23  1  0.49845175  0.50224610  0.74925941  1
  Ti  Ti24  1  0.24871661  0.25032685  0.24889061  1
  Ti  Ti25  1  0.25016435  0.24837987  0.75093550  1
  Ti  Ti26  1  0.24869965  0.74863068  0.24878574  1
  Ti  Ti27  1  0.24837193  0.75252793  0.75200504  1
  Ti  Ti28  1  0.75050350  0.24879684  0.25015465  1
  Ti  Ti29  1  0.74951834  0.24950305  0.75009843  1
  Ti  Ti30  1  0.74986108  0.75088278  0.24800765  1
  Ti  Ti31  1  0.75193277  0.74962112  0.75249784  1
  Al  Al32  1  0.07879364  0.07630994  0.08743938  1
  Al  Al33  1  0.07852759  0.07717715  0.58510812  1
  Al  Al34  1  0.08469188  0.59333343  0.08456226  1
  Al  Al35  1  0.07734490  0.57838132  0.57630096  1
  Al  Al36  1  0.59436245  0.08646294  0.08387345  1
  Al  Al37  1  0.57812005  0.07572612  0.58444827  1
  Al  Al38  1  0.58556502  0.58309678  0.07916151  1
  Al  Al39  1  0.59106702  0.57925677  0.58875439  1
  Al  Al40  1  0.42542339  0.41714668  0.09150100  1
  Al  Al41  1  0.42010197  0.41971947  0.58808434  1
  Al  Al42  1  0.41023792  0.91440526  0.07492546  1
  Al  Al43  1  0.42028159  0.91493988  0.58585940  1
  Al  Al44  1  0.92420166  0.42958218  0.08344563  1
  Al  Al45  1  0.91985001  0.41826654  0.58764131  1
  Al  Al46  1  0.91160925  0.90890997  0.08989724  1
  Al  Al47  1  0.91961744  0.91867442  0.57523303  1
  Al  Al48  1  0.41937188  0.07777521  0.40239024  1
  Al  Al49  1  0.41218352  0.07589664  0.91610040  1
  Al  Al50  1  0.42101024  0.57939519  0.41925579  1
  Al  Al51  1  0.40165215  0.58654590  0.91702746  1
  Al  Al52  1  0.91837503  0.07922477  0.39569478  1
  Al  Al53  1  0.91628152  0.08202094  0.91847715  1
  Al  Al54  1  0.91825191  0.59133325  0.41681812  1
  Al  Al55  1  0.91723392  0.59568001  0.91745356  1
  Al  Al56  1  0.08155817  0.41298574  0.41387174  1
  Al  Al57  1  0.07873474  0.42566393  0.91639350  1
  Al  Al58  1  0.08442778  0.91533408  0.40399383  1
  Al  Al59  1  0.09024065  0.91252393  0.92117694  1
  Al  Al60  1  0.58141546  0.41708056  0.41554088  1
  Al  Al61  1  0.57831581  0.42106094  0.92224700  1
  Al  Al62  1  0.59043013  0.91749137  0.41421886  1
  Al  Al63  1  0.59230750  0.92071453  0.91757590  1
  Al  Al64  1  0.08100389  0.07753719  0.39838745  1
  Al  Al65  1  0.08027497  0.07681555  0.91205866  1
  Al  Al66  1  0.08164701  0.58439749  0.41220376  1
  Al  Al67  1  0.08306003  0.59308576  0.91904097  1
  Al  Al68  1  0.58090572  0.07513869  0.40237882  1
  Al  Al69  1  0.59759313  0.08271970  0.91926285  1
  Al  Al70  1  0.58343733  0.58191912  0.42104698  1
  Al  Al71  1  0.58455834  0.58481965  0.92131538  1
  Al  Al72  1  0.41931620  0.41618671  0.41573441  1
  Al  Al73  1  0.41369780  0.42773224  0.91078739  1
  Al  Al74  1  0.41611116  0.92153936  0.40996062  1
  Al  Al75  1  0.40416061  0.91569980  0.91464680  1
  Al  Al76  1  0.92365682  0.41556505  0.41252888  1
  Al  Al77  1  0.92203034  0.42840132  0.91769486  1
  Al  Al78  1  0.91793198  0.91658322  0.40150469  1
  Al  Al79  1  0.90791110  0.90885516  0.92469645  1
  Al  Al80  1  0.08623417  0.43142466  0.09245829  1
  Al  Al81  1  0.07823116  0.41473805  0.57970199  1
  Al  Al82  1  0.08219519  0.90741414  0.08815699  1
  Al  Al83  1  0.08249519  0.91834556  0.57708050  1
  Al  Al84  1  0.57975238  0.41319129  0.08982285  1
  Al  Al85  1  0.58362776  0.42230654  0.59428370  1
  Al  Al86  1  0.59010101  0.92233992  0.08088537  1
  Al  Al87  1  0.58318206  0.91279168  0.57994982  1
  Al  Al88  1  0.42177131  0.08011969  0.08019298  1
  Al  Al89  1  0.41964499  0.07563127  0.58549929  1
  Al  Al90  1  0.40893880  0.58781867  0.07670960  1
  Al  Al91  1  0.41936336  0.57715334  0.58513279  1
  Al  Al92  1  0.90837202  0.07695473  0.09178779  1
  Al  Al93  1  0.92319504  0.07592836  0.58194477  1
  Al  Al94  1  0.91682782  0.59403962  0.08330954  1
  Al  Al95  1  0.91223063  0.58642794  0.58011617  1
  Al  Al96  1  0.24625183  0.13701539  0.13863992  1
  Al  Al97  1  0.25399166  0.12659797  0.63631581  1
  Al  Al98  1  0.24280802  0.63139251  0.13349454  1
  Al  Al99  1  0.24871282  0.63652870  0.64045925  1
  Al  Al100  1  0.75263172  0.13439634  0.13817522  1
  Al  Al101  1  0.74777053  0.13389877  0.63300070  1
  Al  Al102  1  0.75317426  0.63848837  0.12705027  1
  Al  Al103  1  0.75274140  0.62963308  0.63978078  1
  Al  Al104  1  0.24300557  0.36682899  0.13857252  1
  Al  Al105  1  0.25197389  0.36294078  0.63819839  1
  Al  Al106  1  0.24884775  0.86234718  0.13736322  1
  Al  Al107  1  0.25130093  0.87140570  0.63775447  1
  Al  Al108  1  0.74620644  0.36250652  0.13801451  1
  Al  Al109  1  0.74945995  0.37002761  0.63475668  1
  Al  Al110  1  0.75662576  0.86715659  0.13382980  1
  Al  Al111  1  0.74997630  0.86283364  0.63730705  1
  Al  Al112  1  0.24934117  0.13046341  0.36175767  1
  Al  Al113  1  0.24854601  0.13334557  0.86479536  1
  Al  Al114  1  0.24681610  0.63034322  0.35936953  1
  Al  Al115  1  0.24829596  0.63985439  0.86775900  1
  Al  Al116  1  0.75107838  0.12767876  0.36111918  1
  Al  Al117  1  0.74659329  0.13468413  0.86740572  1
  Al  Al118  1  0.75264502  0.63297328  0.35949809  1
  Al  Al119  1  0.75300570  0.63838142  0.87304292  1
  Al  Al120  1  0.25056414  0.36932780  0.36069236  1
  Al  Al121  1  0.25241332  0.36921291  0.86594429  1
  Al  Al122  1  0.24952243  0.86973364  0.36163056  1
  Al  Al123  1  0.25198718  0.86290020  0.86912686  1
  Al  Al124  1  0.75103137  0.36295264  0.36896695  1
  Al  Al125  1  0.74801402  0.36571935  0.86458862  1
  Al  Al126  1  0.75182013  0.87193581  0.36069221  1
  Al  Al127  1  0.75489611  0.86164408  0.86831808  1
  Al  Al128  1  0.12530588  0.24774443  0.14023724  1
  Al  Al129  1  0.13852399  0.24786132  0.63554605  1
  Al  Al130  1  0.13176284  0.74494454  0.13515609  1
  Al  Al131  1  0.13457320  0.75079895  0.63576537  1
  Al  Al132  1  0.63254423  0.24455102  0.13820368  1
  Al  Al133  1  0.63822201  0.25125434  0.63371479  1
  Al  Al134  1  0.63622420  0.75017419  0.13336320  1
  Al  Al135  1  0.63821026  0.74673321  0.63587150  1
  Al  Al136  1  0.13787064  0.24900931  0.35944308  1
  Al  Al137  1  0.13816594  0.24953234  0.86745347  1
  Al  Al138  1  0.13560913  0.75246042  0.36275356  1
  Al  Al139  1  0.12974235  0.75169870  0.86843967  1
  Al  Al140  1  0.63632431  0.25206552  0.36288815  1
  Al  Al141  1  0.63301360  0.24856139  0.86466610  1
  Al  Al142  1  0.63870704  0.74812024  0.36319889  1
  Al  Al143  1  0.63483580  0.74748107  0.86785087  1
  Al  Al144  1  0.36877822  0.24917080  0.13871981  1
  Al  Al145  1  0.36275907  0.24646550  0.63611946  1
  Al  Al146  1  0.36442289  0.75070273  0.13516823  1
  Al  Al147  1  0.36291942  0.75317979  0.63760566  1
  Al  Al148  1  0.87147371  0.24575494  0.13977712  1
  Al  Al149  1  0.86083560  0.25202419  0.63253045  1
  Al  Al150  1  0.86479591  0.75159647  0.12935724  1
  Al  Al151  1  0.86516723  0.75163245  0.63595721  1
  Al  Al152  1  0.36355678  0.25500302  0.36288757  1
  Al  Al153  1  0.36528360  0.24646873  0.86323375  1
  Al  Al154  1  0.36169393  0.75065275  0.36473623  1
  Al  Al155  1  0.36764314  0.75518723  0.86735775  1
  Al  Al156  1  0.86477885  0.24553086  0.36202234  1
  Al  Al157  1  0.86209676  0.24962954  0.86418232  1
  Al  Al158  1  0.86724926  0.75977795  0.36049371  1
  Al  Al159  1  0.87040316  0.74837596  0.87077746  1
  Al  Al160  1  0.12678347  0.13353728  0.25219689  1
  Al  Al161  1  0.13543886  0.13292263  0.74714471  1
  Al  Al162  1  0.13145913  0.62960035  0.24712068  1
  Al  Al163  1  0.12994805  0.63918354  0.75851776  1
  Al  Al164  1  0.63611676  0.13093108  0.24991338  1
  Al  Al165  1  0.63403730  0.13158608  0.75386282  1
  Al  Al166  1  0.63096271  0.63651332  0.24667611  1
  Al  Al167  1  0.63452387  0.63551442  0.74910848  1
  Al  Al168  1  0.36441312  0.13470701  0.25153233  1
  Al  Al169  1  0.36500050  0.12739062  0.75324653  1
  Al  Al170  1  0.36773146  0.63591701  0.24726192  1
  Al  Al171  1  0.36326100  0.63700960  0.75424771  1
  Al  Al172  1  0.86714940  0.12912708  0.24958070  1
  Al  Al173  1  0.86237653  0.13493439  0.75106042  1
  Al  Al174  1  0.86830896  0.64084004  0.24300746  1
  Al  Al175  1  0.86964242  0.63904353  0.75425173  1
  Al  Al176  1  0.13367155  0.37102390  0.25071368  1
  Al  Al177  1  0.13516588  0.36527228  0.75491380  1
  Al  Al178  1  0.13289499  0.86405904  0.25254728  1
  Al  Al179  1  0.12938393  0.86252970  0.75260216  1
  Al  Al180  1  0.62926825  0.36382630  0.24961535  1
  Al  Al181  1  0.63555450  0.36494343  0.74907918  1
  Al  Al182  1  0.63774967  0.86707479  0.25031065  1
  Al  Al183  1  0.63792115  0.86623618  0.75880726  1
  Al  Al184  1  0.36952795  0.36740127  0.24531745  1
  Al  Al185  1  0.36468715  0.36412408  0.75399836  1
  Al  Al186  1  0.36460612  0.86741937  0.25131809  1
  Al  Al187  1  0.36335766  0.87086757  0.75486732  1
  Al  Al188  1  0.86463602  0.36461938  0.25027342  1
  Al  Al189  1  0.86337595  0.36601557  0.74872325  1
  Al  Al190  1  0.86330762  0.87157497  0.24779317  1
  Al  Al191  1  0.87227428  0.86194658  0.75645243  1
  Al  Al192  1  0.49964427  0.31972443  0.67887405  1
  Al  Al193  1  0.82842891  0.33181879  0.00232948  1
  Al  Al194  1  0.32000203  0.49760460  0.17469873  1
  Al  Al195  1  0.31917179  0.17173714  0.00139766  1
  Al  Al196  1  0.49607816  0.67670119  0.82579793  1
  Al  Al197  1  0.81798749  0.68561790  0.49829289  1
  Al  Al198  1  0.16895908  0.32259491  0.00385211  1
  Al  Al199  1  0.50050874  0.18140872  0.31417741  1
  Al  Al200  1  0.18574799  -0.00300470  0.82014877  1
  Al  Al201  1  0.82746704  0.50421780  0.82018722  1
  Al  Al202  1  0.50161624  0.82208844  0.32653607  1
  Al  Al203  1  0.00091984  0.31063560  0.31957290  1
  Al  Al204  1  0.17308011  -0.00150868  0.18669928  1
  Al  Al205  1  0.17142991  0.49959669  0.67056827  1
  Al  Al206  1  0.66771888  0.17460098  0.49410590  1
  Al  Al207  1  0.17948341  0.32531008  0.49902519  1
  Al  Al208  1  0.82179920  0.50253633  0.17881289  1
  Al  Al209  1  0.50170865  0.81881517  0.68325702  1
  Al  Al210  1  -0.00188423  0.68835450  0.31505420  1
  Al  Al211  1  0.67370144  -0.00283056  0.68199317  1
  Al  Al212  1  0.82906583  -0.00267601  0.67608239  1
  Al  Al213  1  0.83206645  0.17244117  0.49624133  1
  Al  Al214  1  0.81577847  -0.00079787  0.82883347  1
  Al  Al215  1  0.18701974  0.80961961  0.00294196  1
  Al  Al216  1  0.30775870  0.69263638  0.00134094  1
  Al  Al217  1  0.68742086  0.82228759  0.00122188  1
  Al  Al218  1  0.33233637  0.32874507  0.00178026  1
  Al  Al219  1  0.68927684  -0.00076419  0.18317212  1
  Al  Al220  1  0.00104793  0.31619853  0.68070429  1
  Al  Al221  1  -0.00004940  0.18205762  0.82161498  1
  Al  Al222  1  0.81740900  0.17392419  0.00199101  1
  Al  Al223  1  0.17825168  0.82818807  0.49836607  1
  Al  Al224  1  0.16651703  0.17022326  0.49679524  1
  Al  Al225  1  0.68317322  0.81814437  0.49832700  1
  Al  Al226  1  0.67130793  0.31322820  0.00179249  1
  Al  Al227  1  -0.00169844  0.80741299  0.19233630  1
  Al  Al228  1  0.32324265  0.50009525  0.68974184  1
  Al  Al229  1  0.50239235  0.17149245  0.82780050  1
  Al  Al230  1  0.32429400  0.67735315  0.50078337  1
  Al  Al231  1  0.32707284  0.00064731  0.17901640  1
  Al  Al232  1  0.67949085  0.50106537  0.31973544  1
  Al  Al233  1  0.00308090  0.67708944  0.67616879  1
  Al  Al234  1  0.66994305  0.50074736  0.81622956  1
  Al  Al235  1  0.50079752  0.82699759  0.17047411  1
  Al  Al236  1  0.18445982  0.50386261  0.82594471  1
  Al  Al237  1  0.17004887  0.67431989  0.49930060  1
  Al  Al238  1  0.33122502  0.17507801  0.49535341  1
  Au  Au239  1  0.83241059  0.83568484  0.49327437  1
  Au  Au240  1  0.17104671  0.15224491  -0.00006619  1
  Au  Au241  1  -0.00310594  0.16729393  0.67389645  1
  Au  Au242  1  0.50061862  0.67372451  0.33806336  1
  Au  Au243  1  0.82814552  0.50047321  0.66896844  1
  Au  Au244  1  0.00014386  0.34052679  0.17592907  1
  Au  Au245  1  0.83508813  0.33709276  0.49906094  1
  Au  Au246  1  -0.00055200  0.83393775  0.66859673  1
  Au  Au247  1  0.50132310  0.67161989  0.66213267  1
  Au  Au248  1  0.65563881  0.16370042  0.49358387  1
  Au  Au249  1  0.67390130  -0.00542010  0.66920860  1
  Au  Au250  1  0.84097768  0.15912949  0.49453432  1
  Au  Au251  1  0.50010694  0.83909563  0.16709897  1
  Au  Au252  1  0.67001556  0.49943410  0.32793919  1
  Au  Au253  1  0.67609652  0.50032199  0.83241812  1
  Au  Au254  1  0.32779923  0.50004668  0.16510776  1
  Au  Au255  1  0.50018468  0.17329204  0.66498170  1
  Au  Au256  1  0.84459903  0.32700476  0.00232249  1
  Au  Au257  1  0.49941982  0.32863361  0.32592450  1
  Au  Au258  1  0.16709125  -0.00293931  0.67324321  1
  Au  Au259  1  0.32711935  0.34301796  0.50437931  1
  Au  Au260  1  0.17245022  0.50370012  0.83063075  1
  Au  Au261  1  -0.00103523  0.82607179  0.84337510  1
  Au  Au262  1  0.33556606  -0.00205214  0.67967925  1
  Au  Au263  1  0.00103589  0.66789811  0.66786249  1
  Au  Au264  1  0.34311708  0.16400329  0.49467655  1
  Au  Au265  1  0.49835280  0.66812912  0.83469135  1
  Au  Au266  1  0.65527003  0.31855058  0.00331148  1
  Au  Au267  1  0.33108258  0.50091467  0.33035650  1
  Au  Au268  1  0.32680981  0.84514416  0.49662818  1
  Au  Au269  1  0.67233470  0.66797021  0.50302861  1
  Au  Au270  1  0.66731946  0.34042094  0.50666820  1
  Au  Au271  1  0.15128812  0.17043896  0.49143177  1
  Au  Au272  1  0.50121393  0.17176463  0.16581182  1
  Au  Au273  1  0.15689191  0.33385199  0.00456080  1
  Au  Au274  1  0.50013948  0.16308171  0.83666903  1
  Au  Au275  1  -0.00292219  0.16335154  0.17605521  1
  Au  Au276  1  0.32230430  0.66120277  0.50349834  1
  Au  Au277  1  0.49900695  0.66436429  0.16562449  1
  Au  Au278  1  0.34857139  0.32423316  0.00126577  1
  Au  Au279  1  0.67660978  0.67518373  0.00083451  1
  Au  Au280  1  0.84293939  0.50119882  0.32728726  1
  Au  Au281  1  0.49862680  0.33938862  0.82563507  1
  Au  Au282  1  0.32135361  -0.00125991  0.16763548  1
  Au  Au283  1  0.16270747  0.49933155  0.32581898  1
  Au  Au284  1  0.50097700  0.84282280  0.83137054  1
  Au  Au285  1  0.67436416  0.49945660  0.16251952  1
  Au  Au286  1  0.00076083  0.67955581  0.32426804  1
  Au  Au287  1  -0.00278981  0.33274651  0.82840166  1
