# generated using pymatgen
data_Ca24Ti8Al207Au49
_symmetry_space_group_name_H-M   'P 1'
_cell_length_a   17.32313784
_cell_length_b   17.32405495
_cell_length_c   17.32138159
_cell_angle_alpha   90.00162616
_cell_angle_beta   89.99877655
_cell_angle_gamma   89.99928107
_symmetry_Int_Tables_number   1
_chemical_formula_structural   Ca24Ti8Al207Au49
_chemical_formula_sum   'Ca24 Ti8 Al207 Au49'
_cell_volume   5198.26771782
_cell_formula_units_Z   1
loop_
 _symmetry_equiv_pos_site_id
 _symmetry_equiv_pos_as_xyz
  1  'x, y, z'
loop_
 _atom_site_type_symbol
 _atom_site_label
 _atom_site_symmetry_multiplicity
 _atom_site_fract_x
 _atom_site_fract_y
 _atom_site_fract_z
 _atom_site_occupancy
  Ca  Ca0  1  0.24250310  -0.00366880  0.00209353  1
  Ca  Ca1  1  0.24971980  0.00079399  0.49528036  1
  Ca  Ca2  1  0.24717815  0.50417725  -0.00546390  1
  Ca  Ca3  1  0.25094201  0.49812992  0.50515492  1
  Ca  Ca4  1  0.74936750  -0.00129294  0.00036165  1
  Ca  Ca5  1  0.74655100  0.00002817  0.49683091  1
  Ca  Ca6  1  0.75663771  0.50284686  -0.00584283  1
  Ca  Ca7  1  0.74884280  0.50000225  0.50561219  1
  Ca  Ca8  1  -0.00412745  0.24895561  -0.00375317  1
  Ca  Ca9  1  0.00073860  0.24622424  0.50039072  1
  Ca  Ca10  1  0.00216244  0.74877654  -0.00269997  1
  Ca  Ca11  1  0.00141141  0.74949216  0.49940908  1
  Ca  Ca12  1  0.50155310  0.25063198  -0.00347269  1
  Ca  Ca13  1  0.49924635  0.24599189  0.50237900  1
  Ca  Ca14  1  0.49978637  0.74786272  -0.00089527  1
  Ca  Ca15  1  0.49670373  0.74895963  0.50312979  1
  Ca  Ca16  1  0.00261730  -0.00141569  0.24987098  1
  Ca  Ca17  1  0.00665956  -0.00328057  0.74843550  1
  Ca  Ca18  1  -0.00191720  0.50535709  0.24809266  1
  Ca  Ca19  1  0.00127165  0.50534711  0.75333500  1
  Ca  Ca20  1  0.49995753  -0.00278654  0.25728575  1
  Ca  Ca21  1  0.49730228  0.00151773  0.74358360  1
  Ca  Ca22  1  0.50000459  0.50805714  0.25501173  1
  Ca  Ca23  1  0.49989210  0.49982939  0.74967213  1
  Ti  Ti24  1  0.24933049  0.24752131  0.25209547  1
  Ti  Ti25  1  0.25132799  0.24963121  0.74927101  1
  Ti  Ti26  1  0.24839272  0.75177991  0.25033809  1
  Ti  Ti27  1  0.24946723  0.75001319  0.75044793  1
  Ti  Ti28  1  0.75123223  0.24783473  0.25194355  1
  Ti  Ti29  1  0.74773913  0.25080787  0.74862380  1
  Ti  Ti30  1  0.75124862  0.75070810  0.24830726  1
  Ti  Ti31  1  0.75010270  0.74937645  0.75130597  1
  Al  Al32  1  0.08798540  0.07115259  0.08578935  1
  Al  Al33  1  0.09820934  0.08306424  0.58456202  1
  Al  Al34  1  0.07664606  0.58544058  0.07597241  1
  Al  Al35  1  0.08128597  0.58768306  0.59079733  1
  Al  Al36  1  0.58873905  0.07412398  0.08204180  1
  Al  Al37  1  0.58079191  0.09517065  0.58053885  1
  Al  Al38  1  0.57619149  0.59188623  0.07967516  1
  Al  Al39  1  0.57433781  0.58737820  0.58824031  1
  Al  Al40  1  0.42288935  0.43492646  0.07930095  1
  Al  Al41  1  0.41819556  0.41167588  0.59012972  1
  Al  Al42  1  0.41084578  0.91648514  0.08653642  1
  Al  Al43  1  0.42183271  0.91834498  0.58337701  1
  Al  Al44  1  0.91481410  0.41177615  0.08247148  1
  Al  Al45  1  0.92164649  0.41910575  0.58424179  1
  Al  Al46  1  0.91986862  0.91569902  0.08216769  1
  Al  Al47  1  0.92881846  0.91109537  0.58725231  1
  Al  Al48  1  0.40269277  0.08464588  0.41776488  1
  Al  Al49  1  0.42164435  0.08362897  0.90748973  1
  Al  Al50  1  0.41796697  0.58975923  0.41666283  1
  Al  Al51  1  0.41067499  0.58263586  0.91034056  1
  Al  Al52  1  0.90803768  0.07268941  0.41949317  1
  Al  Al53  1  0.92859415  0.08399105  0.92185751  1
  Al  Al54  1  0.92352537  0.58835757  0.40792224  1
  Al  Al55  1  0.91295433  0.59223794  0.91000579  1
  Al  Al56  1  0.08556035  0.42210693  0.42339066  1
  Al  Al57  1  0.08618199  0.43133460  0.91279565  1
  Al  Al58  1  0.08428266  0.91906904  0.40680100  1
  Al  Al59  1  0.09124176  0.91098178  0.90913473  1
  Al  Al60  1  0.57737414  0.41705278  0.42765560  1
  Al  Al61  1  0.58110977  0.41374127  0.90835572  1
  Al  Al62  1  0.58553031  0.92206097  0.41441262  1
  Al  Al63  1  0.57438903  0.90813866  0.91614699  1
  Al  Al64  1  0.10326981  0.08115674  0.42016893  1
  Al  Al65  1  0.08824720  0.07497288  0.90790782  1
  Al  Al66  1  0.08124838  0.58712713  0.41026172  1
  Al  Al67  1  0.08253965  0.59054882  0.90446548  1
  Al  Al68  1  0.59159012  0.08328555  0.41841796  1
  Al  Al69  1  0.57564374  0.09099574  0.91400757  1
  Al  Al70  1  0.57504905  0.59083640  0.41695974  1
  Al  Al71  1  0.58405054  0.58428614  0.91530948  1
  Al  Al72  1  0.41711704  0.42016361  0.42247874  1
  Al  Al73  1  0.41848877  0.42269144  0.89747724  1
  Al  Al74  1  0.41407210  0.92370451  0.41094540  1
  Al  Al75  1  0.41977988  0.91170866  0.91406811  1
  Al  Al76  1  0.91954861  0.42490431  0.42247364  1
  Al  Al77  1  0.91119652  0.42961038  0.92026795  1
  Al  Al78  1  0.92224303  0.91463982  0.40542790  1
  Al  Al79  1  0.92789555  0.90834706  0.91770048  1
  Al  Al80  1  0.06888799  0.41348399  0.08677816  1
  Al  Al81  1  0.08403426  0.41726568  0.58522013  1
  Al  Al82  1  0.09238837  0.91143231  0.08581075  1
  Al  Al83  1  0.08752518  0.91968115  0.59381179  1
  Al  Al84  1  0.58117979  0.42127478  0.07066940  1
  Al  Al85  1  0.57740857  0.40749693  0.58944790  1
  Al  Al86  1  0.58788740  0.91865122  0.08710552  1
  Al  Al87  1  0.57943699  0.91448574  0.58054222  1
  Al  Al88  1  0.41558647  0.06892990  0.08609466  1
  Al  Al89  1  0.41653030  0.09436408  0.58031385  1
  Al  Al90  1  0.41668573  0.59118279  0.08567912  1
  Al  Al91  1  0.41627945  0.58578039  0.58897016  1
  Al  Al92  1  0.91789242  0.07833836  0.08165781  1
  Al  Al93  1  0.92069823  0.08233115  0.57976061  1
  Al  Al94  1  0.91499452  0.58740086  0.07393523  1
  Al  Al95  1  0.92328529  0.58861058  0.58966539  1
  Al  Al96  1  0.24548728  0.13127946  0.13775831  1
  Al  Al97  1  0.24917284  0.13627308  0.62980738  1
  Al  Al98  1  0.24796613  0.63815886  0.13658024  1
  Al  Al99  1  0.24802145  0.63681152  0.63979196  1
  Al  Al100  1  0.75280442  0.13580514  0.13050894  1
  Al  Al101  1  0.74669805  0.13333362  0.63088063  1
  Al  Al102  1  0.75225898  0.63967946  0.12935971  1
  Al  Al103  1  0.74938636  0.63631016  0.63291742  1
  Al  Al104  1  0.25520639  0.36287430  0.13596206  1
  Al  Al105  1  0.25145110  0.36476154  0.63786415  1
  Al  Al106  1  0.24324024  0.86736074  0.13431870  1
  Al  Al107  1  0.24601452  0.86501334  0.63989986  1
  Al  Al108  1  0.74926417  0.36323260  0.13502738  1
  Al  Al109  1  0.74624569  0.36601691  0.62989177  1
  Al  Al110  1  0.75343612  0.86321678  0.12944768  1
  Al  Al111  1  0.74920047  0.86771010  0.64138363  1
  Al  Al112  1  0.25027664  0.12938745  0.36690056  1
  Al  Al113  1  0.24843721  0.13282282  0.86165608  1
  Al  Al114  1  0.24596894  0.63894958  0.36457206  1
  Al  Al115  1  0.24631336  0.63304155  0.86240479  1
  Al  Al116  1  0.74690259  0.13377852  0.37152587  1
  Al  Al117  1  0.74593503  0.13574222  0.86769203  1
  Al  Al118  1  0.75303494  0.63999102  0.37007766  1
  Al  Al119  1  0.75133079  0.63408314  0.86761475  1
  Al  Al120  1  0.24952844  0.36271491  0.36589429  1
  Al  Al121  1  0.25444379  0.36782724  0.86101875  1
  Al  Al122  1  0.24699300  0.86910497  0.36424787  1
  Al  Al123  1  0.24219022  0.86431006  0.86614222  1
  Al  Al124  1  0.75187963  0.36067178  0.37212555  1
  Al  Al125  1  0.74568700  0.36892812  0.86173308  1
  Al  Al126  1  0.74877793  0.86195724  0.36346832  1
  Al  Al127  1  0.75429009  0.86169100  0.86850466  1
  Al  Al128  1  0.13800768  0.25116433  0.13811531  1
  Al  Al129  1  0.13605180  0.24483801  0.63651362  1
  Al  Al130  1  0.13512539  0.75083551  0.12759190  1
  Al  Al131  1  0.13232051  0.75212659  0.63434808  1
  Al  Al132  1  0.63833408  0.24707293  0.12944929  1
  Al  Al133  1  0.63490279  0.25053996  0.63232147  1
  Al  Al134  1  0.63714180  0.75126480  0.12954382  1
  Al  Al135  1  0.62816524  0.74738100  0.63953524  1
  Al  Al136  1  0.13566292  0.24327091  0.36613701  1
  Al  Al137  1  0.13984309  0.24735877  0.86139488  1
  Al  Al138  1  0.12936543  0.75230085  0.36413129  1
  Al  Al139  1  0.13027936  0.74937465  0.86701908  1
  Al  Al140  1  0.63647961  0.24678831  0.37239030  1
  Al  Al141  1  0.63001403  0.25208716  0.86419081  1
  Al  Al142  1  0.63313325  0.74594534  0.36607726  1
  Al  Al143  1  0.63593814  0.74845961  0.86921357  1
  Al  Al144  1  0.36266957  0.24270747  0.13891050  1
  Al  Al145  1  0.36525954  0.24818440  0.63642012  1
  Al  Al146  1  0.36199990  0.75402310  0.13571604  1
  Al  Al147  1  0.36978526  0.74992231  0.63901261  1
  Al  Al148  1  0.86709978  0.25147090  0.13594278  1
  Al  Al149  1  0.86004271  0.24918367  0.62860056  1
  Al  Al150  1  0.86789440  0.74966078  0.12810612  1
  Al  Al151  1  0.86363895  0.74896959  0.63469749  1
  Al  Al152  1  0.36259886  0.24384992  0.36793827  1
  Al  Al153  1  0.37143535  0.24955978  0.86102121  1
  Al  Al154  1  0.36489382  0.74979369  0.36539344  1
  Al  Al155  1  0.36312396  0.75265316  0.86471666  1
  Al  Al156  1  0.86507512  0.24694948  0.37169765  1
  Al  Al157  1  0.86127403  0.24694866  0.86193859  1
  Al  Al158  1  0.87077745  0.74931983  0.36435066  1
  Al  Al159  1  0.87063883  0.74708639  0.86796256  1
  Al  Al160  1  0.13618382  0.12666031  0.25235494  1
  Al  Al161  1  0.13855137  0.12771262  0.74590538  1
  Al  Al162  1  0.12798376  0.63979961  0.24980822  1
  Al  Al163  1  0.13242426  0.63504490  0.75443214  1
  Al  Al164  1  0.63888482  0.13556935  0.25385239  1
  Al  Al165  1  0.63541076  0.13513107  0.74836228  1
  Al  Al166  1  0.63790503  0.63735302  0.25074096  1
  Al  Al167  1  0.63664647  0.63034380  0.75201219  1
  Al  Al168  1  0.36164210  0.12918701  0.25515433  1
  Al  Al169  1  0.36541626  0.13229650  0.75060250  1
  Al  Al170  1  0.36398448  0.63744862  0.25441329  1
  Al  Al171  1  0.36561028  0.63488273  0.75236976  1
  Al  Al172  1  0.86541053  0.13565997  0.25228701  1
  Al  Al173  1  0.86240859  0.13482775  0.74362463  1
  Al  Al174  1  0.86599302  0.63842163  0.24880019  1
  Al  Al175  1  0.86553934  0.63310421  0.75734895  1
  Al  Al176  1  0.13471572  0.36173254  0.24957514  1
  Al  Al177  1  0.13557052  0.36415689  0.75186311  1
  Al  Al178  1  0.13521081  0.86821028  0.25165720  1
  Al  Al179  1  0.12968266  0.86114658  0.75136867  1
  Al  Al180  1  0.63790358  0.35701462  0.25326229  1
  Al  Al181  1  0.63009473  0.36633548  0.74854168  1
  Al  Al182  1  0.63355629  0.86278673  0.25283364  1
  Al  Al183  1  0.62864356  0.86120502  0.75054594  1
  Al  Al184  1  0.36250129  0.36316595  0.25500124  1
  Al  Al185  1  0.37173020  0.36263185  0.74898866  1
  Al  Al186  1  0.36454098  0.86680181  0.25418058  1
  Al  Al187  1  0.37053005  0.86427776  0.75126448  1
  Al  Al188  1  0.86448916  0.36288558  0.24931084  1
  Al  Al189  1  0.85995426  0.36496874  0.74995329  1
  Al  Al190  1  0.86792964  0.86259612  0.25146385  1
  Al  Al191  1  0.87222761  0.86060303  0.75117593  1
  Al  Al192  1  0.49877299  0.33211981  0.17163161  1
  Al  Al193  1  0.31709433  0.67348643  -0.00135803  1
  Al  Al194  1  0.32640169  0.50259676  0.18184894  1
  Al  Al195  1  0.81992881  0.32198532  -0.00279718  1
  Al  Al196  1  0.49974569  0.68332090  0.18933593  1
  Al  Al197  1  0.82883267  0.82294747  0.49887602  1
  Al  Al198  1  -0.00214909  0.32858475  0.83346098  1
  Al  Al199  1  0.33276341  0.33368639  -0.00262159  1
  Al  Al200  1  0.17205484  0.17083368  -0.00080918  1
  Al  Al201  1  0.49983523  0.82267819  0.32287242  1
  Al  Al202  1  0.31579411  0.82969169  -0.00032640  1
  Al  Al203  1  0.17614453  0.49884963  0.16636734  1
  Al  Al204  1  0.32909234  0.17093141  -0.00116673  1
  Al  Al205  1  0.50028743  0.18927987  0.68742080  1
  Al  Al206  1  0.31352648  -0.00423028  0.82850829  1
  Al  Al207  1  0.66694685  -0.00265691  0.82260759  1
  Al  Al208  1  0.18237631  0.50028228  0.32578630  1
  Al  Al209  1  0.50010331  0.16978755  0.33183586  1
  Al  Al210  1  -0.00101515  0.69286876  0.69278531  1
  Al  Al211  1  0.32481078  0.31510464  0.50148762  1
  Al  Al212  1  0.83129225  0.00005767  0.82365516  1
  Al  Al213  1  0.32072727  0.67476552  0.50343555  1
  Al  Al214  1  0.00262900  0.82312974  0.18347298  1
  Al  Al215  1  0.17276941  0.31457726  0.50140278  1
  Al  Al216  1  0.81062146  -0.00151562  0.31714882  1
  Al  Al217  1  0.67496957  0.82195374  0.50177622  1
  Al  Al218  1  0.67188075  0.49738272  0.32981880  1
  Al  Al219  1  0.00113403  0.16809021  0.33297601  1
  Al  Al220  1  0.49991048  0.32407479  0.32946753  1
  Al  Al221  1  0.82925991  0.50122663  0.17116739  1
  Al  Al222  1  0.82219720  0.50109005  0.68378819  1
  Al  Al223  1  0.50122938  0.16953306  0.17579280  1
  Al  Al224  1  0.67164798  0.50301040  0.16973464  1
  Al  Al225  1  0.32841122  0.82821175  0.50096935  1
  Al  Al226  1  0.31495991  0.00115707  0.66854956  1
  Al  Al227  1  0.68360738  -0.00118239  0.19075920  1
  Al  Al228  1  -0.00021603  0.33073151  0.31956514  1
  Al  Al229  1  0.16908566  0.33086842  -0.00091011  1
  Al  Al230  1  0.17381972  0.49999282  0.68495797  1
  Al  Al231  1  0.00208666  0.17451665  0.81601416  1
  Al  Al232  1  0.49974972  0.68418570  0.81572723  1
  Al  Al233  1  0.00340652  0.18294390  0.17117094  1
  Al  Al234  1  0.32699198  0.49923642  0.68520407  1
  Al  Al235  1  0.82623596  0.50067285  0.32464809  1
  Al  Al236  1  0.31082446  -0.00222584  0.18785671  1
  Al  Al237  1  -0.00117786  0.31668349  0.67458252  1
  Al  Al238  1  0.17250198  0.82671574  0.50069658  1
  Au  Au239  1  -0.00827755  0.34167951  0.82534562  1
  Au  Au240  1  0.50141826  0.82001722  0.33526323  1
  Au  Au241  1  0.82251926  0.16341093  0.50052301  1
  Au  Au242  1  0.49873318  0.67273637  0.82827164  1
  Au  Au243  1  0.50069242  0.82801268  0.16357318  1
  Au  Au244  1  0.33078578  -0.00462265  0.82899973  1
  Au  Au245  1  0.67156733  0.33253733  -0.00452043  1
  Au  Au246  1  0.00195137  0.15496896  0.34141094  1
  Au  Au247  1  0.83623859  -0.00422201  0.66366066  1
  Au  Au248  1  0.65157250  -0.00240726  0.82766186  1
  Au  Au249  1  0.66776737  0.00351115  0.65555155  1
  Au  Au250  1  0.00495785  0.16575747  0.66563015  1
  Au  Au251  1  0.50035970  0.32035363  0.81771380  1
  Au  Au252  1  0.17125858  0.66225032  0.49999712  1
  Au  Au253  1  0.16678425  0.67188823  -0.00442778  1
  Au  Au254  1  -0.00423374  0.66803217  0.17396295  1
  Au  Au255  1  0.16890098  0.83795143  0.49641240  1
  Au  Au256  1  0.83571930  0.17290295  -0.00272982  1
  Au  Au257  1  0.00229218  0.81905403  0.82044367  1
  Au  Au258  1  0.67229257  0.50199525  0.34600127  1
  Au  Au259  1  0.33456688  0.50277124  0.33197056  1
  Au  Au260  1  0.32850706  0.32735953  0.50116194  1
  Au  Au261  1  0.16097197  0.49765981  0.17389113  1
  Au  Au262  1  0.83369736  0.33312405  0.50073896  1
  Au  Au263  1  0.83808649  0.50095667  0.67799778  1
  Au  Au264  1  0.83263152  0.83860220  0.49870208  1
  Au  Au265  1  0.82905133  -0.00112918  0.17095682  1
  Au  Au266  1  0.00648106  0.17354351  0.15770637  1
  Au  Au267  1  0.67608953  0.50091199  0.83464531  1
  Au  Au268  1  0.32287399  0.00326520  0.65436216  1
  Au  Au269  1  0.66688425  0.16637316  -0.00108322  1
  Au  Au270  1  0.49973320  0.82730361  0.67378570  1
  Au  Au271  1  0.15329532  0.32415271  0.00004149  1
  Au  Au272  1  0.00142135  0.34662524  0.32476053  1
  Au  Au273  1  0.67689262  0.50533464  0.15398554  1
  Au  Au274  1  0.32850853  0.82764163  -0.00221308  1
  Au  Au275  1  0.84328938  -0.00026749  0.83488266  1
  Au  Au276  1  0.49850239  0.34740563  0.17888426  1
  Au  Au277  1  0.66933914  0.83326966  -0.00139873  1
  Au  Au278  1  0.50004650  0.15338377  0.17493285  1
  Au  Au279  1  0.65908550  0.49952066  0.66934608  1
  Au  Au280  1  0.83392419  0.66020554  0.49855853  1
  Au  Au281  1  0.67658597  0.66741522  -0.00114151  1
  Au  Au282  1  0.65773572  0.67468024  0.50494247  1
  Au  Au283  1  0.83671684  0.82273720  -0.00164674  1
  Au  Au284  1  0.66200563  0.32118696  0.50238861  1
  Au  Au285  1  0.33609171  0.35015657  -0.00400757  1
  Au  Au286  1  0.00259059  0.82778296  0.17178265  1
  Au  Au287  1  0.32756262  0.15462942  0.00292035  1
