# generated using pymatgen
data_Ca24Ti8Al207Au49
_symmetry_space_group_name_H-M   'P 1'
_cell_length_a   17.31666102
_cell_length_b   17.31780254
_cell_length_c   17.31933441
_cell_angle_alpha   89.99680465
_cell_angle_beta   89.99839943
_cell_angle_gamma   89.99996250
_symmetry_Int_Tables_number   1
_chemical_formula_structural   Ca24Ti8Al207Au49
_chemical_formula_sum   'Ca24 Ti8 Al207 Au49'
_cell_volume   5193.83484879
_cell_formula_units_Z   1
loop_
 _symmetry_equiv_pos_site_id
 _symmetry_equiv_pos_as_xyz
  1  'x, y, z'
loop_
 _atom_site_type_symbol
 _atom_site_label
 _atom_site_symmetry_multiplicity
 _atom_site_fract_x
 _atom_site_fract_y
 _atom_site_fract_z
 _atom_site_occupancy
  Ca  Ca0  1  0.24564331  0.00354118  0.00054364  1
  Ca  Ca1  1  0.24221528  -0.00143105  0.50068148  1
  Ca  Ca2  1  0.24462174  0.49483973  0.00184621  1
  Ca  Ca3  1  0.24427708  0.49957125  0.49830855  1
  Ca  Ca4  1  0.74722816  0.00385064  -0.00060171  1
  Ca  Ca5  1  0.74997210  0.00436363  0.50174685  1
  Ca  Ca6  1  0.75183087  0.49508243  -0.00198648  1
  Ca  Ca7  1  0.75665547  0.49678182  0.49938364  1
  Ca  Ca8  1  0.00251567  0.25137033  0.00335672  1
  Ca  Ca9  1  -0.00529780  0.25508554  0.49586270  1
  Ca  Ca10  1  -0.00058348  0.75109070  0.00379692  1
  Ca  Ca11  1  -0.00147304  0.74640209  0.49478796  1
  Ca  Ca12  1  0.49887380  0.25121705  0.00005294  1
  Ca  Ca13  1  0.50232745  0.25055050  0.50075757  1
  Ca  Ca14  1  0.50221275  0.75193379  -0.00305404  1
  Ca  Ca15  1  0.50009526  0.75229298  0.50200187  1
  Ca  Ca16  1  0.00022940  0.00286118  0.25356059  1
  Ca  Ca17  1  0.00155706  0.00195952  0.74646105  1
  Ca  Ca18  1  0.00010033  0.49680300  0.25299534  1
  Ca  Ca19  1  -0.00137577  0.49492729  0.74625633  1
  Ca  Ca20  1  0.50146974  0.00214596  0.24763310  1
  Ca  Ca21  1  0.50095581  0.00148564  0.75279385  1
  Ca  Ca22  1  0.49954081  0.49585790  0.25504763  1
  Ca  Ca23  1  0.50122574  0.49888487  0.75491057  1
  Ti  Ti24  1  0.24826499  0.25087998  0.24983526  1
  Ti  Ti25  1  0.24809256  0.25035289  0.75029531  1
  Ti  Ti26  1  0.24716533  0.75042590  0.25072926  1
  Ti  Ti27  1  0.25112479  0.75212279  0.75015938  1
  Ti  Ti28  1  0.75146195  0.25139835  0.24954696  1
  Ti  Ti29  1  0.75074537  0.25049913  0.75040004  1
  Ti  Ti30  1  0.75275563  0.74836423  0.25040973  1
  Ti  Ti31  1  0.75001407  0.74891204  0.75059055  1
  Al  Al32  1  0.08216683  0.08968710  0.08976277  1
  Al  Al33  1  0.08478384  0.08031522  0.58455511  1
  Al  Al34  1  0.08036185  0.57915035  0.08633708  1
  Al  Al35  1  0.07045361  0.57093088  0.57062381  1
  Al  Al36  1  0.58650608  0.08520463  0.07091561  1
  Al  Al37  1  0.58896835  0.08576533  0.57481485  1
  Al  Al38  1  0.58690068  0.58221713  0.07411248  1
  Al  Al39  1  0.58640715  0.58115911  0.58282405  1
  Al  Al40  1  0.41242345  0.41475601  0.08458725  1
  Al  Al41  1  0.41540211  0.42553004  0.58409637  1
  Al  Al42  1  0.41896318  0.92351801  0.07924068  1
  Al  Al43  1  0.41483569  0.91175492  0.59922237  1
  Al  Al44  1  0.92369784  0.41055460  0.09011837  1
  Al  Al45  1  0.90841455  0.40705309  0.58663726  1
  Al  Al46  1  0.92245921  0.91131866  0.08694094  1
  Al  Al47  1  0.92459366  0.92131663  0.57413820  1
  Al  Al48  1  0.41812887  0.07711332  0.41277559  1
  Al  Al49  1  0.41810989  0.08366727  0.91681796  1
  Al  Al50  1  0.41904755  0.57756010  0.42170797  1
  Al  Al51  1  0.41104494  0.57315910  0.91381573  1
  Al  Al52  1  0.91519390  0.09989943  0.41530191  1
  Al  Al53  1  0.91636333  0.08699515  0.92152389  1
  Al  Al54  1  0.91551188  0.57975637  0.41260741  1
  Al  Al55  1  0.91889345  0.57702914  0.91408367  1
  Al  Al56  1  0.07620671  0.41794014  0.40891593  1
  Al  Al57  1  0.08569466  0.40522744  0.91306340  1
  Al  Al58  1  0.09289404  0.91645458  0.41508772  1
  Al  Al59  1  0.08697838  0.92367422  0.91698116  1
  Al  Al60  1  0.58534418  0.40794543  0.41432452  1
  Al  Al61  1  0.59034639  0.41868882  0.91667628  1
  Al  Al62  1  0.58624637  0.92460334  0.42676598  1
  Al  Al63  1  0.59549934  0.92029547  0.91092358  1
  Al  Al64  1  0.08300695  0.08204200  0.41101291  1
  Al  Al65  1  0.08735947  0.08428381  0.91644389  1
  Al  Al66  1  0.07932751  0.58131771  0.40338573  1
  Al  Al67  1  0.07863596  0.57631504  0.91731343  1
  Al  Al68  1  0.59253694  0.08872896  0.41821144  1
  Al  Al69  1  0.59105543  0.08401265  0.91172085  1
  Al  Al70  1  0.58289129  0.57742030  0.41978978  1
  Al  Al71  1  0.60046276  0.57941451  0.91592505  1
  Al  Al72  1  0.42246053  0.41339083  0.40897520  1
  Al  Al73  1  0.41025529  0.41620059  0.91451186  1
  Al  Al74  1  0.41263354  0.92263658  0.41839004  1
  Al  Al75  1  0.41772936  0.92323911  0.91593281  1
  Al  Al76  1  0.91218105  0.41053013  0.41372799  1
  Al  Al77  1  0.92355626  0.40895281  0.90741997  1
  Al  Al78  1  0.92168657  0.91831981  0.41620751  1
  Al  Al79  1  0.91677810  0.91911207  0.92214280  1
  Al  Al80  1  0.08521889  0.40479845  0.08708215  1
  Al  Al81  1  0.07064530  0.40989134  0.58486267  1
  Al  Al82  1  0.08191923  0.91537640  0.08868677  1
  Al  Al83  1  0.09419356  0.91732075  0.57945128  1
  Al  Al84  1  0.58351028  0.41541769  0.08127738  1
  Al  Al85  1  0.59015147  0.41615654  0.57941853  1
  Al  Al86  1  0.58929961  0.91941014  0.06968061  1
  Al  Al87  1  0.57670565  0.90830966  0.58589919  1
  Al  Al88  1  0.41758166  0.08250657  0.07863798  1
  Al  Al89  1  0.41135288  0.06875985  0.58973952  1
  Al  Al90  1  0.41664798  0.57066839  0.08050788  1
  Al  Al91  1  0.41291588  0.58018994  0.58344786  1
  Al  Al92  1  0.92064371  0.09043320  0.08549215  1
  Al  Al93  1  0.91266945  0.09884515  0.57380041  1
  Al  Al94  1  0.91901672  0.58011640  0.08852533  1
  Al  Al95  1  0.91008607  0.57183159  0.58088387  1
  Al  Al96  1  0.24466650  0.12847971  0.13963120  1
  Al  Al97  1  0.24647569  0.13354145  0.63624888  1
  Al  Al98  1  0.24521396  0.63586691  0.13890829  1
  Al  Al99  1  0.25049512  0.63718887  0.63674128  1
  Al  Al100  1  0.75191238  0.13816086  0.13116571  1
  Al  Al101  1  0.75213276  0.13651414  0.63290669  1
  Al  Al102  1  0.75524678  0.63329327  0.13731131  1
  Al  Al103  1  0.74882391  0.63239482  0.63502782  1
  Al  Al104  1  0.24509340  0.36364072  0.13684737  1
  Al  Al105  1  0.24774621  0.36375008  0.63365849  1
  Al  Al106  1  0.24784483  0.87335886  0.13822342  1
  Al  Al107  1  0.24985781  0.87309337  0.63810318  1
  Al  Al108  1  0.75244295  0.36298098  0.13760826  1
  Al  Al109  1  0.75594311  0.36740486  0.63256726  1
  Al  Al110  1  0.74834200  0.86591954  0.13494550  1
  Al  Al111  1  0.75418188  0.86727176  0.63655691  1
  Al  Al112  1  0.24498923  0.13753590  0.36297521  1
  Al  Al113  1  0.24702124  0.13679903  0.86407135  1
  Al  Al114  1  0.24610894  0.62834555  0.36281446  1
  Al  Al115  1  0.25319110  0.63295393  0.86239389  1
  Al  Al116  1  0.75497798  0.14160713  0.36813013  1
  Al  Al117  1  0.75108014  0.13807306  0.87114791  1
  Al  Al118  1  0.75331980  0.62600518  0.36326485  1
  Al  Al119  1  0.74958962  0.63019089  0.86384778  1
  Al  Al120  1  0.24520326  0.37229309  0.36313965  1
  Al  Al121  1  0.24896175  0.36560656  0.86368285  1
  Al  Al122  1  0.24289208  0.86565354  0.36723826  1
  Al  Al123  1  0.25470898  0.86781660  0.86339044  1
  Al  Al124  1  0.75391300  0.36848374  0.36596316  1
  Al  Al125  1  0.74882252  0.36642044  0.86291780  1
  Al  Al126  1  0.75650143  0.86311093  0.36429934  1
  Al  Al127  1  0.74330102  0.86801173  0.86787088  1
  Al  Al128  1  0.13612973  0.24763778  0.13271192  1
  Al  Al129  1  0.13045536  0.25331213  0.63594718  1
  Al  Al130  1  0.13332940  0.75351707  0.13898890  1
  Al  Al131  1  0.14144406  0.75598752  0.63143360  1
  Al  Al132  1  0.63083891  0.25003272  0.13789337  1
  Al  Al133  1  0.63752518  0.24938650  0.63586246  1
  Al  Al134  1  0.63478627  0.75235234  0.13617526  1
  Al  Al135  1  0.63492640  0.74934795  0.63768629  1
  Al  Al136  1  0.12753489  0.25388470  0.36067880  1
  Al  Al137  1  0.13475409  0.25237457  0.87136372  1
  Al  Al138  1  0.13387833  0.74876633  0.36302478  1
  Al  Al139  1  0.13813707  0.75339862  0.86316530  1
  Al  Al140  1  0.63724540  0.25097399  0.36638057  1
  Al  Al141  1  0.63572459  0.25045030  0.86527125  1
  Al  Al142  1  0.64010128  0.74733741  0.36454689  1
  Al  Al143  1  0.63437833  0.75033679  0.86525273  1
  Al  Al144  1  0.36845486  0.25187602  0.13706522  1
  Al  Al145  1  0.36391266  0.25490458  0.63936263  1
  Al  Al146  1  0.36339950  0.75643647  0.13577283  1
  Al  Al147  1  0.36441848  0.75604781  0.63847843  1
  Al  Al148  1  0.86726322  0.24827928  0.13638090  1
  Al  Al149  1  0.86718816  0.25211232  0.63356060  1
  Al  Al150  1  0.86757345  0.75075333  0.13603499  1
  Al  Al151  1  0.86318989  0.75043508  0.63562568  1
  Al  Al152  1  0.36395217  0.25601997  0.36271062  1
  Al  Al153  1  0.36328782  0.25081762  0.86421485  1
  Al  Al154  1  0.36040260  0.75286974  0.36398053  1
  Al  Al155  1  0.36819897  0.75386250  0.86267625  1
  Al  Al156  1  0.87036350  0.25538071  0.36428428  1
  Al  Al157  1  0.86524664  0.25190752  0.86342577  1
  Al  Al158  1  0.87017918  0.74557229  0.36222828  1
  Al  Al159  1  0.86136052  0.75064945  0.86576296  1
  Al  Al160  1  0.12848468  0.13531914  0.25062772  1
  Al  Al161  1  0.13127446  0.13598244  0.74563868  1
  Al  Al162  1  0.13155198  0.62936406  0.25317990  1
  Al  Al163  1  0.13535018  0.63686460  0.75095372  1
  Al  Al164  1  0.63648484  0.13702538  0.25241168  1
  Al  Al165  1  0.63951829  0.13294130  0.75443091  1
  Al  Al166  1  0.63774292  0.63338862  0.24953092  1
  Al  Al167  1  0.63285791  0.63311228  0.75374855  1
  Al  Al168  1  0.36675210  0.13639801  0.25039581  1
  Al  Al169  1  0.36129750  0.13086984  0.74745274  1
  Al  Al170  1  0.36180816  0.63583276  0.25132176  1
  Al  Al171  1  0.36830085  0.63652713  0.75257920  1
  Al  Al172  1  0.87143540  0.13833418  0.25309068  1
  Al  Al173  1  0.86613752  0.13545549  0.74752731  1
  Al  Al174  1  0.86878211  0.62891381  0.25290662  1
  Al  Al175  1  0.86405192  0.63216013  0.74743553  1
  Al  Al176  1  0.13343537  0.37017764  0.25052406  1
  Al  Al177  1  0.12923795  0.36260846  0.75310283  1
  Al  Al178  1  0.13455789  0.87152820  0.25017275  1
  Al  Al179  1  0.13548610  0.86803935  0.74903727  1
  Al  Al180  1  0.63203207  0.36459439  0.25133981  1
  Al  Al181  1  0.63312949  0.36373921  0.74910319  1
  Al  Al182  1  0.63690377  0.86428790  0.25100445  1
  Al  Al183  1  0.63607119  0.86517531  0.74859914  1
  Al  Al184  1  0.36739847  0.36519379  0.24991225  1
  Al  Al185  1  0.36826520  0.36576419  0.75509066  1
  Al  Al186  1  0.36320970  0.86683052  0.25094276  1
  Al  Al187  1  0.36557532  0.87450550  0.74805233  1
  Al  Al188  1  0.86756725  0.36800394  0.25412604  1
  Al  Al189  1  0.86804852  0.36393496  0.74685118  1
  Al  Al190  1  0.86828371  0.86606444  0.24636165  1
  Al  Al191  1  0.86379090  0.86700756  0.75560465  1
  Al  Al192  1  0.00183682  0.81877738  0.31572565  1
  Al  Al193  1  -0.00022992  0.66840227  0.66976490  1
  Al  Al194  1  0.68048654  0.50186988  0.17654917  1
  Al  Al195  1  0.32095605  0.50072881  0.68879407  1
  Al  Al196  1  0.49841747  0.68242695  0.67593251  1
  Al  Al197  1  0.81951790  0.49780700  0.81307219  1
  Al  Al198  1  0.31908177  0.17533586  0.00180575  1
  Al  Al199  1  0.50113336  0.83129990  0.32506117  1
  Al  Al200  1  0.68015841  0.00076353  0.32590550  1
  Al  Al201  1  0.17734807  0.82788895  0.00127057  1
  Al  Al202  1  0.32738572  0.67526002  0.00123261  1
  Al  Al203  1  0.31190570  0.83305844  0.50187118  1
  Al  Al204  1  0.81369860  0.00167494  0.82395229  1
  Al  Al205  1  0.50065090  0.18417003  0.32391643  1
  Al  Al206  1  0.83051102  0.00191451  0.17877589  1
  Al  Al207  1  0.68129288  0.82022486  0.50170396  1
  Al  Al208  1  0.32199698  0.33085179  0.49901377  1
  Al  Al209  1  0.67647332  0.31521330  0.00149861  1
  Al  Al210  1  0.69153127  0.31288456  0.50037180  1
  Al  Al211  1  0.50027236  0.17949437  0.82523556  1
  Al  Al212  1  0.81053217  0.81918530  0.00090577  1
  Al  Al213  1  0.16608089  0.67997698  0.49896840  1
  Al  Al214  1  0.18253707  0.49912377  0.82391800  1
  Al  Al215  1  0.00074887  0.18773075  0.82056507  1
  Al  Al216  1  0.49911212  0.67429295  0.32773913  1
  Al  Al217  1  0.82951198  0.32428740  -0.00040429  1
  Al  Al218  1  0.00129528  0.82582602  0.67610462  1
  Al  Al219  1  0.17003219  0.18031055  0.49862141  1
  Al  Al220  1  0.82126752  0.67802467  0.49903156  1
  Al  Al221  1  0.16895837  0.67399832  0.00007858  1
  Al  Al222  1  0.67306786  0.00258031  0.17113812  1
  Al  Al223  1  0.16831926  0.49936827  0.66851240  1
  Al  Al224  1  -0.00060484  0.67860734  0.82545380  1
  Al  Al225  1  0.68577762  0.49875141  0.68706671  1
  Al  Al226  1  0.50144172  0.82486332  0.81645537  1
  Al  Al227  1  0.31016134  0.00078986  0.32095849  1
  Al  Al228  1  0.49830793  0.67273302  0.16845847  1
  Al  Al229  1  0.50048338  0.17805766  0.66841114  1
  Al  Al230  1  0.32813101  0.16929616  0.50177788  1
  Al  Al231  1  0.32340004  0.67572772  0.49896061  1
  Al  Al232  1  0.00153444  0.30652884  0.19247566  1
  Al  Al233  1  0.68332742  0.68837207  0.00100746  1
  Al  Al234  1  0.18062185  0.00219412  0.81310934  1
  Al  Al235  1  0.31498882  0.32671905  0.00106204  1
  Al  Al236  1  0.31572362  0.49918722  0.18342315  1
  Al  Al237  1  0.67611541  0.00013012  0.67960680  1
  Al  Al238  1  0.00099795  0.68384656  0.18776926  1
  Au  Au239  1  0.16794758  0.49715094  0.17099957  1
  Au  Au240  1  0.82957300  0.83035075  0.49943439  1
  Au  Au241  1  0.32518574  0.84072645  0.00018183  1
  Au  Au242  1  0.17067572  0.49922319  0.82885159  1
  Au  Au243  1  0.32841867  0.50128971  0.33169617  1
  Au  Au244  1  0.50104428  0.17554227  0.33849053  1
  Au  Au245  1  0.00100461  0.17592099  0.83270570  1
  Au  Au246  1  0.33426612  0.32857652  0.50065867  1
  Au  Au247  1  0.32121773  0.15286962  0.50191213  1
  Au  Au248  1  0.82608628  0.17611281  0.00276134  1
  Au  Au249  1  0.50246712  0.83832347  0.82652095  1
  Au  Au250  1  0.33522273  0.00281687  0.17579434  1
  Au  Au251  1  0.00579146  0.82421389  0.65981067  1
  Au  Au252  1  0.50538871  0.83000675  0.34139869  1
  Au  Au253  1  0.16103495  0.00177746  0.17929297  1
  Au  Au254  1  0.67378981  0.49875724  0.67474664  1
  Au  Au255  1  0.83963566  0.00498430  0.66071155  1
  Au  Au256  1  0.32777626  0.00499208  0.82404058  1
  Au  Au257  1  0.49894017  0.33831376  0.17544934  1
  Au  Au258  1  0.82739922  0.00212420  0.83443312  1
  Au  Au259  1  0.00078819  0.17958647  0.65887798  1
  Au  Au260  1  0.67050620  0.67027528  0.49655881  1
  Au  Au261  1  0.15698893  0.33102686  0.49580846  1
  Au  Au262  1  0.00291626  0.82733877  0.84216283  1
  Au  Au263  1  0.49730664  0.67485922  0.66081370  1
  Au  Au264  1  0.83704277  0.49481945  0.17745860  1
  Au  Au265  1  0.00440011  0.83000384  0.32796753  1
  Au  Au266  1  0.00148789  0.17915511  0.32189805  1
  Au  Au267  1  0.17050533  0.17455991  0.00258825  1
  Au  Au268  1  0.00112070  0.67645265  0.17250963  1
  Au  Au269  1  0.49827921  0.16137899  0.67060353  1
  Au  Au270  1  0.82417838  0.82911622  0.00303029  1
  Au  Au271  1  0.66369473  -0.00193803  0.66858711  1
  Au  Au272  1  0.50357912  0.65738953  0.83822400  1
  Au  Au273  1  0.67311511  0.49737060  0.33349647  1
  Au  Au274  1  0.82822089  0.00065515  0.16632886  1
  Au  Au275  1  0.82738968  0.65651403  -0.00059057  1
  Au  Au276  1  0.82678218  0.00601768  0.34270733  1
  Au  Au277  1  0.50580322  0.83576425  0.15678498  1
  Au  Au278  1  0.50355625  0.16977231  0.15966572  1
  Au  Au279  1  0.32875858  0.83194770  0.50482263  1
  Au  Au280  1  0.16492184  0.66307035  0.49798504  1
  Au  Au281  1  0.50214811  0.33077115  0.83837369  1
  Au  Au282  1  0.32124105  0.65932279  0.00114258  1
  Au  Au283  1  0.49842141  0.65668407  0.17408313  1
  Au  Au284  1  0.67203446  0.49960622  0.16763297  1
  Au  Au285  1  0.49910815  0.33988212  0.66833308  1
  Au  Au286  1  0.67508714  0.31852722  0.49958488  1
  Au  Au287  1  0.83141934  0.49504796  0.82408754  1
