# generated using pymatgen
data_Ca24Ti8Al207Au49
_symmetry_space_group_name_H-M   'P 1'
_cell_length_a   17.32244687
_cell_length_b   17.32039057
_cell_length_c   17.31924439
_cell_angle_alpha   90.00127967
_cell_angle_beta   89.99972087
_cell_angle_gamma   90.00053416
_symmetry_Int_Tables_number   1
_chemical_formula_structural   Ca24Ti8Al207Au49
_chemical_formula_sum   'Ca24 Ti8 Al207 Au49'
_cell_volume   5196.31965436
_cell_formula_units_Z   1
loop_
 _symmetry_equiv_pos_site_id
 _symmetry_equiv_pos_as_xyz
  1  'x, y, z'
loop_
 _atom_site_type_symbol
 _atom_site_label
 _atom_site_symmetry_multiplicity
 _atom_site_fract_x
 _atom_site_fract_y
 _atom_site_fract_z
 _atom_site_occupancy
  Ca  Ca0  1  0.26029471  -0.00329006  0.00704598  1
  Ca  Ca1  1  0.25530678  -0.00233144  0.49432318  1
  Ca  Ca2  1  0.25864854  0.50350003  0.00462790  1
  Ca  Ca3  1  0.25150827  0.50142766  0.49776184  1
  Ca  Ca4  1  0.74355686  0.00195210  0.00133882  1
  Ca  Ca5  1  0.75138153  0.00315736  0.49569388  1
  Ca  Ca6  1  0.74579549  0.49991129  0.00871664  1
  Ca  Ca7  1  0.74594414  0.49767073  0.49724352  1
  Ca  Ca8  1  -0.00181478  0.24793845  0.00233474  1
  Ca  Ca9  1  -0.00256865  0.24792295  0.49799187  1
  Ca  Ca10  1  0.00072229  0.75220680  0.00511726  1
  Ca  Ca11  1  -0.00072358  0.74778574  0.49586704  1
  Ca  Ca12  1  0.50059106  0.25146011  0.00755079  1
  Ca  Ca13  1  0.50254878  0.24893000  0.49741819  1
  Ca  Ca14  1  0.49729842  0.74886109  0.00388430  1
  Ca  Ca15  1  0.50188596  0.74997529  0.49561082  1
  Ca  Ca16  1  0.00280212  -0.00240091  0.24918247  1
  Ca  Ca17  1  -0.00203250  0.00001831  0.74829339  1
  Ca  Ca18  1  0.00137010  0.50184472  0.25009438  1
  Ca  Ca19  1  0.00674809  0.50082130  0.74456052  1
  Ca  Ca20  1  0.50040592  -0.00253033  0.24631121  1
  Ca  Ca21  1  0.50196903  -0.00250114  0.75125058  1
  Ca  Ca22  1  0.49805600  0.49981980  0.24587821  1
  Ca  Ca23  1  0.49266145  0.50537237  0.75282327  1
  Ti  Ti24  1  0.25023198  0.25280923  0.24915510  1
  Ti  Ti25  1  0.25368661  0.25028346  0.74907264  1
  Ti  Ti26  1  0.25053266  0.74728306  0.24934854  1
  Ti  Ti27  1  0.25160462  0.74991060  0.75070314  1
  Ti  Ti28  1  0.74946787  0.24856391  0.25022807  1
  Ti  Ti29  1  0.74784031  0.24826617  0.74903879  1
  Ti  Ti30  1  0.74850801  0.75086806  0.24907690  1
  Ti  Ti31  1  0.74703601  0.75293827  0.75153834  1
  Al  Al32  1  0.08319794  0.07539618  0.08634499  1
  Al  Al33  1  0.07502024  0.09306355  0.57824998  1
  Al  Al34  1  0.08798665  0.58575154  0.08719184  1
  Al  Al35  1  0.08506440  0.57460263  0.58694858  1
  Al  Al36  1  0.58167773  0.09145578  0.08509768  1
  Al  Al37  1  0.58243146  0.09425742  0.58248131  1
  Al  Al38  1  0.57888876  0.58859525  0.09976257  1
  Al  Al39  1  0.57405186  0.59217029  0.58187778  1
  Al  Al40  1  0.41141463  0.41281451  0.09351300  1
  Al  Al41  1  0.41798597  0.42395085  0.58476951  1
  Al  Al42  1  0.41711284  0.91325133  0.09213163  1
  Al  Al43  1  0.41724069  0.90507298  0.57666387  1
  Al  Al44  1  0.90814365  0.42128684  0.09178047  1
  Al  Al45  1  0.91714668  0.40572914  0.57652014  1
  Al  Al46  1  0.91919482  0.91600282  0.09231922  1
  Al  Al47  1  0.91623974  0.92341245  0.57390972  1
  Al  Al48  1  0.41956466  0.07780586  0.41170821  1
  Al  Al49  1  0.42564317  0.08086363  0.92354912  1
  Al  Al50  1  0.42008922  0.58657688  0.40574024  1
  Al  Al51  1  0.41427600  0.59734619  0.92357746  1
  Al  Al52  1  0.92047833  0.09030573  0.41214175  1
  Al  Al53  1  0.90955595  0.08738131  0.92399091  1
  Al  Al54  1  0.91928335  0.57961108  0.41622858  1
  Al  Al55  1  0.92248468  0.57506387  0.92603867  1
  Al  Al56  1  0.08214609  0.42076721  0.40906565  1
  Al  Al57  1  0.08607167  0.42332325  0.92089880  1
  Al  Al58  1  0.07898066  0.91472267  0.41183290  1
  Al  Al59  1  0.07906084  0.91865202  0.93334984  1
  Al  Al60  1  0.58294101  0.41280597  0.40413759  1
  Al  Al61  1  0.57866032  0.42248403  0.92946974  1
  Al  Al62  1  0.57642050  0.91221608  0.41151657  1
  Al  Al63  1  0.58454666  0.90356530  0.92130991  1
  Al  Al64  1  0.07928159  0.08807541  0.41363133  1
  Al  Al65  1  0.07430994  0.07979167  0.92716005  1
  Al  Al66  1  0.08601733  0.57786273  0.40919885  1
  Al  Al67  1  0.09137906  0.58217222  0.92189614  1
  Al  Al68  1  0.58192203  0.08816359  0.41939181  1
  Al  Al69  1  0.58543183  0.08960491  0.92364517  1
  Al  Al70  1  0.58071083  0.58549031  0.40483742  1
  Al  Al71  1  0.57177804  0.58576124  0.91579846  1
  Al  Al72  1  0.42276698  0.41488497  0.40280882  1
  Al  Al73  1  0.41406076  0.41262708  0.93174818  1
  Al  Al74  1  0.41295696  0.90954480  0.41122065  1
  Al  Al75  1  0.42531302  0.90722674  0.92065965  1
  Al  Al76  1  0.90965278  0.41053811  0.41779212  1
  Al  Al77  1  0.91789808  0.42038350  0.92602069  1
  Al  Al78  1  0.91963557  0.91363494  0.41325588  1
  Al  Al79  1  0.91652156  0.92294849  0.92521933  1
  Al  Al80  1  0.08543469  0.42084678  0.08636735  1
  Al  Al81  1  0.08032313  0.41892402  0.59060302  1
  Al  Al82  1  0.08306523  0.91134611  0.09413983  1
  Al  Al83  1  0.07931972  0.92124978  0.57119263  1
  Al  Al84  1  0.58500819  0.41094899  0.09714551  1
  Al  Al85  1  0.57761041  0.41472398  0.57493912  1
  Al  Al86  1  0.57952186  0.90770946  0.08338578  1
  Al  Al87  1  0.57801678  0.91388715  0.58388377  1
  Al  Al88  1  0.41865732  0.08180977  0.09420536  1
  Al  Al89  1  0.42428283  0.09010485  0.58873206  1
  Al  Al90  1  0.41422740  0.58866982  0.09162397  1
  Al  Al91  1  0.41618330  0.58586197  0.59035973  1
  Al  Al92  1  0.90965656  0.08274617  0.08344521  1
  Al  Al93  1  0.91821389  0.09310520  0.58588750  1
  Al  Al94  1  0.91431508  0.58001386  0.09347606  1
  Al  Al95  1  0.92487603  0.57928871  0.57322447  1
  Al  Al96  1  0.25446125  0.13673163  0.13831430  1
  Al  Al97  1  0.25720603  0.13515335  0.63352757  1
  Al  Al98  1  0.25216454  0.63144509  0.13326225  1
  Al  Al99  1  0.24863432  0.63625468  0.63183978  1
  Al  Al100  1  0.74348890  0.13507155  0.13651087  1
  Al  Al101  1  0.75046037  0.13403954  0.63200609  1
  Al  Al102  1  0.74575217  0.63405489  0.13788120  1
  Al  Al103  1  0.74480400  0.63751559  0.63386631  1
  Al  Al104  1  0.25395241  0.37332611  0.13628210  1
  Al  Al105  1  0.25065823  0.36282976  0.63302841  1
  Al  Al106  1  0.25489647  0.86075779  0.13678769  1
  Al  Al107  1  0.25704640  0.86544832  0.63423269  1
  Al  Al108  1  0.74666720  0.36781923  0.13854874  1
  Al  Al109  1  0.75089022  0.35882246  0.62448298  1
  Al  Al110  1  0.74565033  0.86194503  0.13055345  1
  Al  Al111  1  0.74675772  0.86443100  0.63530850  1
  Al  Al112  1  0.25472657  0.13808213  0.35858389  1
  Al  Al113  1  0.25520958  0.13398212  0.86504305  1
  Al  Al114  1  0.25241624  0.62804738  0.36307910  1
  Al  Al115  1  0.25169486  0.63813975  0.87253342  1
  Al  Al116  1  0.75078494  0.13128487  0.36131897  1
  Al  Al117  1  0.74736276  0.12870467  0.86250553  1
  Al  Al118  1  0.74592866  0.63525651  0.36024701  1
  Al  Al119  1  0.74666069  0.63830045  0.86590901  1
  Al  Al120  1  0.25399708  0.37426453  0.36027600  1
  Al  Al121  1  0.25265512  0.36522737  0.86572955  1
  Al  Al122  1  0.25604570  0.86276677  0.36116143  1
  Al  Al123  1  0.25450463  0.86379832  0.86753463  1
  Al  Al124  1  0.74951976  0.36350236  0.36659326  1
  Al  Al125  1  0.74613500  0.36334463  0.86736643  1
  Al  Al126  1  0.74391574  0.87005193  0.36033556  1
  Al  Al127  1  0.74651723  0.86835170  0.87229139  1
  Al  Al128  1  0.13574470  0.25242892  0.13804719  1
  Al  Al129  1  0.13598619  0.24782745  0.63413915  1
  Al  Al130  1  0.13204252  0.74506399  0.13805685  1
  Al  Al131  1  0.13762695  0.75341038  0.63156138  1
  Al  Al132  1  0.63158786  0.24842005  0.13579298  1
  Al  Al133  1  0.63004991  0.25014138  0.63381877  1
  Al  Al134  1  0.62845314  0.75127802  0.13616341  1
  Al  Al135  1  0.63328198  0.75068360  0.62873547  1
  Al  Al136  1  0.13160870  0.25231653  0.36067312  1
  Al  Al137  1  0.13802001  0.24824834  0.86419743  1
  Al  Al138  1  0.13773364  0.74596518  0.36466686  1
  Al  Al139  1  0.13490953  0.74890484  0.86519379  1
  Al  Al140  1  0.63241599  0.25498632  0.36225241  1
  Al  Al141  1  0.63407371  0.24496410  0.87035784  1
  Al  Al142  1  0.63356120  0.74847014  0.36613407  1
  Al  Al143  1  0.63268427  0.75580271  0.87065784  1
  Al  Al144  1  0.36747365  0.25638452  0.13485819  1
  Al  Al145  1  0.37114671  0.24782656  0.63386237  1
  Al  Al146  1  0.37170960  0.74266980  0.13834259  1
  Al  Al147  1  0.36585116  0.74941535  0.63221591  1
  Al  Al148  1  0.86724334  0.24901506  0.13692380  1
  Al  Al149  1  0.86321597  0.24631095  0.63042233  1
  Al  Al150  1  0.86894433  0.75393638  0.13580400  1
  Al  Al151  1  0.86158892  0.75150024  0.63560573  1
  Al  Al152  1  0.36780646  0.25666317  0.35955311  1
  Al  Al153  1  0.36557512  0.25135530  0.86837451  1
  Al  Al154  1  0.36634444  0.74614138  0.36086776  1
  Al  Al155  1  0.36687288  0.74936785  0.86595823  1
  Al  Al156  1  0.86501558  0.24945865  0.36652793  1
  Al  Al157  1  0.86188463  0.24479016  0.86421256  1
  Al  Al158  1  0.86311790  0.74795430  0.36219366  1
  Al  Al159  1  0.86352197  0.75846467  0.86744707  1
  Al  Al160  1  0.13081142  0.13635704  0.25002092  1
  Al  Al161  1  0.13631102  0.13674965  0.74519733  1
  Al  Al162  1  0.13441395  0.62870082  0.24911845  1
  Al  Al163  1  0.13850703  0.63697063  0.74858153  1
  Al  Al164  1  0.63320580  0.12990500  0.24913985  1
  Al  Al165  1  0.63432895  0.13409318  0.74771647  1
  Al  Al166  1  0.62627645  0.63942251  0.24845181  1
  Al  Al167  1  0.63340048  0.64145233  0.74991801  1
  Al  Al168  1  0.37076371  0.13668184  0.24328761  1
  Al  Al169  1  0.36502713  0.12944622  0.74886703  1
  Al  Al170  1  0.36647578  0.62916738  0.24756883  1
  Al  Al171  1  0.36307358  0.63723509  0.74941251  1
  Al  Al172  1  0.86933313  0.13623745  0.25124241  1
  Al  Al173  1  0.86297464  0.13230503  0.74702565  1
  Al  Al174  1  0.86844375  0.63663195  0.24458133  1
  Al  Al175  1  0.86079606  0.63918756  0.75139249  1
  Al  Al176  1  0.13588317  0.37340018  0.24913732  1
  Al  Al177  1  0.13747095  0.36287979  0.74757268  1
  Al  Al178  1  0.13763774  0.86314583  0.24790939  1
  Al  Al179  1  0.13741625  0.86509462  0.75012592  1
  Al  Al180  1  0.63019491  0.36218668  0.24725745  1
  Al  Al181  1  0.63457666  0.36079790  0.74948682  1
  Al  Al182  1  0.63229898  0.86906169  0.24495985  1
  Al  Al183  1  0.63305845  0.86820513  0.75428134  1
  Al  Al184  1  0.36806614  0.37109044  0.24650710  1
  Al  Al185  1  0.36904232  0.36436129  0.74744941  1
  Al  Al186  1  0.37022385  0.86258436  0.24274674  1
  Al  Al187  1  0.36668780  0.86675734  0.75305355  1
  Al  Al188  1  0.86388278  0.36351493  0.24995346  1
  Al  Al189  1  0.85950608  0.35932302  0.74697377  1
  Al  Al190  1  0.86275089  0.86563520  0.25017745  1
  Al  Al191  1  0.86018083  0.87165953  0.75317841  1
  Al  Al192  1  0.50057411  0.80889616  0.69101109  1
  Al  Al193  1  -0.00251870  0.32424827  0.17957095  1
  Al  Al194  1  0.17409612  0.17232355  0.00221609  1
  Al  Al195  1  0.66551991  0.50151505  0.67349668  1
  Al  Al196  1  -0.00100681  0.32947645  0.82809556  1
  Al  Al197  1  0.32836927  0.67657485  0.49715686  1
  Al  Al198  1  0.82041312  0.82562223  0.49694566  1
  Al  Al199  1  0.68357098  0.18514445  0.49723847  1
  Al  Al200  1  0.19011913  -0.00057512  0.17614782  1
  Al  Al201  1  0.00118271  0.16998321  0.81273143  1
  Al  Al202  1  0.17304952  0.00103154  0.32759390  1
  Al  Al203  1  0.32993074  0.18133847  0.00328451  1
  Al  Al204  1  0.00056701  0.67362055  0.67278257  1
  Al  Al205  1  -0.00147720  0.67434772  0.83166447  1
  Al  Al206  1  0.81640886  0.00012364  0.17972360  1
  Al  Al207  1  0.17336948  0.33167716  0.49999858  1
  Al  Al208  1  0.82472694  0.49952268  0.82746286  1
  Al  Al209  1  0.49986706  0.32888321  0.82509408  1
  Al  Al210  1  0.17733069  0.50007551  0.80839369  1
  Al  Al211  1  0.49946830  0.69048677  0.81154968  1
  Al  Al212  1  0.31303353  0.50055037  0.67790639  1
  Al  Al213  1  0.83104099  0.49938256  0.67012720  1
  Al  Al214  1  0.17591654  0.00185228  0.66595398  1
  Al  Al215  1  0.49983690  0.17324424  0.81662797  1
  Al  Al216  1  0.33293554  0.50179316  0.83260170  1
  Al  Al217  1  0.66614318  0.67988058  0.00275334  1
  Al  Al218  1  0.67124060  0.49976560  0.30758906  1
  Al  Al219  1  -0.00102967  0.31153211  0.67299535  1
  Al  Al220  1  0.00078859  0.81873914  0.31104686  1
  Al  Al221  1  0.67523980  0.00336090  0.67305032  1
  Al  Al222  1  0.67089420  0.50095559  0.83034188  1
  Al  Al223  1  0.18079877  0.17408540  0.49627169  1
  Al  Al224  1  0.32542080  -0.00095734  0.30940203  1
  Al  Al225  1  0.50135532  0.18599474  0.31202108  1
  Al  Al226  1  0.17657242  0.81941018  0.00349663  1
  Al  Al227  1  0.68100406  0.32221885  0.00335056  1
  Al  Al228  1  0.82816241  0.50085728  0.31186610  1
  Al  Al229  1  -0.00239902  0.83159780  0.67473106  1
  Al  Al230  1  0.50019710  0.81190277  0.31182484  1
  Al  Al231  1  0.33128482  0.32238767  0.49649282  1
  Al  Al232  1  0.17733375  -0.00043316  0.83279490  1
  Al  Al233  1  0.33003214  0.81480759  0.00342647  1
  Al  Al234  1  0.82136268  0.67187671  0.49894518  1
  Al  Al235  1  0.18919957  0.82284946  0.49757328  1
  Al  Al236  1  0.80527685  0.18163272  0.00136025  1
  Al  Al237  1  0.82845493  0.67659645  0.00268081  1
  Al  Al238  1  0.18735218  0.33035303  0.00142735  1
  Au  Au239  1  0.67071047  0.66145572  0.49520158  1
  Au  Au240  1  -0.00042846  0.67600192  0.16821294  1
  Au  Au241  1  0.49911890  0.32202943  0.66458678  1
  Au  Au242  1  0.66649249  -0.00199170  0.16066682  1
  Au  Au243  1  0.33008676  0.15848837  0.49807048  1
  Au  Au244  1  0.34113062  0.67929207  0.49736954  1
  Au  Au245  1  0.18239544  0.50020171  0.82496344  1
  Au  Au246  1  0.83240815  0.17502084  0.49636341  1
  Au  Au247  1  0.82504784  0.84043522  0.00511550  1
  Au  Au248  1  0.67217910  0.33345452  0.49526714  1
  Au  Au249  1  0.83978654  0.00107110  0.32629875  1
  Au  Au250  1  0.17482226  0.50173683  0.17485664  1
  Au  Au251  1  0.00013981  0.15967694  0.17370494  1
  Au  Au252  1  0.82773382  0.66421789  0.00076543  1
  Au  Au253  1  0.16716119  0.65849576  0.50080049  1
  Au  Au254  1  0.82208307  0.50034988  0.32770460  1
  Au  Au255  1  0.67185004  0.83568213  0.49678025  1
  Au  Au256  1  0.83054774  0.00074168  0.83435800  1
  Au  Au257  1  0.66867897  0.31917442  0.00207703  1
  Au  Au258  1  0.49867868  0.81735483  0.67612315  1
  Au  Au259  1  0.34594805  -0.00415841  0.83403663  1
  Au  Au260  1  0.49901482  0.17584570  0.32558138  1
  Au  Au261  1  0.00007605  0.16518102  0.82917979  1
  Au  Au262  1  0.66551041  0.00123087  0.33462725  1
  Au  Au263  1  0.17306309  -0.00134781  0.84899830  1
  Au  Au264  1  -0.00009745  0.33279093  0.17075571  1
  Au  Au265  1  -0.00324816  0.34520966  0.82070926  1
  Au  Au266  1  0.15960239  0.00708026  0.66578981  1
  Au  Au267  1  -0.00185039  0.65822215  0.82605102  1
  Au  Au268  1  0.16086030  0.32894920  0.50037214  1
  Au  Au269  1  0.17747821  0.83483745  0.49485272  1
  Au  Au270  1  0.34067035  -0.00376469  0.66319929  1
  Au  Au271  1  0.83246714  0.00171595  0.66558059  1
  Au  Au272  1  0.00135930  0.83667074  0.83944120  1
  Au  Au273  1  0.17078676  0.32541098  0.00063056  1
  Au  Au274  1  0.66132953  -0.00217623  0.83826927  1
  Au  Au275  1  0.66648345  0.00105915  0.66436818  1
  Au  Au276  1  -0.00211266  0.32349905  0.33551174  1
  Au  Au277  1  0.64978384  0.50332672  0.67910090  1
  Au  Au278  1  0.83518159  0.32633096  0.00239580  1
  Au  Au279  1  0.65985956  0.66919924  0.00236797  1
  Au  Au280  1  0.17844752  0.67205357  0.00320041  1
  Au  Au281  1  -0.00273225  0.82575211  0.65855302  1
  Au  Au282  1  0.33451993  0.16935489  0.00353822  1
  Au  Au283  1  0.84733603  0.49818887  0.67391450  1
  Au  Au284  1  0.33711343  0.33343557  0.49710389  1
  Au  Au285  1  0.33171754  0.50085064  0.32327451  1
  Au  Au286  1  0.00099759  0.67351958  0.33461629  1
  Au  Au287  1  0.49797263  0.33157300  0.83711135  1
