# generated using pymatgen
data_Ca24Ti8Al207Au49
_symmetry_space_group_name_H-M   'P 1'
_cell_length_a   17.32117720
_cell_length_b   17.32150529
_cell_length_c   17.32024023
_cell_angle_alpha   89.99763970
_cell_angle_beta   89.99405488
_cell_angle_gamma   90.00200309
_symmetry_Int_Tables_number   1
_chemical_formula_structural   Ca24Ti8Al207Au49
_chemical_formula_sum   'Ca24 Ti8 Al207 Au49'
_cell_volume   5196.57193691
_cell_formula_units_Z   1
loop_
 _symmetry_equiv_pos_site_id
 _symmetry_equiv_pos_as_xyz
  1  'x, y, z'
loop_
 _atom_site_type_symbol
 _atom_site_label
 _atom_site_symmetry_multiplicity
 _atom_site_fract_x
 _atom_site_fract_y
 _atom_site_fract_z
 _atom_site_occupancy
  Ca  Ca0  1  0.24633600  -0.00167473  0.00232180  1
  Ca  Ca1  1  0.25200786  -0.00054009  0.49728304  1
  Ca  Ca2  1  0.24844664  0.50683804  0.00491929  1
  Ca  Ca3  1  0.24773444  0.50138020  0.49707004  1
  Ca  Ca4  1  0.74970975  0.00156855  0.00000963  1
  Ca  Ca5  1  0.74920087  0.00258772  0.50076227  1
  Ca  Ca6  1  0.75438152  0.49780074  0.00295034  1
  Ca  Ca7  1  0.74917128  0.49791574  0.49530431  1
  Ca  Ca8  1  -0.00341299  0.24783177  0.00477599  1
  Ca  Ca9  1  0.00128493  0.25011964  0.49620286  1
  Ca  Ca10  1  0.00183526  0.75161555  0.00482236  1
  Ca  Ca11  1  -0.00083004  0.74556564  0.49707785  1
  Ca  Ca12  1  0.50366100  0.24349373  -0.00248888  1
  Ca  Ca13  1  0.49983917  0.24628066  0.49683615  1
  Ca  Ca14  1  0.49827851  0.75223348  -0.00328552  1
  Ca  Ca15  1  0.50119939  0.74779579  0.50236876  1
  Ca  Ca16  1  0.00374260  -0.00115765  0.24376152  1
  Ca  Ca17  1  -0.00445164  -0.00166318  0.75734436  1
  Ca  Ca18  1  -0.00098209  0.50274261  0.24714254  1
  Ca  Ca19  1  -0.00384867  0.50199652  0.75305481  1
  Ca  Ca20  1  0.49647699  0.00167350  0.24982046  1
  Ca  Ca21  1  0.50326346  0.00490709  0.75656507  1
  Ca  Ca22  1  0.50015690  0.49874751  0.24933037  1
  Ca  Ca23  1  0.50361587  0.49352949  0.75058477  1
  Ti  Ti24  1  0.25071143  0.24747541  0.24792773  1
  Ti  Ti25  1  0.25151615  0.24938903  0.75201301  1
  Ti  Ti26  1  0.25109003  0.75063128  0.24899142  1
  Ti  Ti27  1  0.24783805  0.75185807  0.75294069  1
  Ti  Ti28  1  0.74865521  0.25081729  0.24923255  1
  Ti  Ti29  1  0.75010614  0.24851559  0.75138254  1
  Ti  Ti30  1  0.74970778  0.74822954  0.24961673  1
  Ti  Ti31  1  0.75080562  0.75203768  0.75079468  1
  Al  Al32  1  0.07919861  0.08395170  0.09217771  1
  Al  Al33  1  0.07596101  0.07521632  0.58042589  1
  Al  Al34  1  0.08135598  0.59582072  0.08865097  1
  Al  Al35  1  0.08605374  0.59277514  0.57144425  1
  Al  Al36  1  0.58867954  0.09104409  0.07702999  1
  Al  Al37  1  0.58526587  0.09084228  0.58229134  1
  Al  Al38  1  0.58012091  0.58795781  0.08920202  1
  Al  Al39  1  0.58179387  0.58230001  0.57503129  1
  Al  Al40  1  0.42648949  0.42633310  0.07633353  1
  Al  Al41  1  0.41729623  0.39413016  0.57959391  1
  Al  Al42  1  0.40164137  0.91707524  0.08669356  1
  Al  Al43  1  0.42808401  0.92265840  0.57830180  1
  Al  Al44  1  0.91582717  0.40661304  0.08757192  1
  Al  Al45  1  0.91461646  0.41884647  0.58031922  1
  Al  Al46  1  0.92537924  0.91185919  0.08299748  1
  Al  Al47  1  0.91919076  0.92418696  0.58266136  1
  Al  Al48  1  0.41387759  0.09244463  0.40234962  1
  Al  Al49  1  0.42528235  0.08087229  0.91188460  1
  Al  Al50  1  0.42110570  0.57723854  0.41556038  1
  Al  Al51  1  0.41454158  0.59383108  0.92758674  1
  Al  Al52  1  0.91416231  0.08928831  0.42149972  1
  Al  Al53  1  0.90068593  0.08315731  0.92039648  1
  Al  Al54  1  0.91993992  0.58180325  0.41461879  1
  Al  Al55  1  0.91482950  0.59225285  0.92428505  1
  Al  Al56  1  0.08752917  0.42608412  0.40772641  1
  Al  Al57  1  0.07451358  0.41744667  0.92753764  1
  Al  Al58  1  0.09225004  0.91788409  0.40675259  1
  Al  Al59  1  0.09313775  0.91313400  0.92210395  1
  Al  Al60  1  0.58501444  0.41944274  0.41098632  1
  Al  Al61  1  0.58842948  0.39471569  0.91822785  1
  Al  Al62  1  0.58369296  0.92329914  0.42313735  1
  Al  Al63  1  0.58100891  0.92757206  0.91638339  1
  Al  Al64  1  0.08514063  0.07441164  0.40708127  1
  Al  Al65  1  0.08860913  0.07416024  0.91753704  1
  Al  Al66  1  0.09248139  0.58729191  0.40956682  1
  Al  Al67  1  0.08080537  0.59110582  0.92702818  1
  Al  Al68  1  0.58001990  0.09163984  0.41411275  1
  Al  Al69  1  0.59031594  0.09414368  0.91309963  1
  Al  Al70  1  0.59080623  0.57896333  0.40883262  1
  Al  Al71  1  0.57765880  0.58138966  0.92340599  1
  Al  Al72  1  0.41135668  0.40957061  0.42044656  1
  Al  Al73  1  0.43086254  0.41037674  0.91322249  1
  Al  Al74  1  0.41088540  0.93350268  0.40722372  1
  Al  Al75  1  0.41082661  0.91708481  0.92180842  1
  Al  Al76  1  0.91603827  0.41709474  0.41378366  1
  Al  Al77  1  0.91395001  0.41326718  0.92332346  1
  Al  Al78  1  0.92765056  0.92380415  0.41887162  1
  Al  Al79  1  0.91151182  0.92081497  0.91871635  1
  Al  Al80  1  0.07616656  0.40745708  0.08899603  1
  Al  Al81  1  0.07510111  0.41915980  0.57355021  1
  Al  Al82  1  0.08956519  0.90625478  0.08607147  1
  Al  Al83  1  0.08075434  0.91595854  0.58109486  1
  Al  Al84  1  0.59224470  0.40994355  0.07888857  1
  Al  Al85  1  0.57350543  0.41120721  0.58307009  1
  Al  Al86  1  0.57578867  0.92652098  0.07762932  1
  Al  Al87  1  0.58656069  0.91772060  0.58260161  1
  Al  Al88  1  0.41301595  0.07619495  0.09236312  1
  Al  Al89  1  0.42456731  0.09057793  0.57803775  1
  Al  Al90  1  0.41945996  0.60351196  0.08578426  1
  Al  Al91  1  0.42380929  0.58003867  0.57798506  1
  Al  Al92  1  0.91590235  0.09487339  0.08169755  1
  Al  Al93  1  0.90498736  0.08738456  0.57993698  1
  Al  Al94  1  0.91536243  0.59386093  0.08684478  1
  Al  Al95  1  0.91748803  0.58053758  0.57845471  1
  Al  Al96  1  0.25076801  0.12793123  0.13471129  1
  Al  Al97  1  0.25224975  0.14006090  0.63643275  1
  Al  Al98  1  0.25155951  0.63471815  0.13553912  1
  Al  Al99  1  0.24357365  0.64137024  0.63439491  1
  Al  Al100  1  0.74952428  0.13598866  0.12928051  1
  Al  Al101  1  0.74941327  0.13196884  0.63685652  1
  Al  Al102  1  0.75354361  0.63345818  0.13267725  1
  Al  Al103  1  0.74894119  0.63757283  0.63631637  1
  Al  Al104  1  0.24817659  0.36547312  0.13859537  1
  Al  Al105  1  0.25540740  0.35837810  0.63188351  1
  Al  Al106  1  0.24831513  0.86662783  0.13033559  1
  Al  Al107  1  0.24241161  0.86163039  0.63383520  1
  Al  Al108  1  0.74759815  0.36322771  0.13526082  1
  Al  Al109  1  0.75275556  0.36137330  0.63438908  1
  Al  Al110  1  0.74966826  0.86373723  0.13459960  1
  Al  Al111  1  0.75315897  0.87048255  0.63687891  1
  Al  Al112  1  0.25162300  0.13198156  0.36079990  1
  Al  Al113  1  0.24870596  0.13504809  0.87083107  1
  Al  Al114  1  0.24396270  0.63231255  0.36295304  1
  Al  Al115  1  0.25047952  0.63801894  0.86799800  1
  Al  Al116  1  0.74959298  0.13703913  0.36165864  1
  Al  Al117  1  0.75071024  0.13610510  0.87252550  1
  Al  Al118  1  0.74838840  0.62689043  0.35936278  1
  Al  Al119  1  0.75321294  0.63045086  0.86817145  1
  Al  Al120  1  0.25168179  0.36095925  0.36148894  1
  Al  Al121  1  0.24941943  0.36523020  0.86204915  1
  Al  Al122  1  0.25022022  0.86756246  0.36259773  1
  Al  Al123  1  0.24593635  0.86575361  0.87147047  1
  Al  Al124  1  0.75181383  0.36866517  0.36377227  1
  Al  Al125  1  0.74778205  0.36780548  0.86628204  1
  Al  Al126  1  0.74880588  0.86446944  0.36234856  1
  Al  Al127  1  0.75331867  0.86681640  0.86518567  1
  Al  Al128  1  0.13372086  0.24428328  0.13888364  1
  Al  Al129  1  0.12852634  0.24888042  0.63778267  1
  Al  Al130  1  0.13251762  0.75346084  0.13779218  1
  Al  Al131  1  0.12756494  0.75239855  0.63390593  1
  Al  Al132  1  0.63571795  0.24960939  0.12932346  1
  Al  Al133  1  0.63582285  0.25150073  0.63444377  1
  Al  Al134  1  0.63357012  0.74352742  0.13698566  1
  Al  Al135  1  0.63055726  0.74782714  0.63833529  1
  Al  Al136  1  0.13323498  0.25155338  0.36062466  1
  Al  Al137  1  0.13567147  0.24639431  0.86743149  1
  Al  Al138  1  0.13722351  0.75285742  0.36696132  1
  Al  Al139  1  0.13320587  0.75628012  0.87103201  1
  Al  Al140  1  0.63137532  0.24967491  0.36298399  1
  Al  Al141  1  0.63993267  0.24709348  0.87217026  1
  Al  Al142  1  0.63279614  0.74545946  0.36260568  1
  Al  Al143  1  0.63690282  0.75026329  0.86382737  1
  Al  Al144  1  0.36891322  0.24184460  0.13506978  1
  Al  Al145  1  0.36872511  0.25009147  0.63353675  1
  Al  Al146  1  0.36085978  0.75089768  0.12701127  1
  Al  Al147  1  0.36915208  0.75036643  0.63485350  1
  Al  Al148  1  0.86440188  0.25009057  0.13326705  1
  Al  Al149  1  0.86763870  0.24504113  0.63762866  1
  Al  Al150  1  0.86919948  0.74461278  0.13497182  1
  Al  Al151  1  0.86829983  0.75162141  0.63707779  1
  Al  Al152  1  0.36799534  0.24829220  0.35987908  1
  Al  Al153  1  0.36638775  0.24404190  0.86993029  1
  Al  Al154  1  0.36706848  0.74490305  0.36146205  1
  Al  Al155  1  0.36237358  0.75356820  0.87205651  1
  Al  Al156  1  0.86671787  0.24753064  0.36459877  1
  Al  Al157  1  0.86191677  0.24586619  0.86829113  1
  Al  Al158  1  0.86516079  0.75048837  0.36197791  1
  Al  Al159  1  0.86541203  0.75166152  0.86615902  1
  Al  Al160  1  0.13805561  0.12711118  0.24877774  1
  Al  Al161  1  0.13512162  0.13433144  0.75303299  1
  Al  Al162  1  0.13592704  0.63491664  0.24681956  1
  Al  Al163  1  0.13480087  0.64001949  0.75211597  1
  Al  Al164  1  0.63222694  0.13817024  0.24634912  1
  Al  Al165  1  0.63480675  0.13762482  0.75381219  1
  Al  Al166  1  0.63161677  0.63326652  0.24939495  1
  Al  Al167  1  0.63689479  0.63313246  0.75470437  1
  Al  Al168  1  0.36658655  0.13100156  0.25025459  1
  Al  Al169  1  0.36825548  0.13757410  0.75449253  1
  Al  Al170  1  0.36957669  0.63582143  0.24668645  1
  Al  Al171  1  0.36155157  0.63840003  0.74983250  1
  Al  Al172  1  0.86595191  0.13746606  0.24265168  1
  Al  Al173  1  0.86048638  0.12696041  0.75291143  1
  Al  Al174  1  0.86693472  0.63409422  0.24904438  1
  Al  Al175  1  0.86370816  0.63671215  0.75212550  1
  Al  Al176  1  0.13195322  0.36445384  0.24841115  1
  Al  Al177  1  0.13697790  0.36635163  0.74383333  1
  Al  Al178  1  0.13810321  0.87000527  0.24691813  1
  Al  Al179  1  0.12832515  0.86320552  0.75538533  1
  Al  Al180  1  0.63206308  0.36462684  0.25300464  1
  Al  Al181  1  0.63540998  0.36221069  0.75250837  1
  Al  Al182  1  0.63331751  0.86516304  0.24800382  1
  Al  Al183  1  0.63655218  0.86690745  0.74725066  1
  Al  Al184  1  0.36861141  0.36428415  0.24834317  1
  Al  Al185  1  0.36826270  0.36113686  0.75175454  1
  Al  Al186  1  0.36253988  0.86759921  0.24733841  1
  Al  Al187  1  0.36019780  0.86331696  0.75094039  1
  Al  Al188  1  0.86978028  0.36040739  0.24931139  1
  Al  Al189  1  0.86255504  0.36131788  0.75329901  1
  Al  Al190  1  0.86563988  0.86237637  0.24344643  1
  Al  Al191  1  0.86811404  0.86907445  0.75181900  1
  Al  Al192  1  0.67158044  0.49850607  0.67689955  1
  Al  Al193  1  0.49757361  0.82526646  0.33050464  1
  Al  Al194  1  0.81409507  0.31440531  0.00028804  1
  Al  Al195  1  0.67265512  0.00242962  0.32112050  1
  Al  Al196  1  0.82613560  0.50000442  0.68122252  1
  Al  Al197  1  0.18755137  0.69373006  0.00312831  1
  Al  Al198  1  0.67143459  0.83020343  -0.00096817  1
  Al  Al199  1  0.68640828  0.00174628  0.82138702  1
  Al  Al200  1  0.33001649  0.50289223  0.83277710  1
  Al  Al201  1  0.67345690  0.49938437  0.18068203  1
  Al  Al202  1  0.50131341  0.19096066  0.69082701  1
  Al  Al203  1  0.82579072  0.81551641  0.00235075  1
  Al  Al204  1  0.18408939  0.32594961  0.49872967  1
  Al  Al205  1  0.17364678  0.49815445  0.17359150  1
  Al  Al206  1  0.33095413  0.32327783  0.00116508  1
  Al  Al207  1  0.00070919  0.32345409  0.82373639  1
  Al  Al208  1  0.81991437  0.67557954  0.49827750  1
  Al  Al209  1  0.68790574  0.17938676  0.49889348  1
  Al  Al210  1  0.82732368  -0.00172967  0.17162110  1
  Al  Al211  1  0.49875245  0.81421318  0.17084223  1
  Al  Al212  1  0.17134696  0.17007861  0.49809533  1
  Al  Al213  1  0.00008417  0.68270853  0.82217217  1
  Al  Al214  1  0.49906114  0.83033706  0.82382287  1
  Al  Al215  1  0.16876213  0.49999808  0.83020460  1
  Al  Al216  1  0.50214117  0.30211414  0.81070402  1
  Al  Al217  1  0.68338135  0.67635743  0.00000011  1
  Al  Al218  1  0.17083880  0.50151704  0.67296460  1
  Al  Al219  1  0.31275785  0.66979415  0.49903299  1
  Al  Al220  1  0.17328424  0.31941962  0.00280652  1
  Al  Al221  1  0.00221859  0.67442872  0.31486680  1
  Al  Al222  1  0.82756937  0.00036683  0.32772879  1
  Al  Al223  1  0.82789657  0.49735364  0.17903640  1
  Al  Al224  1  -0.00270139  0.16803346  0.82343436  1
  Al  Al225  1  0.00156740  0.82906746  0.31313689  1
  Al  Al226  1  0.49840119  0.32067536  0.17328784  1
  Al  Al227  1  0.00084231  0.17783717  0.31446568  1
  Al  Al228  1  0.32261107  0.83020959  0.49814294  1
  Al  Al229  1  0.81980970  0.31131542  0.50026176  1
  Al  Al230  1  0.33102134  0.49638101  0.67265215  1
  Al  Al231  1  0.32759848  0.18387232  0.49708758  1
  Al  Al232  1  0.49843347  0.67556605  0.82346299  1
  Al  Al233  1  0.31553824  0.00001140  0.82614070  1
  Al  Al234  1  0.17396164  -0.00168535  0.68751580  1
  Al  Al235  1  0.82988314  0.83074765  0.49828843  1
  Al  Al236  1  0.32656944  0.00342908  0.66871493  1
  Al  Al237  1  0.67726378  0.81939880  0.50048410  1
  Al  Al238  1  0.31535201  0.49869480  0.31967621  1
  Au  Au239  1  0.33479205  0.15722887  -0.00091374  1
  Au  Au240  1  0.16113886  0.16948539  0.00460879  1
  Au  Au241  1  0.50193666  0.66111130  0.32315813  1
  Au  Au242  1  0.67127109  0.67093575  0.49588274  1
  Au  Au243  1  0.17891480  0.15455322  0.49721822  1
  Au  Au244  1  0.34146846  0.49950382  0.83626422  1
  Au  Au245  1  0.66545154  0.00326107  0.67337562  1
  Au  Au246  1  -0.00026847  0.83272544  0.84061855  1
  Au  Au247  1  0.16060850  0.82515193  0.49852021  1
  Au  Au248  1  0.00275073  0.33995108  0.32061894  1
  Au  Au249  1  0.83474833  0.31944241  0.49999526  1
  Au  Au250  1  0.66404378  0.49574299  0.84209420  1
  Au  Au251  1  0.34242717  0.00492827  0.67539511  1
  Au  Au252  1  0.50175834  0.18526642  0.67489394  1
  Au  Au253  1  0.67134204  0.67167233  0.00003259  1
  Au  Au254  1  0.33034014  0.84452185  0.49719347  1
  Au  Au255  1  -0.00387703  0.82952412  0.66737601  1
  Au  Au256  1  0.32218009  0.49598183  0.33515246  1
  Au  Au257  1  0.65848948  0.32510957  0.49777885  1
  Au  Au258  1  0.50050618  0.32911269  0.16432472  1
  Au  Au259  1  0.82471466  0.50040820  0.32887751  1
  Au  Au260  1  0.66333966  0.00132020  0.17066640  1
  Au  Au261  1  0.17640778  0.34082076  0.49488676  1
  Au  Au262  1  0.33726487  0.50805851  0.16113510  1
  Au  Au263  1  0.32971889  0.66642275  0.49925427  1
  Au  Au264  1  0.50092719  0.66317665  0.67519325  1
  Au  Au265  1  0.00087116  0.82598945  0.32577886  1
  Au  Au266  1  0.16110151  0.49632952  0.17477253  1
  Au  Au267  1  -0.00237861  0.34021968  0.67481489  1
  Au  Au268  1  -0.00011232  0.16281713  0.32229115  1
  Au  Au269  1  0.49888260  0.32439661  0.33712974  1
  Au  Au270  1  0.83349104  -0.00009599  0.67675603  1
  Au  Au271  1  0.16562413  0.50461680  0.84129749  1
  Au  Au272  1  0.50134394  0.83410670  0.67395017  1
  Au  Au273  1  0.49814009  0.82623436  0.15893261  1
  Au  Au274  1  0.33566680  0.48752625  0.65806770  1
  Au  Au275  1  -0.00278108  0.16450481  0.83928269  1
  Au  Au276  1  0.50032630  0.16381682  0.17330368  1
  Au  Au277  1  0.83833537  0.00314254  0.16789594  1
  Au  Au278  1  -0.00324245  0.17142788  0.65808867  1
  Au  Au279  1  0.16072720  0.50475193  0.66607195  1
  Au  Au280  1  -0.00174946  0.66220939  0.67151701  1
  Au  Au281  1  0.17123301  -0.00216793  0.17184473  1
  Au  Au282  1  0.67233959  0.49377304  0.66102521  1
  Au  Au283  1  0.31716289  0.82432303  -0.00038316  1
  Au  Au284  1  0.15754663  -0.00247228  0.68222471  1
  Au  Au285  1  0.49477732  0.83713571  0.33250801  1
  Au  Au286  1  0.83954232  0.50203294  0.83291957  1
  Au  Au287  1  0.32517083  0.33911537  -0.00029559  1
