# generated using pymatgen
data_Ca24Ti8Al207Au49
_symmetry_space_group_name_H-M   'P 1'
_cell_length_a   17.32197542
_cell_length_b   17.31934433
_cell_length_c   17.31975338
_cell_angle_alpha   89.99537640
_cell_angle_beta   89.99951138
_cell_angle_gamma   89.99858886
_symmetry_Int_Tables_number   1
_chemical_formula_structural   Ca24Ti8Al207Au49
_chemical_formula_sum   'Ca24 Ti8 Al207 Au49'
_cell_volume   5196.01704134
_cell_formula_units_Z   1
loop_
 _symmetry_equiv_pos_site_id
 _symmetry_equiv_pos_as_xyz
  1  'x, y, z'
loop_
 _atom_site_type_symbol
 _atom_site_label
 _atom_site_symmetry_multiplicity
 _atom_site_fract_x
 _atom_site_fract_y
 _atom_site_fract_z
 _atom_site_occupancy
  Ca  Ca0  1  0.25737543  -0.00078579  -0.00507326  1
  Ca  Ca1  1  0.25385214  0.00218103  0.50227476  1
  Ca  Ca2  1  0.24899214  0.50153536  0.00137520  1
  Ca  Ca3  1  0.25242371  0.50005572  0.49663317  1
  Ca  Ca4  1  0.74538896  -0.00338267  0.00459197  1
  Ca  Ca5  1  0.74898772  -0.00500152  0.49714004  1
  Ca  Ca6  1  0.74893475  0.50577308  -0.00054198  1
  Ca  Ca7  1  0.75255541  0.50467828  0.50131909  1
  Ca  Ca8  1  -0.00132183  0.25124352  -0.00037341  1
  Ca  Ca9  1  0.00105693  0.25182616  0.50204770  1
  Ca  Ca10  1  -0.00282613  0.74411171  -0.00023625  1
  Ca  Ca11  1  -0.00174239  0.74809012  0.50430441  1
  Ca  Ca12  1  0.49948548  0.24866750  0.00070171  1
  Ca  Ca13  1  0.49744264  0.24701698  0.50051074  1
  Ca  Ca14  1  0.50376498  0.75027765  0.00001566  1
  Ca  Ca15  1  0.49985142  0.74751546  0.50044817  1
  Ca  Ca16  1  -0.00297571  -0.00413355  0.25042975  1
  Ca  Ca17  1  -0.00167716  -0.00260032  0.74110862  1
  Ca  Ca18  1  0.00147223  0.50167042  0.24910302  1
  Ca  Ca19  1  -0.00393508  0.50359645  0.74952539  1
  Ca  Ca20  1  0.50674297  -0.00330401  0.24449907  1
  Ca  Ca21  1  0.50268117  0.00083896  0.74557713  1
  Ca  Ca22  1  0.49844028  0.50327749  0.25223863  1
  Ca  Ca23  1  0.50449549  0.50104474  0.75166542  1
  Ti  Ti24  1  0.25044281  0.25229294  0.25228351  1
  Ti  Ti25  1  0.25138396  0.25068310  0.74861670  1
  Ti  Ti26  1  0.25072179  0.74734942  0.24987956  1
  Ti  Ti27  1  0.25032323  0.74867198  0.75019333  1
  Ti  Ti28  1  0.75001119  0.24849237  0.25078843  1
  Ti  Ti29  1  0.74920777  0.25176967  0.75054098  1
  Ti  Ti30  1  0.74994155  0.74975477  0.25072922  1
  Ti  Ti31  1  0.74963678  0.74911265  0.74962013  1
  Al  Al32  1  0.07543122  0.08630531  0.08085168  1
  Al  Al33  1  0.08237455  0.08303556  0.58498310  1
  Al  Al34  1  0.08186474  0.58852869  0.08549462  1
  Al  Al35  1  0.07378792  0.59276639  0.58423802  1
  Al  Al36  1  0.58930463  0.07564756  0.08949940  1
  Al  Al37  1  0.57440144  0.08397853  0.58371569  1
  Al  Al38  1  0.58110166  0.60191284  0.07958564  1
  Al  Al39  1  0.59385318  0.58079763  0.58413359  1
  Al  Al40  1  0.40863702  0.42582052  0.08992420  1
  Al  Al41  1  0.41801353  0.40961450  0.57306352  1
  Al  Al42  1  0.43102221  0.91992048  0.08050109  1
  Al  Al43  1  0.41141390  0.91968904  0.59029479  1
  Al  Al44  1  0.92310812  0.42476406  0.07847476  1
  Al  Al45  1  0.92263073  0.42565032  0.59532642  1
  Al  Al46  1  0.90638250  0.91499131  0.08827655  1
  Al  Al47  1  0.91278249  0.90220967  0.58709598  1
  Al  Al48  1  0.42577506  0.09373498  0.41934409  1
  Al  Al49  1  0.42169407  0.08913550  0.91752024  1
  Al  Al50  1  0.41074297  0.58697745  0.40433551  1
  Al  Al51  1  0.42690883  0.58536306  0.92323528  1
  Al  Al52  1  0.91981226  0.08191848  0.40507580  1
  Al  Al53  1  0.91904305  0.07530351  0.92088471  1
  Al  Al54  1  0.90659941  0.58916508  0.42076581  1
  Al  Al55  1  0.90947801  0.58893603  0.91870032  1
  Al  Al56  1  0.08417121  0.41447894  0.41855644  1
  Al  Al57  1  0.08633662  0.41522105  0.92077566  1
  Al  Al58  1  0.07277568  0.91999179  0.43360382  1
  Al  Al59  1  0.07630927  0.91360041  0.91857315  1
  Al  Al60  1  0.57194299  0.42539664  0.41831316  1
  Al  Al61  1  0.59126119  0.42766725  0.90935130  1
  Al  Al62  1  0.58643055  0.91460314  0.41708728  1
  Al  Al63  1  0.58842815  0.90414346  0.91885428  1
  Al  Al64  1  0.07463561  0.09624956  0.41764900  1
  Al  Al65  1  0.07860051  0.08171360  0.92130092  1
  Al  Al66  1  0.08160562  0.58015049  0.41953874  1
  Al  Al67  1  0.08193955  0.58554369  0.92351706  1
  Al  Al68  1  0.58165770  0.08644856  0.40935859  1
  Al  Al69  1  0.57683543  0.08415506  0.91956481  1
  Al  Al70  1  0.57596906  0.59151422  0.41314322  1
  Al  Al71  1  0.59585146  0.59166531  0.91504966  1
  Al  Al72  1  0.40405154  0.41966940  0.41159469  1
  Al  Al73  1  0.42153115  0.41852704  0.92583810  1
  Al  Al74  1  0.42397528  0.91255754  0.42598978  1
  Al  Al75  1  0.42824290  0.90939684  0.90949471  1
  Al  Al76  1  0.92123959  0.42968708  0.40611303  1
  Al  Al77  1  0.91828577  0.42550336  0.91341206  1
  Al  Al78  1  0.90526611  0.91386639  0.42484883  1
  Al  Al79  1  0.91455804  0.91174382  0.92073228  1
  Al  Al80  1  0.08893267  0.41632504  0.07789707  1
  Al  Al81  1  0.07987953  0.40797345  0.58093954  1
  Al  Al82  1  0.07537189  0.91352293  0.07840797  1
  Al  Al83  1  0.07825733  0.90842303  0.59217295  1
  Al  Al84  1  0.57479797  0.42333289  0.07315944  1
  Al  Al85  1  0.58195517  0.42373252  0.59381212  1
  Al  Al86  1  0.59450722  0.90883111  0.08364855  1
  Al  Al87  1  0.58132646  0.91302981  0.57902848  1
  Al  Al88  1  0.42414952  0.08242831  0.07830712  1
  Al  Al89  1  0.41269017  0.08392976  0.59253101  1
  Al  Al90  1  0.41868121  0.58775371  0.09940350  1
  Al  Al91  1  0.41605760  0.58597628  0.56719540  1
  Al  Al92  1  0.91093263  0.07442077  0.09449225  1
  Al  Al93  1  0.92379153  0.07504905  0.58659954  1
  Al  Al94  1  0.91736286  0.59360176  0.08192539  1
  Al  Al95  1  0.90954424  0.59477425  0.58635675  1
  Al  Al96  1  0.24869117  0.13703894  0.13878269  1
  Al  Al97  1  0.25287864  0.13585343  0.63064334  1
  Al  Al98  1  0.25404878  0.63306393  0.13280611  1
  Al  Al99  1  0.25420883  0.63347711  0.63420622  1
  Al  Al100  1  0.74872343  0.12887801  0.13826158  1
  Al  Al101  1  0.74912331  0.13654477  0.63737549  1
  Al  Al102  1  0.74850197  0.63534915  0.13181198  1
  Al  Al103  1  0.75049552  0.63872328  0.62808916  1
  Al  Al104  1  0.25292149  0.36835735  0.13385920  1
  Al  Al105  1  0.25360743  0.36698443  0.63306446  1
  Al  Al106  1  0.25037802  0.85947306  0.13371068  1
  Al  Al107  1  0.25451643  0.86545945  0.63670915  1
  Al  Al108  1  0.75042082  0.36700119  0.13169274  1
  Al  Al109  1  0.74652986  0.36682275  0.63473880  1
  Al  Al110  1  0.74604861  0.86322761  0.13370896  1
  Al  Al111  1  0.75144453  0.86228180  0.63324325  1
  Al  Al112  1  0.25247024  0.13894631  0.37206130  1
  Al  Al113  1  0.25404292  0.13691826  0.86351801  1
  Al  Al114  1  0.25370329  0.62775772  0.36071261  1
  Al  Al115  1  0.25063710  0.63824639  0.87328624  1
  Al  Al116  1  0.74938204  0.12717657  0.36142289  1
  Al  Al117  1  0.74834508  0.13359891  0.86348160  1
  Al  Al118  1  0.75336337  0.63504036  0.36892762  1
  Al  Al119  1  0.74843738  0.63157423  0.86536707  1
  Al  Al120  1  0.25395584  0.36950132  0.36672496  1
  Al  Al121  1  0.25057854  0.36462745  0.87027747  1
  Al  Al122  1  0.25581295  0.86083641  0.36575439  1
  Al  Al123  1  0.25107566  0.86155915  0.86660279  1
  Al  Al124  1  0.75509642  0.36560054  0.36413027  1
  Al  Al125  1  0.75019148  0.37204177  0.86632962  1
  Al  Al126  1  0.75253752  0.86921515  0.36286960  1
  Al  Al127  1  0.74927669  0.86449278  0.86719416  1
  Al  Al128  1  0.13769677  0.25313625  0.13683202  1
  Al  Al129  1  0.13675321  0.24982695  0.63464102  1
  Al  Al130  1  0.13316863  0.74406908  0.13291245  1
  Al  Al131  1  0.13410223  0.74960126  0.63398608  1
  Al  Al132  1  0.63834982  0.25036893  0.13775455  1
  Al  Al133  1  0.63237966  0.24747372  0.63834910  1
  Al  Al134  1  0.63785905  0.74820273  0.13117983  1
  Al  Al135  1  0.63634310  0.74881065  0.63402447  1
  Al  Al136  1  0.13685337  0.25053749  0.36576110  1
  Al  Al137  1  0.13467994  0.25399144  0.86444955  1
  Al  Al138  1  0.13539159  0.74599367  0.36563892  1
  Al  Al139  1  0.13349413  0.74598591  0.86628830  1
  Al  Al140  1  0.63059262  0.24917188  0.36074162  1
  Al  Al141  1  0.63787760  0.25451744  0.86419534  1
  Al  Al142  1  0.63765257  0.74536656  0.36366428  1
  Al  Al143  1  0.63975433  0.74875543  0.86908158  1
  Al  Al144  1  0.36271318  0.25342614  0.13695334  1
  Al  Al145  1  0.36623799  0.24828179  0.62919597  1
  Al  Al146  1  0.36660738  0.74477424  0.13115143  1
  Al  Al147  1  0.36356144  0.75090607  0.62890918  1
  Al  Al148  1  0.86323910  0.24828115  0.13804899  1
  Al  Al149  1  0.86403249  0.25607192  0.63506218  1
  Al  Al150  1  0.86447858  0.74443699  0.13355347  1
  Al  Al151  1  0.86569131  0.74909116  0.63245808  1
  Al  Al152  1  0.36532033  0.25378889  0.36969077  1
  Al  Al153  1  0.36485434  0.25359426  0.86419242  1
  Al  Al154  1  0.36703043  0.74237864  0.36976323  1
  Al  Al155  1  0.36529547  0.75041701  0.87101056  1
  Al  Al156  1  0.86446471  0.24343688  0.36493854  1
  Al  Al157  1  0.86530483  0.25613320  0.86478173  1
  Al  Al158  1  0.86418622  0.75173058  0.36808728  1
  Al  Al159  1  0.86244718  0.74479848  0.86867226  1
  Al  Al160  1  0.13042402  0.13761479  0.25367679  1
  Al  Al161  1  0.13696273  0.13811935  0.74987494  1
  Al  Al162  1  0.13301846  0.63439524  0.24822486  1
  Al  Al163  1  0.13674435  0.63717585  0.74649073  1
  Al  Al164  1  0.63619860  0.12996129  0.25082812  1
  Al  Al165  1  0.63398984  0.13020871  0.74817418  1
  Al  Al166  1  0.63472090  0.63481539  0.24752408  1
  Al  Al167  1  0.63849303  0.63196376  0.75026751  1
  Al  Al168  1  0.36458634  0.14008526  0.25368854  1
  Al  Al169  1  0.36664734  0.13525583  0.74286778  1
  Al  Al170  1  0.36816571  0.63428799  0.24922055  1
  Al  Al171  1  0.36299993  0.63799527  0.75333201  1
  Al  Al172  1  0.86442385  0.12945664  0.24951091  1
  Al  Al173  1  0.86345753  0.13665358  0.75127858  1
  Al  Al174  1  0.86367717  0.63638224  0.25207885  1
  Al  Al175  1  0.86343440  0.63674729  0.74804486  1
  Al  Al176  1  0.14001956  0.37022202  0.25244528  1
  Al  Al177  1  0.13818270  0.36480227  0.74631201  1
  Al  Al178  1  0.13432496  0.86014161  0.25157458  1
  Al  Al179  1  0.13535301  0.86097302  0.74588678  1
  Al  Al180  1  0.63676227  0.36862856  0.25263869  1
  Al  Al181  1  0.63523853  0.37020638  0.75124124  1
  Al  Al182  1  0.63659489  0.86744818  0.25029882  1
  Al  Al183  1  0.63565828  0.86337291  0.75358470  1
  Al  Al184  1  0.36452839  0.37031313  0.25328288  1
  Al  Al185  1  0.36374230  0.36608353  0.74752079  1
  Al  Al186  1  0.36604668  0.85782234  0.24960972  1
  Al  Al187  1  0.36494662  0.86158552  0.75202704  1
  Al  Al188  1  0.86418862  0.36774658  0.25111310  1
  Al  Al189  1  0.86376803  0.36973932  0.74975825  1
  Al  Al190  1  0.86253173  0.86617583  0.24586422  1
  Al  Al191  1  0.86347490  0.86048840  0.74763451  1
  Al  Al192  1  0.50120973  0.17161825  0.18247874  1
  Al  Al193  1  -0.00119183  0.81194863  0.17979560  1
  Al  Al194  1  0.18239865  0.67198925  0.49887577  1
  Al  Al195  1  0.67229829  0.17328709  0.49844340  1
  Al  Al196  1  0.82768848  0.17599704  0.00096493  1
  Al  Al197  1  0.32913185  0.50075389  0.82019866  1
  Al  Al198  1  0.49806111  0.32111595  0.68088902  1
  Al  Al199  1  0.16872074  -0.00076849  0.33279896  1
  Al  Al200  1  0.33443585  -0.00040353  0.32786180  1
  Al  Al201  1  0.00011470  0.31739219  0.32677792  1
  Al  Al202  1  0.50067125  0.18367636  0.81120456  1
  Al  Al203  1  0.50273022  0.81257030  0.17372980  1
  Al  Al204  1  0.50097759  0.81274278  0.32800024  1
  Al  Al205  1  0.18228256  -0.00015840  0.67142897  1
  Al  Al206  1  0.17361477  0.50235895  0.82738245  1
  Al  Al207  1  0.82040437  -0.00178340  0.67775200  1
  Al  Al208  1  -0.00194897  0.67451932  0.32233618  1
  Al  Al209  1  -0.00063922  0.18598395  0.67844189  1
  Al  Al210  1  -0.00001835  0.66963352  0.81784926  1
  Al  Al211  1  0.33209673  0.00073339  0.81391214  1
  Al  Al212  1  0.81298529  0.50352347  0.67983367  1
  Al  Al213  1  -0.00072488  0.82364316  0.80964486  1
  Al  Al214  1  0.49919518  0.67645258  0.67658211  1
  Al  Al215  1  0.67116991  0.17955780  0.00132398  1
  Al  Al216  1  0.83653583  0.33491668  0.49927623  1
  Al  Al217  1  0.82698619  0.16914596  0.50170482  1
  Al  Al218  1  0.16952745  0.18979067  0.00088434  1
  Al  Al219  1  0.00175269  0.32363081  0.81192905  1
  Al  Al220  1  0.18050284  0.81393418  -0.00018145  1
  Al  Al221  1  0.17793343  0.50192767  0.17733529  1
  Al  Al222  1  0.17472510  -0.00168630  0.82792590  1
  Al  Al223  1  0.18606145  0.32160663  0.49962665  1
  Al  Al224  1  0.67190633  0.32894597  0.49818243  1
  Al  Al225  1  0.68336784  0.50178948  0.32423199  1
  Al  Al226  1  0.32546788  0.18204543  0.00123359  1
  Al  Al227  1  0.33026678  -0.00084483  0.17247737  1
  Al  Al228  1  0.68630355  0.81833082  0.49789919  1
  Al  Al229  1  0.82280234  0.50305712  0.18024047  1
  Al  Al230  1  0.17007945  0.50074440  0.66836442  1
  Al  Al231  1  0.17970096  0.82576618  0.50137076  1
  Al  Al232  1  0.50021228  0.82738143  0.68486847  1
  Al  Al233  1  0.67389146  0.00129714  0.82682339  1
  Al  Al234  1  0.50255800  0.68710936  0.82818680  1
  Al  Al235  1  0.00006509  0.31720544  0.17198415  1
  Al  Al236  1  0.50147458  0.32774133  0.18129567  1
  Al  Al237  1  0.17154739  -0.00161836  0.17074190  1
  Al  Al238  1  0.81261176  0.81088840  0.00200265  1
  Au  Au239  1  0.33584943  0.17515305  0.50142240  1
  Au  Au240  1  -0.00271784  0.66277401  0.32947009  1
  Au  Au241  1  0.35027479  0.00375330  0.32754290  1
  Au  Au242  1  0.83762057  0.50443057  0.17236246  1
  Au  Au243  1  0.00418284  0.33382611  0.17313573  1
  Au  Au244  1  0.32899011  0.82725348  0.50272045  1
  Au  Au245  1  0.33206519  0.50279921  0.83677447  1
  Au  Au246  1  0.00245476  0.33505002  0.82445445  1
  Au  Au247  1  0.83212008  0.33966215  -0.00142150  1
  Au  Au248  1  0.17164726  0.17272135  -0.00213055  1
  Au  Au249  1  -0.00334701  0.82066107  0.82652443  1
  Au  Au250  1  0.49461960  0.32584466  0.34005646  1
  Au  Au251  1  0.17711239  0.49853704  0.33482809  1
  Au  Au252  1  0.83046639  0.15345742  0.50057227  1
  Au  Au253  1  -0.00258147  0.82960301  0.34510603  1
  Au  Au254  1  0.16475727  0.82132655  -0.00133027  1
  Au  Au255  1  0.33077884  0.66180776  0.00409871  1
  Au  Au256  1  0.15865688  -0.00108282  0.82094541  1
  Au  Au257  1  0.50345384  0.32889282  0.83931503  1
  Au  Au258  1  0.33331554  0.49923061  0.65299964  1
  Au  Au259  1  -0.00278269  0.16120268  0.82421321  1
  Au  Au260  1  -0.00250007  0.82666302  0.17069629  1
  Au  Au261  1  0.81972057  0.82659435  0.00189178  1
  Au  Au262  1  0.66583855  -0.00027049  0.32444441  1
  Au  Au263  1  0.49811221  0.31781413  0.66840102  1
  Au  Au264  1  0.82531350  0.15963164  0.00505708  1
  Au  Au265  1  0.65628756  0.32902458  0.50281755  1
  Au  Au266  1  0.83458537  -0.00387369  0.32054064  1
  Au  Au267  1  0.66477023  0.33196249  -0.00232620  1
  Au  Au268  1  0.67128733  0.50304877  0.33603892  1
  Au  Au269  1  0.82146801  0.50472052  0.82809592  1
  Au  Au270  1  -0.00332657  0.15923347  0.18258373  1
  Au  Au271  1  0.83742565  -0.00226546  0.82525325  1
  Au  Au272  1  0.17768087  -0.00136711  0.15419924  1
  Au  Au273  1  0.49913762  0.66353002  0.66674667  1
  Au  Au274  1  0.49718480  0.32750876  0.16543703  1
  Au  Au275  1  0.16576761  0.17493157  0.50237427  1
  Au  Au276  1  0.50096190  0.82548313  0.32470230  1
  Au  Au277  1  0.84217332  0.34950591  0.49966947  1
  Au  Au278  1  0.32551765  0.33373807  0.00280037  1
  Au  Au279  1  0.65960169  0.50628317  0.15974358  1
  Au  Au280  1  0.34433627  0.00171849  0.82543802  1
  Au  Au281  1  0.17916078  0.50002406  0.16493882  1
  Au  Au282  1  0.66509269  -0.00058437  0.83551427  1
  Au  Au283  1  0.67450876  0.67174665  0.49784625  1
  Au  Au284  1  0.15747581  0.50026648  0.67106890  1
  Au  Au285  1  0.15311059  -0.00026485  0.33711584  1
  Au  Au286  1  0.34155876  0.83269217  0.00211757  1
  Au  Au287  1  0.67126033  -0.00085922  0.65913202  1
