# generated using pymatgen
data_Ca24Ti8Al207Au49
_symmetry_space_group_name_H-M   'P 1'
_cell_length_a   17.32003022
_cell_length_b   17.31829845
_cell_length_c   17.31817405
_cell_angle_alpha   90.00348425
_cell_angle_beta   89.99851735
_cell_angle_gamma   89.99585266
_symmetry_Int_Tables_number   1
_chemical_formula_structural   Ca24Ti8Al207Au49
_chemical_formula_sum   'Ca24 Ti8 Al207 Au49'
_cell_volume   5194.64607264
_cell_formula_units_Z   1
loop_
 _symmetry_equiv_pos_site_id
 _symmetry_equiv_pos_as_xyz
  1  'x, y, z'
loop_
 _atom_site_type_symbol
 _atom_site_label
 _atom_site_symmetry_multiplicity
 _atom_site_fract_x
 _atom_site_fract_y
 _atom_site_fract_z
 _atom_site_occupancy
  Ca  Ca0  1  0.25059830  0.00102404  0.00003851  1
  Ca  Ca1  1  0.24606352  0.00118167  0.50310492  1
  Ca  Ca2  1  0.25056031  0.49998901  0.00015077  1
  Ca  Ca3  1  0.24383305  0.49858206  0.49895364  1
  Ca  Ca4  1  0.74766261  0.00142446  0.00044084  1
  Ca  Ca5  1  0.75387074  0.00148373  0.49874664  1
  Ca  Ca6  1  0.74724814  0.49825881  0.00106752  1
  Ca  Ca7  1  0.75150366  0.49833643  0.49720174  1
  Ca  Ca8  1  0.00591016  0.25735462  -0.00377304  1
  Ca  Ca9  1  -0.00386212  0.24981345  0.50211457  1
  Ca  Ca10  1  0.00319793  0.74651265  -0.00239870  1
  Ca  Ca11  1  -0.00153026  0.74698291  0.50219560  1
  Ca  Ca12  1  0.49756200  0.25743228  -0.00137471  1
  Ca  Ca13  1  0.50235295  0.25007911  0.50226300  1
  Ca  Ca14  1  0.50028981  0.74432953  -0.00017881  1
  Ca  Ca15  1  0.50160060  0.75014917  0.50006100  1
  Ca  Ca16  1  -0.00439687  -0.00393092  0.25472294  1
  Ca  Ca17  1  0.00099012  0.00180735  0.74234870  1
  Ca  Ca18  1  0.00132883  0.50398821  0.25140967  1
  Ca  Ca19  1  0.00044329  0.49730899  0.75033229  1
  Ca  Ca20  1  0.50173379  0.00531997  0.25005235  1
  Ca  Ca21  1  0.49873615  -0.00076848  0.75001771  1
  Ca  Ca22  1  0.49794443  0.49852343  0.24864869  1
  Ca  Ca23  1  0.50008506  0.50233211  0.75738240  1
  Ti  Ti24  1  0.25099565  0.25130265  0.24869271  1
  Ti  Ti25  1  0.24885810  0.25280129  0.75046468  1
  Ti  Ti26  1  0.24982755  0.74873762  0.24700367  1
  Ti  Ti27  1  0.24965934  0.74772276  0.75300942  1
  Ti  Ti28  1  0.75210411  0.25006069  0.25150254  1
  Ti  Ti29  1  0.75065174  0.25150471  0.74784122  1
  Ti  Ti30  1  0.74959126  0.74963275  0.25138942  1
  Ti  Ti31  1  0.74953647  0.75003668  0.74997015  1
  Al  Al32  1  0.08135872  0.08696700  0.07291753  1
  Al  Al33  1  0.07810486  0.09222605  0.58976380  1
  Al  Al34  1  0.08261032  0.58332716  0.09361563  1
  Al  Al35  1  0.07908840  0.58731657  0.58901085  1
  Al  Al36  1  0.57549111  0.08232723  0.09327475  1
  Al  Al37  1  0.59222452  0.08412671  0.57084972  1
  Al  Al38  1  0.57878391  0.58457328  0.08509857  1
  Al  Al39  1  0.58189067  0.57907038  0.58654340  1
  Al  Al40  1  0.41670964  0.41667174  0.07388385  1
  Al  Al41  1  0.41232598  0.41775471  0.57833256  1
  Al  Al42  1  0.41695086  0.89684000  0.08129018  1
  Al  Al43  1  0.42418852  0.92530075  0.58541214  1
  Al  Al44  1  0.90923761  0.41753397  0.08007964  1
  Al  Al45  1  0.91662754  0.41117189  0.57832876  1
  Al  Al46  1  0.91957103  0.91847289  0.08761675  1
  Al  Al47  1  0.91964270  0.91155211  0.58473640  1
  Al  Al48  1  0.41936552  0.09918274  0.41347914  1
  Al  Al49  1  0.41188426  0.08919327  0.93040912  1
  Al  Al50  1  0.41392691  0.58040851  0.41586644  1
  Al  Al51  1  0.42033037  0.58872929  0.91347920  1
  Al  Al52  1  0.90345733  0.08120995  0.42256303  1
  Al  Al53  1  0.92681447  0.08464217  0.91930354  1
  Al  Al54  1  0.91602377  0.58769076  0.40663594  1
  Al  Al55  1  0.92317376  0.57458072  0.91623887  1
  Al  Al56  1  0.09238103  0.42294855  0.41922054  1
  Al  Al57  1  0.09296208  0.41355539  0.91472300  1
  Al  Al58  1  0.07268033  0.91278720  0.42733826  1
  Al  Al59  1  0.08633219  0.91934987  0.91417239  1
  Al  Al60  1  0.59349260  0.41132709  0.41977805  1
  Al  Al61  1  0.58612540  0.41640995  0.90979852  1
  Al  Al62  1  0.58758281  0.90779121  0.41906685  1
  Al  Al63  1  0.57154128  0.90983717  0.91240327  1
  Al  Al64  1  0.08044320  0.07979581  0.42786326  1
  Al  Al65  1  0.08812523  0.08539785  0.91210786  1
  Al  Al66  1  0.08063860  0.58513591  0.40528333  1
  Al  Al67  1  0.08842050  0.57498979  0.91021147  1
  Al  Al68  1  0.58286972  0.09647279  0.41198573  1
  Al  Al69  1  0.57269877  0.07548710  0.92322163  1
  Al  Al70  1  0.58228571  0.57713719  0.41335214  1
  Al  Al71  1  0.58370594  0.58067134  0.91023493  1
  Al  Al72  1  0.40955195  0.41709487  0.41585608  1
  Al  Al73  1  0.41991116  0.41122876  0.91123402  1
  Al  Al74  1  0.42868549  0.92242643  0.41858526  1
  Al  Al75  1  0.41291988  0.89620110  0.91893935  1
  Al  Al76  1  0.90514885  0.42445300  0.41734334  1
  Al  Al77  1  0.91411208  0.41085316  0.91915783  1
  Al  Al78  1  0.91175182  0.91882135  0.41293281  1
  Al  Al79  1  0.92559663  0.92065832  0.91820422  1
  Al  Al80  1  0.09139339  0.41937863  0.07829652  1
  Al  Al81  1  0.08564892  0.41100175  0.58165442  1
  Al  Al82  1  0.07913801  0.91230754  0.07835384  1
  Al  Al83  1  0.07954073  0.90574930  0.58856177  1
  Al  Al84  1  0.58321532  0.42157318  0.07431391  1
  Al  Al85  1  0.59495740  0.41603419  0.57984370  1
  Al  Al86  1  0.57520640  0.91735436  0.08968758  1
  Al  Al87  1  0.58833636  0.90672751  0.57916579  1
  Al  Al88  1  0.41866866  0.10380637  0.08795435  1
  Al  Al89  1  0.40331071  0.08386001  0.57223249  1
  Al  Al90  1  0.42084842  0.59235850  0.08746997  1
  Al  Al91  1  0.41793107  0.58350170  0.58165795  1
  Al  Al92  1  0.91707812  0.08040305  0.08266299  1
  Al  Al93  1  0.91438008  0.09253261  0.58384024  1
  Al  Al94  1  0.92364952  0.58245186  0.09396310  1
  Al  Al95  1  0.92108469  0.58983062  0.58280819  1
  Al  Al96  1  0.25069321  0.13740789  0.12803550  1
  Al  Al97  1  0.24934527  0.13765488  0.63326665  1
  Al  Al98  1  0.25049366  0.63581554  0.12784676  1
  Al  Al99  1  0.24635456  0.63470959  0.63717426  1
  Al  Al100  1  0.75517237  0.13571377  0.13671815  1
  Al  Al101  1  0.75217786  0.13724420  0.63230483  1
  Al  Al102  1  0.74987320  0.63496145  0.13874720  1
  Al  Al103  1  0.74777767  0.63835702  0.63694225  1
  Al  Al104  1  0.25038966  0.36227154  0.12719561  1
  Al  Al105  1  0.24890753  0.36523630  0.62936623  1
  Al  Al106  1  0.25238004  0.86182597  0.12654909  1
  Al  Al107  1  0.24575538  0.86081089  0.63991123  1
  Al  Al108  1  0.75324599  0.36401968  0.13575369  1
  Al  Al109  1  0.74786832  0.36525417  0.63451195  1
  Al  Al110  1  0.75391699  0.86183574  0.13411320  1
  Al  Al111  1  0.75039649  0.86201844  0.63077093  1
  Al  Al112  1  0.24955181  0.13467224  0.36544487  1
  Al  Al113  1  0.24921995  0.13799048  0.86973704  1
  Al  Al114  1  0.24453616  0.63394463  0.36160185  1
  Al  Al115  1  0.25070882  0.63212792  0.86954550  1
  Al  Al116  1  0.75429756  0.13333066  0.36674778  1
  Al  Al117  1  0.74845726  0.13727826  0.86217718  1
  Al  Al118  1  0.74960962  0.62779018  0.36248521  1
  Al  Al119  1  0.75024976  0.62954635  0.86060301  1
  Al  Al120  1  0.25034909  0.36257890  0.37029622  1
  Al  Al121  1  0.24838817  0.36990874  0.86985749  1
  Al  Al122  1  0.24716906  0.86417076  0.36051976  1
  Al  Al123  1  0.25209653  0.86110769  0.87066198  1
  Al  Al124  1  0.74935237  0.36802695  0.36491129  1
  Al  Al125  1  0.75122262  0.36830331  0.86329674  1
  Al  Al126  1  0.75199975  0.86373600  0.37058780  1
  Al  Al127  1  0.74789288  0.86242891  0.86496121  1
  Al  Al128  1  0.13424538  0.25099556  0.13050126  1
  Al  Al129  1  0.13001591  0.25351749  0.63611108  1
  Al  Al130  1  0.13668485  0.74585791  0.12755261  1
  Al  Al131  1  0.13018420  0.74451818  0.63816150  1
  Al  Al132  1  0.63707342  0.24833710  0.14084698  1
  Al  Al133  1  0.63349529  0.25381368  0.63536354  1
  Al  Al134  1  0.63137081  0.74953488  0.13688600  1
  Al  Al135  1  0.63361433  0.75218202  0.63624788  1
  Al  Al136  1  0.13536048  0.25695457  0.36834456  1
  Al  Al137  1  0.13772395  0.25267329  0.87002934  1
  Al  Al138  1  0.13160171  0.74299998  0.36353920  1
  Al  Al139  1  0.13547486  0.74869794  0.87103795  1
  Al  Al140  1  0.63765439  0.24947636  0.36516157  1
  Al  Al141  1  0.63298233  0.25416685  0.86238539  1
  Al  Al142  1  0.63601275  0.75216542  0.36472060  1
  Al  Al143  1  0.63145437  0.74939517  0.86472277  1
  Al  Al144  1  0.36448448  0.24977843  0.12846596  1
  Al  Al145  1  0.36369387  0.25243570  0.62898255  1
  Al  Al146  1  0.36744961  0.74976105  0.13087641  1
  Al  Al147  1  0.36796322  0.74807458  0.63882552  1
  Al  Al148  1  0.87094090  0.25324318  0.13846164  1
  Al  Al149  1  0.86980814  0.24905781  0.63375637  1
  Al  Al150  1  0.86509170  0.74461573  0.13911631  1
  Al  Al151  1  0.86719463  0.75252021  0.63495208  1
  Al  Al152  1  0.36326100  0.24766415  0.37282424  1
  Al  Al153  1  0.36108187  0.25349755  0.87047170  1
  Al  Al154  1  0.36219846  0.74977992  0.36233299  1
  Al  Al155  1  0.36499964  0.74749971  0.87083254  1
  Al  Al156  1  0.86412002  0.24808459  0.36778993  1
  Al  Al157  1  0.86522068  0.25320445  0.86252345  1
  Al  Al158  1  0.86413824  0.74930870  0.36443167  1
  Al  Al159  1  0.86734171  0.75215872  0.86343026  1
  Al  Al160  1  0.13617238  0.13932180  0.25024266  1
  Al  Al161  1  0.13818413  0.13810970  0.74731571  1
  Al  Al162  1  0.13140212  0.63644213  0.24716512  1
  Al  Al163  1  0.13734223  0.62959125  0.75246856  1
  Al  Al164  1  0.63483893  0.13533463  0.25360816  1
  Al  Al165  1  0.63563276  0.13143948  0.74639996  1
  Al  Al166  1  0.63288993  0.63535969  0.24991022  1
  Al  Al167  1  0.62938139  0.63759561  0.75397526  1
  Al  Al168  1  0.36811455  0.13945836  0.24964607  1
  Al  Al169  1  0.36230344  0.14221386  0.74992348  1
  Al  Al170  1  0.36445752  0.63656380  0.24445596  1
  Al  Al171  1  0.36869607  0.63505173  0.75632568  1
  Al  Al172  1  0.86409248  0.12963868  0.25046306  1
  Al  Al173  1  0.86715252  0.13771673  0.74549208  1
  Al  Al174  1  0.86852051  0.63474587  0.25578153  1
  Al  Al175  1  0.86714233  0.63563040  0.74731073  1
  Al  Al176  1  0.13586246  0.36363346  0.24821597  1
  Al  Al177  1  0.13914940  0.37047049  0.75016559  1
  Al  Al178  1  0.13642789  0.86186923  0.24633407  1
  Al  Al179  1  0.13006279  0.85952158  0.74825328  1
  Al  Al180  1  0.63411267  0.36496174  0.25298982  1
  Al  Al181  1  0.63453409  0.36753077  0.75555371  1
  Al  Al182  1  0.63684597  0.86466658  0.24873292  1
  Al  Al183  1  0.63539762  0.86895959  0.75067323  1
  Al  Al184  1  0.36441921  0.36015886  0.25105243  1
  Al  Al185  1  0.36324700  0.36485661  0.75335488  1
  Al  Al186  1  0.36435916  0.86554868  0.24568967  1
  Al  Al187  1  0.36719163  0.85987326  0.75608993  1
  Al  Al188  1  0.86625775  0.36502827  0.25450688  1
  Al  Al189  1  0.86554756  0.36588860  0.74750779  1
  Al  Al190  1  0.86234399  0.87017131  0.25204431  1
  Al  Al191  1  0.86914620  0.86367945  0.74729844  1
  Al  Al192  1  0.82072521  0.00084950  0.82866097  1
  Al  Al193  1  0.67139441  0.16948548  0.00331133  1
  Al  Al194  1  0.82521856  0.68085685  0.49893973  1
  Al  Al195  1  0.50084935  0.33184400  0.68171851  1
  Al  Al196  1  0.67327537  0.49914838  0.17817867  1
  Al  Al197  1  0.69020556  0.19162103  0.49926152  1
  Al  Al198  1  0.32973929  0.49838171  0.17000315  1
  Al  Al199  1  0.17734351  -0.00081942  0.81488077  1
  Al  Al200  1  0.17406070  0.81496268  0.50054518  1
  Al  Al201  1  0.49805191  0.67608649  0.31824123  1
  Al  Al202  1  0.18349008  0.18722763  0.50050497  1
  Al  Al203  1  0.30969987  0.49907231  0.32116826  1
  Al  Al204  1  0.49990253  0.82098421  0.67981835  1
  Al  Al205  1  0.50015268  0.82700969  0.31382567  1
  Al  Al206  1  0.49700096  0.16886421  0.66774924  1
  Al  Al207  1  0.67437103  0.50204292  0.68689626  1
  Al  Al208  1  0.17077773  0.00166317  0.17931253  1
  Al  Al209  1  -0.00217023  0.17251640  0.32453994  1
  Al  Al210  1  0.83252358  0.67610278  -0.00075472  1
  Al  Al211  1  0.32502269  0.00269697  0.32936641  1
  Al  Al212  1  0.31619370  -0.00040045  0.67563823  1
  Al  Al213  1  0.31672915  0.67538947  0.49980793  1
  Al  Al214  1  0.31942075  0.50304912  0.67862834  1
  Al  Al215  1  0.33225773  0.00103571  0.16987547  1
  Al  Al216  1  0.68063172  -0.00011523  0.17522144  1
  Al  Al217  1  0.49790859  0.18586849  0.82771740  1
  Al  Al218  1  0.82335627  -0.00037184  0.67166458  1
  Al  Al219  1  0.17884707  0.49972738  0.18792856  1
  Al  Al220  1  0.00185021  0.67867645  0.81526087  1
  Al  Al221  1  0.33399130  0.00150358  0.82575911  1
  Al  Al222  1  0.50071516  0.31428659  0.16960378  1
  Al  Al223  1  0.82560377  0.50222821  0.67271609  1
  Al  Al224  1  0.80924817  0.31181065  0.50024013  1
  Al  Al225  1  0.32458673  0.83495892  0.50106747  1
  Al  Al226  1  0.00106950  0.80549681  0.17336628  1
  Al  Al227  1  -0.00101992  0.81563920  0.32779049  1
  Al  Al228  1  0.66694213  0.68263861  0.49958569  1
  Al  Al229  1  0.67061349  0.82880801  0.00226867  1
  Al  Al230  1  0.00254208  0.17550790  0.81527413  1
  Al  Al231  1  0.68361100  -0.00051548  0.33055938  1
  Al  Al232  1  0.68391872  0.32612455  -0.00084939  1
  Al  Al233  1  0.00163355  0.33683697  0.32704413  1
  Al  Al234  1  0.00285385  0.32801019  0.81926108  1
  Al  Al235  1  0.82654977  0.50053726  0.18511648  1
  Al  Al236  1  0.67433914  0.67053396  -0.00136366  1
  Al  Al237  1  0.82800803  0.18877315  -0.00122782  1
  Al  Al238  1  0.49930140  0.31292145  0.33029875  1
  Au  Au239  1  0.65571674  0.17579916  0.00676135  1
  Au  Au240  1  0.00050246  0.32322606  0.66842620  1
  Au  Au241  1  0.33635390  0.67497932  0.00036617  1
  Au  Au242  1  0.50019066  0.32409236  0.34220842  1
  Au  Au243  1  0.65801548  0.82577269  0.00282669  1
  Au  Au244  1  0.83353661  0.50220816  0.66161883  1
  Au  Au245  1  0.00027498  0.33482662  0.33931427  1
  Au  Au246  1  0.33086623  -0.00332501  0.84174024  1
  Au  Au247  1  0.49897714  0.66531948  0.67840019  1
  Au  Au248  1  0.67311417  0.66647336  0.50050064  1
  Au  Au249  1  0.33690686  0.00391051  0.33327092  1
  Au  Au250  1  0.50226926  0.34541072  0.67237871  1
  Au  Au251  1  0.84327421  0.18148378  -0.00083088  1
  Au  Au252  1  0.17595682  0.83542030  -0.00251152  1
  Au  Au253  1  0.16176237  0.49930836  0.67422230  1
  Au  Au254  1  0.16461589  0.66461728  0.49787965  1
  Au  Au255  1  0.65763667  -0.00153620  0.83021224  1
  Au  Au256  1  0.82837331  0.83285323  0.50010854  1
  Au  Au257  1  0.32376616  0.32639818  0.49996498  1
  Au  Au258  1  0.49813152  0.83348109  0.67875884  1
  Au  Au259  1  0.32931778  0.50038814  0.83447789  1
  Au  Au260  1  0.17436272  0.17394207  -0.00230126  1
  Au  Au261  1  0.49708861  0.15502161  0.66018550  1
  Au  Au262  1  0.00217081  0.33814889  0.16188388  1
  Au  Au263  1  0.83172970  0.65974166  0.00398180  1
  Au  Au264  1  0.67478317  -0.00237232  0.65560518  1
  Au  Au265  1  0.50145376  0.32881951  0.16206366  1
  Au  Au266  1  0.34211155  -0.00029352  0.15531972  1
  Au  Au267  1  0.16967329  0.17717367  0.50250361  1
  Au  Au268  1  0.82342319  0.49620287  0.83670043  1
  Au  Au269  1  0.00150778  0.17147085  0.16292717  1
  Au  Au270  1  0.66762871  -0.00047114  0.33406609  1
  Au  Au271  1  0.16434280  -0.00828583  0.34311924  1
  Au  Au272  1  0.33967588  0.82709575  0.50090228  1
  Au  Au273  1  0.32831651  0.50101058  0.67005113  1
  Au  Au274  1  -0.00078453  0.82239559  0.17600428  1
  Au  Au275  1  0.15774916  0.00227879  0.16856193  1
  Au  Au276  1  0.83696512  0.00522034  0.82662733  1
  Au  Au277  1  0.83343866  0.83839860  -0.00189725  1
  Au  Au278  1  -0.00537289  0.15707830  0.33245439  1
  Au  Au279  1  0.67604717  0.49679325  0.32757100  1
  Au  Au280  1  0.83036608  0.00046768  0.17330411  1
  Au  Au281  1  0.49453910  0.17742634  0.84201260  1
  Au  Au282  1  0.32583135  0.32790592  -0.00234965  1
  Au  Au283  1  0.49808122  0.66818776  0.33034027  1
  Au  Au284  1  0.16438001  -0.00220233  0.66596161  1
  Au  Au285  1  0.16504092  0.66296332  -0.00009985  1
  Au  Au286  1  0.00225881  0.66267293  0.82119112  1
  Au  Au287  1  0.00158954  0.83702654  0.82106018  1
