# generated using pymatgen
data_Ca24Ti8Al207Au49
_symmetry_space_group_name_H-M   'P 1'
_cell_length_a   17.32476430
_cell_length_b   17.32622014
_cell_length_c   17.32551684
_cell_angle_alpha   89.99913909
_cell_angle_beta   89.99520979
_cell_angle_gamma   89.99943291
_symmetry_Int_Tables_number   1
_chemical_formula_structural   Ca24Ti8Al207Au49
_chemical_formula_sum   'Ca24 Ti8 Al207 Au49'
_cell_volume   5200.64680635
_cell_formula_units_Z   1
loop_
 _symmetry_equiv_pos_site_id
 _symmetry_equiv_pos_as_xyz
  1  'x, y, z'
loop_
 _atom_site_type_symbol
 _atom_site_label
 _atom_site_symmetry_multiplicity
 _atom_site_fract_x
 _atom_site_fract_y
 _atom_site_fract_z
 _atom_site_occupancy
  Ca  Ca0  1  0.24873027  -0.00199323  0.00237010  1
  Ca  Ca1  1  0.24840180  -0.00102577  0.49833618  1
  Ca  Ca2  1  0.25009793  0.50053744  -0.00005360  1
  Ca  Ca3  1  0.25536140  0.50130997  0.50041002  1
  Ca  Ca4  1  0.74906748  0.00220659  0.00042055  1
  Ca  Ca5  1  0.75120597  0.00048196  0.49758597  1
  Ca  Ca6  1  0.74787843  0.50002030  -0.00535746  1
  Ca  Ca7  1  0.74920870  0.49787466  0.50318120  1
  Ca  Ca8  1  -0.00201787  0.24695974  0.00370825  1
  Ca  Ca9  1  -0.00144226  0.24662445  0.49706340  1
  Ca  Ca10  1  -0.00091021  0.75030052  -0.00109473  1
  Ca  Ca11  1  -0.00088335  0.75301308  0.49863627  1
  Ca  Ca12  1  0.50082547  0.25348311  -0.00176671  1
  Ca  Ca13  1  0.50119305  0.25164153  0.50223689  1
  Ca  Ca14  1  0.50220849  0.74853585  0.00047960  1
  Ca  Ca15  1  0.49797073  0.74922452  0.49848299  1
  Ca  Ca16  1  -0.00152679  -0.00292904  0.24708639  1
  Ca  Ca17  1  -0.00178082  -0.00495327  0.75313562  1
  Ca  Ca18  1  0.00354295  0.50467551  0.24848679  1
  Ca  Ca19  1  0.00149955  0.50436775  0.75651405  1
  Ca  Ca20  1  0.50021206  -0.00029612  0.24910335  1
  Ca  Ca21  1  0.50275024  -0.00087058  0.75087348  1
  Ca  Ca22  1  0.49364223  0.50064588  0.24979249  1
  Ca  Ca23  1  0.49839735  0.49738433  0.75288539  1
  Ti  Ti24  1  0.24960932  0.24941038  0.24912263  1
  Ti  Ti25  1  0.25065969  0.25026074  0.75015312  1
  Ti  Ti26  1  0.24896725  0.75073004  0.24795047  1
  Ti  Ti27  1  0.25053459  0.74978989  0.75229884  1
  Ti  Ti28  1  0.75169123  0.24771414  0.24920634  1
  Ti  Ti29  1  0.74936961  0.24948675  0.75070595  1
  Ti  Ti30  1  0.75178413  0.75222673  0.24968452  1
  Ti  Ti31  1  0.75002065  0.75074585  0.75102936  1
  Al  Al32  1  0.08258190  0.07946005  0.08206263  1
  Al  Al33  1  0.08161193  0.07854017  0.57741237  1
  Al  Al34  1  0.08036145  0.58923784  0.08533567  1
  Al  Al35  1  0.08392388  0.58331794  0.58726899  1
  Al  Al36  1  0.59056972  0.08688948  0.07810760  1
  Al  Al37  1  0.59057050  0.08118294  0.58844853  1
  Al  Al38  1  0.58804246  0.58825937  0.07682504  1
  Al  Al39  1  0.57793103  0.57875262  0.58351168  1
  Al  Al40  1  0.40882411  0.41424314  0.08049479  1
  Al  Al41  1  0.42259136  0.41270758  0.58771306  1
  Al  Al42  1  0.41080860  0.91988615  0.08687075  1
  Al  Al43  1  0.41941452  0.91527663  0.58115750  1
  Al  Al44  1  0.91825889  0.41531222  0.07683856  1
  Al  Al45  1  0.91208869  0.42068716  0.58251500  1
  Al  Al46  1  0.91254896  0.91940408  0.08940493  1
  Al  Al47  1  0.91714500  0.91930506  0.58639678  1
  Al  Al48  1  0.41475041  0.08007526  0.41992557  1
  Al  Al49  1  0.42437773  0.08234624  0.91809787  1
  Al  Al50  1  0.40763415  0.58678112  0.41470500  1
  Al  Al51  1  0.41792556  0.57650286  0.91577321  1
  Al  Al52  1  0.91146329  0.08587938  0.41692232  1
  Al  Al53  1  0.91161635  0.08514715  0.92598648  1
  Al  Al54  1  0.92140416  0.58480000  0.41494130  1
  Al  Al55  1  0.92116485  0.59105667  0.91616887  1
  Al  Al56  1  0.08780221  0.42365404  0.41431598  1
  Al  Al57  1  0.09310343  0.42817116  0.91567925  1
  Al  Al58  1  0.07835047  0.91852391  0.40497763  1
  Al  Al59  1  0.08549243  0.90642150  0.91708714  1
  Al  Al60  1  0.58291577  0.42118317  0.42424874  1
  Al  Al61  1  0.58177206  0.41144669  0.91100899  1
  Al  Al62  1  0.58873594  0.92098912  0.41548553  1
  Al  Al63  1  0.58870065  0.91252396  0.91940470  1
  Al  Al64  1  0.08155878  0.07813226  0.41269660  1
  Al  Al65  1  0.07854012  0.07883617  0.92457362  1
  Al  Al66  1  0.08794072  0.58382112  0.40852456  1
  Al  Al67  1  0.08424902  0.58955053  0.90907424  1
  Al  Al68  1  0.59093510  0.07814575  0.41627508  1
  Al  Al69  1  0.58695361  0.09059151  0.91732427  1
  Al  Al70  1  0.57615173  0.57854885  0.41656844  1
  Al  Al71  1  0.58927391  0.58487478  0.91677726  1
  Al  Al72  1  0.41102266  0.42670452  0.41578519  1
  Al  Al73  1  0.41293743  0.40937868  0.91278686  1
  Al  Al74  1  0.41657998  0.91978580  0.41773601  1
  Al  Al75  1  0.41923334  0.91564932  0.92139799  1
  Al  Al76  1  0.91767297  0.41632268  0.42157053  1
  Al  Al77  1  0.91567763  0.41757119  0.91906827  1
  Al  Al78  1  0.91903667  0.91485344  0.40837913  1
  Al  Al79  1  0.92324965  0.91259557  0.91518054  1
  Al  Al80  1  0.08416481  0.42023360  0.07999140  1
  Al  Al81  1  0.08814464  0.42477713  0.58233320  1
  Al  Al82  1  0.08774621  0.90851712  0.08129577  1
  Al  Al83  1  0.07559255  0.91700395  0.58490482  1
  Al  Al84  1  0.58101473  0.41662734  0.07593450  1
  Al  Al85  1  0.57975089  0.40906078  0.58859545  1
  Al  Al86  1  0.58883153  0.91343045  0.07893760  1
  Al  Al87  1  0.58972559  0.92046116  0.58484699  1
  Al  Al88  1  0.41328633  0.07863681  0.08767064  1
  Al  Al89  1  0.42018419  0.08517114  0.58051470  1
  Al  Al90  1  0.41425017  0.57641058  0.08402773  1
  Al  Al91  1  0.41496286  0.58677098  0.57629247  1
  Al  Al92  1  0.90294034  0.08229546  0.08559017  1
  Al  Al93  1  0.90758036  0.08380264  0.57625277  1
  Al  Al94  1  0.92070312  0.58671773  0.08171243  1
  Al  Al95  1  0.91799782  0.58048845  0.58873906  1
  Al  Al96  1  0.25108260  0.12917712  0.13545556  1
  Al  Al97  1  0.25063208  0.13165119  0.63699141  1
  Al  Al98  1  0.24680091  0.63827073  0.12742503  1
  Al  Al99  1  0.25060176  0.63593350  0.63643719  1
  Al  Al100  1  0.75271599  0.13238526  0.13066991  1
  Al  Al101  1  0.74753807  0.13541745  0.63502800  1
  Al  Al102  1  0.74723365  0.63906824  0.13352228  1
  Al  Al103  1  0.75077669  0.63662213  0.63682031  1
  Al  Al104  1  0.24965965  0.36304340  0.12744071  1
  Al  Al105  1  0.24886026  0.36590043  0.63707522  1
  Al  Al106  1  0.24666091  0.86549273  0.13276678  1
  Al  Al107  1  0.25158344  0.86833618  0.63770369  1
  Al  Al108  1  0.75448320  0.36315022  0.13185064  1
  Al  Al109  1  0.74869027  0.36497795  0.63721849  1
  Al  Al110  1  0.75230737  0.86597181  0.13634753  1
  Al  Al111  1  0.74974274  0.86573973  0.63706148  1
  Al  Al112  1  0.24955175  0.13266653  0.36194727  1
  Al  Al113  1  0.25193897  0.13242968  0.86429770  1
  Al  Al114  1  0.25245962  0.63547452  0.36522280  1
  Al  Al115  1  0.24698406  0.63665975  0.87217391  1
  Al  Al116  1  0.75444889  0.12820637  0.36268391  1
  Al  Al117  1  0.74792331  0.13438648  0.87035489  1
  Al  Al118  1  0.75372469  0.63838118  0.36468314  1
  Al  Al119  1  0.74859556  0.63782114  0.86566511  1
  Al  Al120  1  0.24997866  0.36639084  0.36425689  1
  Al  Al121  1  0.25189096  0.36359350  0.87085866  1
  Al  Al122  1  0.25132711  0.86381314  0.36483683  1
  Al  Al123  1  0.24755049  0.86376595  0.87204525  1
  Al  Al124  1  0.75392835  0.36388507  0.36399442  1
  Al  Al125  1  0.75007471  0.36463660  0.86597465  1
  Al  Al126  1  0.75493047  0.87293954  0.36155095  1
  Al  Al127  1  0.74413714  0.86502844  0.86808949  1
  Al  Al128  1  0.13174688  0.25147140  0.13575730  1
  Al  Al129  1  0.13617065  0.24938076  0.63082845  1
  Al  Al130  1  0.13058141  0.75108571  0.13110655  1
  Al  Al131  1  0.13631499  0.75038096  0.63418119  1
  Al  Al132  1  0.63775466  0.24360507  0.13363452  1
  Al  Al133  1  0.63475887  0.25137326  0.63592492  1
  Al  Al134  1  0.63559135  0.75310164  0.13227856  1
  Al  Al135  1  0.63607510  0.75269528  0.63510148  1
  Al  Al136  1  0.13745906  0.24951511  0.36837678  1
  Al  Al137  1  0.13747176  0.25248316  0.86501461  1
  Al  Al138  1  0.13367653  0.75214229  0.36517784  1
  Al  Al139  1  0.13275652  0.74948142  0.86892740  1
  Al  Al140  1  0.63846569  0.24709242  0.36540208  1
  Al  Al141  1  0.63521834  0.25024390  0.86390451  1
  Al  Al142  1  0.63754277  0.75197770  0.36291652  1
  Al  Al143  1  0.63525650  0.75068929  0.86763954  1
  Al  Al144  1  0.36295571  0.25066751  0.13555349  1
  Al  Al145  1  0.36602821  0.25352803  0.63710446  1
  Al  Al146  1  0.36278933  0.75151895  0.12910972  1
  Al  Al147  1  0.36286012  0.75009548  0.63359824  1
  Al  Al148  1  0.86661726  0.24473356  0.13138062  1
  Al  Al149  1  0.86195296  0.24836696  0.62757684  1
  Al  Al150  1  0.87294449  0.75477238  0.13520230  1
  Al  Al151  1  0.86379505  0.75120710  0.63122388  1
  Al  Al152  1  0.36229393  0.24876259  0.36407073  1
  Al  Al153  1  0.36660846  0.25616914  0.86619661  1
  Al  Al154  1  0.36329397  0.74654616  0.36553256  1
  Al  Al155  1  0.36238844  0.75172353  0.87189751  1
  Al  Al156  1  0.86372231  0.24727733  0.36893034  1
  Al  Al157  1  0.86065332  0.24861778  0.87261093  1
  Al  Al158  1  0.86834396  0.75601025  0.36595185  1
  Al  Al159  1  0.86879228  0.75237494  0.86612767  1
  Al  Al160  1  0.13472736  0.13374902  0.24428315  1
  Al  Al161  1  0.13544684  0.13304760  0.75004447  1
  Al  Al162  1  0.13423104  0.63825985  0.24740763  1
  Al  Al163  1  0.13340072  0.63761659  0.75702894  1
  Al  Al164  1  0.63797887  0.13220713  0.25153930  1
  Al  Al165  1  0.63700779  0.12994694  0.75077934  1
  Al  Al166  1  0.63561341  0.63908698  0.24673995  1
  Al  Al167  1  0.63428492  0.63643146  0.75022373  1
  Al  Al168  1  0.36476789  0.13018621  0.24771756  1
  Al  Al169  1  0.36507570  0.13216404  0.75054964  1
  Al  Al170  1  0.36156849  0.63574383  0.24781810  1
  Al  Al171  1  0.36313931  0.63669456  0.75288742  1
  Al  Al172  1  0.86240635  0.12710436  0.24580956  1
  Al  Al173  1  0.86162741  0.13865926  0.75013010  1
  Al  Al174  1  0.86660877  0.63683992  0.24718098  1
  Al  Al175  1  0.86783921  0.63768241  0.75623061  1
  Al  Al176  1  0.13598993  0.36442282  0.24970800  1
  Al  Al177  1  0.13797050  0.36624543  0.75395139  1
  Al  Al178  1  0.12844693  0.86320353  0.24512164  1
  Al  Al179  1  0.13440649  0.86228797  0.75589164  1
  Al  Al180  1  0.63686096  0.35944297  0.24873690  1
  Al  Al181  1  0.62937069  0.36236784  0.75043420  1
  Al  Al182  1  0.63681197  0.86845832  0.25209741  1
  Al  Al183  1  0.63225465  0.86775244  0.75061429  1
  Al  Al184  1  0.36399823  0.36462235  0.25077773  1
  Al  Al185  1  0.36894772  0.36445963  0.75184007  1
  Al  Al186  1  0.36098564  0.86978062  0.24697247  1
  Al  Al187  1  0.36774444  0.86520994  0.75162854  1
  Al  Al188  1  0.86478469  0.36348606  0.24778669  1
  Al  Al189  1  0.86220009  0.36184563  0.75169369  1
  Al  Al190  1  0.86897185  0.86854260  0.24888659  1
  Al  Al191  1  0.86283883  0.86415768  0.75419856  1
  Al  Al192  1  0.18534374  0.67662810  0.49979456  1
  Al  Al193  1  0.00124919  0.32898951  0.32053264  1
  Al  Al194  1  0.67612721  0.67069192  0.49786836  1
  Al  Al195  1  0.67798789  0.50074717  0.32699727  1
  Al  Al196  1  0.50002265  0.82731788  0.33044562  1
  Al  Al197  1  -0.00091465  0.17258755  0.82919503  1
  Al  Al198  1  0.17363064  0.18229842  0.00059953  1
  Al  Al199  1  0.50117042  0.17480557  0.32738429  1
  Al  Al200  1  0.31976669  0.82205621  0.49903095  1
  Al  Al201  1  -0.00104462  0.17208995  0.31894203  1
  Al  Al202  1  0.49925427  0.67634944  0.82732077  1
  Al  Al203  1  0.67823211  0.31385922  -0.00043392  1
  Al  Al204  1  0.33133639  0.18374055  -0.00067441  1
  Al  Al205  1  0.49973582  0.82407352  0.17696510  1
  Al  Al206  1  0.68115133  0.49925836  0.81857368  1
  Al  Al207  1  0.81676800  0.67468897  0.00058980  1
  Al  Al208  1  0.82048754  0.00117126  0.82911598  1
  Al  Al209  1  0.50023079  0.32102256  0.17113918  1
  Al  Al210  1  0.18148770  -0.00227165  0.31364372  1
  Al  Al211  1  0.31206188  0.49986686  0.82424379  1
  Al  Al212  1  0.49712254  0.32973055  0.32704646  1
  Al  Al213  1  0.49790655  0.67887181  0.67386417  1
  Al  Al214  1  -0.00497400  0.17050285  0.67318967  1
  Al  Al215  1  0.50152243  0.18226015  0.67702692  1
  Al  Al216  1  0.00139705  0.33349578  0.83511788  1
  Al  Al217  1  0.68386936  0.00033887  0.18236549  1
  Al  Al218  1  -0.00151670  0.82571495  0.68681478  1
  Al  Al219  1  0.49996609  0.18658652  0.82695994  1
  Al  Al220  1  0.49876866  0.67349280  0.31976080  1
  Al  Al221  1  -0.00214120  0.68413746  0.31686444  1
  Al  Al222  1  0.68497271  0.17108698  0.49857059  1
  Al  Al223  1  0.31992046  0.17570382  0.50075612  1
  Al  Al224  1  0.67362564  0.49811287  0.17458432  1
  Al  Al225  1  0.81667666  0.50071085  0.68461073  1
  Al  Al226  1  0.81481212  0.00110525  0.67318133  1
  Al  Al227  1  0.32442207  0.32841755  0.50041546  1
  Al  Al228  1  0.17521975  0.00205521  0.82571186  1
  Al  Al229  1  -0.00047753  0.67783400  0.68405433  1
  Al  Al230  1  0.33047701  0.50079569  0.67236199  1
  Al  Al231  1  0.68344175  0.82849126  0.49798139  1
  Al  Al232  1  0.82638193  0.50247463  0.17417686  1
  Al  Al233  1  0.67936529  0.32395739  0.50000636  1
  Al  Al234  1  0.31540032  0.49915436  0.18616176  1
  Al  Al235  1  0.00182585  0.32825978  0.67574304  1
  Al  Al236  1  0.81754337  0.82648105  0.00021442  1
  Al  Al237  1  0.19085246  0.50173086  0.31608742  1
  Al  Al238  1  0.17859452  0.50278887  0.69056687  1
  Au  Au239  1  0.83246812  0.00321443  0.82571819  1
  Au  Au240  1  0.50175439  0.17072439  0.66852840  1
  Au  Au241  1  -0.00007363  0.82787121  0.17239842  1
  Au  Au242  1  0.33234012  0.81960760  0.49771123  1
  Au  Au243  1  0.82595616  0.32307629  0.00072887  1
  Au  Au244  1  0.17332675  0.33351810  -0.00162099  1
  Au  Au245  1  0.82978313  0.82987744  -0.00041903  1
  Au  Au246  1  0.50234036  0.34059466  0.33019513  1
  Au  Au247  1  0.17440768  -0.00250659  0.16498524  1
  Au  Au248  1  0.82668269  0.49922388  0.33943225  1
  Au  Au249  1  0.83439729  0.50700050  0.16587250  1
  Au  Au250  1  0.50174570  0.16256088  0.32497228  1
  Au  Au251  1  0.17148659  0.16355773  0.49555417  1
  Au  Au252  1  0.49999479  0.83411233  0.16744267  1
  Au  Au253  1  0.00088264  0.67533374  0.32584917  1
  Au  Au254  1  0.50145386  0.82507309  0.83770419  1
  Au  Au255  1  0.66444762  0.49741770  0.16458452  1
  Au  Au256  1  0.16665601  0.00006050  0.83458384  1
  Au  Au257  1  0.33375940  0.66651131  -0.00113376  1
  Au  Au258  1  0.00054421  0.33609425  0.66633202  1
  Au  Au259  1  0.82772175  0.32470602  0.50091094  1
  Au  Au260  1  0.66547998  0.00083101  0.82883958  1
  Au  Au261  1  0.67634426  0.00023763  0.16700297  1
  Au  Au262  1  0.33460506  0.00097686  0.66418466  1
  Au  Au263  1  0.16761878  -0.00357347  0.66884076  1
  Au  Au264  1  -0.00016659  0.15945870  0.66961230  1
  Au  Au265  1  0.16180111  0.67639547  -0.00042962  1
  Au  Au266  1  0.50437191  0.82877940  0.66484065  1
  Au  Au267  1  -0.00458199  0.32316566  0.83080781  1
  Au  Au268  1  0.66371853  0.67414847  0.49738551  1
  Au  Au269  1  0.00045986  0.66868592  0.67366184  1
  Au  Au270  1  0.33032517  -0.00070588  0.32575012  1
  Au  Au271  1  0.32614088  0.16756691  -0.00030847  1
  Au  Au272  1  0.00296710  0.32580228  0.33266482  1
  Au  Au273  1  0.83062759  0.00057320  0.32642574  1
  Au  Au274  1  0.17687671  0.66201665  0.49976144  1
  Au  Au275  1  0.15952777  0.83776216  0.49685305  1
  Au  Au276  1  0.83308504  0.83665998  0.49953267  1
  Au  Au277  1  0.33894981  -0.00113760  0.83042541  1
  Au  Au278  1  0.16852101  0.50342434  0.17067157  1
  Au  Au279  1  -0.00402873  0.15960763  0.16910698  1
  Au  Au280  1  0.83246251  0.66447621  0.50228159  1
  Au  Au281  1  0.50154175  0.16987181  0.16295475  1
  Au  Au282  1  0.32230217  0.83650093  0.00262164  1
  Au  Au283  1  0.00021498  0.33180304  0.16659671  1
  Au  Au284  1  0.83247065  0.50544573  0.83241710  1
  Au  Au285  1  0.66551671  0.49698277  0.67041152  1
  Au  Au286  1  0.17554051  0.33913823  0.49977602  1
  Au  Au287  1  0.49901750  0.66056828  0.17061747  1
