# generated using pymatgen
data_Ca24Ti8Al207Au49
_symmetry_space_group_name_H-M   'P 1'
_cell_length_a   17.32159760
_cell_length_b   17.32156016
_cell_length_c   17.32234550
_cell_angle_alpha   90.00534786
_cell_angle_beta   90.00010939
_cell_angle_gamma   90.00051202
_symmetry_Int_Tables_number   1
_chemical_formula_structural   Ca24Ti8Al207Au49
_chemical_formula_sum   'Ca24 Ti8 Al207 Au49'
_cell_volume   5197.34619629
_cell_formula_units_Z   1
loop_
 _symmetry_equiv_pos_site_id
 _symmetry_equiv_pos_as_xyz
  1  'x, y, z'
loop_
 _atom_site_type_symbol
 _atom_site_label
 _atom_site_symmetry_multiplicity
 _atom_site_fract_x
 _atom_site_fract_y
 _atom_site_fract_z
 _atom_site_occupancy
  Ca  Ca0  1  0.24948255  0.00288535  -0.00172567  1
  Ca  Ca1  1  0.25198223  -0.00737994  0.50154842  1
  Ca  Ca2  1  0.24902956  0.49462983  0.00183405  1
  Ca  Ca3  1  0.25065092  0.50508340  0.49937662  1
  Ca  Ca4  1  0.74744599  -0.00188608  -0.00191904  1
  Ca  Ca5  1  0.75073530  -0.00131285  0.50067454  1
  Ca  Ca6  1  0.74620695  0.50701931  -0.00144536  1
  Ca  Ca7  1  0.75572265  0.49851328  0.50332923  1
  Ca  Ca8  1  0.00239079  0.25292800  -0.00579401  1
  Ca  Ca9  1  -0.00195803  0.25367376  0.50208011  1
  Ca  Ca10  1  -0.00288813  0.74477346  -0.00284041  1
  Ca  Ca11  1  0.00248065  0.74875835  0.50077628  1
  Ca  Ca12  1  0.49808147  0.25385749  -0.00119559  1
  Ca  Ca13  1  0.50426902  0.25437339  0.50292814  1
  Ca  Ca14  1  0.50361162  0.74712756  0.00205751  1
  Ca  Ca15  1  0.49693868  0.75134961  0.49956413  1
  Ca  Ca16  1  0.00426607  -0.00374803  0.25111991  1
  Ca  Ca17  1  0.00005479  -0.00311656  0.74831237  1
  Ca  Ca18  1  -0.00205977  0.50072474  0.25291621  1
  Ca  Ca19  1  -0.00118834  0.49985647  0.75049370  1
  Ca  Ca20  1  0.49386175  -0.00041379  0.24801753  1
  Ca  Ca21  1  0.49898867  -0.00333924  0.74616358  1
  Ca  Ca22  1  0.50022207  0.49734152  0.24681375  1
  Ca  Ca23  1  0.50206962  0.50082358  0.75090029  1
  Ti  Ti24  1  0.25032680  0.25137537  0.25082169  1
  Ti  Ti25  1  0.24734513  0.24800732  0.74963034  1
  Ti  Ti26  1  0.25149591  0.74888201  0.25082561  1
  Ti  Ti27  1  0.24772126  0.75086304  0.74898509  1
  Ti  Ti28  1  0.74871628  0.25124001  0.24874327  1
  Ti  Ti29  1  0.75233984  0.25022278  0.75058317  1
  Ti  Ti30  1  0.74863355  0.74939861  0.25014401  1
  Ti  Ti31  1  0.75111700  0.75026011  0.74920937  1
  Al  Al32  1  0.08830731  0.08599499  0.07920628  1
  Al  Al33  1  0.07829970  0.07741478  0.59259492  1
  Al  Al34  1  0.07404245  0.58076637  0.08248313  1
  Al  Al35  1  0.07997165  0.58755491  0.58292146  1
  Al  Al36  1  0.58804791  0.07726532  0.08815173  1
  Al  Al37  1  0.57859398  0.07762736  0.58168132  1
  Al  Al38  1  0.58765743  0.59146445  0.07950246  1
  Al  Al39  1  0.57795440  0.59000037  0.59187084  1
  Al  Al40  1  0.41850420  0.40277036  0.08856270  1
  Al  Al41  1  0.42223116  0.42865721  0.57977448  1
  Al  Al42  1  0.42374187  0.92330073  0.08760401  1
  Al  Al43  1  0.40370505  0.90873460  0.58512551  1
  Al  Al44  1  0.92549980  0.42910368  0.07397944  1
  Al  Al45  1  0.91428265  0.40482271  0.58774981  1
  Al  Al46  1  0.91827338  0.91460284  0.07643006  1
  Al  Al47  1  0.92393680  0.90694331  0.59250861  1
  Al  Al48  1  0.41215000  0.07085515  0.40908765  1
  Al  Al49  1  0.40347891  0.08683746  0.91962745  1
  Al  Al50  1  0.41425593  0.58609296  0.41994088  1
  Al  Al51  1  0.42833234  0.58001903  0.92547392  1
  Al  Al52  1  0.92065031  0.08711300  0.42598056  1
  Al  Al53  1  0.92466362  0.08574805  0.90654036  1
  Al  Al54  1  0.91538140  0.58755234  0.42467167  1
  Al  Al55  1  0.90584444  0.58585169  0.91426201  1
  Al  Al56  1  0.08442605  0.42699366  0.41289388  1
  Al  Al57  1  0.08459999  0.40515308  0.90957389  1
  Al  Al58  1  0.09707290  0.91011878  0.42401202  1
  Al  Al59  1  0.07503241  0.91594403  0.90411769  1
  Al  Al60  1  0.58002096  0.40574660  0.41396410  1
  Al  Al61  1  0.59250601  0.41873793  0.91891119  1
  Al  Al62  1  0.57038849  0.91556347  0.41791430  1
  Al  Al63  1  0.58261348  0.91769984  0.92113906  1
  Al  Al64  1  0.08034142  0.07069713  0.41378088  1
  Al  Al65  1  0.08441195  0.09337669  0.91231749  1
  Al  Al66  1  0.08928244  0.58436411  0.41525429  1
  Al  Al67  1  0.07419176  0.57685802  0.91358220  1
  Al  Al68  1  0.57486672  0.07965348  0.42208511  1
  Al  Al69  1  0.58049970  0.07795974  0.92341400  1
  Al  Al70  1  0.57670161  0.58278548  0.41895471  1
  Al  Al71  1  0.59535308  0.58288834  0.91562155  1
  Al  Al72  1  0.42108953  0.41287201  0.40498771  1
  Al  Al73  1  0.41743504  0.41297092  0.93026545  1
  Al  Al74  1  0.40561135  0.90878824  0.41407709  1
  Al  Al75  1  0.42161964  0.92945234  0.91151063  1
  Al  Al76  1  0.91426820  0.41608058  0.42745804  1
  Al  Al77  1  0.92093655  0.41791173  0.90247856  1
  Al  Al78  1  0.92671720  0.91350710  0.42812129  1
  Al  Al79  1  0.91682642  0.90871051  0.91016733  1
  Al  Al80  1  0.09070536  0.41320783  0.07235969  1
  Al  Al81  1  0.07410810  0.41441411  0.59121848  1
  Al  Al82  1  0.07814135  0.92502999  0.08413835  1
  Al  Al83  1  0.08790712  0.90506809  0.58689524  1
  Al  Al84  1  0.58154719  0.41111066  0.08006544  1
  Al  Al85  1  0.58579439  0.42137812  0.57715513  1
  Al  Al86  1  0.58919010  0.91604243  0.08959055  1
  Al  Al87  1  0.57558886  0.91808736  0.58414577  1
  Al  Al88  1  0.40960841  0.08662683  0.07935200  1
  Al  Al89  1  0.41648929  0.06789206  0.58776041  1
  Al  Al90  1  0.42881133  0.58578834  0.09071840  1
  Al  Al91  1  0.41613927  0.59286412  0.58622353  1
  Al  Al92  1  0.92754308  0.07875532  0.07781815  1
  Al  Al93  1  0.91665998  0.08746028  0.58787439  1
  Al  Al94  1  0.91054968  0.59223709  0.07808013  1
  Al  Al95  1  0.91763121  0.59121993  0.58393822  1
  Al  Al96  1  0.25587224  0.13722645  0.13271488  1
  Al  Al97  1  0.24961536  0.12626059  0.63876607  1
  Al  Al98  1  0.25232160  0.63476650  0.13308340  1
  Al  Al99  1  0.24426964  0.63777682  0.63348938  1
  Al  Al100  1  0.74243803  0.13514053  0.13400732  1
  Al  Al101  1  0.75837642  0.13650576  0.63833353  1
  Al  Al102  1  0.74595853  0.63672549  0.13254921  1
  Al  Al103  1  0.75548720  0.63301955  0.63347089  1
  Al  Al104  1  0.25026931  0.36891346  0.13650514  1
  Al  Al105  1  0.24510100  0.36221459  0.63655306  1
  Al  Al106  1  0.25514937  0.86246979  0.13304452  1
  Al  Al107  1  0.25055951  0.86757929  0.63341329  1
  Al  Al108  1  0.74614351  0.36509109  0.13219341  1
  Al  Al109  1  0.75583239  0.36594676  0.63563219  1
  Al  Al110  1  0.74761580  0.86421018  0.13352970  1
  Al  Al111  1  0.75302102  0.86129766  0.62922430  1
  Al  Al112  1  0.25595318  0.13539168  0.36552371  1
  Al  Al113  1  0.24730518  0.13498015  0.86492400  1
  Al  Al114  1  0.24979728  0.63065910  0.36375580  1
  Al  Al115  1  0.24814936  0.63763973  0.86790279  1
  Al  Al116  1  0.74830071  0.13646099  0.36280795  1
  Al  Al117  1  0.75359441  0.13659471  0.86415124  1
  Al  Al118  1  0.75319482  0.63861232  0.36717648  1
  Al  Al119  1  0.75179066  0.63718912  0.86824772  1
  Al  Al120  1  0.25034951  0.37205738  0.36373513  1
  Al  Al121  1  0.24490606  0.36195654  0.86677057  1
  Al  Al122  1  0.25362517  0.86165679  0.36911798  1
  Al  Al123  1  0.24601005  0.86469088  0.86342664  1
  Al  Al124  1  0.75212041  0.36274081  0.36400671  1
  Al  Al125  1  0.74762411  0.36643535  0.86572060  1
  Al  Al126  1  0.75049898  0.85979576  0.37026097  1
  Al  Al127  1  0.75345978  0.86383987  0.86276175  1
  Al  Al128  1  0.13782549  0.25401834  0.13547839  1
  Al  Al129  1  0.12520375  0.25024985  0.63851268  1
  Al  Al130  1  0.13771106  0.74817553  0.13556590  1
  Al  Al131  1  0.13592748  0.75565104  0.62895847  1
  Al  Al132  1  0.63432147  0.25525254  0.12786257  1
  Al  Al133  1  0.63857280  0.25233357  0.63793166  1
  Al  Al134  1  0.63153932  0.74815790  0.13144776  1
  Al  Al135  1  0.63517180  0.74712735  0.63484087  1
  Al  Al136  1  0.13162572  0.25167344  0.36340679  1
  Al  Al137  1  0.13059970  0.25104367  0.86478933  1
  Al  Al138  1  0.13626472  0.75115092  0.37119673  1
  Al  Al139  1  0.12668945  0.75155760  0.86038411  1
  Al  Al140  1  0.63422327  0.25292754  0.36314936  1
  Al  Al141  1  0.63941177  0.25176122  0.87325205  1
  Al  Al142  1  0.63288767  0.74751161  0.36647114  1
  Al  Al143  1  0.63908655  0.74686851  0.87157994  1
  Al  Al144  1  0.36574632  0.25424302  0.13852861  1
  Al  Al145  1  0.36070607  0.25151526  0.63341472  1
  Al  Al146  1  0.37342101  0.74773845  0.14007183  1
  Al  Al147  1  0.36202277  0.75205077  0.63229899  1
  Al  Al148  1  0.86342521  0.24857661  0.13545931  1
  Al  Al149  1  0.87639957  0.25230804  0.64010184  1
  Al  Al150  1  0.86186461  0.74648075  0.13065867  1
  Al  Al151  1  0.86629035  0.75047024  0.63267309  1
  Al  Al152  1  0.36284627  0.25681882  0.36687496  1
  Al  Al153  1  0.36154353  0.24779731  0.86584251  1
  Al  Al154  1  0.36432935  0.74886572  0.36479537  1
  Al  Al155  1  0.36276438  0.74629796  0.86362903  1
  Al  Al156  1  0.87095906  0.25206995  0.36240820  1
  Al  Al157  1  0.86986042  0.25365189  0.86426043  1
  Al  Al158  1  0.86986445  0.75002950  0.36997411  1
  Al  Al159  1  0.86946171  0.74842529  0.86322070  1
  Al  Al160  1  0.13946845  0.13485844  0.25178090  1
  Al  Al161  1  0.12966994  0.13232568  0.75180008  1
  Al  Al162  1  0.13493827  0.63498072  0.25556594  1
  Al  Al163  1  0.13408072  0.63743963  0.74928656  1
  Al  Al164  1  0.63286481  0.13545414  0.24565126  1
  Al  Al165  1  0.63778476  0.13701515  0.75136129  1
  Al  Al166  1  0.62887539  0.63739029  0.24883884  1
  Al  Al167  1  0.64032399  0.63472697  0.75210175  1
  Al  Al168  1  0.36610959  0.13163867  0.25080804  1
  Al  Al169  1  0.36285016  0.13469146  0.74841141  1
  Al  Al170  1  0.36745429  0.63073193  0.25144110  1
  Al  Al171  1  0.36567416  0.63868615  0.74229530  1
  Al  Al172  1  0.86336942  0.13429116  0.24976646  1
  Al  Al173  1  0.87218840  0.13333319  0.75242626  1
  Al  Al174  1  0.86288260  0.63816810  0.25128982  1
  Al  Al175  1  0.86657405  0.63600941  0.75111003  1
  Al  Al176  1  0.13280362  0.36761143  0.25427133  1
  Al  Al177  1  0.12940654  0.36301722  0.75101427  1
  Al  Al178  1  0.13409360  0.86241040  0.25269919  1
  Al  Al179  1  0.13328979  0.86850657  0.74657820  1
  Al  Al180  1  0.63075516  0.36227743  0.24759863  1
  Al  Al181  1  0.63742399  0.36553651  0.75434161  1
  Al  Al182  1  0.63505993  0.86374276  0.24654186  1
  Al  Al183  1  0.63672043  0.86218791  0.74881775  1
  Al  Al184  1  0.36568867  0.36889434  0.24948898  1
  Al  Al185  1  0.36209225  0.36138437  0.75167911  1
  Al  Al186  1  0.36206647  0.87150747  0.25056449  1
  Al  Al187  1  0.36357225  0.86460532  0.74656165  1
  Al  Al188  1  0.86474308  0.36513888  0.24823538  1
  Al  Al189  1  0.86870252  0.36502476  0.75057165  1
  Al  Al190  1  0.86993501  0.85930879  0.25024430  1
  Al  Al191  1  0.86719851  0.86568637  0.74783343  1
  Al  Al192  1  0.82547858  0.17122801  0.00010125  1
  Al  Al193  1  0.66858695  -0.00132024  0.31770335  1
  Al  Al194  1  0.50041907  0.18567937  0.17268635  1
  Al  Al195  1  0.49833275  0.18776096  0.32836776  1
  Al  Al196  1  0.50111694  0.33041255  0.82888271  1
  Al  Al197  1  0.18804786  -0.00263523  0.32714010  1
  Al  Al198  1  0.33425052  0.82262788  -0.00246292  1
  Al  Al199  1  0.82859186  0.50065945  0.32888173  1
  Al  Al200  1  0.82016769  0.81845559  -0.00255019  1
  Al  Al201  1  0.49767795  0.81805505  0.31844672  1
  Al  Al202  1  0.68128732  0.67780530  0.50126294  1
  Al  Al203  1  0.00253789  0.17335666  0.17763238  1
  Al  Al204  1  0.31075726  0.30812679  0.00176641  1
  Al  Al205  1  -0.00090676  0.68122698  0.17946981  1
  Al  Al206  1  0.49900426  0.81547639  0.67251629  1
  Al  Al207  1  0.31750891  -0.00053335  0.81277296  1
  Al  Al208  1  0.82570383  -0.00393030  0.32754975  1
  Al  Al209  1  0.17653376  0.33235008  0.49966553  1
  Al  Al210  1  0.50013913  0.32955830  0.67278032  1
  Al  Al211  1  0.49971129  0.17452670  0.67168229  1
  Al  Al212  1  0.00019766  0.32926241  0.17130809  1
  Al  Al213  1  0.67159941  0.17142211  0.50131907  1
  Al  Al214  1  0.81419542  0.00134111  0.16871019  1
  Al  Al215  1  0.31623182  0.50081997  0.67296164  1
  Al  Al216  1  0.82705232  0.19583001  0.50075977  1
  Al  Al217  1  0.50144320  0.67174005  0.81314068  1
  Al  Al218  1  0.68644177  0.32431656  0.50057048  1
  Al  Al219  1  0.18023285  0.00006398  0.17473342  1
  Al  Al220  1  0.17277834  0.17321656  0.49985893  1
  Al  Al221  1  0.82005541  0.33440795  -0.00099413  1
  Al  Al222  1  0.67877656  -0.00066737  0.67323629  1
  Al  Al223  1  0.17595658  0.50190694  0.18172669  1
  Al  Al224  1  0.00099983  0.68935223  0.68081766  1
  Al  Al225  1  0.31795814  0.68683516  0.49936063  1
  Al  Al226  1  0.50058866  0.17842609  0.82739470  1
  Al  Al227  1  0.17415135  0.49951143  0.81974934  1
  Al  Al228  1  0.16737788  0.82138994  -0.00167025  1
  Al  Al229  1  0.82609102  0.50223384  0.17233509  1
  Al  Al230  1  0.67100771  0.50017542  0.16987547  1
  Al  Al231  1  0.33168320  0.16946967  0.50362393  1
  Al  Al232  1  0.67815727  -0.00058111  0.82642833  1
  Al  Al233  1  0.33457954  0.50145246  0.82535866  1
  Al  Al234  1  0.67674040  0.49917934  0.68421993  1
  Al  Al235  1  0.80955731  0.50081168  0.81673371  1
  Al  Al236  1  0.50059437  0.82712795  0.82510782  1
  Al  Al237  1  0.67759927  0.49990739  0.32755891  1
  Al  Al238  1  0.19005598  0.19022355  -0.00006947  1
  Au  Au239  1  0.82255193  0.17939793  0.50080926  1
  Au  Au240  1  0.17097938  0.67647906  0.49987816  1
  Au  Au241  1  0.66238391  0.49458506  0.32577097  1
  Au  Au242  1  0.82988028  -0.00017782  0.83278137  1
  Au  Au243  1  0.83913717  0.50030404  0.67051241  1
  Au  Au244  1  0.66520030  0.17145051  0.00097169  1
  Au  Au245  1  -0.00234618  0.33602420  0.33558601  1
  Au  Au246  1  0.15860474  0.16287703  0.49969893  1
  Au  Au247  1  -0.00166231  0.67373703  0.82888594  1
  Au  Au248  1  0.83902407  0.82083682  0.50248220  1
  Au  Au249  1  0.49708829  0.66955465  0.32665102  1
  Au  Au250  1  0.84223658  0.17232056  -0.00348328  1
  Au  Au251  1  0.67271218  0.66318419  0.50150372  1
  Au  Au252  1  0.00206350  0.16101675  0.32531574  1
  Au  Au253  1  0.82867418  0.00202560  0.15977044  1
  Au  Au254  1  0.49645700  0.16291545  0.82941163  1
  Au  Au255  1  0.50478679  0.67353296  0.82983267  1
  Au  Au256  1  0.33444050  0.15794227  0.50685086  1
  Au  Au257  1  0.32815369  0.00246953  0.17353325  1
  Au  Au258  1  0.34105548  0.33353774  0.50068273  1
  Au  Au259  1  0.49603595  0.17745857  0.34156632  1
  Au  Au260  1  0.17464066  0.18355748  0.00048314  1
  Au  Au261  1  0.16110589  0.50080064  0.17389597  1
  Au  Au262  1  0.34077083  0.49877921  0.16901236  1
  Au  Au263  1  0.00051345  0.82969290  0.16827585  1
  Au  Au264  1  0.33517415  0.66208101  0.00667709  1
  Au  Au265  1  0.50190777  0.82775271  0.17166576  1
  Au  Au266  1  0.82659123  0.34915169  -0.00371860  1
  Au  Au267  1  0.00054217  0.17226259  0.68049115  1
  Au  Au268  1  0.16466944  0.33579683  0.50082837  1
  Au  Au269  1  0.16322823  0.50103321  0.67041243  1
  Au  Au270  1  0.66802974  0.50124376  0.67487338  1
  Au  Au271  1  0.34208084  0.83704906  -0.00378219  1
  Au  Au272  1  0.65268651  -0.00045480  0.32361073  1
  Au  Au273  1  0.15549813  0.83251782  -0.00223108  1
  Au  Au274  1  0.00702127  0.83096521  0.33652906  1
  Au  Au275  1  0.16642025  0.65721896  -0.00354798  1
  Au  Au276  1  0.66721668  0.82448491  0.00015808  1
  Au  Au277  1  0.17686532  -0.00464152  0.66591712  1
  Au  Au278  1  -0.00100956  0.32575274  0.15900881  1
  Au  Au279  1  0.82846314  -0.00425325  0.66356486  1
  Au  Au280  1  0.32588176  0.50108129  0.33707593  1
  Au  Au281  1  0.66716542  0.83871833  0.49976496  1
  Au  Au282  1  0.83703473  -0.00425029  0.34084191  1
  Au  Au283  1  0.83262170  0.81864257  0.00019275  1
  Au  Au284  1  0.17002511  0.00173228  0.83172599  1
  Au  Au285  1  0.32668759  0.49595113  0.83876655  1
  Au  Au286  1  0.49970676  0.17595683  0.15909623  1
  Au  Au287  1  -0.00136759  0.66160788  0.32812437  1
