# generated using pymatgen
data_Ca24Ti8Al207Au49
_symmetry_space_group_name_H-M   'P 1'
_cell_length_a   17.32197139
_cell_length_b   17.32197161
_cell_length_c   17.32392483
_cell_angle_alpha   90.00156801
_cell_angle_beta   90.00250798
_cell_angle_gamma   90.00278613
_symmetry_Int_Tables_number   1
_chemical_formula_structural   Ca24Ti8Al207Au49
_chemical_formula_sum   'Ca24 Ti8 Al207 Au49'
_cell_volume   5198.05570278
_cell_formula_units_Z   1
loop_
 _symmetry_equiv_pos_site_id
 _symmetry_equiv_pos_as_xyz
  1  'x, y, z'
loop_
 _atom_site_type_symbol
 _atom_site_label
 _atom_site_symmetry_multiplicity
 _atom_site_fract_x
 _atom_site_fract_y
 _atom_site_fract_z
 _atom_site_occupancy
  Ca  Ca0  1  0.24853653  0.00184982  -0.00320376  1
  Ca  Ca1  1  0.25225522  0.00393831  0.50387877  1
  Ca  Ca2  1  0.24765087  0.49846567  -0.00435169  1
  Ca  Ca3  1  0.24574845  0.50264498  0.50213937  1
  Ca  Ca4  1  0.75228152  -0.00098097  -0.00485336  1
  Ca  Ca5  1  0.74625064  -0.00271908  0.50325363  1
  Ca  Ca6  1  0.75403051  0.50352382  0.00189959  1
  Ca  Ca7  1  0.74870603  0.50205244  0.49912715  1
  Ca  Ca8  1  0.00302886  0.25333874  -0.00480678  1
  Ca  Ca9  1  0.00123592  0.24851468  0.50722941  1
  Ca  Ca10  1  0.00080542  0.75405488  -0.00330658  1
  Ca  Ca11  1  -0.00146229  0.74731747  0.50209648  1
  Ca  Ca12  1  0.49978155  0.24891675  0.00104797  1
  Ca  Ca13  1  0.50024717  0.24543336  0.49856363  1
  Ca  Ca14  1  0.50176768  0.75533009  0.00006037  1
  Ca  Ca15  1  0.50385941  0.75339573  0.49931943  1
  Ca  Ca16  1  -0.00361780  -0.00022723  0.25031763  1
  Ca  Ca17  1  0.00292600  0.00070500  0.74878957  1
  Ca  Ca18  1  -0.00357902  0.50106583  0.24737773  1
  Ca  Ca19  1  -0.00129987  0.50074192  0.74574843  1
  Ca  Ca20  1  0.50250156  -0.00195972  0.25624031  1
  Ca  Ca21  1  0.50021206  0.00355607  0.74635050  1
  Ca  Ca22  1  0.50022526  0.49935318  0.25102314  1
  Ca  Ca23  1  0.50003709  0.49976214  0.74793472  1
  Ti  Ti24  1  0.25102101  0.24884722  0.25134635  1
  Ti  Ti25  1  0.24968580  0.24789160  0.74748496  1
  Ti  Ti26  1  0.24864548  0.75160334  0.25169441  1
  Ti  Ti27  1  0.24786809  0.75101775  0.74739727  1
  Ti  Ti28  1  0.74907523  0.24975157  0.25059667  1
  Ti  Ti29  1  0.75020071  0.24921836  0.74906543  1
  Ti  Ti30  1  0.75007594  0.75061967  0.25082407  1
  Ti  Ti31  1  0.75015860  0.74981830  0.74934463  1
  Al  Al32  1  0.08323785  0.07990126  0.06864504  1
  Al  Al33  1  0.09004977  0.08922797  0.59659633  1
  Al  Al34  1  0.07583203  0.57300569  0.08061544  1
  Al  Al35  1  0.08267053  0.59423994  0.58727915  1
  Al  Al36  1  0.57811292  0.07828386  0.08860088  1
  Al  Al37  1  0.57906043  0.08503872  0.58773386  1
  Al  Al38  1  0.58573488  0.58019415  0.09711223  1
  Al  Al39  1  0.59174972  0.58238110  0.58595228  1
  Al  Al40  1  0.42394323  0.41435922  0.07474622  1
  Al  Al41  1  0.41201427  0.40934739  0.57578799  1
  Al  Al42  1  0.42414943  0.90955646  0.08865280  1
  Al  Al43  1  0.42328335  0.92081104  0.58178346  1
  Al  Al44  1  0.91380271  0.41883609  0.08563740  1
  Al  Al45  1  0.91487395  0.41991644  0.58572828  1
  Al  Al46  1  0.90842664  0.91116256  0.07283839  1
  Al  Al47  1  0.91279641  0.91629966  0.58085529  1
  Al  Al48  1  0.41411688  0.09614520  0.41862477  1
  Al  Al49  1  0.41974981  0.08042722  0.91450807  1
  Al  Al50  1  0.41640282  0.59515650  0.42419363  1
  Al  Al51  1  0.40935936  0.57861086  0.91281791  1
  Al  Al52  1  0.90839603  0.08334622  0.43106782  1
  Al  Al53  1  0.91395106  0.07716710  0.90633045  1
  Al  Al54  1  0.91080802  0.58113262  0.42373592  1
  Al  Al55  1  0.91770171  0.58081847  0.91371216  1
  Al  Al56  1  0.08457382  0.41611734  0.42225823  1
  Al  Al57  1  0.08429602  0.40746358  0.91922090  1
  Al  Al58  1  0.08077998  0.91980477  0.42934831  1
  Al  Al59  1  0.08859360  0.92253939  0.91136210  1
  Al  Al60  1  0.57801686  0.41662857  0.41277253  1
  Al  Al61  1  0.57720521  0.42109475  0.91398659  1
  Al  Al62  1  0.58665923  0.90632859  0.41640893  1
  Al  Al63  1  0.59271348  0.92116642  0.91084897  1
  Al  Al64  1  0.08834918  0.08593474  0.43650344  1
  Al  Al65  1  0.09142533  0.08410958  0.90744123  1
  Al  Al66  1  0.09126070  0.58994333  0.42741075  1
  Al  Al67  1  0.07556586  0.57924567  0.91524924  1
  Al  Al68  1  0.57606803  0.08563868  0.41595261  1
  Al  Al69  1  0.58997744  0.07802413  0.90347366  1
  Al  Al70  1  0.58326458  0.58247286  0.41994403  1
  Al  Al71  1  0.57959159  0.57776014  0.91533749  1
  Al  Al72  1  0.41839053  0.39792033  0.41916931  1
  Al  Al73  1  0.41223812  0.41914883  0.90930733  1
  Al  Al74  1  0.42456078  0.91082828  0.41425814  1
  Al  Al75  1  0.41651403  0.92012864  0.91629538  1
  Al  Al76  1  0.91326347  0.42106695  0.41945372  1
  Al  Al77  1  0.92248826  0.41645186  0.91794274  1
  Al  Al78  1  0.90680830  0.91249495  0.42446061  1
  Al  Al79  1  0.90197623  0.91602741  0.91246796  1
  Al  Al80  1  0.08613389  0.41266810  0.07918374  1
  Al  Al81  1  0.08229662  0.41526163  0.58079363  1
  Al  Al82  1  0.07726219  0.91827150  0.07105869  1
  Al  Al83  1  0.08891772  0.92577495  0.59017345  1
  Al  Al84  1  0.58711689  0.42294584  0.09371355  1
  Al  Al85  1  0.58557542  0.42259716  0.58827004  1
  Al  Al86  1  0.58294802  0.91253024  0.09065294  1
  Al  Al87  1  0.58796070  0.91408368  0.58098328  1
  Al  Al88  1  0.42422700  0.08500489  0.08137785  1
  Al  Al89  1  0.41343338  0.09484068  0.58349041  1
  Al  Al90  1  0.42781425  0.58730016  0.07342351  1
  Al  Al91  1  0.41147357  0.58861592  0.57894063  1
  Al  Al92  1  0.91850393  0.07448256  0.07347233  1
  Al  Al93  1  0.91932651  0.08917096  0.59056898  1
  Al  Al94  1  0.90965233  0.57670335  0.09067517  1
  Al  Al95  1  0.91711286  0.58840392  0.58902086  1
  Al  Al96  1  0.25112086  0.13352036  0.13656284  1
  Al  Al97  1  0.24664549  0.13310993  0.63459101  1
  Al  Al98  1  0.24849814  0.64041196  0.13909808  1
  Al  Al99  1  0.24795728  0.63569286  0.63220655  1
  Al  Al100  1  0.75368289  0.13541915  0.13197853  1
  Al  Al101  1  0.75320880  0.13688419  0.63367650  1
  Al  Al102  1  0.75115241  0.63318967  0.13627326  1
  Al  Al103  1  0.74831659  0.63542797  0.63490913  1
  Al  Al104  1  0.24735704  0.36498757  0.13575185  1
  Al  Al105  1  0.25398108  0.36124369  0.63381306  1
  Al  Al106  1  0.25034458  0.86600833  0.13790916  1
  Al  Al107  1  0.24460374  0.86855539  0.63327303  1
  Al  Al108  1  0.75051883  0.37066435  0.13658108  1
  Al  Al109  1  0.74914023  0.36347986  0.63606270  1
  Al  Al110  1  0.75100846  0.86266939  0.13099993  1
  Al  Al111  1  0.75104578  0.86419940  0.63181469  1
  Al  Al112  1  0.25138663  0.13732503  0.37213802  1
  Al  Al113  1  0.24743369  0.13104857  0.85866956  1
  Al  Al114  1  0.24868650  0.63477159  0.36708004  1
  Al  Al115  1  0.25126582  0.63457878  0.85932476  1
  Al  Al116  1  0.75297787  0.13514324  0.36806378  1
  Al  Al117  1  0.75051500  0.12953004  0.86227799  1
  Al  Al118  1  0.74753074  0.63669652  0.36497427  1
  Al  Al119  1  0.74994781  0.62894217  0.86133523  1
  Al  Al120  1  0.25384657  0.36148128  0.36988855  1
  Al  Al121  1  0.24892209  0.36205738  0.86079760  1
  Al  Al122  1  0.24861040  0.86389694  0.36794744  1
  Al  Al123  1  0.24794216  0.86930888  0.85984173  1
  Al  Al124  1  0.74900963  0.36596570  0.36345755  1
  Al  Al125  1  0.74912656  0.36957898  0.86108376  1
  Al  Al126  1  0.75115771  0.86423613  0.36867536  1
  Al  Al127  1  0.75159745  0.86373220  0.86867933  1
  Al  Al128  1  0.13686973  0.25401294  0.13404640  1
  Al  Al129  1  0.12986550  0.24534752  0.63380867  1
  Al  Al130  1  0.12783780  0.74857830  0.13826414  1
  Al  Al131  1  0.13157683  0.74599407  0.63044356  1
  Al  Al132  1  0.63696814  0.24744810  0.13715489  1
  Al  Al133  1  0.63398223  0.24567667  0.63645066  1
  Al  Al134  1  0.63544043  0.75539270  0.13546307  1
  Al  Al135  1  0.63845594  0.75025778  0.63035149  1
  Al  Al136  1  0.13503703  0.24721404  0.36868832  1
  Al  Al137  1  0.13543286  0.24756840  0.86147742  1
  Al  Al138  1  0.13444125  0.74891729  0.37206275  1
  Al  Al139  1  0.13076508  0.74987984  0.86069515  1
  Al  Al140  1  0.63581017  0.24714681  0.36504647  1
  Al  Al141  1  0.63644513  0.24282226  0.86107206  1
  Al  Al142  1  0.63714917  0.75508855  0.37177720  1
  Al  Al143  1  0.63512444  0.75216267  0.86318552  1
  Al  Al144  1  0.36438155  0.25226095  0.13585503  1
  Al  Al145  1  0.36447502  0.24577676  0.63100116  1
  Al  Al146  1  0.36452838  0.75461442  0.13670985  1
  Al  Al147  1  0.36233541  0.74634882  0.63104481  1
  Al  Al148  1  0.86227811  0.25098084  0.13731067  1
  Al  Al149  1  0.87079853  0.24741434  0.63772717  1
  Al  Al150  1  0.86811409  0.75243790  0.13768216  1
  Al  Al151  1  0.86634461  0.75160434  0.63726881  1
  Al  Al152  1  0.36493660  0.24615953  0.37149675  1
  Al  Al153  1  0.36364637  0.24548935  0.86174407  1
  Al  Al154  1  0.36263616  0.74924793  0.36741930  1
  Al  Al155  1  0.36526932  0.75525451  0.86219894  1
  Al  Al156  1  0.86526481  0.24940012  0.36369455  1
  Al  Al157  1  0.86355005  0.24564761  0.86221007  1
  Al  Al158  1  0.86477169  0.75123640  0.36530130  1
  Al  Al159  1  0.86739534  0.75208780  0.86400119  1
  Al  Al160  1  0.13778337  0.13552278  0.24865074  1
  Al  Al161  1  0.13125380  0.13337231  0.74807298  1
  Al  Al162  1  0.13163425  0.63822465  0.25474529  1
  Al  Al163  1  0.13052121  0.63561178  0.74815436  1
  Al  Al164  1  0.63576408  0.13361996  0.25438327  1
  Al  Al165  1  0.63421465  0.13085889  0.74747781  1
  Al  Al166  1  0.63611211  0.63773546  0.24808314  1
  Al  Al167  1  0.63306277  0.63253734  0.74880270  1
  Al  Al168  1  0.36544519  0.13629769  0.25566142  1
  Al  Al169  1  0.37154857  0.13638681  0.74596099  1
  Al  Al170  1  0.36405965  0.63731411  0.25112297  1
  Al  Al171  1  0.36414520  0.63490850  0.74998151  1
  Al  Al172  1  0.86168995  0.12734014  0.25186286  1
  Al  Al173  1  0.87055811  0.13284666  0.74955006  1
  Al  Al174  1  0.86780995  0.63858312  0.24923627  1
  Al  Al175  1  0.86910324  0.63734612  0.74955454  1
  Al  Al176  1  0.13769278  0.36281403  0.25628131  1
  Al  Al177  1  0.13505544  0.36177227  0.74540937  1
  Al  Al178  1  0.13319034  0.86450687  0.24831595  1
  Al  Al179  1  0.13216164  0.86664045  0.74814301  1
  Al  Al180  1  0.63514224  0.36552425  0.24696623  1
  Al  Al181  1  0.63445509  0.36870190  0.74756490  1
  Al  Al182  1  0.63397600  0.86355113  0.25295789  1
  Al  Al183  1  0.64106251  0.87027730  0.75084751  1
  Al  Al184  1  0.36480265  0.36258621  0.25279777  1
  Al  Al185  1  0.36546567  0.36297298  0.75090078  1
  Al  Al186  1  0.36785179  0.86398044  0.25146220  1
  Al  Al187  1  0.36334556  0.86698632  0.74614425  1
  Al  Al188  1  0.86343932  0.36518773  0.24988970  1
  Al  Al189  1  0.86586783  0.36413596  0.74776975  1
  Al  Al190  1  0.86232461  0.87120198  0.24943036  1
  Al  Al191  1  0.86519305  0.86938352  0.75486206  1
  Al  Al192  1  -0.00042543  0.17226794  0.33421653  1
  Al  Al193  1  0.33036188  0.50235654  0.16795165  1
  Al  Al194  1  0.18538701  0.31030738  0.50254790  1
  Al  Al195  1  0.32882640  -0.00049927  0.33040171  1
  Al  Al196  1  0.17652765  0.18550418  -0.00215863  1
  Al  Al197  1  0.67883823  -0.00098318  0.17682500  1
  Al  Al198  1  -0.00017835  0.82498928  0.32343534  1
  Al  Al199  1  -0.00014890  0.82543227  0.67638780  1
  Al  Al200  1  0.66896526  0.67771350  0.00209004  1
  Al  Al201  1  0.18369644  0.82607722  -0.00247045  1
  Al  Al202  1  0.32718605  0.49832711  0.33469830  1
  Al  Al203  1  0.17261643  0.50046430  0.67333905  1
  Al  Al204  1  0.67894554  0.17168289  0.50039697  1
  Al  Al205  1  -0.00026216  0.17109509  0.17168035  1
  Al  Al206  1  0.16882586  0.00343611  0.32681614  1
  Al  Al207  1  0.17413924  0.49992447  0.18000312  1
  Al  Al208  1  0.67164538  0.50060036  0.31770564  1
  Al  Al209  1  0.82158937  0.68566822  0.50186987  1
  Al  Al210  1  -0.00002998  0.31606208  0.81875469  1
  Al  Al211  1  0.32676287  0.68124209  -0.00124253  1
  Al  Al212  1  0.33164204  0.49909761  0.68048355  1
  Al  Al213  1  0.18354790  0.49853954  0.83034816  1
  Al  Al214  1  0.50031491  0.18114657  0.19016278  1
  Al  Al215  1  0.49934656  0.68631863  0.17319668  1
  Al  Al216  1  0.49964359  0.31729904  0.67200240  1
  Al  Al217  1  0.32817598  0.00139899  0.17217272  1
  Al  Al218  1  0.67550175  0.16795125  0.00058487  1
  Al  Al219  1  0.81485126  0.50173494  0.67973771  1
  Al  Al220  1  0.50239598  0.82005274  0.67889595  1
  Al  Al221  1  0.32468931  0.00224390  0.67849454  1
  Al  Al222  1  0.32585710  0.82340375  0.49946154  1
  Al  Al223  1  0.50062540  0.30718266  0.31914257  1
  Al  Al224  1  0.17678959  0.66719280  -0.00093750  1
  Al  Al225  1  0.50256374  0.69009232  0.32790009  1
  Al  Al226  1  0.49521327  0.67796876  0.82296996  1
  Al  Al227  1  0.82753658  0.31026658  0.50199589  1
  Al  Al228  1  0.67028843  0.32696104  0.49997930  1
  Al  Al229  1  0.82816491  0.68421169  0.00063899  1
  Al  Al230  1  0.50078656  0.31714094  0.82681902  1
  Al  Al231  1  0.82273722  0.00057782  0.68212272  1
  Al  Al232  1  0.67115321  0.32926029  -0.00040319  1
  Al  Al233  1  0.32709332  0.17093969  -0.00062461  1
  Al  Al234  1  0.82777868  0.32089134  -0.00114138  1
  Al  Al235  1  0.00073394  0.32785275  0.17831477  1
  Al  Al236  1  0.67508249  -0.00071038  0.33056056  1
  Al  Al237  1  0.31006198  0.32754516  -0.00242718  1
  Al  Al238  1  0.82366699  0.50258132  0.31569651  1
  Au  Au239  1  0.66384007  0.16482671  0.00310445  1
  Au  Au240  1  0.66455082  0.49942316  0.81834683  1
  Au  Au241  1  0.16143020  0.67353403  0.00304854  1
  Au  Au242  1  0.82736594  -0.00011101  0.67052980  1
  Au  Au243  1  0.82678696  -0.00285716  0.16187188  1
  Au  Au244  1  0.31960148  0.00169852  0.83279928  1
  Au  Au245  1  0.00094515  0.16560060  0.82400020  1
  Au  Au246  1  0.00364551  0.17362145  0.15551622  1
  Au  Au247  1  0.15890973  0.50370129  0.32850168  1
  Au  Au248  1  0.16684076  0.49460223  0.82898889  1
  Au  Au249  1  -0.00042555  0.66557901  0.82029850  1
  Au  Au250  1  0.00036774  0.33088403  0.67134028  1
  Au  Au251  1  0.32245041  0.00093977  0.66602970  1
  Au  Au252  1  0.66814577  0.00026831  0.67432690  1
  Au  Au253  1  0.67649617  0.34608821  0.00013556  1
  Au  Au254  1  -0.00084275  0.16983820  0.35096060  1
  Au  Au255  1  0.50309968  0.84290505  0.82473855  1
  Au  Au256  1  0.83794576  0.17022280  -0.00638433  1
  Au  Au257  1  -0.00103308  0.83405076  0.83798091  1
  Au  Au258  1  0.33487412  0.83082398  0.00060098  1
  Au  Au259  1  0.50075707  0.16710137  0.82581393  1
  Au  Au260  1  0.33682340  0.82678353  0.50461773  1
  Au  Au261  1  0.17541997  0.00443870  0.34265158  1
  Au  Au262  1  -0.00091526  0.83670337  0.33512091  1
  Au  Au263  1  -0.00175579  0.34277844  0.32723665  1
  Au  Au264  1  -0.00011832  0.66087339  0.17152670  1
  Au  Au265  1  0.67563378  0.84078149  -0.00011643  1
  Au  Au266  1  0.16951103  0.82464314  0.50344513  1
  Au  Au267  1  0.84271937  0.67548538  0.00126856  1
  Au  Au268  1  0.34085885  0.00164455  0.17492299  1
  Au  Au269  1  0.00146923  0.82370034  0.66399176  1
  Au  Au270  1  0.50118359  0.67341441  0.32477810  1
  Au  Au271  1  0.32801708  0.50802264  0.15220352  1
  Au  Au272  1  0.82369773  0.32675185  0.50085162  1
  Au  Au273  1  0.49747682  0.66956885  0.83210113  1
  Au  Au274  1  -0.00196388  0.83072650  0.15784062  1
  Au  Au275  1  0.33329226  0.49760924  0.34982790  1
  Au  Au276  1  -0.00161676  0.66124640  0.33855388  1
  Au  Au277  1  0.50145421  0.67309020  0.65878637  1
  Au  Au278  1  0.49937938  0.32876918  0.66337451  1
  Au  Au279  1  0.66522435  0.66141753  0.00291200  1
  Au  Au280  1  0.16542545  -0.00304725  0.16000107  1
  Au  Au281  1  0.50075406  0.32950998  0.17306547  1
  Au  Au282  1  0.67507778  0.67317858  0.49998342  1
  Au  Au283  1  0.32653063  0.32381656  -0.00519463  1
  Au  Au284  1  0.83288712  0.49553873  0.82716020  1
  Au  Au285  1  0.32591381  0.49902700  0.66419528  1
  Au  Au286  1  0.82484332  0.00110720  0.34083512  1
  Au  Au287  1  0.17903478  0.32655391  0.50260616  1
