# generated using pymatgen
data_Ca24Ti8Al207Au49
_symmetry_space_group_name_H-M   'P 1'
_cell_length_a   17.31866952
_cell_length_b   17.31898477
_cell_length_c   17.32039308
_cell_angle_alpha   90.00018008
_cell_angle_beta   90.00205209
_cell_angle_gamma   90.00267106
_symmetry_Int_Tables_number   1
_chemical_formula_structural   Ca24Ti8Al207Au49
_chemical_formula_sum   'Ca24 Ti8 Al207 Au49'
_cell_volume   5195.10940968
_cell_formula_units_Z   1
loop_
 _symmetry_equiv_pos_site_id
 _symmetry_equiv_pos_as_xyz
  1  'x, y, z'
loop_
 _atom_site_type_symbol
 _atom_site_label
 _atom_site_symmetry_multiplicity
 _atom_site_fract_x
 _atom_site_fract_y
 _atom_site_fract_z
 _atom_site_occupancy
  Ca  Ca0  1  0.25492701  0.00097047  -0.00163493  1
  Ca  Ca1  1  0.25463112  0.00453039  0.50556974  1
  Ca  Ca2  1  0.25008916  0.49885413  0.00094448  1
  Ca  Ca3  1  0.25476461  0.49831705  0.49869293  1
  Ca  Ca4  1  0.74777332  0.00449099  -0.00487766  1
  Ca  Ca5  1  0.75006461  0.00664830  0.50404785  1
  Ca  Ca6  1  0.74856425  0.49514447  -0.00281122  1
  Ca  Ca7  1  0.74988112  0.49847556  0.50093457  1
  Ca  Ca8  1  -0.00288092  0.24935653  -0.00404000  1
  Ca  Ca9  1  0.00098173  0.24896516  0.50256452  1
  Ca  Ca10  1  -0.00207999  0.74885097  -0.00352582  1
  Ca  Ca11  1  0.00275832  0.74833620  0.50298664  1
  Ca  Ca12  1  0.50378793  0.25075949  0.00084843  1
  Ca  Ca13  1  0.49567399  0.24507047  0.49902888  1
  Ca  Ca14  1  0.50231423  0.74816995  -0.00170709  1
  Ca  Ca15  1  0.49888876  0.74969026  0.50089339  1
  Ca  Ca16  1  0.00212544  -0.00015969  0.24860900  1
  Ca  Ca17  1  -0.00057973  0.00216009  0.75006450  1
  Ca  Ca18  1  -0.00073428  0.49647906  0.24667857  1
  Ca  Ca19  1  0.00119049  0.49793110  0.75196962  1
  Ca  Ca20  1  0.50218614  0.00203344  0.25258355  1
  Ca  Ca21  1  0.49811334  -0.00017506  0.74897786  1
  Ca  Ca22  1  0.49847727  0.49995770  0.24710147  1
  Ca  Ca23  1  0.50332477  0.50679137  0.75092071  1
  Ti  Ti24  1  0.25159310  0.25069594  0.24986546  1
  Ti  Ti25  1  0.24934532  0.25005648  0.75061570  1
  Ti  Ti26  1  0.25271844  0.74876526  0.24713933  1
  Ti  Ti27  1  0.24911743  0.74933392  0.75141230  1
  Ti  Ti28  1  0.74951366  0.25086226  0.25033003  1
  Ti  Ti29  1  0.75139612  0.24809256  0.75081154  1
  Ti  Ti30  1  0.74568616  0.74835503  0.25061588  1
  Ti  Ti31  1  0.75105172  0.75118081  0.74984448  1
  Al  Al32  1  0.07906733  0.08849929  0.07539302  1
  Al  Al33  1  0.08179711  0.08653129  0.59369592  1
  Al  Al34  1  0.09685385  0.57961976  0.07947781  1
  Al  Al35  1  0.08396769  0.59533763  0.58079402  1
  Al  Al36  1  0.58072312  0.09508764  0.07782627  1
  Al  Al37  1  0.59153216  0.08531658  0.57920331  1
  Al  Al38  1  0.58794884  0.59407384  0.08193020  1
  Al  Al39  1  0.57887976  0.58857409  0.59191220  1
  Al  Al40  1  0.42235556  0.42178467  0.07373679  1
  Al  Al41  1  0.41282662  0.40812196  0.58162281  1
  Al  Al42  1  0.42466072  0.91862490  0.08138470  1
  Al  Al43  1  0.41659141  0.92682527  0.59426012  1
  Al  Al44  1  0.91882196  0.40233837  0.07975274  1
  Al  Al45  1  0.91516455  0.41568839  0.58703078  1
  Al  Al46  1  0.92136022  0.92341661  0.07598209  1
  Al  Al47  1  0.91510287  0.92066933  0.58671148  1
  Al  Al48  1  0.41606680  0.09450033  0.41573769  1
  Al  Al49  1  0.40552330  0.08263385  0.91748993  1
  Al  Al50  1  0.42123671  0.59015607  0.41288403  1
  Al  Al51  1  0.41877874  0.58776330  0.90071508  1
  Al  Al52  1  0.92018139  0.08280110  0.42684359  1
  Al  Al53  1  0.90886279  0.08408132  0.90833996  1
  Al  Al54  1  0.92564431  0.57887288  0.42276718  1
  Al  Al55  1  0.92362134  0.58461972  0.91020370  1
  Al  Al56  1  0.08006861  0.41611461  0.41850579  1
  Al  Al57  1  0.07018439  0.41530289  0.91710427  1
  Al  Al58  1  0.08019458  0.91336348  0.42904229  1
  Al  Al59  1  0.07935178  0.91382623  0.91159297  1
  Al  Al60  1  0.57554232  0.41667394  0.41620899  1
  Al  Al61  1  0.59037687  0.41628046  0.92302348  1
  Al  Al62  1  0.57596755  0.92511833  0.42106536  1
  Al  Al63  1  0.59016178  0.91261869  0.91638678  1
  Al  Al64  1  0.07861848  0.08223919  0.42898153  1
  Al  Al65  1  0.08370426  0.08732881  0.91421263  1
  Al  Al66  1  0.08940869  0.58998285  0.42274035  1
  Al  Al67  1  0.08501235  0.59844667  0.91872289  1
  Al  Al68  1  0.58124646  0.09397672  0.41666056  1
  Al  Al69  1  0.59281258  0.08440477  0.91866099  1
  Al  Al70  1  0.57710679  0.58816467  0.40951555  1
  Al  Al71  1  0.58195920  0.59439083  0.91743276  1
  Al  Al72  1  0.41532327  0.39877656  0.42259971  1
  Al  Al73  1  0.40822212  0.42693574  0.91272089  1
  Al  Al74  1  0.42039456  0.92504412  0.41723897  1
  Al  Al75  1  0.41623759  0.92272582  0.90823859  1
  Al  Al76  1  0.92076197  0.41106971  0.42034868  1
  Al  Al77  1  0.91058067  0.40328112  0.91844406  1
  Al  Al78  1  0.92071276  0.91705279  0.42725978  1
  Al  Al79  1  0.91529222  0.91976520  0.90519274  1
  Al  Al80  1  0.08037824  0.41826803  0.09109607  1
  Al  Al81  1  0.07782920  0.41121140  0.58199516  1
  Al  Al82  1  0.07822056  0.91515304  0.07315608  1
  Al  Al83  1  0.08759687  0.91912575  0.58574576  1
  Al  Al84  1  0.58917110  0.41420565  0.07903563  1
  Al  Al85  1  0.57647725  0.42194273  0.58092980  1
  Al  Al86  1  0.58671959  0.90235674  0.07609613  1
  Al  Al87  1  0.58081069  0.92731204  0.59258293  1
  Al  Al88  1  0.41669991  0.09387803  0.07839788  1
  Al  Al89  1  0.40767576  0.08759765  0.58070860  1
  Al  Al90  1  0.42622265  0.58818621  0.08690574  1
  Al  Al91  1  0.41998713  0.58837806  0.59065197  1
  Al  Al92  1  0.91629051  0.08513708  0.07648950  1
  Al  Al93  1  0.91828742  0.08990708  0.59548888  1
  Al  Al94  1  0.92607979  0.57250218  0.07050111  1
  Al  Al95  1  0.91925963  0.57905161  0.58846744  1
  Al  Al96  1  0.25558994  0.13533091  0.13410435  1
  Al  Al97  1  0.25005607  0.13921575  0.63469098  1
  Al  Al98  1  0.24776221  0.63259966  0.13117155  1
  Al  Al99  1  0.24850770  0.63548155  0.64032833  1
  Al  Al100  1  0.74685733  0.13915925  0.13268091  1
  Al  Al101  1  0.75557336  0.13170065  0.63541406  1
  Al  Al102  1  0.74361716  0.63478551  0.13277519  1
  Al  Al103  1  0.75037220  0.63603741  0.63728340  1
  Al  Al104  1  0.24896736  0.36689684  0.13405530  1
  Al  Al105  1  0.25471385  0.36358993  0.63441276  1
  Al  Al106  1  0.25456433  0.86198000  0.12896172  1
  Al  Al107  1  0.25103413  0.86267919  0.64024059  1
  Al  Al108  1  0.74702238  0.36247570  0.12950984  1
  Al  Al109  1  0.74881056  0.36048245  0.63803888  1
  Al  Al110  1  0.74082905  0.85967625  0.13427257  1
  Al  Al111  1  0.74976059  0.87260196  0.63994885  1
  Al  Al112  1  0.25072762  0.13835047  0.37212352  1
  Al  Al113  1  0.25061766  0.13515284  0.86087052  1
  Al  Al114  1  0.25002960  0.63258128  0.36099491  1
  Al  Al115  1  0.25020845  0.63314601  0.86431212  1
  Al  Al116  1  0.74915600  0.13923990  0.37382591  1
  Al  Al117  1  0.75031781  0.13050561  0.86220041  1
  Al  Al118  1  0.74609619  0.62829000  0.36221661  1
  Al  Al119  1  0.74663104  0.63074447  0.86318839  1
  Al  Al120  1  0.25513941  0.36614669  0.36551310  1
  Al  Al121  1  0.25526457  0.36507838  0.86392579  1
  Al  Al122  1  0.25427971  0.85901771  0.36179788  1
  Al  Al123  1  0.25216462  0.85995610  0.87011739  1
  Al  Al124  1  0.75021329  0.36843480  0.36376631  1
  Al  Al125  1  0.75402077  0.36536741  0.86532243  1
  Al  Al126  1  0.74534199  0.86022540  0.36283037  1
  Al  Al127  1  0.74796889  0.86843800  0.86338135  1
  Al  Al128  1  0.13465698  0.25181603  0.13691848  1
  Al  Al129  1  0.12972547  0.25114658  0.63501337  1
  Al  Al130  1  0.13935416  0.74838467  0.12629550  1
  Al  Al131  1  0.12999683  0.74683932  0.63902837  1
  Al  Al132  1  0.63537395  0.25161064  0.13145720  1
  Al  Al133  1  0.63769662  0.23938194  0.63613364  1
  Al  Al134  1  0.62824217  0.74519063  0.13439731  1
  Al  Al135  1  0.63592137  0.74871803  0.63859830  1
  Al  Al136  1  0.13618529  0.25216025  0.36513886  1
  Al  Al137  1  0.13013866  0.24871378  0.86259774  1
  Al  Al138  1  0.13739487  0.74726796  0.36247773  1
  Al  Al139  1  0.13591334  0.74690452  0.86980134  1
  Al  Al140  1  0.63364228  0.24458692  0.36917799  1
  Al  Al141  1  0.63699596  0.24636104  0.86519804  1
  Al  Al142  1  0.62526891  0.74515340  0.36242630  1
  Al  Al143  1  0.63797025  0.74904985  0.86490504  1
  Al  Al144  1  0.36358572  0.25178577  0.12930291  1
  Al  Al145  1  0.36489511  0.24673785  0.63445271  1
  Al  Al146  1  0.37100327  0.74537439  0.13391496  1
  Al  Al147  1  0.36612670  0.74700325  0.63754864  1
  Al  Al148  1  0.86434938  0.25631091  0.12796032  1
  Al  Al149  1  0.87128088  0.24705493  0.63948228  1
  Al  Al150  1  0.85847489  0.74944426  0.13210054  1
  Al  Al151  1  0.87150408  0.74959159  0.64229155  1
  Al  Al152  1  0.36447944  0.24680915  0.36977794  1
  Al  Al153  1  0.36212044  0.24423402  0.87183825  1
  Al  Al154  1  0.37347056  0.74517511  0.36161916  1
  Al  Al155  1  0.36664977  0.74520465  0.86369603  1
  Al  Al156  1  0.86502168  0.24883294  0.36481074  1
  Al  Al157  1  0.86949259  0.24872724  0.86533755  1
  Al  Al158  1  0.86226948  0.74679233  0.36411715  1
  Al  Al159  1  0.86240092  0.74952071  0.86545508  1
  Al  Al160  1  0.13997456  0.13487448  0.24742053  1
  Al  Al161  1  0.12877376  0.13680338  0.74866607  1
  Al  Al162  1  0.13910579  0.63347884  0.24397129  1
  Al  Al163  1  0.12678516  0.63564943  0.75655193  1
  Al  Al164  1  0.63540495  0.13875057  0.25261770  1
  Al  Al165  1  0.63567146  0.12646958  0.74978746  1
  Al  Al166  1  0.62842951  0.63469024  0.24845808  1
  Al  Al167  1  0.63298261  0.63350024  0.75255369  1
  Al  Al168  1  0.36490586  0.13892061  0.25263106  1
  Al  Al169  1  0.36710870  0.13402308  0.74868468  1
  Al  Al170  1  0.36537636  0.63215018  0.24862762  1
  Al  Al171  1  0.36401592  0.63015053  0.75136726  1
  Al  Al172  1  0.86012913  0.13833312  0.24683509  1
  Al  Al173  1  0.86789664  0.13162986  0.75220434  1
  Al  Al174  1  0.86124597  0.63284968  0.24971812  1
  Al  Al175  1  0.86891912  0.63437012  0.75476256  1
  Al  Al176  1  0.13737097  0.36655823  0.24838820  1
  Al  Al177  1  0.13010799  0.36325942  0.75058012  1
  Al  Al178  1  0.13761947  0.86077032  0.24456284  1
  Al  Al179  1  0.13485152  0.86223032  0.75194221  1
  Al  Al180  1  0.63635234  0.36210857  0.25218059  1
  Al  Al181  1  0.63967801  0.36888301  0.75380683  1
  Al  Al182  1  0.62457133  0.85998223  0.24993892  1
  Al  Al183  1  0.63593903  0.87283326  0.75262278  1
  Al  Al184  1  0.36527257  0.36367721  0.25057793  1
  Al  Al185  1  0.36466967  0.36591462  0.74890771  1
  Al  Al186  1  0.37140758  0.86312782  0.24610890  1
  Al  Al187  1  0.36419686  0.86663335  0.75321071  1
  Al  Al188  1  0.86427901  0.36384249  0.24861098  1
  Al  Al189  1  0.87180784  0.36155689  0.75260921  1
  Al  Al190  1  0.86046905  0.86129743  0.24878126  1
  Al  Al191  1  0.86377683  0.87261387  0.75104928  1
  Al  Al192  1  0.18549800  0.17397847  -0.00162162  1
  Al  Al193  1  0.32082239  0.67576909  -0.00104570  1
  Al  Al194  1  0.81752347  0.49822460  0.68078250  1
  Al  Al195  1  0.32632412  0.00166558  0.32098976  1
  Al  Al196  1  0.82967329  0.49774990  0.17392167  1
  Al  Al197  1  0.30916525  0.67023255  0.49933183  1
  Al  Al198  1  0.82358838  0.31833418  0.50201174  1
  Al  Al199  1  0.67234052  0.00192268  0.32665897  1
  Al  Al200  1  0.50046168  0.33036951  0.17102341  1
  Al  Al201  1  -0.00150128  0.81182353  0.81873658  1
  Al  Al202  1  0.18998745  -0.00258991  0.82842636  1
  Al  Al203  1  0.67675719  0.67410465  0.49930507  1
  Al  Al204  1  0.81705366  0.83166254  -0.00089905  1
  Al  Al205  1  0.00151703  0.17115575  0.32744249  1
  Al  Al206  1  0.50015087  0.32914627  0.82939613  1
  Al  Al207  1  0.82507445  0.00002920  0.17222867  1
  Al  Al208  1  0.50155174  0.81039340  0.82607499  1
  Al  Al209  1  0.66536117  0.00067215  0.17152315  1
  Al  Al210  1  0.17448971  0.32834795  -0.00074146  1
  Al  Al211  1  0.49873761  0.16923752  0.82506028  1
  Al  Al212  1  0.16927862  -0.00206614  0.33213835  1
  Al  Al213  1  0.17509909  0.50005088  0.31871267  1
  Al  Al214  1  -0.00269192  0.18939403  0.17103642  1
  Al  Al215  1  0.67063326  0.83249252  0.50479992  1
  Al  Al216  1  0.82405085  0.00089782  0.33131614  1
  Al  Al217  1  0.17816937  0.49805624  0.83055506  1
  Al  Al218  1  0.17810508  0.49934387  0.67199935  1
  Al  Al219  1  0.67238693  0.49964911  0.17591963  1
  Al  Al220  1  0.18690595  0.31917948  0.49966642  1
  Al  Al221  1  0.18664040  0.00140940  0.67480229  1
  Al  Al222  1  0.50262256  0.31856278  0.67316236  1
  Al  Al223  1  0.17871823  -0.00151771  0.16755024  1
  Al  Al224  1  0.66703581  0.31378237  0.50339521  1
  Al  Al225  1  0.81305787  0.18567985  -0.00250598  1
  Al  Al226  1  0.32941872  0.83127787  0.50409949  1
  Al  Al227  1  0.81323254  0.67250990  -0.00146619  1
  Al  Al228  1  -0.00252811  0.82733666  0.17376538  1
  Al  Al229  1  0.32009776  0.49995320  0.17663134  1
  Al  Al230  1  0.49981075  0.17904117  0.18624938  1
  Al  Al231  1  0.50065002  0.81845152  0.67289979  1
  Al  Al232  1  0.82664991  0.81927431  0.50296066  1
  Al  Al233  1  0.00001323  0.82737008  0.32838672  1
  Al  Al234  1  0.00082819  0.32380856  0.31515364  1
  Al  Al235  1  0.00077417  0.67397989  0.32477420  1
  Al  Al236  1  0.17444742  0.81148332  0.50222104  1
  Al  Al237  1  0.49983653  0.30863263  0.32219671  1
  Al  Al238  1  -0.00072949  0.67652584  0.16551518  1
  Au  Au239  1  -0.00102817  0.66565656  0.68130163  1
  Au  Au240  1  0.67195306  0.00171520  0.15586234  1
  Au  Au241  1  0.66853246  0.33009394  0.49974768  1
  Au  Au242  1  -0.00163001  0.32659451  0.67391040  1
  Au  Au243  1  0.50056528  0.34587283  0.82396007  1
  Au  Au244  1  0.34178474  0.49411981  0.33803327  1
  Au  Au245  1  0.17351256  0.00001014  0.82646215  1
  Au  Au246  1  0.49622009  0.16638345  0.83682642  1
  Au  Au247  1  -0.00137538  0.17231303  0.82737657  1
  Au  Au248  1  0.17486175  0.16431936  0.50517266  1
  Au  Au249  1  0.81968732  0.16982086  -0.00224205  1
  Au  Au250  1  0.82165741  0.84743778  -0.00159321  1
  Au  Au251  1  0.65739738  0.49942143  0.32464352  1
  Au  Au252  1  0.82863185  0.49306049  0.15832741  1
  Au  Au253  1  0.66814978  0.49928929  0.66931742  1
  Au  Au254  1  0.84086308  0.67110130  0.50222571  1
  Au  Au255  1  0.83336338  0.49863791  0.34065429  1
  Au  Au256  1  0.16114285  0.82142658  -0.00268110  1
  Au  Au257  1  0.33835795  0.32446740  -0.00216865  1
  Au  Au258  1  0.32493321  0.84311751  0.50521832  1
  Au  Au259  1  0.17068987  0.50123204  0.65701800  1
  Au  Au260  1  0.33343862  0.66454583  -0.00250420  1
  Au  Au261  1  0.82648538  0.66206391  -0.00323953  1
  Au  Au262  1  0.32578502  0.66709974  0.50062759  1
  Au  Au263  1  0.82789119  0.00163519  0.67513663  1
  Au  Au264  1  0.16836198  0.49996939  0.84413894  1
  Au  Au265  1  0.66554949  0.66844467  0.49933125  1
  Au  Au266  1  -0.00275354  0.17257069  0.17570775  1
  Au  Au267  1  0.50139327  0.16756927  0.66031022  1
  Au  Au268  1  0.17753760  0.33338095  0.49883963  1
  Au  Au269  1  0.34569030  0.00437938  0.17208763  1
  Au  Au270  1  0.15974664  0.50173235  0.32569851  1
  Au  Au271  1  0.33066916  0.84058938  -0.00163789  1
  Au  Au272  1  0.67552261  -0.00002544  0.83071437  1
  Au  Au273  1  0.83999816  -0.00268816  0.32679580  1
  Au  Au274  1  0.00708159  0.66218322  0.17069513  1
  Au  Au275  1  0.00135634  0.83645770  0.67303084  1
  Au  Au276  1  0.34304524  0.49749127  0.67655369  1
  Au  Au277  1  0.83181291  0.17054964  0.50447749  1
  Au  Au278  1  0.17508568  -0.00303278  0.34732897  1
  Au  Au279  1  0.49870404  0.82680249  0.33514046  1
  Au  Au280  1  0.32991355  0.49967980  0.16298356  1
  Au  Au281  1  0.16779853  -0.00113485  0.15548604  1
  Au  Au282  1  0.49999529  0.81865685  0.16396496  1
  Au  Au283  1  0.67439969  0.84475250  0.50539888  1
  Au  Au284  1  0.15835754  0.32362876  0.00182219  1
  Au  Au285  1  0.50157210  0.82699289  0.82602737  1
  Au  Au286  1  0.84172961  0.49508965  0.82729007  1
  Au  Au287  1  0.66902076  0.50466812  0.83829690  1
