# generated using pymatgen
data_Ca24Ti8Al207Au49
_symmetry_space_group_name_H-M   'P 1'
_cell_length_a   17.32058634
_cell_length_b   17.31940238
_cell_length_c   17.32115863
_cell_angle_alpha   89.99685492
_cell_angle_beta   90.00320038
_cell_angle_gamma   90.00440260
_symmetry_Int_Tables_number   1
_chemical_formula_structural   Ca24Ti8Al207Au49
_chemical_formula_sum   'Ca24 Ti8 Al207 Au49'
_cell_volume   5196.03931670
_cell_formula_units_Z   1
loop_
 _symmetry_equiv_pos_site_id
 _symmetry_equiv_pos_as_xyz
  1  'x, y, z'
loop_
 _atom_site_type_symbol
 _atom_site_label
 _atom_site_symmetry_multiplicity
 _atom_site_fract_x
 _atom_site_fract_y
 _atom_site_fract_z
 _atom_site_occupancy
  Ca  Ca0  1  0.24789212  0.00238831  -0.00710493  1
  Ca  Ca1  1  0.25250527  -0.00472539  0.50197585  1
  Ca  Ca2  1  0.25198364  0.50023285  0.00240510  1
  Ca  Ca3  1  0.25341695  0.50262874  0.49443508  1
  Ca  Ca4  1  0.74902772  -0.00135903  -0.00632276  1
  Ca  Ca5  1  0.74683329  -0.00245442  0.50326573  1
  Ca  Ca6  1  0.75248182  0.49920097  -0.00291004  1
  Ca  Ca7  1  0.74750558  0.50133988  0.50237129  1
  Ca  Ca8  1  -0.00000376  0.25138731  0.00140363  1
  Ca  Ca9  1  -0.00354576  0.25271997  0.50111606  1
  Ca  Ca10  1  0.00048765  0.74865211  0.00422799  1
  Ca  Ca11  1  -0.00367025  0.74817986  0.49902513  1
  Ca  Ca12  1  0.49984096  0.24780136  -0.00261665  1
  Ca  Ca13  1  0.50431994  0.25340126  0.50060970  1
  Ca  Ca14  1  0.50207267  0.75137701  -0.00072611  1
  Ca  Ca15  1  0.50363513  0.74652553  0.50161912  1
  Ca  Ca16  1  -0.00308744  0.00048400  0.24582555  1
  Ca  Ca17  1  -0.00124018  0.00298512  0.75038524  1
  Ca  Ca18  1  0.00148668  0.49838507  0.24861945  1
  Ca  Ca19  1  -0.00588502  0.49792376  0.74544260  1
  Ca  Ca20  1  0.49994788  -0.00082919  0.25055947  1
  Ca  Ca21  1  0.49945544  0.00005928  0.74900892  1
  Ca  Ca22  1  0.49791285  0.50125248  0.25688991  1
  Ca  Ca23  1  0.50389506  0.50129110  0.74530610  1
  Ti  Ti24  1  0.24893293  0.25331693  0.25133087  1
  Ti  Ti25  1  0.25090238  0.24667613  0.74949943  1
  Ti  Ti26  1  0.24956968  0.74656448  0.24948757  1
  Ti  Ti27  1  0.25091291  0.75273838  0.75142906  1
  Ti  Ti28  1  0.75075593  0.25117225  0.25066736  1
  Ti  Ti29  1  0.74996028  0.25005954  0.75106064  1
  Ti  Ti30  1  0.75053583  0.74956185  0.25067552  1
  Ti  Ti31  1  0.75121085  0.74899539  0.75011054  1
  Al  Al32  1  0.08400142  0.08667062  0.07875888  1
  Al  Al33  1  0.08587854  0.07478913  0.58496963  1
  Al  Al34  1  0.08391111  0.58757966  0.09986712  1
  Al  Al35  1  0.07914742  0.58109168  0.57453192  1
  Al  Al36  1  0.57732473  0.07664001  0.08134020  1
  Al  Al37  1  0.58751501  0.07715809  0.58348250  1
  Al  Al38  1  0.57883444  0.58936877  0.07701482  1
  Al  Al39  1  0.59973019  0.58892136  0.58160234  1
  Al  Al40  1  0.41527060  0.40922571  0.08626110  1
  Al  Al41  1  0.42281797  0.41670636  0.57517792  1
  Al  Al42  1  0.41331153  0.91077047  0.06831358  1
  Al  Al43  1  0.40986802  0.90881457  0.58482938  1
  Al  Al44  1  0.91884245  0.41456107  0.07383023  1
  Al  Al45  1  0.90279415  0.41413635  0.58826080  1
  Al  Al46  1  0.91578426  0.89696826  0.08091557  1
  Al  Al47  1  0.90763827  0.91768564  0.58177204  1
  Al  Al48  1  0.42749539  0.08597395  0.42539390  1
  Al  Al49  1  0.40558322  0.08478128  0.90957060  1
  Al  Al50  1  0.41843043  0.58877928  0.40882790  1
  Al  Al51  1  0.42745249  0.58561392  0.92357147  1
  Al  Al52  1  0.91157121  0.10163151  0.41799450  1
  Al  Al53  1  0.90665242  0.07973431  0.90851788  1
  Al  Al54  1  0.91315503  0.59114663  0.42770410  1
  Al  Al55  1  0.91356258  0.57452452  0.92339091  1
  Al  Al56  1  0.08124368  0.41664951  0.41135832  1
  Al  Al57  1  0.06708070  0.41072140  0.91447810  1
  Al  Al58  1  0.08656448  0.90693457  0.42747785  1
  Al  Al59  1  0.08432739  0.92564360  0.92107686  1
  Al  Al60  1  0.57877058  0.41890299  0.42515659  1
  Al  Al61  1  0.58057639  0.41383375  0.90901984  1
  Al  Al62  1  0.58579950  0.90439312  0.42210558  1
  Al  Al63  1  0.59571977  0.92173720  0.91163253  1
  Al  Al64  1  0.07073165  0.09225228  0.41678370  1
  Al  Al65  1  0.08833913  0.08622513  0.91623713  1
  Al  Al66  1  0.08677064  0.58024181  0.41425013  1
  Al  Al67  1  0.07564741  0.57564930  0.93388417  1
  Al  Al68  1  0.58477659  0.08577622  0.42047936  1
  Al  Al69  1  0.58345054  0.07870101  0.90690653  1
  Al  Al70  1  0.58324254  0.59635802  0.41857916  1
  Al  Al71  1  0.58723672  0.58469137  0.91702890  1
  Al  Al72  1  0.40989795  0.42311000  0.41275719  1
  Al  Al73  1  0.42291068  0.40513032  0.92032122  1
  Al  Al74  1  0.42036182  0.89878660  0.42664759  1
  Al  Al75  1  0.39964972  0.92223524  0.91138514  1
  Al  Al76  1  0.91492523  0.40628165  0.42543130  1
  Al  Al77  1  0.90878780  0.40364094  0.91328745  1
  Al  Al78  1  0.91658013  0.91273421  0.42499902  1
  Al  Al79  1  0.89546793  0.91787846  0.92078433  1
  Al  Al80  1  0.08103281  0.42802730  0.08819235  1
  Al  Al81  1  0.07137072  0.41690554  0.57846420  1
  Al  Al82  1  0.07666163  0.90702259  0.08845264  1
  Al  Al83  1  0.10273702  0.91586028  0.58614267  1
  Al  Al84  1  0.57385507  0.40949283  0.08477417  1
  Al  Al85  1  0.59374004  0.42468319  0.58771859  1
  Al  Al86  1  0.58493388  0.91968588  0.07664538  1
  Al  Al87  1  0.59030803  0.91266323  0.58427330  1
  Al  Al88  1  0.41450831  0.09217197  0.06913227  1
  Al  Al89  1  0.41581887  0.07869381  0.58523367  1
  Al  Al90  1  0.41769173  0.58330249  0.08638176  1
  Al  Al91  1  0.42468246  0.58446204  0.57355832  1
  Al  Al92  1  0.92385405  0.08217591  0.07275998  1
  Al  Al93  1  0.90759531  0.08497145  0.57891805  1
  Al  Al94  1  0.92387862  0.59145427  0.08767311  1
  Al  Al95  1  0.89581303  0.57805326  0.58658592  1
  Al  Al96  1  0.25122218  0.13956134  0.13725362  1
  Al  Al97  1  0.24939770  0.12628110  0.63709193  1
  Al  Al98  1  0.24933915  0.63345405  0.13171831  1
  Al  Al99  1  0.25007394  0.63178799  0.63499257  1
  Al  Al100  1  0.75201460  0.13885065  0.13303588  1
  Al  Al101  1  0.75406425  0.13400651  0.63806910  1
  Al  Al102  1  0.75165541  0.63604354  0.13444316  1
  Al  Al103  1  0.75009672  0.63617646  0.62780340  1
  Al  Al104  1  0.24870899  0.36767163  0.13787563  1
  Al  Al105  1  0.25128876  0.36915354  0.64062774  1
  Al  Al106  1  0.25421104  0.85934024  0.13358124  1
  Al  Al107  1  0.25210133  0.86894886  0.63329231  1
  Al  Al108  1  0.75391998  0.36390770  0.13327353  1
  Al  Al109  1  0.75310892  0.36883244  0.63702281  1
  Al  Al110  1  0.75187700  0.86028766  0.12754346  1
  Al  Al111  1  0.74796516  0.86432429  0.63316090  1
  Al  Al112  1  0.25066088  0.13819847  0.36564829  1
  Al  Al113  1  0.25374335  0.12989437  0.86213012  1
  Al  Al114  1  0.24842936  0.62867447  0.36328754  1
  Al  Al115  1  0.25367345  0.63546899  0.87032222  1
  Al  Al116  1  0.75264650  0.13704282  0.36814643  1
  Al  Al117  1  0.74941187  0.13729925  0.86533939  1
  Al  Al118  1  0.75115282  0.63700142  0.37089305  1
  Al  Al119  1  0.75157236  0.62644376  0.86312623  1
  Al  Al120  1  0.25005514  0.37149056  0.36206974  1
  Al  Al121  1  0.25394755  0.36291451  0.86247471  1
  Al  Al122  1  0.25042670  0.86295677  0.36870745  1
  Al  Al123  1  0.25001172  0.87150850  0.86792521  1
  Al  Al124  1  0.75316931  0.36272540  0.36639399  1
  Al  Al125  1  0.75130997  0.36955003  0.86437127  1
  Al  Al126  1  0.74784320  0.86440073  0.36813524  1
  Al  Al127  1  0.75037448  0.86520889  0.86777249  1
  Al  Al128  1  0.13450185  0.25003075  0.13782571  1
  Al  Al129  1  0.13804832  0.25130007  0.63518555  1
  Al  Al130  1  0.13092093  0.74712861  0.13488115  1
  Al  Al131  1  0.13791799  0.75525551  0.63698901  1
  Al  Al132  1  0.63331231  0.25378742  0.13486621  1
  Al  Al133  1  0.63707323  0.25259915  0.63800758  1
  Al  Al134  1  0.63607192  0.75003032  0.13489552  1
  Al  Al135  1  0.63956148  0.74798333  0.63022547  1
  Al  Al136  1  0.13018561  0.25262433  0.36680736  1
  Al  Al137  1  0.13265610  0.24618303  0.86162574  1
  Al  Al138  1  0.13517444  0.75018364  0.36118503  1
  Al  Al139  1  0.13745415  0.74864244  0.86625310  1
  Al  Al140  1  0.63654192  0.25465476  0.36750680  1
  Al  Al141  1  0.63078133  0.25205680  0.86351014  1
  Al  Al142  1  0.63950770  0.74662944  0.37444237  1
  Al  Al143  1  0.63850061  0.74949401  0.86278379  1
  Al  Al144  1  0.36435612  0.25359614  0.13788289  1
  Al  Al145  1  0.36684012  0.24607054  0.63791758  1
  Al  Al146  1  0.36395787  0.74531181  0.13184403  1
  Al  Al147  1  0.36256290  0.75288051  0.63505027  1
  Al  Al148  1  0.86662687  0.25218788  0.13160522  1
  Al  Al149  1  0.86173761  0.25117692  0.63379331  1
  Al  Al150  1  0.86598835  0.74934363  0.12979036  1
  Al  Al151  1  0.86540727  0.74656927  0.63613094  1
  Al  Al152  1  0.36479667  0.25630468  0.36518989  1
  Al  Al153  1  0.36763045  0.24418788  0.86268867  1
  Al  Al154  1  0.36342547  0.74593243  0.36458634  1
  Al  Al155  1  0.36163642  0.75439187  0.86996016  1
  Al  Al156  1  0.86845908  0.25082408  0.36865888  1
  Al  Al157  1  0.86855096  0.25289147  0.86478266  1
  Al  Al158  1  0.86563294  0.74631931  0.36803017  1
  Al  Al159  1  0.86098708  0.74869134  0.87114717  1
  Al  Al160  1  0.13634039  0.13723254  0.25233359  1
  Al  Al161  1  0.13623430  0.12859561  0.75163429  1
  Al  Al162  1  0.13680193  0.62820788  0.24771470  1
  Al  Al163  1  0.13531197  0.63596523  0.74545178  1
  Al  Al164  1  0.63711296  0.13756283  0.25104552  1
  Al  Al165  1  0.63191158  0.13550812  0.75302004  1
  Al  Al166  1  0.63595344  0.63837562  0.25602921  1
  Al  Al167  1  0.64085990  0.62939699  0.74413974  1
  Al  Al168  1  0.36602575  0.13753540  0.25121557  1
  Al  Al169  1  0.36855606  0.12787904  0.74995364  1
  Al  Al170  1  0.36432633  0.63301389  0.25343613  1
  Al  Al171  1  0.36379942  0.63691025  0.74696072  1
  Al  Al172  1  0.86617280  0.13833039  0.25566727  1
  Al  Al173  1  0.86476392  0.13221341  0.75442042  1
  Al  Al174  1  0.86527248  0.63935408  0.24518430  1
  Al  Al175  1  0.86025219  0.62705130  0.74589566  1
  Al  Al176  1  0.13503399  0.37110849  0.25254776  1
  Al  Al177  1  0.13474107  0.36349230  0.75204409  1
  Al  Al178  1  0.13814108  0.86220453  0.24639316  1
  Al  Al179  1  0.13981522  0.87571990  0.74727752  1
  Al  Al180  1  0.63127087  0.36396536  0.25029267  1
  Al  Al181  1  0.63766829  0.36976407  0.75032113  1
  Al  Al182  1  0.63762842  0.86163345  0.25453455  1
  Al  Al183  1  0.63792389  0.86365218  0.75154223  1
  Al  Al184  1  0.37132288  0.36615938  0.25124739  1
  Al  Al185  1  0.37040212  0.36128711  0.75210500  1
  Al  Al186  1  0.36226786  0.86010105  0.25439657  1
  Al  Al187  1  0.36046208  0.87284471  0.75038537  1
  Al  Al188  1  0.86568918  0.36295481  0.25349539  1
  Al  Al189  1  0.86272734  0.36807312  0.75085298  1
  Al  Al190  1  0.86288612  0.86076973  0.24867749  1
  Al  Al191  1  0.86055711  0.86983618  0.74935475  1
  Al  Al192  1  0.49832402  0.82321341  0.17867489  1
  Al  Al193  1  0.17064786  0.69180901  0.49939685  1
  Al  Al194  1  0.00043842  0.17277144  0.67788567  1
  Al  Al195  1  0.31877556  0.49937018  0.18530866  1
  Al  Al196  1  0.32901463  0.00112181  0.16479355  1
  Al  Al197  1  0.82952237  0.50293445  0.32654749  1
  Al  Al198  1  0.00091086  0.82991083  0.31265207  1
  Al  Al199  1  0.49631542  0.82730982  0.82525014  1
  Al  Al200  1  0.32697224  0.68377426  0.49902056  1
  Al  Al201  1  0.83120438  0.49891047  0.17142358  1
  Al  Al202  1  0.33417389  -0.00351260  0.33381956  1
  Al  Al203  1  0.17183378  -0.00036175  0.17268173  1
  Al  Al204  1  0.00048279  0.32763217  0.17975145  1
  Al  Al205  1  0.17579243  0.32519417  -0.00140965  1
  Al  Al206  1  0.50151552  0.18605106  0.32466444  1
  Al  Al207  1  0.83182095  -0.00201557  0.16976805  1
  Al  Al208  1  0.50344471  0.32490979  0.67415081  1
  Al  Al209  1  -0.00269474  0.32751587  0.68255056  1
  Al  Al210  1  0.33372102  0.49980540  0.82410027  1
  Al  Al211  1  0.16916266  -0.00119046  0.33001806  1
  Al  Al212  1  0.67414282  0.50080601  0.17264746  1
  Al  Al213  1  0.32627483  0.31038538  -0.00063180  1
  Al  Al214  1  0.81295914  0.81194997  0.50122994  1
  Al  Al215  1  0.16955010  0.50008692  0.82542166  1
  Al  Al216  1  0.68562155  0.32829286  0.50265188  1
  Al  Al217  1  0.17834450  0.17403355  0.49927445  1
  Al  Al218  1  0.00239022  0.82643381  0.66845019  1
  Al  Al219  1  0.18996684  0.17533901  -0.00118989  1
  Al  Al220  1  0.00054368  0.67174601  0.31063699  1
  Al  Al221  1  0.50206375  0.81722474  0.67247457  1
  Al  Al222  1  0.50226156  0.80576024  0.32816852  1
  Al  Al223  1  0.50248422  0.67539764  0.81627797  1
  Al  Al224  1  0.31773908  0.32238623  0.50119460  1
  Al  Al225  1  0.68441775  0.17512243  0.50344596  1
  Al  Al226  1  0.00004635  0.17301255  0.18138470  1
  Al  Al227  1  0.82117076  0.17904342  -0.00137723  1
  Al  Al228  1  0.17756596  0.82446770  0.00234273  1
  Al  Al229  1  0.67986995  -0.00017800  0.68753480  1
  Al  Al230  1  -0.00110464  0.66937536  0.82184571  1
  Al  Al231  1  0.67546232  -0.00096784  0.18046848  1
  Al  Al232  1  0.50025346  0.67288917  0.18762878  1
  Al  Al233  1  0.68324080  0.32336537  -0.00170280  1
  Al  Al234  1  0.49983191  0.18031837  0.16897194  1
  Al  Al235  1  0.82263351  0.00131406  0.33428318  1
  Al  Al236  1  -0.00557626  0.83070598  0.82816097  1
  Al  Al237  1  0.67054756  0.50091532  0.33062268  1
  Al  Al238  1  0.68337843  0.68287760  -0.00186182  1
  Au  Au239  1  0.83523384  0.00156202  0.33291653  1
  Au  Au240  1  0.49858601  0.17337003  0.83617355  1
  Au  Au241  1  0.82712409  0.49851020  0.34214001  1
  Au  Au242  1  0.50439912  0.66618988  0.66595828  1
  Au  Au243  1  0.17608630  0.67545170  0.49894867  1
  Au  Au244  1  0.66867394  0.33196106  -0.00151625  1
  Au  Au245  1  0.17504217  0.49947092  0.32425912  1
  Au  Au246  1  0.66340564  0.50091916  0.82245906  1
  Au  Au247  1  0.16530409  0.49774149  0.66081522  1
  Au  Au248  1  0.15322838  0.00183760  0.33001212  1
  Au  Au249  1  -0.00305779  0.17372162  0.66200965  1
  Au  Au250  1  0.32901669  0.49810643  0.17177424  1
  Au  Au251  1  0.34858065  -0.00492506  0.34093127  1
  Au  Au252  1  0.50006766  0.33692766  0.33003447  1
  Au  Au253  1  -0.00062083  0.17473022  0.83932585  1
  Au  Au254  1  0.33298193  0.50209414  0.65584460  1
  Au  Au255  1  0.34635690  0.49919211  0.83467537  1
  Au  Au256  1  0.17341687  0.16359820  0.50384248  1
  Au  Au257  1  0.67672093  0.83201182  -0.00156365  1
  Au  Au258  1  0.15388986  0.49878938  0.83034684  1
  Au  Au259  1  0.32282806  0.00198795  0.14893736  1
  Au  Au260  1  0.65791817  0.50143165  0.16953197  1
  Au  Au261  1  0.34054882  0.67731363  -0.00088606  1
  Au  Au262  1  0.17369982  0.83583134  -0.00227511  1
  Au  Au263  1  -0.00170415  0.32243615  0.32970628  1
  Au  Au264  1  0.66977111  0.15543165  -0.00178531  1
  Au  Au265  1  0.83088105  0.67083925  0.00251822  1
  Au  Au266  1  0.83319860  0.49642556  0.82568018  1
  Au  Au267  1  0.16444696  0.33655347  0.00245529  1
  Au  Au268  1  -0.00118159  0.83219367  0.32967829  1
  Au  Au269  1  0.17030631  0.33823006  0.50095018  1
  Au  Au270  1  0.33427247  0.17372061  0.50026553  1
  Au  Au271  1  -0.00781496  0.66245709  0.66014505  1
  Au  Au272  1  0.17074751  0.66306464  0.00556320  1
  Au  Au273  1  0.50180774  0.16840967  0.17342903  1
  Au  Au274  1  0.00000065  0.66572856  0.83821849  1
  Au  Au275  1  0.49714071  0.83887584  0.83655153  1
  Au  Au276  1  0.65778063  -0.00294153  0.33014374  1
  Au  Au277  1  0.82692709  -0.00499750  0.15386423  1
  Au  Au278  1  -0.00025393  0.66277891  0.32539212  1
  Au  Au279  1  0.00447126  0.83826730  0.66535197  1
  Au  Au280  1  0.17303674  0.00218627  0.82567582  1
  Au  Au281  1  0.82675263  0.00125477  0.67519971  1
  Au  Au282  1  0.50500918  0.33700772  0.67753023  1
  Au  Au283  1  -0.00885751  0.84471372  0.83814930  1
  Au  Au284  1  0.32766917  -0.00195131  0.67112070  1
  Au  Au285  1  0.83376120  0.17814201  0.00051481  1
  Au  Au286  1  0.49843979  0.83415565  0.16593969  1
  Au  Au287  1  0.50378580  0.16514501  0.66807801  1
