# generated using pymatgen
data_Ca24Ti8Al207Au49
_symmetry_space_group_name_H-M   'P 1'
_cell_length_a   17.32026860
_cell_length_b   17.32017440
_cell_length_c   17.31851836
_cell_angle_alpha   90.00117894
_cell_angle_beta   89.99873410
_cell_angle_gamma   89.99749562
_symmetry_Int_Tables_number   1
_chemical_formula_structural   Ca24Ti8Al207Au49
_chemical_formula_sum   'Ca24 Ti8 Al207 Au49'
_cell_volume   5195.38357857
_cell_formula_units_Z   1
loop_
 _symmetry_equiv_pos_site_id
 _symmetry_equiv_pos_as_xyz
  1  'x, y, z'
loop_
 _atom_site_type_symbol
 _atom_site_label
 _atom_site_symmetry_multiplicity
 _atom_site_fract_x
 _atom_site_fract_y
 _atom_site_fract_z
 _atom_site_occupancy
  Ca  Ca0  1  0.25239305  -0.00132877  -0.00015230  1
  Ca  Ca1  1  0.24862457  -0.00242203  0.49616566  1
  Ca  Ca2  1  0.24948613  0.50543471  -0.00289876  1
  Ca  Ca3  1  0.24905970  0.50430700  0.50065489  1
  Ca  Ca4  1  0.75098252  0.00223937  0.00521170  1
  Ca  Ca5  1  0.75102522  0.00012028  0.49335040  1
  Ca  Ca6  1  0.75234802  0.49700504  0.00227569  1
  Ca  Ca7  1  0.75138824  0.50194256  0.49593460  1
  Ca  Ca8  1  0.00030456  0.25174819  0.00071958  1
  Ca  Ca9  1  0.00039691  0.24216963  0.49735532  1
  Ca  Ca10  1  0.00395536  0.74537782  0.00151760  1
  Ca  Ca11  1  -0.00040787  0.75281890  0.49564221  1
  Ca  Ca12  1  0.50032284  0.24789292  0.00394627  1
  Ca  Ca13  1  0.49975003  0.23993251  0.49765223  1
  Ca  Ca14  1  0.49786443  0.74614677  0.00043987  1
  Ca  Ca15  1  0.49685039  0.75386772  0.49948419  1
  Ca  Ca16  1  0.00002134  0.00246248  0.25222244  1
  Ca  Ca17  1  0.00116848  -0.00108164  0.75016333  1
  Ca  Ca18  1  -0.00183858  0.49832998  0.24843615  1
  Ca  Ca19  1  -0.00105641  0.50322509  0.75603920  1
  Ca  Ca20  1  0.49858878  0.00340492  0.25309982  1
  Ca  Ca21  1  0.49557026  -0.00156020  0.74740707  1
  Ca  Ca22  1  0.50268135  0.49736373  0.24451740  1
  Ca  Ca23  1  0.50320398  0.49489798  0.75578653  1
  Ti  Ti24  1  0.24931511  0.24723891  0.24910303  1
  Ti  Ti25  1  0.24725684  0.24636584  0.75189138  1
  Ti  Ti26  1  0.24984541  0.75279917  0.25100649  1
  Ti  Ti27  1  0.24929746  0.75212331  0.74921587  1
  Ti  Ti28  1  0.75077526  0.24740765  0.24948359  1
  Ti  Ti29  1  0.75201667  0.25013281  0.75124232  1
  Ti  Ti30  1  0.75043998  0.75184587  0.25024566  1
  Ti  Ti31  1  0.75124717  0.74839972  0.74951019  1
  Al  Al32  1  0.07750098  0.07976979  0.09073510  1
  Al  Al33  1  0.08614539  0.08095218  0.58609963  1
  Al  Al34  1  0.07592084  0.58021262  0.07105826  1
  Al  Al35  1  0.08218957  0.59822431  0.58709450  1
  Al  Al36  1  0.58171647  0.08748812  0.09871715  1
  Al  Al37  1  0.57921372  0.07601098  0.57635117  1
  Al  Al38  1  0.59133685  0.57656962  0.09235502  1
  Al  Al39  1  0.57171635  0.58942936  0.59125352  1
  Al  Al40  1  0.41697390  0.40989346  0.08031997  1
  Al  Al41  1  0.42410393  0.43027644  0.57223214  1
  Al  Al42  1  0.41297693  0.92104330  0.08252660  1
  Al  Al43  1  0.41188490  0.91545707  0.58908102  1
  Al  Al44  1  0.90113290  0.41169044  0.08513948  1
  Al  Al45  1  0.92170380  0.42473549  0.58501101  1
  Al  Al46  1  0.92219953  0.92482195  0.08735955  1
  Al  Al47  1  0.91997198  0.91935288  0.57480775  1
  Al  Al48  1  0.41163963  0.08381614  0.40529440  1
  Al  Al49  1  0.41134322  0.08581837  0.90321506  1
  Al  Al50  1  0.41476714  0.60193572  0.41830988  1
  Al  Al51  1  0.41558305  0.57706075  0.91970399  1
  Al  Al52  1  0.91749333  0.08366483  0.40823179  1
  Al  Al53  1  0.92478359  0.09221204  0.91338527  1
  Al  Al54  1  0.91846258  0.58059365  0.41354612  1
  Al  Al55  1  0.92303470  0.58718389  0.91315280  1
  Al  Al56  1  0.07728254  0.40584079  0.41852656  1
  Al  Al57  1  0.08120190  0.42448961  0.90840154  1
  Al  Al58  1  0.08420647  0.91743500  0.40392731  1
  Al  Al59  1  0.10135498  0.91645466  0.91652374  1
  Al  Al60  1  0.58431123  0.42162499  0.40978608  1
  Al  Al61  1  0.59299775  0.41882324  0.91884220  1
  Al  Al62  1  0.58104629  0.92083823  0.41743093  1
  Al  Al63  1  0.57193730  0.93002094  0.92733558  1
  Al  Al64  1  0.08277828  0.08124102  0.40438554  1
  Al  Al65  1  0.08622183  0.07815456  0.90341519  1
  Al  Al66  1  0.08215700  0.58961088  0.42453519  1
  Al  Al67  1  0.08749422  0.58788630  0.90476038  1
  Al  Al68  1  0.57725709  0.08844422  0.40484195  1
  Al  Al69  1  0.57128398  0.08868636  0.91330039  1
  Al  Al70  1  0.57427066  0.58460046  0.40452232  1
  Al  Al71  1  0.59077561  0.57565801  0.91349761  1
  Al  Al72  1  0.42529979  0.41940014  0.41464689  1
  Al  Al73  1  0.40508227  0.41540659  0.92315006  1
  Al  Al74  1  0.40976348  0.91993644  0.41298300  1
  Al  Al75  1  0.40142038  0.92471484  0.91267622  1
  Al  Al76  1  0.92156900  0.41785126  0.40794303  1
  Al  Al77  1  0.91421253  0.41066067  0.92132735  1
  Al  Al78  1  0.91976676  0.91958547  0.40431906  1
  Al  Al79  1  0.92986883  0.92647989  0.92402913  1
  Al  Al80  1  0.07179948  0.41893356  0.07755178  1
  Al  Al81  1  0.08169730  0.41566011  0.57973410  1
  Al  Al82  1  0.09204190  0.91274061  0.07967646  1
  Al  Al83  1  0.08535655  0.91921633  0.58217932  1
  Al  Al84  1  0.58833983  0.41519721  0.08642487  1
  Al  Al85  1  0.58387254  0.42867065  0.57241540  1
  Al  Al86  1  0.58374381  0.92736284  0.09161230  1
  Al  Al87  1  0.57881601  0.91517801  0.58128729  1
  Al  Al88  1  0.41824799  0.08533327  0.09356971  1
  Al  Al89  1  0.40791357  0.07425949  0.58196048  1
  Al  Al90  1  0.42220393  0.58066550  0.07833156  1
  Al  Al91  1  0.41170234  0.60263742  0.58126128  1
  Al  Al92  1  0.91764678  0.08834832  0.09089342  1
  Al  Al93  1  0.92123239  0.08323020  0.57700435  1
  Al  Al94  1  0.90727329  0.57327929  0.08599729  1
  Al  Al95  1  0.92326056  0.58648182  0.59658855  1
  Al  Al96  1  0.25107150  0.13331103  0.13204150  1
  Al  Al97  1  0.24943808  0.13305074  0.63768329  1
  Al  Al98  1  0.24957068  0.63883983  0.13885419  1
  Al  Al99  1  0.24903134  0.63623899  0.63388800  1
  Al  Al100  1  0.75058721  0.12714441  0.13769234  1
  Al  Al101  1  0.75182254  0.13663914  0.63777081  1
  Al  Al102  1  0.74998498  0.62893589  0.14055252  1
  Al  Al103  1  0.75423645  0.63371594  0.63507693  1
  Al  Al104  1  0.25464208  0.36219664  0.13272748  1
  Al  Al105  1  0.24428618  0.36246220  0.63693876  1
  Al  Al106  1  0.24852320  0.86491960  0.13166698  1
  Al  Al107  1  0.25062105  0.86479543  0.62859915  1
  Al  Al108  1  0.74970575  0.36901374  0.13711013  1
  Al  Al109  1  0.74881208  0.36497262  0.63538574  1
  Al  Al110  1  0.74783170  0.87212151  0.13880047  1
  Al  Al111  1  0.75488503  0.86150745  0.63343628  1
  Al  Al112  1  0.25052839  0.12583179  0.36098220  1
  Al  Al113  1  0.24908890  0.12846059  0.86725284  1
  Al  Al114  1  0.25016217  0.63831338  0.36368303  1
  Al  Al115  1  0.24677875  0.63575608  0.86322019  1
  Al  Al116  1  0.74865913  0.12536171  0.36077652  1
  Al  Al117  1  0.75405707  0.13804030  0.86824936  1
  Al  Al118  1  0.75382295  0.63828238  0.36416657  1
  Al  Al119  1  0.75202346  0.62695538  0.86161244  1
  Al  Al120  1  0.24778335  0.36190700  0.36359911  1
  Al  Al121  1  0.25063248  0.36217254  0.86335005  1
  Al  Al122  1  0.24883492  0.86432002  0.37011528  1
  Al  Al123  1  0.24908927  0.86618111  0.86943474  1
  Al  Al124  1  0.74750536  0.36391401  0.36252011  1
  Al  Al125  1  0.75415437  0.36924021  0.86523285  1
  Al  Al126  1  0.75295217  0.87115213  0.36081987  1
  Al  Al127  1  0.74808720  0.86223109  0.86397901  1
  Al  Al128  1  0.13465456  0.24791864  0.13556627  1
  Al  Al129  1  0.12878545  0.24433136  0.64048838  1
  Al  Al130  1  0.13379399  0.75293304  0.13768056  1
  Al  Al131  1  0.13526790  0.75051338  0.63626277  1
  Al  Al132  1  0.63766536  0.24625999  0.13809204  1
  Al  Al133  1  0.63828486  0.25022105  0.63103703  1
  Al  Al134  1  0.63598417  0.74872536  0.13513355  1
  Al  Al135  1  0.63607131  0.74763643  0.63538525  1
  Al  Al136  1  0.13484250  0.24038735  0.36223209  1
  Al  Al137  1  0.13324897  0.24564754  0.86468951  1
  Al  Al138  1  0.12850910  0.75503888  0.36218743  1
  Al  Al139  1  0.13712381  0.75072321  0.86603594  1
  Al  Al140  1  0.63876118  0.24257280  0.36589077  1
  Al  Al141  1  0.63464393  0.24725773  0.86451960  1
  Al  Al142  1  0.63025759  0.75081211  0.36015875  1
  Al  Al143  1  0.63929765  0.74308462  0.87038762  1
  Al  Al144  1  0.36474031  0.24513943  0.13287506  1
  Al  Al145  1  0.36413890  0.24571463  0.63984979  1
  Al  Al146  1  0.36738763  0.75518868  0.13651472  1
  Al  Al147  1  0.36253183  0.75133869  0.62969926  1
  Al  Al148  1  0.86017288  0.25049177  0.13032270  1
  Al  Al149  1  0.87108573  0.24912579  0.63644954  1
  Al  Al150  1  0.86485464  0.75138735  0.13923846  1
  Al  Al151  1  0.86598494  0.74468230  0.63008527  1
  Al  Al152  1  0.36567382  0.24214254  0.36303908  1
  Al  Al153  1  0.36178123  0.24502693  0.86949934  1
  Al  Al154  1  0.36578532  0.75151458  0.37073496  1
  Al  Al155  1  0.36211286  0.75435551  0.86574053  1
  Al  Al156  1  0.86451409  0.24494715  0.36127577  1
  Al  Al157  1  0.86405246  0.25215974  0.87065733  1
  Al  Al158  1  0.86904946  0.75376966  0.36399771  1
  Al  Al159  1  0.86606944  0.74642561  0.86364596  1
  Al  Al160  1  0.13763953  0.12567616  0.24994456  1
  Al  Al161  1  0.13015426  0.12946834  0.75414589  1
  Al  Al162  1  0.13058016  0.63709857  0.25406912  1
  Al  Al163  1  0.13216289  0.63747058  0.75226040  1
  Al  Al164  1  0.63390960  0.12951376  0.24903243  1
  Al  Al165  1  0.63477113  0.13638886  0.74989863  1
  Al  Al166  1  0.63173068  0.63691244  0.24871973  1
  Al  Al167  1  0.63599160  0.63652779  0.74979362  1
  Al  Al168  1  0.36819154  0.13446507  0.25063000  1
  Al  Al169  1  0.36215520  0.13071630  0.75481609  1
  Al  Al170  1  0.37060396  0.64193438  0.25200840  1
  Al  Al171  1  0.36393122  0.64179740  0.74802118  1
  Al  Al172  1  0.86420651  0.12681718  0.25259856  1
  Al  Al173  1  0.87230186  0.13794709  0.75236693  1
  Al  Al174  1  0.86990658  0.63663248  0.24918986  1
  Al  Al175  1  0.87021060  0.63595518  0.75242925  1
  Al  Al176  1  0.13627120  0.36476640  0.24877282  1
  Al  Al177  1  0.13454706  0.36551118  0.75313919  1
  Al  Al178  1  0.13740269  0.87390648  0.25430351  1
  Al  Al179  1  0.13700024  0.86814392  0.75437423  1
  Al  Al180  1  0.63578352  0.36481408  0.24703319  1
  Al  Al181  1  0.63572423  0.36498891  0.75845335  1
  Al  Al182  1  0.63569940  0.87230233  0.25213919  1
  Al  Al183  1  0.63693784  0.86256763  0.74820742  1
  Al  Al184  1  0.36467615  0.36245014  0.25133555  1
  Al  Al185  1  0.36407253  0.36100062  0.75296295  1
  Al  Al186  1  0.36442853  0.86690491  0.25771016  1
  Al  Al187  1  0.35925250  0.86792636  0.74918302  1
  Al  Al188  1  0.86422400  0.36415160  0.24548276  1
  Al  Al189  1  0.86580990  0.36382767  0.75201317  1
  Al  Al190  1  0.86670849  0.87296177  0.25046830  1
  Al  Al191  1  0.86686249  0.86382517  0.74737795  1
  Al  Al192  1  0.18545260  0.68411675  0.49905373  1
  Al  Al193  1  0.66578859  0.82497453  0.00146313  1
  Al  Al194  1  0.68028899  0.82652615  0.49780241  1
  Al  Al195  1  0.17350940  0.31338125  0.50108942  1
  Al  Al196  1  0.31362932  0.50023879  0.82682904  1
  Al  Al197  1  0.50012463  0.66953412  0.81868246  1
  Al  Al198  1  0.81933602  0.17314694  0.49734433  1
  Al  Al199  1  0.17621557  0.16843690  -0.00055411  1
  Al  Al200  1  0.67126647  0.00162420  0.82793462  1
  Al  Al201  1  0.66644598  0.50050792  0.68648197  1
  Al  Al202  1  0.00135844  0.81522366  0.83034788  1
  Al  Al203  1  0.49890485  0.81529658  0.67397395  1
  Al  Al204  1  0.49993951  0.31411244  0.17223554  1
  Al  Al205  1  0.50286365  0.32930081  0.67138714  1
  Al  Al206  1  0.82468613  0.49965091  0.68513199  1
  Al  Al207  1  -0.00039934  0.31677650  0.82365767  1
  Al  Al208  1  0.67704075  -0.00185670  0.67291714  1
  Al  Al209  1  0.67568905  0.16859208  0.00092824  1
  Al  Al210  1  0.19020008  -0.00149082  0.68815174  1
  Al  Al211  1  0.68705812  0.32494657  0.00084155  1
  Al  Al212  1  0.82592736  0.49966966  0.31387576  1
  Al  Al213  1  0.82478934  0.32871279  0.49952333  1
  Al  Al214  1  0.33141465  0.50205103  0.67411746  1
  Al  Al215  1  0.49936517  0.83081539  0.82972710  1
  Al  Al216  1  0.50268725  0.30815299  0.32820168  1
  Al  Al217  1  0.00035685  0.30854849  0.31568342  1
  Al  Al218  1  0.50030540  0.82504547  0.17899084  1
  Al  Al219  1  0.32567478  0.50368086  0.32818408  1
  Al  Al220  1  0.82134174  0.67140771  0.00083740  1
  Al  Al221  1  0.17066072  0.50051819  0.17673619  1
  Al  Al222  1  0.31797600  0.17148330  0.49954330  1
  Al  Al223  1  0.49745937  0.31701656  0.83539254  1
  Al  Al224  1  0.32782211  0.50000124  0.17165503  1
  Al  Al225  1  0.33226415  0.32202861  0.50031227  1
  Al  Al226  1  0.00022843  0.81204543  0.67472128  1
  Al  Al227  1  0.67502852  0.50284171  0.31360529  1
  Al  Al228  1  -0.00052151  0.18258633  0.19316431  1
  Al  Al229  1  0.82731898  0.83003530  0.00100531  1
  Al  Al230  1  0.00211889  0.82313553  0.18697603  1
  Al  Al231  1  0.49736451  0.16705813  0.68380691  1
  Al  Al232  1  0.32535082  0.68031464  0.00081486  1
  Al  Al233  1  0.31977382  -0.00022243  0.18775479  1
  Al  Al234  1  0.18352631  0.32988614  -0.00206300  1
  Al  Al235  1  0.83067828  -0.00005596  0.82210644  1
  Al  Al236  1  0.17307534  0.68097986  0.00092059  1
  Al  Al237  1  0.67091594  0.67049084  0.49852386  1
  Al  Al238  1  0.16969898  0.50249033  0.68469608  1
  Au  Au239  1  0.15992456  0.50279368  0.67159516  1
  Au  Au240  1  -0.00042301  0.16441485  0.67603466  1
  Au  Au241  1  -0.00237148  0.82372580  0.66207215  1
  Au  Au242  1  0.67230741  0.50234346  0.67010377  1
  Au  Au243  1  0.49562725  0.15385256  0.67398887  1
  Au  Au244  1  0.17346709  -0.00172526  0.17363036  1
  Au  Au245  1  0.00003107  0.33387238  0.67556745  1
  Au  Au246  1  0.49896600  0.82749051  0.33521143  1
  Au  Au247  1  0.66886249  0.16161187  0.49819787  1
  Au  Au248  1  0.83203968  0.49945346  0.83571277  1
  Au  Au249  1  0.49759992  0.84550699  0.82330413  1
  Au  Au250  1  0.82647061  0.00065896  0.17269014  1
  Au  Au251  1  0.17236187  0.50349516  0.16023920  1
  Au  Au252  1  0.50009296  0.66109524  0.17509012  1
  Au  Au253  1  0.82571833  0.00175393  0.83838937  1
  Au  Au254  1  0.66341572  0.17215093  0.00078788  1
  Au  Au255  1  0.82540922  0.00179079  0.65696546  1
  Au  Au256  1  0.84329788  0.82271684  0.00208636  1
  Au  Au257  1  0.50099799  0.83598447  0.17289538  1
  Au  Au258  1  0.34785157  0.50578271  0.67823500  1
  Au  Au259  1  0.65518972  0.67240237  0.49434704  1
  Au  Au260  1  0.67263960  0.65939590  0.00176600  1
  Au  Au261  1  0.00622538  0.83042010  0.83667211  1
  Au  Au262  1  0.83004465  0.83846392  0.48963442  1
  Au  Au263  1  -0.00394161  0.66098081  0.16559521  1
  Au  Au264  1  0.84097367  0.33147173  0.49942835  1
  Au  Au265  1  0.00023910  0.67620421  0.33507060  1
  Au  Au266  1  0.17728820  -0.00209832  0.67665140  1
  Au  Au267  1  0.66873201  -0.00024515  0.32602638  1
  Au  Au268  1  0.34189795  0.50851030  0.32704890  1
  Au  Au269  1  0.17322032  0.34243749  -0.00488704  1
  Au  Au270  1  0.66864096  0.83736962  0.00130908  1
  Au  Au271  1  0.50420555  0.33174116  0.65553111  1
  Au  Au272  1  0.49748525  0.33161164  0.84397843  1
  Au  Au273  1  0.16398703  0.83004779  0.49439773  1
  Au  Au274  1  0.34097548  0.17029725  0.00068998  1
  Au  Au275  1  0.16043927  0.49754584  0.34215280  1
  Au  Au276  1  0.16646451  0.16341573  0.49423452  1
  Au  Au277  1  0.00365735  0.83545716  0.17571049  1
  Au  Au278  1  0.66446364  0.33177355  0.49638595  1
  Au  Au279  1  0.32380469  0.33741678  0.49989278  1
  Au  Au280  1  0.83984817  0.17757115  0.00102278  1
  Au  Au281  1  0.83792914  0.66289002  0.50329737  1
  Au  Au282  1  -0.00491277  0.32857288  0.16796399  1
  Au  Au283  1  0.32351326  0.83103252  0.00075538  1
  Au  Au284  1  0.50295152  0.32438489  0.32221720  1
  Au  Au285  1  0.50045888  0.65344290  0.82299899  1
  Au  Au286  1  0.16512379  0.16261467  -0.00035722  1
  Au  Au287  1  0.33155039  0.82782381  0.50046533  1
