# generated using pymatgen
data_Ca24Ti8Al207Au49
_symmetry_space_group_name_H-M   'P 1'
_cell_length_a   17.32104260
_cell_length_b   17.32046334
_cell_length_c   17.31987230
_cell_angle_alpha   90.00045529
_cell_angle_beta   90.00017145
_cell_angle_gamma   90.00435300
_symmetry_Int_Tables_number   1
_chemical_formula_structural   Ca24Ti8Al207Au49
_chemical_formula_sum   'Ca24 Ti8 Al207 Au49'
_cell_volume   5196.10860415
_cell_formula_units_Z   1
loop_
 _symmetry_equiv_pos_site_id
 _symmetry_equiv_pos_as_xyz
  1  'x, y, z'
loop_
 _atom_site_type_symbol
 _atom_site_label
 _atom_site_symmetry_multiplicity
 _atom_site_fract_x
 _atom_site_fract_y
 _atom_site_fract_z
 _atom_site_occupancy
  Ca  Ca0  1  0.24646722  0.00266282  0.00102932  1
  Ca  Ca1  1  0.24388035  -0.00297491  0.49848629  1
  Ca  Ca2  1  0.24928318  0.50061064  0.00695276  1
  Ca  Ca3  1  0.24444250  0.50242734  0.49677189  1
  Ca  Ca4  1  0.74974688  0.00321998  0.00359957  1
  Ca  Ca5  1  0.75359185  -0.00563466  0.49578852  1
  Ca  Ca6  1  0.75368445  0.49742386  0.00374577  1
  Ca  Ca7  1  0.75388937  0.50678895  0.49933840  1
  Ca  Ca8  1  -0.00393159  0.24585125  0.00676787  1
  Ca  Ca9  1  0.00193033  0.24924245  0.49383837  1
  Ca  Ca10  1  -0.00116722  0.75790986  0.00069616  1
  Ca  Ca11  1  0.00170543  0.75446001  0.49560835  1
  Ca  Ca12  1  0.50284376  0.24350876  -0.00150642  1
  Ca  Ca13  1  0.50181684  0.24524698  0.50297416  1
  Ca  Ca14  1  0.49968122  0.75293878  0.00202255  1
  Ca  Ca15  1  0.49975952  0.74969379  0.49689642  1
  Ca  Ca16  1  -0.00051857  -0.00098012  0.25278565  1
  Ca  Ca17  1  0.00899077  -0.00324052  0.74761985  1
  Ca  Ca18  1  -0.00219651  0.50180259  0.25439477  1
  Ca  Ca19  1  -0.00205818  0.50307742  0.74574242  1
  Ca  Ca20  1  0.50330923  -0.00421795  0.25166554  1
  Ca  Ca21  1  0.49545292  0.00339225  0.75199792  1
  Ca  Ca22  1  0.50029147  0.50712650  0.24996954  1
  Ca  Ca23  1  0.50499715  0.50120889  0.75038368  1
  Ti  Ti24  1  0.24664814  0.25007765  0.24987215  1
  Ti  Ti25  1  0.25027137  0.24692525  0.75043381  1
  Ti  Ti26  1  0.24833816  0.74938756  0.25235263  1
  Ti  Ti27  1  0.25029361  0.75052085  0.74642091  1
  Ti  Ti28  1  0.75129281  0.25011973  0.24850881  1
  Ti  Ti29  1  0.74915541  0.25028793  0.75145618  1
  Ti  Ti30  1  0.75231872  0.75083435  0.24972364  1
  Ti  Ti31  1  0.74952006  0.74919970  0.74909604  1
  Al  Al32  1  0.08434628  0.08592788  0.09454039  1
  Al  Al33  1  0.09691863  0.06866029  0.58277693  1
  Al  Al34  1  0.07023047  0.58445818  0.09572662  1
  Al  Al35  1  0.07850639  0.60898030  0.57636736  1
  Al  Al36  1  0.58848707  0.07377614  0.08002997  1
  Al  Al37  1  0.58915256  0.08843519  0.57961481  1
  Al  Al38  1  0.58273820  0.58672590  0.09081608  1
  Al  Al39  1  0.59006159  0.59212093  0.57888278  1
  Al  Al40  1  0.41783155  0.42504205  0.07821102  1
  Al  Al41  1  0.42451056  0.41293438  0.57580738  1
  Al  Al42  1  0.41918179  0.91634064  0.08709431  1
  Al  Al43  1  0.41363614  0.92207428  0.58123048  1
  Al  Al44  1  0.90808523  0.40862685  0.09322388  1
  Al  Al45  1  0.91449031  0.42192814  0.57437068  1
  Al  Al46  1  0.91969126  0.92607069  0.09735461  1
  Al  Al47  1  0.92895855  0.90525374  0.58430849  1
  Al  Al48  1  0.40880961  0.08450789  0.42583632  1
  Al  Al49  1  0.41392448  0.09038669  0.91208452  1
  Al  Al50  1  0.41615255  0.58526851  0.41708871  1
  Al  Al51  1  0.42542919  0.58437942  0.90781680  1
  Al  Al52  1  0.91506135  0.07654985  0.40513080  1
  Al  Al53  1  0.91170993  0.07695498  0.92375133  1
  Al  Al54  1  0.91587037  0.59238612  0.41648566  1
  Al  Al55  1  0.91964037  0.57965399  0.91513885  1
  Al  Al56  1  0.08554914  0.42553393  0.40577661  1
  Al  Al57  1  0.06984005  0.42146065  0.92777611  1
  Al  Al58  1  0.08447729  0.90789683  0.41300526  1
  Al  Al59  1  0.08858017  0.91491781  0.90538893  1
  Al  Al60  1  0.58130246  0.42120033  0.42181646  1
  Al  Al61  1  0.58539017  0.41728978  0.91956449  1
  Al  Al62  1  0.58952138  0.91860490  0.41359677  1
  Al  Al63  1  0.58376209  0.92586069  0.90894641  1
  Al  Al64  1  0.08292674  0.08091562  0.41347996  1
  Al  Al65  1  0.09160987  0.07297743  0.92012553  1
  Al  Al66  1  0.08701032  0.59101743  0.41320599  1
  Al  Al67  1  0.07384198  0.58480301  0.91766824  1
  Al  Al68  1  0.59831106  0.07988488  0.41867446  1
  Al  Al69  1  0.57858975  0.08523862  0.90631806  1
  Al  Al70  1  0.58939598  0.59153786  0.42021542  1
  Al  Al71  1  0.57968304  0.58803566  0.91315993  1
  Al  Al72  1  0.41680285  0.41791232  0.41892052  1
  Al  Al73  1  0.42244761  0.42252293  0.91865844  1
  Al  Al74  1  0.41785478  0.91724538  0.41891674  1
  Al  Al75  1  0.42046821  0.92345714  0.91680995  1
  Al  Al76  1  0.91923518  0.41758154  0.41550496  1
  Al  Al77  1  0.90799985  0.40948980  0.93102990  1
  Al  Al78  1  0.91822446  0.91165707  0.40718685  1
  Al  Al79  1  0.92658452  0.92096304  0.90422129  1
  Al  Al80  1  0.06923540  0.41351652  0.09417375  1
  Al  Al81  1  0.07189434  0.42454690  0.56750067  1
  Al  Al82  1  0.08600989  0.92256237  0.09260673  1
  Al  Al83  1  0.09065701  0.90579987  0.58776930  1
  Al  Al84  1  0.58808250  0.42392921  0.07991695  1
  Al  Al85  1  0.58337408  0.41531767  0.58247439  1
  Al  Al86  1  0.58277264  0.91775129  0.09340518  1
  Al  Al87  1  0.58341596  0.91732404  0.57901473  1
  Al  Al88  1  0.40550633  0.08319054  0.07309565  1
  Al  Al89  1  0.40709174  0.08490561  0.58497151  1
  Al  Al90  1  0.42490050  0.58771305  0.09132794  1
  Al  Al91  1  0.42264621  0.58822084  0.57792291  1
  Al  Al92  1  0.91793645  0.08913597  0.09808711  1
  Al  Al93  1  0.92688167  0.07189399  0.56753921  1
  Al  Al94  1  0.91195701  0.57301030  0.09817644  1
  Al  Al95  1  0.91570268  0.60235222  0.58018380  1
  Al  Al96  1  0.24420392  0.13470622  0.13682110  1
  Al  Al97  1  0.24851399  0.13262627  0.63558122  1
  Al  Al98  1  0.24539558  0.63138362  0.14023213  1
  Al  Al99  1  0.24255141  0.64334995  0.62526904  1
  Al  Al100  1  0.75290248  0.13475048  0.12931361  1
  Al  Al101  1  0.74470740  0.13704025  0.63367991  1
  Al  Al102  1  0.75363983  0.63255444  0.13847100  1
  Al  Al103  1  0.75224198  0.63446167  0.63305708  1
  Al  Al104  1  0.24467143  0.37037305  0.14034072  1
  Al  Al105  1  0.25086172  0.36295908  0.63679455  1
  Al  Al106  1  0.24517216  0.86436197  0.13948829  1
  Al  Al107  1  0.24570406  0.86161896  0.62614109  1
  Al  Al108  1  0.75534410  0.36737947  0.13192113  1
  Al  Al109  1  0.74980294  0.36982528  0.63629443  1
  Al  Al110  1  0.75178708  0.86260819  0.13636312  1
  Al  Al111  1  0.74580724  0.86149782  0.63395512  1
  Al  Al112  1  0.24749218  0.13372656  0.36215668  1
  Al  Al113  1  0.24900757  0.13416175  0.86516791  1
  Al  Al114  1  0.24499895  0.63284546  0.36950705  1
  Al  Al115  1  0.25203491  0.63767198  0.85868984  1
  Al  Al116  1  0.75374323  0.13307871  0.36119646  1
  Al  Al117  1  0.74853591  0.13518695  0.86843583  1
  Al  Al118  1  0.75261837  0.63706227  0.36653656  1
  Al  Al119  1  0.75119001  0.63485356  0.86526159  1
  Al  Al120  1  0.24407632  0.36924193  0.36180185  1
  Al  Al121  1  0.25433779  0.36093742  0.86383415  1
  Al  Al122  1  0.24565358  0.86126205  0.37166971  1
  Al  Al123  1  0.24764687  0.86378488  0.86258566  1
  Al  Al124  1  0.75114721  0.36375805  0.36302731  1
  Al  Al125  1  0.74884862  0.36437180  0.87132328  1
  Al  Al126  1  0.75540474  0.86575977  0.36265837  1
  Al  Al127  1  0.74824548  0.86241348  0.86313943  1
  Al  Al128  1  0.12710136  0.24880248  0.14073032  1
  Al  Al129  1  0.13647014  0.24925878  0.63592359  1
  Al  Al130  1  0.12530083  0.74810222  0.14441797  1
  Al  Al131  1  0.12864253  0.75462408  0.63263789  1
  Al  Al132  1  0.64190693  0.25078448  0.12568204  1
  Al  Al133  1  0.63795216  0.24982164  0.63039105  1
  Al  Al134  1  0.63137023  0.74905510  0.13470313  1
  Al  Al135  1  0.63316599  0.74606587  0.63306560  1
  Al  Al136  1  0.13325364  0.24970806  0.36145457  1
  Al  Al137  1  0.13382789  0.24984326  0.86332996  1
  Al  Al138  1  0.13378221  0.75017099  0.36817848  1
  Al  Al139  1  0.13527959  0.74895226  0.86303680  1
  Al  Al140  1  0.64008127  0.24557784  0.36943634  1
  Al  Al141  1  0.63525015  0.24654495  0.86923044  1
  Al  Al142  1  0.63762274  0.74886053  0.36242883  1
  Al  Al143  1  0.63070884  0.74938093  0.86508741  1
  Al  Al144  1  0.36158355  0.24446899  0.13404742  1
  Al  Al145  1  0.36457537  0.24227464  0.63529354  1
  Al  Al146  1  0.36517739  0.75149277  0.13513125  1
  Al  Al147  1  0.36575448  0.75068059  0.62763450  1
  Al  Al148  1  0.86642366  0.25065396  0.13241501  1
  Al  Al149  1  0.86624845  0.24962222  0.63618454  1
  Al  Al150  1  0.87396615  0.74931243  0.13999091  1
  Al  Al151  1  0.86758334  0.74804928  0.63318876  1
  Al  Al152  1  0.36111880  0.24856682  0.36324530  1
  Al  Al153  1  0.36749384  0.23932471  0.86719233  1
  Al  Al154  1  0.36114294  0.74746815  0.37196379  1
  Al  Al155  1  0.36902779  0.75255153  0.86239998  1
  Al  Al156  1  0.86696397  0.25157332  0.36275726  1
  Al  Al157  1  0.86343437  0.25159463  0.87293917  1
  Al  Al158  1  0.86783648  0.74980993  0.36557199  1
  Al  Al159  1  0.86702384  0.74517260  0.86373402  1
  Al  Al160  1  0.13185530  0.13095324  0.24621476  1
  Al  Al161  1  0.13692478  0.12790174  0.75063645  1
  Al  Al162  1  0.13459409  0.62918190  0.25423379  1
  Al  Al163  1  0.12539093  0.64200501  0.74266192  1
  Al  Al164  1  0.63532582  0.13716897  0.24447097  1
  Al  Al165  1  0.63018600  0.13518739  0.75071625  1
  Al  Al166  1  0.63516881  0.63550551  0.24684040  1
  Al  Al167  1  0.63345939  0.63483222  0.74889705  1
  Al  Al168  1  0.36455914  0.13270338  0.25124014  1
  Al  Al169  1  0.36917253  0.13288216  0.74936885  1
  Al  Al170  1  0.36305746  0.63696211  0.25042298  1
  Al  Al171  1  0.36772833  0.63877190  0.74549025  1
  Al  Al172  1  0.86609286  0.13614646  0.24679970  1
  Al  Al173  1  0.86469550  0.13782228  0.75399783  1
  Al  Al174  1  0.86775693  0.63483861  0.24957035  1
  Al  Al175  1  0.86852768  0.63269394  0.74573315  1
  Al  Al176  1  0.12696486  0.36707823  0.25012457  1
  Al  Al177  1  0.12862927  0.36244402  0.74981849  1
  Al  Al178  1  0.12721066  0.86178782  0.25324054  1
  Al  Al179  1  0.13781798  0.86836666  0.74542760  1
  Al  Al180  1  0.64057546  0.36580347  0.24710270  1
  Al  Al181  1  0.63722707  0.36362262  0.75117446  1
  Al  Al182  1  0.63609768  0.86441948  0.24687571  1
  Al  Al183  1  0.63249397  0.86628792  0.75273401  1
  Al  Al184  1  0.36241647  0.36631059  0.24952570  1
  Al  Al185  1  0.36500449  0.35887693  0.75137973  1
  Al  Al186  1  0.36179208  0.86446272  0.25105342  1
  Al  Al187  1  0.36291499  0.86508036  0.74724892  1
  Al  Al188  1  0.87260786  0.36305042  0.24582450  1
  Al  Al189  1  0.86497001  0.36679527  0.75094720  1
  Al  Al190  1  0.87463917  0.86464244  0.25421089  1
  Al  Al191  1  0.86651844  0.85975756  0.74585734  1
  Al  Al192  1  0.81275999  -0.00097025  0.82417261  1
  Al  Al193  1  0.17626864  0.82956809  0.00225494  1
  Al  Al194  1  0.50181557  0.16763484  0.33016876  1
  Al  Al195  1  0.00096824  0.17321473  0.83273934  1
  Al  Al196  1  0.67786884  0.50393613  0.82173566  1
  Al  Al197  1  0.17035447  0.32731165  0.00605837  1
  Al  Al198  1  0.17041535  0.49708211  0.83098671  1
  Al  Al199  1  0.49964050  0.82597473  0.32235313  1
  Al  Al200  1  0.83107689  -0.00204422  0.66858543  1
  Al  Al201  1  0.67362267  0.00058398  0.68446056  1
  Al  Al202  1  0.00284714  0.81820211  0.80990393  1
  Al  Al203  1  0.32608435  0.31338966  0.50065765  1
  Al  Al204  1  0.82954442  0.49970272  0.31792897  1
  Al  Al205  1  -0.00017155  0.17865864  0.31356524  1
  Al  Al206  1  0.31053679  -0.00287778  0.67453957  1
  Al  Al207  1  0.50164070  0.31644233  0.67489539  1
  Al  Al208  1  0.50083470  0.32835546  0.17061347  1
  Al  Al209  1  0.00130552  0.68587912  0.31495105  1
  Al  Al210  1  0.49973622  0.31427987  0.83180373  1
  Al  Al211  1  0.49553691  0.82349644  0.67586034  1
  Al  Al212  1  0.83511894  0.82979310  -0.00176979  1
  Al  Al213  1  0.31629449  0.00038669  0.82652208  1
  Al  Al214  1  0.49966845  0.16700987  0.17292559  1
  Al  Al215  1  0.18486948  0.17352450  0.49846413  1
  Al  Al216  1  0.16516644  0.50632715  0.66699763  1
  Al  Al217  1  0.81072068  -0.00083235  0.19284486  1
  Al  Al218  1  0.82905946  0.81843098  0.49999731  1
  Al  Al219  1  0.33151137  0.49823612  0.66938269  1
  Al  Al220  1  0.00386163  0.17185305  0.66747937  1
  Al  Al221  1  0.17815152  -0.00348759  0.31384744  1
  Al  Al222  1  0.69011430  -0.00028421  0.30897406  1
  Al  Al223  1  0.32419881  0.50026044  0.32061243  1
  Al  Al224  1  0.16754834  0.67195132  0.00677537  1
  Al  Al225  1  0.18091344  0.17168382  0.00128195  1
  Al  Al226  1  0.67597126  0.81579932  0.49753862  1
  Al  Al227  1  0.67048869  0.82805706  -0.00028599  1
  Al  Al228  1  0.32890917  0.31142566  -0.00060323  1
  Al  Al229  1  0.50204361  0.32513038  0.32770493  1
  Al  Al230  1  0.31518240  0.00298777  0.17976403  1
  Al  Al231  1  0.17096784  0.32781202  0.49800842  1
  Al  Al232  1  0.82610795  0.66810384  0.00481257  1
  Al  Al233  1  0.67361565  0.50132362  0.32120163  1
  Al  Al234  1  0.32702609  0.50052670  0.82541172  1
  Al  Al235  1  0.81617216  0.16652554  0.49939461  1
  Al  Al236  1  0.49969720  0.67473434  0.31947770  1
  Al  Al237  1  0.81685269  0.32337948  0.49960583  1
  Al  Al238  1  0.33032667  0.67534530  -0.00304298  1
  Au  Au239  1  0.67664853  0.50019186  0.33351140  1
  Au  Au240  1  0.00705367  0.16453769  0.65352699  1
  Au  Au241  1  -0.00207218  0.67127164  0.82055935  1
  Au  Au242  1  0.66924961  0.50141682  0.83053749  1
  Au  Au243  1  0.49994972  0.33035920  0.82532698  1
  Au  Au244  1  0.33559665  0.32710468  -0.00230268  1
  Au  Au245  1  0.66111124  0.67191396  0.00044132  1
  Au  Au246  1  0.50229991  0.17020929  0.34275918  1
  Au  Au247  1  0.32260660  0.32585709  0.49922971  1
  Au  Au248  1  0.49914558  0.82259376  0.17360781  1
  Au  Au249  1  0.32342607  0.83416594  0.49916113  1
  Au  Au250  1  0.34584297  0.67028957  -0.00346624  1
  Au  Au251  1  0.00148054  0.82851804  0.17636516  1
  Au  Au252  1  0.15187650  0.67774165  0.00873415  1
  Au  Au253  1  0.66860767  0.50127530  0.66454700  1
  Au  Au254  1  0.32577611  -0.00097811  0.33590107  1
  Au  Au255  1  0.32704111  0.50370623  0.16655506  1
  Au  Au256  1  -0.00189884  0.33696672  0.66286706  1
  Au  Au257  1  0.83846221  0.66979245  0.00623286  1
  Au  Au258  1  0.49992622  0.16751609  0.66575789  1
  Au  Au259  1  0.50112778  0.34458321  0.17744953  1
  Au  Au260  1  0.66702454  0.16333557  -0.00501531  1
  Au  Au261  1  0.66675429  0.32616436  0.49878554  1
  Au  Au262  1  0.15663159  0.49878536  0.17829545  1
  Au  Au263  1  0.66908349  0.84025244  -0.00307076  1
  Au  Au264  1  0.32357844  0.00015753  0.17051557  1
  Au  Au265  1  0.83772725  0.50682938  0.66176938  1
  Au  Au266  1  0.68018318  0.50211273  0.16732652  1
  Au  Au267  1  -0.00705980  0.33663065  0.83381425  1
  Au  Au268  1  0.34727704  0.49584979  0.67502779  1
  Au  Au269  1  0.83265600  0.16870230  0.49555998  1
  Au  Au270  1  0.00228063  0.15863772  0.83915852  1
  Au  Au271  1  0.15434509  0.32040261  0.00711815  1
  Au  Au272  1  0.84618676  -0.00452576  0.67691527  1
  Au  Au273  1  0.15747588  0.50906191  0.65305630  1
  Au  Au274  1  0.17644563  0.49701422  0.84688281  1
  Au  Au275  1  0.32274585  0.66712588  0.49924696  1
  Au  Au276  1  0.83521094  0.17246822  0.00415350  1
  Au  Au277  1  0.49938188  0.15971373  0.16270467  1
  Au  Au278  1  -0.00008503  0.32798389  0.32606907  1
  Au  Au279  1  0.32407414  0.49769871  0.33309416  1
  Au  Au280  1  0.67738115  0.33333437  0.00175843  1
  Au  Au281  1  0.66887415  0.00043611  0.67275499  1
  Au  Au282  1  0.49803761  0.83224778  0.66737206  1
  Au  Au283  1  0.49939685  0.82764487  0.83284925  1
  Au  Au284  1  0.50304696  0.66734898  0.67445273  1
  Au  Au285  1  0.84097307  0.84689859  -0.00076567  1
  Au  Au286  1  0.83277758  0.49443360  0.83477440  1
  Au  Au287  1  0.32526259  0.84383928  -0.00261999  1
