# generated using pymatgen
data_Ca24Ti8Al207Au49
_symmetry_space_group_name_H-M   'P 1'
_cell_length_a   17.31896831
_cell_length_b   17.31788430
_cell_length_c   17.31999890
_cell_angle_alpha   89.99574749
_cell_angle_beta   89.99822703
_cell_angle_gamma   90.00180577
_symmetry_Int_Tables_number   1
_chemical_formula_structural   Ca24Ti8Al207Au49
_chemical_formula_sum   'Ca24 Ti8 Al207 Au49'
_cell_volume   5194.75069499
_cell_formula_units_Z   1
loop_
 _symmetry_equiv_pos_site_id
 _symmetry_equiv_pos_as_xyz
  1  'x, y, z'
loop_
 _atom_site_type_symbol
 _atom_site_label
 _atom_site_symmetry_multiplicity
 _atom_site_fract_x
 _atom_site_fract_y
 _atom_site_fract_z
 _atom_site_occupancy
  Ca  Ca0  1  0.26199185  0.00227376  0.00014561  1
  Ca  Ca1  1  0.25215246  0.00780806  0.50005478  1
  Ca  Ca2  1  0.25720792  0.49820855  -0.00025577  1
  Ca  Ca3  1  0.25241046  0.49460283  0.50253102  1
  Ca  Ca4  1  0.74254618  0.00077769  -0.00058198  1
  Ca  Ca5  1  0.75066281  0.00113806  0.50253724  1
  Ca  Ca6  1  0.74103647  0.49947975  0.00114902  1
  Ca  Ca7  1  0.74877961  0.50154542  0.49983094  1
  Ca  Ca8  1  0.00066763  0.24705933  -0.00173222  1
  Ca  Ca9  1  0.00046856  0.24854723  0.50177635  1
  Ca  Ca10  1  -0.00428183  0.75116085  -0.00245289  1
  Ca  Ca11  1  -0.00530380  0.74420368  0.49871106  1
  Ca  Ca12  1  0.50003960  0.24819229  -0.00028778  1
  Ca  Ca13  1  0.49825964  0.24868582  0.49883228  1
  Ca  Ca14  1  0.50442403  0.75190245  -0.00429002  1
  Ca  Ca15  1  0.50315863  0.74508261  0.50265233  1
  Ca  Ca16  1  -0.00199404  -0.00201904  0.25268213  1
  Ca  Ca17  1  0.00061158  0.00084867  0.74625786  1
  Ca  Ca18  1  -0.00074915  0.49910748  0.25487345  1
  Ca  Ca19  1  -0.00252777  0.49733484  0.74526166  1
  Ca  Ca20  1  0.49905291  0.00424090  0.24441941  1
  Ca  Ca21  1  0.49964538  0.00365191  0.75866616  1
  Ca  Ca22  1  0.50130442  0.49817476  0.24668594  1
  Ca  Ca23  1  0.50222840  0.49755939  0.75087310  1
  Ti  Ti24  1  0.25300959  0.24916996  0.24977887  1
  Ti  Ti25  1  0.25189646  0.25051292  0.75161010  1
  Ti  Ti26  1  0.24963555  0.74843147  0.24923025  1
  Ti  Ti27  1  0.25255616  0.74959447  0.75073536  1
  Ti  Ti28  1  0.74641672  0.25016232  0.25017765  1
  Ti  Ti29  1  0.74861592  0.24897610  0.75075716  1
  Ti  Ti30  1  0.74898017  0.74839365  0.24797987  1
  Ti  Ti31  1  0.74817389  0.75027481  0.75192747  1
  Al  Al32  1  0.08875863  0.08512714  0.08054227  1
  Al  Al33  1  0.08234533  0.09259957  0.57157987  1
  Al  Al34  1  0.08106188  0.58249576  0.08141507  1
  Al  Al35  1  0.07732634  0.57264065  0.57725030  1
  Al  Al36  1  0.58147734  0.09576683  0.08124332  1
  Al  Al37  1  0.58792417  0.08993232  0.57878134  1
  Al  Al38  1  0.58564366  0.57964908  0.09068935  1
  Al  Al39  1  0.58488249  0.58371752  0.58142995  1
  Al  Al40  1  0.41790043  0.39848092  0.08593194  1
  Al  Al41  1  0.41867938  0.40594340  0.58376334  1
  Al  Al42  1  0.41959273  0.91629313  0.07735989  1
  Al  Al43  1  0.42202955  0.92677063  0.59478541  1
  Al  Al44  1  0.91211825  0.42669540  0.07742087  1
  Al  Al45  1  0.91292276  0.42352976  0.58758224  1
  Al  Al46  1  0.91118714  0.91535981  0.07160545  1
  Al  Al47  1  0.91303211  0.90859120  0.58733031  1
  Al  Al48  1  0.41927840  0.09229887  0.42291274  1
  Al  Al49  1  0.41626236  0.08923505  0.91475853  1
  Al  Al50  1  0.42317063  0.57821815  0.41150782  1
  Al  Al51  1  0.42639763  0.58620020  0.91276348  1
  Al  Al52  1  0.91952302  0.08711906  0.41164018  1
  Al  Al53  1  0.90463735  0.07446870  0.91176141  1
  Al  Al54  1  0.90961175  0.59113925  0.41331483  1
  Al  Al55  1  0.90443673  0.57995317  0.92529222  1
  Al  Al56  1  0.09209812  0.41058169  0.42475827  1
  Al  Al57  1  0.09582559  0.40885352  0.91764033  1
  Al  Al58  1  0.07325975  0.92772906  0.42362112  1
  Al  Al59  1  0.08941477  0.91422190  0.92203908  1
  Al  Al60  1  0.58366845  0.41516319  0.41503066  1
  Al  Al61  1  0.58448399  0.41997561  0.91488490  1
  Al  Al62  1  0.59118829  0.92953470  0.40834879  1
  Al  Al63  1  0.58056953  0.91429968  0.91148631  1
  Al  Al64  1  0.08272281  0.10035574  0.41213607  1
  Al  Al65  1  0.08657867  0.08175764  0.92267342  1
  Al  Al66  1  0.07232919  0.58658242  0.40977127  1
  Al  Al67  1  0.08692930  0.57393114  0.92406485  1
  Al  Al68  1  0.59457001  0.08960512  0.41436551  1
  Al  Al69  1  0.58446369  0.08920777  0.91650540  1
  Al  Al70  1  0.58481195  0.58544848  0.41458675  1
  Al  Al71  1  0.58646810  0.58423697  0.90721340  1
  Al  Al72  1  0.41490512  0.41330705  0.41999335  1
  Al  Al73  1  0.41360709  0.40706610  0.92495465  1
  Al  Al74  1  0.42933990  0.92927765  0.42213251  1
  Al  Al75  1  0.41496754  0.91371453  0.90976376  1
  Al  Al76  1  0.91915457  0.42671213  0.42053066  1
  Al  Al77  1  0.91379226  0.41797807  0.91627837  1
  Al  Al78  1  0.91116338  0.92284530  0.42466607  1
  Al  Al79  1  0.89738205  0.91491548  0.91340630  1
  Al  Al80  1  0.09492379  0.41540174  0.07116575  1
  Al  Al81  1  0.09208231  0.41003440  0.58150672  1
  Al  Al82  1  0.09346253  0.91349264  0.07593900  1
  Al  Al83  1  0.06916154  0.91520987  0.58956127  1
  Al  Al84  1  0.58010566  0.41361319  0.09298896  1
  Al  Al85  1  0.58012654  0.40969494  0.58911635  1
  Al  Al86  1  0.58109948  0.91714747  0.07944502  1
  Al  Al87  1  0.57898973  0.92247030  0.58879910  1
  Al  Al88  1  0.41708845  0.09794488  0.08175924  1
  Al  Al89  1  0.40983048  0.08785132  0.58401801  1
  Al  Al90  1  0.42735529  0.58506300  0.08579990  1
  Al  Al91  1  0.42546989  0.57851144  0.58343460  1
  Al  Al92  1  0.91781611  0.07855364  0.07598834  1
  Al  Al93  1  0.91880644  0.07992067  0.58035310  1
  Al  Al94  1  0.90754611  0.58875492  0.08400379  1
  Al  Al95  1  0.90313551  0.58385557  0.57693260  1
  Al  Al96  1  0.25212818  0.13974203  0.12782147  1
  Al  Al97  1  0.25216232  0.14099101  0.63332261  1
  Al  Al98  1  0.24928838  0.63485544  0.13305095  1
  Al  Al99  1  0.24960597  0.63719758  0.63150764  1
  Al  Al100  1  0.73965902  0.13591067  0.12913692  1
  Al  Al101  1  0.74802475  0.13296657  0.63308128  1
  Al  Al102  1  0.74882931  0.62806113  0.13653599  1
  Al  Al103  1  0.75123094  0.63325512  0.63708224  1
  Al  Al104  1  0.25432901  0.36108067  0.13103020  1
  Al  Al105  1  0.24910412  0.36228750  0.63428368  1
  Al  Al106  1  0.24827084  0.86253890  0.13328505  1
  Al  Al107  1  0.25533923  0.86534554  0.63860300  1
  Al  Al108  1  0.74421694  0.36972542  0.13585584  1
  Al  Al109  1  0.75088500  0.36573559  0.63662018  1
  Al  Al110  1  0.74824405  0.86188262  0.12668151  1
  Al  Al111  1  0.75043601  0.87308686  0.63863910  1
  Al  Al112  1  0.25266693  0.13920101  0.36904863  1
  Al  Al113  1  0.25405998  0.13774455  0.87405321  1
  Al  Al114  1  0.24648338  0.63439651  0.36651047  1
  Al  Al115  1  0.25061728  0.63659053  0.86780757  1
  Al  Al116  1  0.74409906  0.13654756  0.36893116  1
  Al  Al117  1  0.74707068  0.13670951  0.86981347  1
  Al  Al118  1  0.75026986  0.63239089  0.36365907  1
  Al  Al119  1  0.74610634  0.63250293  0.86630633  1
  Al  Al120  1  0.24939680  0.35917880  0.36599707  1
  Al  Al121  1  0.25508494  0.36345730  0.86705456  1
  Al  Al122  1  0.25018209  0.86447728  0.36461333  1
  Al  Al123  1  0.25400752  0.86407836  0.86485174  1
  Al  Al124  1  0.74405667  0.36330656  0.36271788  1
  Al  Al125  1  0.74327792  0.36589893  0.86621182  1
  Al  Al126  1  0.74854919  0.86281486  0.36440805  1
  Al  Al127  1  0.74973021  0.86544381  0.86986629  1
  Al  Al128  1  0.13789470  0.25225271  0.12808964  1
  Al  Al129  1  0.13749503  0.25199631  0.63032107  1
  Al  Al130  1  0.13300550  0.74840655  0.13546309  1
  Al  Al131  1  0.13462343  0.75049608  0.63631265  1
  Al  Al132  1  0.63045251  0.25299733  0.13394595  1
  Al  Al133  1  0.63345176  0.24878516  0.63782699  1
  Al  Al134  1  0.63663206  0.74492434  0.12992251  1
  Al  Al135  1  0.63738612  0.74821605  0.64010099  1
  Al  Al136  1  0.13576250  0.24817262  0.36953991  1
  Al  Al137  1  0.13905703  0.25217636  0.87357886  1
  Al  Al138  1  0.13183975  0.74665072  0.36558477  1
  Al  Al139  1  0.13491334  0.75770735  0.86653476  1
  Al  Al140  1  0.62713372  0.24820402  0.36232760  1
  Al  Al141  1  0.63311550  0.24749250  0.87116822  1
  Al  Al142  1  0.63759210  0.74530252  0.35958789  1
  Al  Al143  1  0.63490798  0.75130481  0.86954815  1
  Al  Al144  1  0.36841171  0.24893698  0.13074928  1
  Al  Al145  1  0.36694781  0.24911377  0.63408677  1
  Al  Al146  1  0.36543091  0.74682007  0.13500423  1
  Al  Al147  1  0.36694028  0.74715623  0.63687997  1
  Al  Al148  1  0.85891422  0.24462261  0.13326627  1
  Al  Al149  1  0.86213836  0.24758617  0.63434614  1
  Al  Al150  1  0.86444283  0.74936762  0.13514117  1
  Al  Al151  1  0.86204574  0.75208483  0.63924137  1
  Al  Al152  1  0.37216017  0.24912709  0.36443889  1
  Al  Al153  1  0.36826641  0.24773782  0.86916954  1
  Al  Al154  1  0.36166189  0.74357666  0.36697953  1
  Al  Al155  1  0.37172075  0.75110613  0.86423306  1
  Al  Al156  1  0.86309933  0.24482894  0.36736804  1
  Al  Al157  1  0.86280498  0.25151731  0.86369298  1
  Al  Al158  1  0.86393070  0.74265324  0.36569688  1
  Al  Al159  1  0.86320139  0.75237711  0.86379151  1
  Al  Al160  1  0.13769832  0.14015395  0.24949054  1
  Al  Al161  1  0.13944615  0.14002919  0.75277894  1
  Al  Al162  1  0.13004785  0.63501350  0.25157581  1
  Al  Al163  1  0.13526352  0.63799477  0.75205637  1
  Al  Al164  1  0.63176492  0.13501215  0.24828685  1
  Al  Al165  1  0.63153925  0.13648123  0.75396942  1
  Al  Al166  1  0.63683909  0.62719672  0.24651868  1
  Al  Al167  1  0.63465633  0.63134059  0.75718580  1
  Al  Al168  1  0.37244562  0.13897286  0.24656670  1
  Al  Al169  1  0.36741624  0.13739849  0.75642632  1
  Al  Al170  1  0.36365153  0.63341242  0.24792114  1
  Al  Al171  1  0.36640145  0.63543032  0.75488831  1
  Al  Al172  1  0.85998682  0.13528491  0.25224369  1
  Al  Al173  1  0.85853414  0.12787356  0.75216418  1
  Al  Al174  1  0.86845794  0.63532328  0.24877088  1
  Al  Al175  1  0.86280863  0.63257938  0.74804423  1
  Al  Al176  1  0.13695022  0.36093700  0.25320079  1
  Al  Al177  1  0.13222735  0.35915480  0.75244020  1
  Al  Al178  1  0.13489146  0.86637888  0.24980271  1
  Al  Al179  1  0.13553181  0.86551368  0.74790659  1
  Al  Al180  1  0.62778281  0.36494850  0.24890333  1
  Al  Al181  1  0.63280071  0.36358984  0.74992325  1
  Al  Al182  1  0.63968894  0.87016320  0.24628826  1
  Al  Al183  1  0.63535713  0.86543134  0.75420645  1
  Al  Al184  1  0.36988794  0.36001854  0.24758433  1
  Al  Al185  1  0.36786382  0.36153799  0.74826575  1
  Al  Al186  1  0.36306023  0.86493744  0.24784747  1
  Al  Al187  1  0.36778599  0.86682969  0.75662181  1
  Al  Al188  1  0.86433051  0.36209956  0.24868499  1
  Al  Al189  1  0.86693092  0.36407665  0.74900137  1
  Al  Al190  1  0.86121948  0.86218123  0.25283937  1
  Al  Al191  1  0.86135623  0.86996129  0.75094601  1
  Al  Al192  1  0.81928108  0.31998604  0.00245291  1
  Al  Al193  1  0.68213956  0.49925327  0.68084293  1
  Al  Al194  1  -0.00205824  0.17330322  0.82958082  1
  Al  Al195  1  0.18942605  0.00041106  0.82784201  1
  Al  Al196  1  0.50067670  0.67320066  0.30974393  1
  Al  Al197  1  0.32107820  0.49662424  0.32481553  1
  Al  Al198  1  0.66812077  0.31366777  0.50068658  1
  Al  Al199  1  -0.00331811  0.81692046  0.32907315  1
  Al  Al200  1  -0.00118011  0.67221579  0.83004150  1
  Al  Al201  1  0.31636374  0.31257853  0.49959410  1
  Al  Al202  1  0.17064977  0.00386946  0.67003829  1
  Al  Al203  1  0.31834841  0.82061288  -0.00027270  1
  Al  Al204  1  0.50235955  0.67291347  0.68476938  1
  Al  Al205  1  0.81282543  0.49750812  0.81340477  1
  Al  Al206  1  0.81939393  0.49879770  0.31787330  1
  Al  Al207  1  -0.00117146  0.31516632  0.33106496  1
  Al  Al208  1  0.68138224  0.00154138  0.82300221  1
  Al  Al209  1  0.18130992  0.68822696  -0.00045356  1
  Al  Al210  1  0.32414801  0.00336672  0.68929851  1
  Al  Al211  1  0.50055546  0.82573601  0.68728186  1
  Al  Al212  1  0.17149935  0.82447171  0.50191703  1
  Al  Al213  1  0.50130590  0.31475770  0.81963358  1
  Al  Al214  1  0.82491466  0.81236614  0.50063927  1
  Al  Al215  1  0.81490644  0.00074143  0.32840160  1
  Al  Al216  1  0.50128524  0.81363950  0.17063244  1
  Al  Al217  1  0.00035797  0.18029972  0.67284231  1
  Al  Al218  1  0.81421293  0.68933020  0.00021577  1
  Al  Al219  1  0.68628949  0.67396101  0.50054187  1
  Al  Al220  1  0.50055881  0.82359729  0.32906222  1
  Al  Al221  1  -0.00196971  0.68156948  0.66979877  1
  Al  Al222  1  0.67403640  0.82292984  0.50044232  1
  Al  Al223  1  0.17108919  0.00583196  0.32380901  1
  Al  Al224  1  -0.00129013  0.83287861  0.81727611  1
  Al  Al225  1  0.32389417  0.49861265  0.82962602  1
  Al  Al226  1  0.82240269  0.32725116  0.49875578  1
  Al  Al227  1  0.33412361  0.49667199  0.17088200  1
  Al  Al228  1  0.32901375  0.49867221  0.67207185  1
  Al  Al229  1  0.00111862  0.32782444  0.17018302  1
  Al  Al230  1  0.17506597  0.49743312  0.17852599  1
  Al  Al231  1  0.17528275  0.50000621  0.67839639  1
  Al  Al232  1  0.49899758  0.18165538  0.68178115  1
  Al  Al233  1  0.32833693  0.00341999  0.32456935  1
  Al  Al234  1  -0.00220121  0.17156708  0.18358402  1
  Al  Al235  1  0.81566713  -0.00108627  0.17325271  1
  Al  Al236  1  -0.00053726  0.82431799  0.17004484  1
  Al  Al237  1  0.32637651  0.00223163  0.17005492  1
  Al  Al238  1  0.33241283  0.82581007  0.50158115  1
  Au  Au239  1  0.17165963  0.00742295  0.65420359  1
  Au  Au240  1  0.83714214  -0.00008211  0.67524397  1
  Au  Au241  1  0.16855352  0.49803073  0.82630261  1
  Au  Au242  1  0.82442294  0.33933603  0.50227314  1
  Au  Au243  1  -0.00257718  0.65769303  0.83929338  1
  Au  Au244  1  0.67017081  0.49915955  0.32831721  1
  Au  Au245  1  0.66767130  0.49911197  0.67236194  1
  Au  Au246  1  0.00212756  0.33758706  0.15589721  1
  Au  Au247  1  -0.00661737  0.82956614  0.33998391  1
  Au  Au248  1  0.50041585  0.32852566  0.82927333  1
  Au  Au249  1  0.49881310  0.17340128  0.66742138  1
  Au  Au250  1  0.00038986  0.82841893  0.15363111  1
  Au  Au251  1  0.82533963  0.16360377  0.49872716  1
  Au  Au252  1  0.34281534  0.83894897  0.50395293  1
  Au  Au253  1  0.17195301  0.50004482  0.34152480  1
  Au  Au254  1  0.17578896  0.17836532  0.00050973  1
  Au  Au255  1  0.00195577  0.33424704  0.83457895  1
  Au  Au256  1  0.18426717  -0.00112193  0.84380126  1
  Au  Au257  1  0.34611248  0.67320994  0.00053206  1
  Au  Au258  1  0.50604523  0.83667301  0.31971080  1
  Au  Au259  1  0.83183950  -0.00600028  0.17437486  1
  Au  Au260  1  -0.00049857  0.33039328  0.66183645  1
  Au  Au261  1  0.65598511  0.00456567  0.17219042  1
  Au  Au262  1  0.33221764  0.00591342  0.33623569  1
  Au  Au263  1  0.66341354  0.32979310  0.00374527  1
  Au  Au264  1  -0.00424143  0.66986376  0.65782120  1
  Au  Au265  1  -0.00144706  0.15668092  0.17548569  1
  Au  Au266  1  0.16738537  0.65840295  0.49822489  1
  Au  Au267  1  -0.00314764  0.15715721  0.82406897  1
  Au  Au268  1  0.33618662  0.49701040  0.82704252  1
  Au  Au269  1  0.50279700  0.16546968  0.32584050  1
  Au  Au270  1  0.66695539  0.00410172  0.67475004  1
  Au  Au271  1  -0.00146695  0.65845612  0.17689358  1
  Au  Au272  1  0.66860217  0.66277915  0.00105541  1
  Au  Au273  1  0.49795688  0.33433159  0.32442077  1
  Au  Au274  1  0.16693334  0.00186254  0.33499782  1
  Au  Au275  1  0.17747419  -0.00143229  0.15944360  1
  Au  Au276  1  0.00018149  0.32673054  0.34333406  1
  Au  Au277  1  0.16579824  0.68079507  -0.00035538  1
  Au  Au278  1  0.82278364  0.49928787  0.82736659  1
  Au  Au279  1  0.67453070  0.83407393  -0.00245101  1
  Au  Au280  1  -0.00200804  0.84495213  0.82919078  1
  Au  Au281  1  0.15542611  0.82954382  0.50339206  1
  Au  Au282  1  0.18132656  0.49732588  0.16254986  1
  Au  Au283  1  0.82209849  0.16313404  -0.00149636  1
  Au  Au284  1  0.82252635  0.49915117  0.16971780  1
  Au  Au285  1  0.82812527  0.32871656  0.00038290  1
  Au  Au286  1  0.33760277  0.65959328  0.49947712  1
  Au  Au287  1  0.66487474  0.83649580  0.50122184  1
