# generated using pymatgen
data_Ca24Ti8Al207Au49
_symmetry_space_group_name_H-M   'P 1'
_cell_length_a   17.32035839
_cell_length_b   17.32012385
_cell_length_c   17.31950602
_cell_angle_alpha   90.00014432
_cell_angle_beta   89.99695342
_cell_angle_gamma   89.99969204
_symmetry_Int_Tables_number   1
_chemical_formula_structural   Ca24Ti8Al207Au49
_chemical_formula_sum   'Ca24 Ti8 Al207 Au49'
_cell_volume   5195.69163610
_cell_formula_units_Z   1
loop_
 _symmetry_equiv_pos_site_id
 _symmetry_equiv_pos_as_xyz
  1  'x, y, z'
loop_
 _atom_site_type_symbol
 _atom_site_label
 _atom_site_symmetry_multiplicity
 _atom_site_fract_x
 _atom_site_fract_y
 _atom_site_fract_z
 _atom_site_occupancy
  Ca  Ca0  1  0.25216338  -0.00329645  0.00049599  1
  Ca  Ca1  1  0.25076425  -0.00579675  0.49994825  1
  Ca  Ca2  1  0.25224860  0.50352373  0.00254688  1
  Ca  Ca3  1  0.25163180  0.50236741  0.49453997  1
  Ca  Ca4  1  0.74603437  0.00067278  0.00207779  1
  Ca  Ca5  1  0.74963450  0.00076520  0.49780042  1
  Ca  Ca6  1  0.74948138  0.50125949  -0.00093273  1
  Ca  Ca7  1  0.75244656  0.49950919  0.50283165  1
  Ca  Ca8  1  -0.00190213  0.25121260  -0.00011546  1
  Ca  Ca9  1  0.00281728  0.24771815  0.50081396  1
  Ca  Ca10  1  -0.00222504  0.75123049  -0.00009778  1
  Ca  Ca11  1  -0.00241903  0.74962946  0.50091363  1
  Ca  Ca12  1  0.50164725  0.24735370  0.00041605  1
  Ca  Ca13  1  0.49718067  0.25221927  0.50201974  1
  Ca  Ca14  1  0.50253817  0.75283613  0.00400845  1
  Ca  Ca15  1  0.49995746  0.75307062  0.49768928  1
  Ca  Ca16  1  -0.00127899  0.00094624  0.24996129  1
  Ca  Ca17  1  -0.00006478  0.00066812  0.74780443  1
  Ca  Ca18  1  -0.00092977  0.49850659  0.24512881  1
  Ca  Ca19  1  -0.00340023  0.49629780  0.74762856  1
  Ca  Ca20  1  0.49898882  -0.00477068  0.24760219  1
  Ca  Ca21  1  0.49835379  -0.00233100  0.75296324  1
  Ca  Ca22  1  0.50137922  0.49958599  0.24918911  1
  Ca  Ca23  1  0.50454831  0.49909926  0.74818534  1
  Ti  Ti24  1  0.25031003  0.24810855  0.25024583  1
  Ti  Ti25  1  0.25053030  0.24847082  0.74934131  1
  Ti  Ti26  1  0.25184320  0.75206675  0.25049527  1
  Ti  Ti27  1  0.25058246  0.75171835  0.74987061  1
  Ti  Ti28  1  0.75033793  0.24910823  0.24955462  1
  Ti  Ti29  1  0.74859302  0.24969742  0.74994380  1
  Ti  Ti30  1  0.74863240  0.75176454  0.24831603  1
  Ti  Ti31  1  0.74891400  0.74986628  0.75229580  1
  Al  Al32  1  0.07457827  0.08110861  0.08934018  1
  Al  Al33  1  0.08562888  0.08721647  0.58196636  1
  Al  Al34  1  0.08671354  0.58053785  0.08356774  1
  Al  Al35  1  0.07619965  0.59219117  0.58599347  1
  Al  Al36  1  0.57752917  0.07758713  0.09186980  1
  Al  Al37  1  0.59014330  0.07954560  0.59055382  1
  Al  Al38  1  0.58175606  0.59182626  0.08337406  1
  Al  Al39  1  0.57952088  0.57933641  0.58716888  1
  Al  Al40  1  0.42045716  0.41796163  0.08621801  1
  Al  Al41  1  0.41945318  0.41565019  0.58331567  1
  Al  Al42  1  0.40541673  0.91322429  0.08672195  1
  Al  Al43  1  0.41277930  0.91405096  0.57164544  1
  Al  Al44  1  0.90857340  0.41332969  0.08386542  1
  Al  Al45  1  0.91612267  0.42494105  0.58257247  1
  Al  Al46  1  0.90796182  0.92362947  0.08627982  1
  Al  Al47  1  0.90784722  0.91042678  0.58059185  1
  Al  Al48  1  0.41862237  0.07907977  0.41385851  1
  Al  Al49  1  0.42013357  0.08086331  0.90957968  1
  Al  Al50  1  0.40991252  0.58268824  0.40842908  1
  Al  Al51  1  0.42737257  0.59569129  0.91740220  1
  Al  Al52  1  0.91740773  0.07986365  0.41783046  1
  Al  Al53  1  0.92451525  0.08696338  0.91284792  1
  Al  Al54  1  0.91606742  0.58276538  0.42134396  1
  Al  Al55  1  0.91376401  0.57824248  0.92084660  1
  Al  Al56  1  0.09242389  0.42125383  0.41171584  1
  Al  Al57  1  0.07073570  0.41176670  0.92262035  1
  Al  Al58  1  0.08845801  0.91760348  0.42264365  1
  Al  Al59  1  0.10259612  0.91793607  0.91531755  1
  Al  Al60  1  0.57754519  0.42127541  0.42674067  1
  Al  Al61  1  0.58948087  0.42370967  0.90856475  1
  Al  Al62  1  0.57871353  0.91014088  0.41576896  1
  Al  Al63  1  0.58677801  0.91362992  0.92119839  1
  Al  Al64  1  0.08924841  0.08597296  0.42060141  1
  Al  Al65  1  0.08480922  0.07869364  0.90546601  1
  Al  Al66  1  0.08940469  0.58086764  0.41291068  1
  Al  Al67  1  0.07828913  0.58363798  0.92401174  1
  Al  Al68  1  0.58067309  0.08086406  0.41683529  1
  Al  Al69  1  0.57599466  0.08133096  0.91108278  1
  Al  Al70  1  0.57434826  0.58230082  0.41773420  1
  Al  Al71  1  0.58822579  0.58807674  0.90685107  1
  Al  Al72  1  0.40946970  0.42264273  0.41591196  1
  Al  Al73  1  0.42723017  0.41655105  0.92117136  1
  Al  Al74  1  0.41564188  0.90412270  0.41037126  1
  Al  Al75  1  0.40915978  0.91218081  0.92213100  1
  Al  Al76  1  0.91758724  0.42212145  0.41930992  1
  Al  Al77  1  0.90976713  0.40804030  0.92013075  1
  Al  Al78  1  0.90825615  0.91505557  0.42018813  1
  Al  Al79  1  0.91603066  0.92247180  0.92587639  1
  Al  Al80  1  0.08000961  0.41941027  0.08361969  1
  Al  Al81  1  0.08114002  0.41866506  0.57675402  1
  Al  Al82  1  0.09178489  0.91308284  0.07680482  1
  Al  Al83  1  0.08954602  0.91324407  0.58101211  1
  Al  Al84  1  0.58112398  0.41650494  0.08453428  1
  Al  Al85  1  0.57931686  0.41173705  0.59209558  1
  Al  Al86  1  0.58780808  0.91358563  0.08374193  1
  Al  Al87  1  0.58963504  0.92138530  0.58092390  1
  Al  Al88  1  0.41758861  0.07608760  0.09210982  1
  Al  Al89  1  0.42417877  0.07896163  0.57989796  1
  Al  Al90  1  0.41949493  0.59070741  0.08941950  1
  Al  Al91  1  0.41976977  0.58158945  0.58299788  1
  Al  Al92  1  0.91319295  0.08473795  0.09652921  1
  Al  Al93  1  0.92073287  0.08209796  0.58339179  1
  Al  Al94  1  0.90767377  0.57556928  0.08453202  1
  Al  Al95  1  0.91385527  0.58885949  0.58962895  1
  Al  Al96  1  0.25132442  0.12756057  0.13552737  1
  Al  Al97  1  0.24813415  0.13709541  0.63772401  1
  Al  Al98  1  0.25378687  0.63785362  0.13414834  1
  Al  Al99  1  0.24951467  0.63702665  0.63341889  1
  Al  Al100  1  0.75331524  0.13280903  0.13379773  1
  Al  Al101  1  0.74858842  0.13225734  0.63710896  1
  Al  Al102  1  0.74479319  0.63222660  0.13421027  1
  Al  Al103  1  0.74923918  0.63413788  0.63841833  1
  Al  Al104  1  0.25267829  0.36372267  0.13705364  1
  Al  Al105  1  0.24677206  0.36456170  0.63534844  1
  Al  Al106  1  0.25489000  0.86903529  0.13623816  1
  Al  Al107  1  0.24822228  0.86339144  0.63227950  1
  Al  Al108  1  0.75248073  0.36854555  0.13253423  1
  Al  Al109  1  0.74622522  0.36493143  0.63018890  1
  Al  Al110  1  0.74697341  0.86395285  0.13589539  1
  Al  Al111  1  0.75107046  0.86731511  0.63689496  1
  Al  Al112  1  0.25024268  0.13473648  0.36382180  1
  Al  Al113  1  0.24809414  0.13339491  0.86627250  1
  Al  Al114  1  0.25184727  0.63756494  0.36725899  1
  Al  Al115  1  0.24928371  0.63907815  0.86671311  1
  Al  Al116  1  0.75075983  0.12920945  0.36215675  1
  Al  Al117  1  0.74569472  0.13276520  0.86732191  1
  Al  Al118  1  0.75051195  0.63778298  0.35922659  1
  Al  Al119  1  0.74706365  0.62830456  0.86318272  1
  Al  Al120  1  0.24878085  0.36772012  0.36430238  1
  Al  Al121  1  0.25323803  0.36132952  0.86317662  1
  Al  Al122  1  0.25516582  0.86355694  0.36775914  1
  Al  Al123  1  0.25063263  0.86400306  0.86995779  1
  Al  Al124  1  0.75276156  0.36194413  0.37025259  1
  Al  Al125  1  0.74901194  0.36770104  0.86395536  1
  Al  Al126  1  0.74883781  0.87091072  0.36090709  1
  Al  Al127  1  0.74500312  0.86643415  0.86603032  1
  Al  Al128  1  0.13608476  0.24630486  0.13759302  1
  Al  Al129  1  0.13603473  0.24891078  0.62993682  1
  Al  Al130  1  0.13822363  0.75653533  0.13287423  1
  Al  Al131  1  0.13133009  0.75297393  0.63595026  1
  Al  Al132  1  0.63899672  0.24686912  0.13132371  1
  Al  Al133  1  0.63276692  0.25212298  0.63830807  1
  Al  Al134  1  0.63291884  0.75198031  0.12968527  1
  Al  Al135  1  0.63794417  0.75079762  0.64017568  1
  Al  Al136  1  0.13752582  0.24735496  0.37093098  1
  Al  Al137  1  0.13479556  0.24745512  0.86350944  1
  Al  Al138  1  0.13454839  0.75496932  0.36455759  1
  Al  Al139  1  0.13655641  0.75534719  0.87004039  1
  Al  Al140  1  0.63778945  0.25059095  0.36402816  1
  Al  Al141  1  0.63399538  0.24745397  0.86576709  1
  Al  Al142  1  0.63278503  0.75354431  0.36251115  1
  Al  Al143  1  0.63096344  0.74822821  0.86553706  1
  Al  Al144  1  0.36414358  0.24694865  0.13562662  1
  Al  Al145  1  0.36857894  0.25066289  0.63509660  1
  Al  Al146  1  0.36872108  0.75381456  0.13339772  1
  Al  Al147  1  0.36209361  0.75229595  0.62968218  1
  Al  Al148  1  0.86339039  0.25017755  0.13485736  1
  Al  Al149  1  0.86169454  0.25170235  0.63671945  1
  Al  Al150  1  0.86374652  0.75071599  0.13491475  1
  Al  Al151  1  0.86610486  0.75108585  0.63772422  1
  Al  Al152  1  0.36316801  0.24853809  0.36481027  1
  Al  Al153  1  0.36894885  0.24638553  0.86595278  1
  Al  Al154  1  0.36673694  0.75267867  0.36937988  1
  Al  Al155  1  0.36694704  0.75289773  0.87055060  1
  Al  Al156  1  0.86582728  0.24694417  0.36141532  1
  Al  Al157  1  0.85989342  0.24976486  0.86697444  1
  Al  Al158  1  0.86470846  0.75464889  0.36155950  1
  Al  Al159  1  0.86373618  0.75075923  0.86504986  1
  Al  Al160  1  0.12936749  0.13451265  0.25040732  1
  Al  Al161  1  0.13347169  0.13257936  0.75352860  1
  Al  Al162  1  0.13852840  0.63783323  0.25260262  1
  Al  Al163  1  0.13531314  0.63693424  0.74683428  1
  Al  Al164  1  0.63601721  0.13406910  0.24747504  1
  Al  Al165  1  0.63431652  0.13084601  0.75063374  1
  Al  Al166  1  0.63060673  0.63746566  0.24328506  1
  Al  Al167  1  0.63439732  0.63008611  0.75377271  1
  Al  Al168  1  0.36455951  0.12918147  0.24875366  1
  Al  Al169  1  0.36720111  0.13495256  0.75104125  1
  Al  Al170  1  0.36531976  0.63900875  0.25078570  1
  Al  Al171  1  0.36466609  0.64193774  0.75175619  1
  Al  Al172  1  0.86762068  0.13204039  0.24789891  1
  Al  Al173  1  0.86338886  0.13439563  0.75151672  1
  Al  Al174  1  0.86291772  0.63551790  0.24489294  1
  Al  Al175  1  0.86379022  0.63528155  0.74965053  1
  Al  Al176  1  0.13789564  0.36309570  0.25220857  1
  Al  Al177  1  0.13515365  0.36257013  0.74872977  1
  Al  Al178  1  0.13623462  0.86766655  0.24819175  1
  Al  Al179  1  0.13738492  0.86660821  0.75204363  1
  Al  Al180  1  0.63802365  0.36423024  0.24472660  1
  Al  Al181  1  0.63628295  0.36850668  0.75075866  1
  Al  Al182  1  0.62632831  0.86204855  0.24775109  1
  Al  Al183  1  0.63465236  0.86848871  0.75204237  1
  Al  Al184  1  0.36438276  0.36560100  0.25407834  1
  Al  Al185  1  0.36829575  0.36364377  0.74681718  1
  Al  Al186  1  0.37047765  0.86427132  0.24930720  1
  Al  Al187  1  0.36471109  0.86268369  0.75486670  1
  Al  Al188  1  0.86265651  0.36598751  0.24574277  1
  Al  Al189  1  0.86330089  0.36484728  0.75447957  1
  Al  Al190  1  0.86319040  0.87245611  0.24788132  1
  Al  Al191  1  0.86500075  0.86758479  0.74660765  1
  Al  Al192  1  0.17855326  0.32688124  0.00095817  1
  Al  Al193  1  0.33197089  0.50358870  0.82957428  1
  Al  Al194  1  0.67752702  0.67038422  0.49781110  1
  Al  Al195  1  0.50168809  0.31545515  0.81450671  1
  Al  Al196  1  0.68733386  0.82800211  0.49955662  1
  Al  Al197  1  0.50013525  0.17438484  0.30861396  1
  Al  Al198  1  0.50105638  0.31147544  0.17589754  1
  Al  Al199  1  0.17918650  0.68724893  0.50015850  1
  Al  Al200  1  0.82680034  0.17859196  0.50014926  1
  Al  Al201  1  0.32067634  0.50037573  0.67247659  1
  Al  Al202  1  0.49938603  0.83036329  0.67644505  1
  Al  Al203  1  0.81686028  0.49921687  0.68416416  1
  Al  Al204  1  0.82150141  0.00309462  0.82450220  1
  Al  Al205  1  0.00080392  0.83306392  0.82308363  1
  Al  Al206  1  0.33041237  -0.00174628  0.67227146  1
  Al  Al207  1  0.33223551  0.17414875  0.00125169  1
  Al  Al208  1  0.81507542  0.82741926  0.00096612  1
  Al  Al209  1  0.50112349  0.18140238  0.68345546  1
  Al  Al210  1  0.81760117  0.67446555  -0.00035120  1
  Al  Al211  1  0.67148566  0.49828836  0.32190885  1
  Al  Al212  1  0.68426207  0.32340494  -0.00189175  1
  Al  Al213  1  0.00005633  0.67349144  0.81491554  1
  Al  Al214  1  0.49945283  0.68665243  0.31598484  1
  Al  Al215  1  0.82652847  0.68694623  0.50009038  1
  Al  Al216  1  -0.00005591  0.31685794  0.16959698  1
  Al  Al217  1  -0.00079439  0.67625273  0.32274004  1
  Al  Al218  1  0.50027892  0.33164891  0.32800881  1
  Al  Al219  1  0.49989846  0.67448429  0.68461844  1
  Al  Al220  1  0.82722168  0.50075268  0.31757374  1
  Al  Al221  1  0.31247495  0.16730179  0.50196327  1
  Al  Al222  1  0.17674342  0.00062175  0.68233350  1
  Al  Al223  1  0.32575580  0.50132186  0.18564274  1
  Al  Al224  1  0.17441087  0.49986973  0.18586164  1
  Al  Al225  1  -0.00013148  0.17701813  0.68540942  1
  Al  Al226  1  0.16778826  0.49585391  0.82324746  1
  Al  Al227  1  0.67344016  0.17475142  0.50054557  1
  Al  Al228  1  0.00041654  0.32272068  0.32568969  1
  Al  Al229  1  -0.00211483  0.31034432  0.82451124  1
  Al  Al230  1  0.68422585  -0.00160534  0.18052410  1
  Al  Al231  1  0.17066180  0.16901132  0.00108549  1
  Al  Al232  1  0.31534976  -0.00107258  0.82500033  1
  Al  Al233  1  0.18020560  -0.00084232  0.31992112  1
  Al  Al234  1  0.31899688  0.32495289  0.50031297  1
  Al  Al235  1  -0.00131306  0.32868048  0.67227451  1
  Al  Al236  1  0.18093903  0.67840491  0.00132755  1
  Al  Al237  1  0.82546495  0.17838836  0.00028185  1
  Al  Al238  1  -0.00098595  0.82664885  0.17440545  1
  Au  Au239  1  0.82513149  0.49681939  0.83433148  1
  Au  Au240  1  0.82283470  0.00123414  0.66036575  1
  Au  Au241  1  -0.00360870  0.65947581  0.82383298  1
  Au  Au242  1  0.17582020  -0.00113299  0.33155284  1
  Au  Au243  1  0.34765185  0.50639856  0.82403085  1
  Au  Au244  1  0.32764016  0.33857128  0.00006025  1
  Au  Au245  1  0.33467152  0.50165408  0.17435765  1
  Au  Au246  1  0.16851523  0.32723498  0.49901404  1
  Au  Au247  1  0.33849371  0.68109470  0.00142443  1
  Au  Au248  1  0.83149094  0.00092254  0.32404225  1
  Au  Au249  1  0.66786038  0.67664126  -0.00303234  1
  Au  Au250  1  0.32978618  0.16798039  0.50171614  1
  Au  Au251  1  0.50051019  0.82701168  0.66046557  1
  Au  Au252  1  0.67220365  0.50267393  0.16256778  1
  Au  Au253  1  0.16454807  0.67907619  0.49985624  1
  Au  Au254  1  0.83021509  0.00083155  0.83316267  1
  Au  Au255  1  0.67715484  0.49647721  0.33791383  1
  Au  Au256  1  0.50442061  0.32710232  0.82687944  1
  Au  Au257  1  0.00039639  0.83126411  0.34202443  1
  Au  Au258  1  -0.00102219  0.82466501  0.65754190  1
  Au  Au259  1  0.49886317  0.83029399  0.16776070  1
  Au  Au260  1  0.50105705  0.17878434  0.32501589  1
  Au  Au261  1  0.84067530  0.17245569  0.00110573  1
  Au  Au262  1  0.00138194  0.16221931  0.32749096  1
  Au  Au263  1  -0.00115795  0.66546187  0.32877510  1
  Au  Au264  1  0.17239297  0.00069087  0.67033378  1
  Au  Au265  1  0.00224149  0.83895358  0.83819498  1
  Au  Au266  1  0.65780944  0.16119960  0.00182973  1
  Au  Au267  1  0.65871668  0.32313772  0.50227216  1
  Au  Au268  1  0.16835122  0.67845337  -0.00070117  1
  Au  Au269  1  0.16949712  0.50337547  0.65842455  1
  Au  Au270  1  0.33978926  0.67519566  0.50072013  1
  Au  Au271  1  0.49968913  0.82380482  0.84312498  1
  Au  Au272  1  -0.00102607  0.83620776  0.16420142  1
  Au  Au273  1  0.66197516  -0.00061829  0.82417486  1
  Au  Au274  1  0.15843336  0.17183747  0.00000116  1
  Au  Au275  1  0.50160919  0.16674188  0.67518464  1
  Au  Au276  1  0.66796599  0.49834694  0.67510692  1
  Au  Au277  1  -0.00287692  0.66001065  0.16773743  1
  Au  Au278  1  0.49868998  0.67014527  0.32130776  1
  Au  Au279  1  0.33488424  0.16221047  0.00365452  1
  Au  Au280  1  0.67492681  0.33738920  -0.00207136  1
  Au  Au281  1  -0.00022528  0.33841928  0.32185929  1
  Au  Au282  1  0.16294282  0.49317566  0.83910177  1
  Au  Au283  1  0.17606464  -0.00062747  0.16364793  1
  Au  Au284  1  0.66203998  -0.00458570  0.32722189  1
  Au  Au285  1  0.33463573  -0.00539712  0.32555550  1
  Au  Au286  1  0.66384590  0.67858331  0.50413202  1
  Au  Au287  1  0.83550184  0.32881705  0.50156351  1
