# generated using pymatgen
data_Ca24Ti8Al207Au49
_symmetry_space_group_name_H-M   'P 1'
_cell_length_a   17.31907693
_cell_length_b   17.31819817
_cell_length_c   17.31822988
_cell_angle_alpha   90.00289620
_cell_angle_beta   90.00148826
_cell_angle_gamma   90.00175219
_symmetry_Int_Tables_number   1
_chemical_formula_structural   Ca24Ti8Al207Au49
_chemical_formula_sum   'Ca24 Ti8 Al207 Au49'
_cell_volume   5194.34684263
_cell_formula_units_Z   1
loop_
 _symmetry_equiv_pos_site_id
 _symmetry_equiv_pos_as_xyz
  1  'x, y, z'
loop_
 _atom_site_type_symbol
 _atom_site_label
 _atom_site_symmetry_multiplicity
 _atom_site_fract_x
 _atom_site_fract_y
 _atom_site_fract_z
 _atom_site_occupancy
  Ca  Ca0  1  0.25224284  0.00051572  0.00301520  1
  Ca  Ca1  1  0.25325891  -0.00926558  0.49819002  1
  Ca  Ca2  1  0.25446776  0.49893032  0.00203691  1
  Ca  Ca3  1  0.25468850  0.50214101  0.50047492  1
  Ca  Ca4  1  0.74775162  -0.00010672  -0.00018257  1
  Ca  Ca5  1  0.75292706  0.00511451  0.49929653  1
  Ca  Ca6  1  0.74322763  0.49856725  -0.00291002  1
  Ca  Ca7  1  0.74859532  0.49664782  0.49942723  1
  Ca  Ca8  1  0.00578861  0.24532735  0.00195457  1
  Ca  Ca9  1  -0.00339197  0.24526345  0.49694209  1
  Ca  Ca10  1  -0.00063442  0.75643111  0.00194781  1
  Ca  Ca11  1  0.00130366  0.75674887  0.49745690  1
  Ca  Ca12  1  0.49304269  0.24444948  -0.00247443  1
  Ca  Ca13  1  0.50712879  0.25120176  0.49867830  1
  Ca  Ca14  1  0.49812066  0.75275162  0.00242321  1
  Ca  Ca15  1  0.50157887  0.75095103  0.49817324  1
  Ca  Ca16  1  0.00237748  0.00018281  0.24939777  1
  Ca  Ca17  1  0.00774178  0.00074500  0.74913026  1
  Ca  Ca18  1  -0.00541562  0.50142809  0.25120196  1
  Ca  Ca19  1  -0.00399952  0.50189974  0.75536298  1
  Ca  Ca20  1  0.49875396  0.00070880  0.24805909  1
  Ca  Ca21  1  0.49400092  -0.00092999  0.75693994  1
  Ca  Ca22  1  0.50520788  0.49967111  0.25316038  1
  Ca  Ca23  1  0.50238563  0.49896333  0.75394334  1
  Ti  Ti24  1  0.25211126  0.24968666  0.24846201  1
  Ti  Ti25  1  0.25032509  0.24672281  0.75410631  1
  Ti  Ti26  1  0.25057623  0.75083266  0.24901994  1
  Ti  Ti27  1  0.25240380  0.75322372  0.75174264  1
  Ti  Ti28  1  0.74864785  0.24959569  0.25227105  1
  Ti  Ti29  1  0.74925631  0.25051139  0.74837235  1
  Ti  Ti30  1  0.75159535  0.75090519  0.24934235  1
  Ti  Ti31  1  0.74704247  0.75000627  0.75213694  1
  Al  Al32  1  0.09713657  0.08291049  0.08794922  1
  Al  Al33  1  0.08617914  0.07154825  0.58621415  1
  Al  Al34  1  0.08438443  0.58980292  0.07528390  1
  Al  Al35  1  0.07924551  0.58662069  0.57733431  1
  Al  Al36  1  0.58477812  0.08635348  0.07932476  1
  Al  Al37  1  0.58281971  0.09409949  0.57634797  1
  Al  Al38  1  0.58067796  0.59204295  0.09003492  1
  Al  Al39  1  0.57930791  0.57854966  0.58295510  1
  Al  Al40  1  0.41646008  0.40467040  0.08429639  1
  Al  Al41  1  0.43201752  0.40937673  0.58562083  1
  Al  Al42  1  0.41943146  0.91848788  0.08903142  1
  Al  Al43  1  0.40822389  0.91021725  0.58081012  1
  Al  Al44  1  0.90969303  0.42540636  0.08808897  1
  Al  Al45  1  0.91087599  0.40800382  0.57952285  1
  Al  Al46  1  0.91823623  0.91726527  0.09548672  1
  Al  Al47  1  0.93154232  0.92244777  0.57369629  1
  Al  Al48  1  0.41013762  0.08751721  0.41747709  1
  Al  Al49  1  0.40862663  0.08122363  0.92074988  1
  Al  Al50  1  0.42323315  0.59209259  0.41000707  1
  Al  Al51  1  0.42010793  0.58634857  0.92215916  1
  Al  Al52  1  0.90877280  0.08448208  0.41298780  1
  Al  Al53  1  0.91826095  0.08047355  0.92594101  1
  Al  Al54  1  0.90721465  0.57425081  0.41101416  1
  Al  Al55  1  0.91493410  0.57628952  0.91772472  1
  Al  Al56  1  0.06605465  0.42255049  0.41888037  1
  Al  Al57  1  0.09146161  0.41577508  0.91790065  1
  Al  Al58  1  0.09868640  0.91223029  0.41378649  1
  Al  Al59  1  0.08317494  0.92208828  0.91859869  1
  Al  Al60  1  0.58994742  0.40938724  0.41459637  1
  Al  Al61  1  0.58342509  0.42087185  0.91013468  1
  Al  Al62  1  0.57422698  0.91826520  0.41484657  1
  Al  Al63  1  0.58234152  0.90777525  0.92011510  1
  Al  Al64  1  0.08656361  0.07234702  0.40964592  1
  Al  Al65  1  0.09234146  0.08718067  0.92258841  1
  Al  Al66  1  0.08027148  0.58520444  0.42026491  1
  Al  Al67  1  0.09187366  0.58118761  0.92204348  1
  Al  Al68  1  0.58758196  0.09387687  0.41940963  1
  Al  Al69  1  0.58105977  0.08011276  0.92399855  1
  Al  Al70  1  0.58163320  0.58107782  0.40830995  1
  Al  Al71  1  0.58755934  0.58330815  0.91491992  1
  Al  Al72  1  0.42875283  0.41416672  0.41039229  1
  Al  Al73  1  0.41895980  0.40834949  0.92114730  1
  Al  Al74  1  0.40936518  0.91104738  0.41617137  1
  Al  Al75  1  0.42081373  0.92037568  0.91341974  1
  Al  Al76  1  0.90479613  0.41336766  0.41000581  1
  Al  Al77  1  0.91667449  0.42138821  0.91286577  1
  Al  Al78  1  0.91980605  0.92366572  0.41171224  1
  Al  Al79  1  0.92240403  0.91964265  0.92198706  1
  Al  Al80  1  0.08706638  0.41328816  0.07299325  1
  Al  Al81  1  0.06619313  0.42018410  0.58262405  1
  Al  Al82  1  0.08450403  0.91822660  0.09731842  1
  Al  Al83  1  0.10118188  0.91179303  0.57915373  1
  Al  Al84  1  0.57604829  0.41426138  0.09146556  1
  Al  Al85  1  0.59107082  0.40797960  0.58119257  1
  Al  Al86  1  0.58275860  0.90516071  0.08366928  1
  Al  Al87  1  0.57009934  0.91815232  0.57883099  1
  Al  Al88  1  0.40754322  0.08125517  0.08432030  1
  Al  Al89  1  0.41076203  0.08807307  0.58085271  1
  Al  Al90  1  0.42150629  0.59486111  0.08859020  1
  Al  Al91  1  0.42424729  0.58825253  0.57557738  1
  Al  Al92  1  0.91202881  0.07867368  0.08823500  1
  Al  Al93  1  0.91572227  0.09049844  0.57250959  1
  Al  Al94  1  0.91134767  0.57954919  0.09043365  1
  Al  Al95  1  0.91769053  0.57672544  0.57590968  1
  Al  Al96  1  0.25095598  0.12978972  0.13686873  1
  Al  Al97  1  0.25086132  0.13268552  0.63621560  1
  Al  Al98  1  0.25112990  0.63712183  0.13268950  1
  Al  Al99  1  0.25658485  0.63963110  0.63266863  1
  Al  Al100  1  0.74834481  0.13406062  0.13791092  1
  Al  Al101  1  0.75054869  0.13663183  0.63257144  1
  Al  Al102  1  0.75241444  0.63757327  0.13883167  1
  Al  Al103  1  0.74665344  0.63441899  0.63696723  1
  Al  Al104  1  0.25265576  0.36533436  0.13074930  1
  Al  Al105  1  0.25427007  0.36276795  0.63457002  1
  Al  Al106  1  0.24831146  0.86921754  0.13435121  1
  Al  Al107  1  0.24889219  0.86606370  0.63283242  1
  Al  Al108  1  0.75357459  0.36664301  0.13911212  1
  Al  Al109  1  0.74905247  0.36407203  0.62586278  1
  Al  Al110  1  0.74944958  0.86272720  0.13039145  1
  Al  Al111  1  0.74840835  0.86039460  0.63889947  1
  Al  Al112  1  0.25442465  0.13502849  0.36394603  1
  Al  Al113  1  0.25184058  0.12653276  0.86630494  1
  Al  Al114  1  0.25314945  0.63330107  0.36444047  1
  Al  Al115  1  0.25334130  0.63937196  0.87134388  1
  Al  Al116  1  0.74805736  0.13602315  0.36537623  1
  Al  Al117  1  0.74737199  0.13551587  0.86480717  1
  Al  Al118  1  0.75204099  0.63597045  0.36081887  1
  Al  Al119  1  0.74620116  0.63724291  0.86531162  1
  Al  Al120  1  0.25619798  0.36612798  0.36233267  1
  Al  Al121  1  0.25223112  0.36217879  0.87199354  1
  Al  Al122  1  0.24736047  0.86573869  0.36194054  1
  Al  Al123  1  0.25297089  0.87275170  0.86667039  1
  Al  Al124  1  0.74798059  0.36045517  0.37089107  1
  Al  Al125  1  0.74316081  0.36557565  0.86489210  1
  Al  Al126  1  0.74758983  0.86305957  0.35848432  1
  Al  Al127  1  0.74543492  0.86221060  0.87060286  1
  Al  Al128  1  0.13811461  0.24885258  0.13691553  1
  Al  Al129  1  0.13704651  0.24617607  0.63646224  1
  Al  Al130  1  0.13589311  0.75238850  0.13642906  1
  Al  Al131  1  0.13283830  0.75434866  0.63632874  1
  Al  Al132  1  0.63393638  0.24994796  0.13765050  1
  Al  Al133  1  0.63341789  0.25585582  0.63287058  1
  Al  Al134  1  0.63208872  0.75133639  0.13785364  1
  Al  Al135  1  0.63217037  0.75030590  0.63780498  1
  Al  Al136  1  0.13677196  0.24407485  0.36315563  1
  Al  Al137  1  0.13550093  0.24886891  0.86727785  1
  Al  Al138  1  0.13071949  0.75430446  0.36324120  1
  Al  Al139  1  0.14110098  0.75163087  0.86818383  1
  Al  Al140  1  0.62843882  0.25512130  0.36462770  1
  Al  Al141  1  0.63409837  0.24666919  0.86511409  1
  Al  Al142  1  0.63087352  0.74382128  0.35900442  1
  Al  Al143  1  0.62753916  0.75250349  0.86656473  1
  Al  Al144  1  0.36317382  0.24824627  0.12897886  1
  Al  Al145  1  0.36103619  0.24734605  0.63501011  1
  Al  Al146  1  0.36445811  0.75272176  0.13120128  1
  Al  Al147  1  0.36399376  0.75648350  0.63122596  1
  Al  Al148  1  0.86290270  0.24610981  0.13897152  1
  Al  Al149  1  0.86253118  0.24920777  0.62735427  1
  Al  Al150  1  0.86902222  0.75903533  0.13477902  1
  Al  Al151  1  0.86830823  0.75089586  0.63568456  1
  Al  Al152  1  0.36865087  0.24857701  0.36131434  1
  Al  Al153  1  0.36126015  0.24543322  0.87216767  1
  Al  Al154  1  0.36164359  0.75328258  0.36518153  1
  Al  Al155  1  0.36874575  0.75392947  0.86951249  1
  Al  Al156  1  0.86173076  0.24694623  0.37025627  1
  Al  Al157  1  0.86583634  0.24917953  0.86366579  1
  Al  Al158  1  0.86938405  0.75260724  0.36017065  1
  Al  Al159  1  0.86413415  0.75417606  0.86741124  1
  Al  Al160  1  0.14035498  0.12846451  0.24960367  1
  Al  Al161  1  0.13661519  0.12863097  0.75328610  1
  Al  Al162  1  0.13446180  0.63578869  0.25299051  1
  Al  Al163  1  0.13824062  0.64007562  0.74867803  1
  Al  Al164  1  0.63105707  0.13431943  0.25485034  1
  Al  Al165  1  0.63577648  0.13880617  0.74724426  1
  Al  Al166  1  0.63082809  0.63543484  0.24724170  1
  Al  Al167  1  0.63256070  0.63219029  0.75692360  1
  Al  Al168  1  0.36705423  0.13170777  0.24511318  1
  Al  Al169  1  0.36377422  0.13072278  0.75406526  1
  Al  Al170  1  0.36841140  0.63900997  0.24779443  1
  Al  Al171  1  0.36389443  0.63609355  0.75623091  1
  Al  Al172  1  0.86402530  0.13428780  0.25162914  1
  Al  Al173  1  0.86643398  0.13900612  0.74864885  1
  Al  Al174  1  0.86641934  0.63369133  0.24837534  1
  Al  Al175  1  0.86321540  0.63737577  0.74950270  1
  Al  Al176  1  0.13895237  0.36584125  0.25108679  1
  Al  Al177  1  0.13902206  0.36176843  0.75374197  1
  Al  Al178  1  0.13427296  0.86762726  0.24946888  1
  Al  Al179  1  0.14110074  0.87243842  0.74888993  1
  Al  Al180  1  0.63268681  0.36517118  0.25071196  1
  Al  Al181  1  0.63509323  0.36538885  0.74798666  1
  Al  Al182  1  0.63041577  0.86552146  0.24603972  1
  Al  Al183  1  0.62584638  0.86219582  0.75307889  1
  Al  Al184  1  0.36921806  0.36305298  0.24677311  1
  Al  Al185  1  0.36240950  0.36253279  0.75252897  1
  Al  Al186  1  0.36594190  0.86723438  0.24340548  1
  Al  Al187  1  0.36825208  0.86568486  0.75133084  1
  Al  Al188  1  0.86199015  0.36634738  0.25473662  1
  Al  Al189  1  0.86101666  0.36293347  0.74876688  1
  Al  Al190  1  0.87103199  0.86699064  0.24683389  1
  Al  Al191  1  0.86406651  0.86219589  0.75034357  1
  Al  Al192  1  0.49881326  0.17664579  0.17436076  1
  Al  Al193  1  0.67293492  0.82049514  0.49685025  1
  Al  Al194  1  0.66822153  -0.00022943  0.67121881  1
  Al  Al195  1  -0.00141997  0.31710416  0.68112687  1
  Al  Al196  1  0.69221520  0.19554437  0.49893756  1
  Al  Al197  1  0.81853417  -0.00123889  0.31219160  1
  Al  Al198  1  0.18349566  0.16619030  0.49957719  1
  Al  Al199  1  0.82569747  0.67342165  0.49832298  1
  Al  Al200  1  0.67095820  -0.00161788  0.82955768  1
  Al  Al201  1  0.31673518  -0.00122288  0.68269649  1
  Al  Al202  1  -0.00055581  0.32340605  0.17317898  1
  Al  Al203  1  0.82946755  -0.00037980  0.66795266  1
  Al  Al204  1  0.18427916  0.50200669  0.82733138  1
  Al  Al205  1  0.82434739  0.32824216  -0.00001904  1
  Al  Al206  1  -0.00150831  0.31620960  0.32609062  1
  Al  Al207  1  0.67917937  0.49969990  0.67847871  1
  Al  Al208  1  0.33235636  0.31748700  0.49750588  1
  Al  Al209  1  -0.00210388  0.17535922  0.82473800  1
  Al  Al210  1  0.49823645  0.16952970  0.82976734  1
  Al  Al211  1  0.00213927  0.16966112  0.18037180  1
  Al  Al212  1  0.17555551  0.50177740  0.17422468  1
  Al  Al213  1  0.49799755  0.19445737  0.67477349  1
  Al  Al214  1  0.67157032  0.66939350  0.49880502  1
  Al  Al215  1  0.16941535  0.49903964  0.67087757  1
  Al  Al216  1  0.49961830  0.32275160  0.81407182  1
  Al  Al217  1  0.00312102  0.82712294  0.81933742  1
  Al  Al218  1  0.32611105  0.50080424  0.32497334  1
  Al  Al219  1  0.82569400  0.67667269  0.00047974  1
  Al  Al220  1  0.80854325  0.50076454  0.81818575  1
  Al  Al221  1  0.17143305  0.32925249  0.49879896  1
  Al  Al222  1  0.68711557  0.49869049  0.32717559  1
  Al  Al223  1  0.49785010  0.81220564  0.31325596  1
  Al  Al224  1  0.31476951  -0.00090032  0.31444076  1
  Al  Al225  1  0.33289794  0.50002110  0.67600358  1
  Al  Al226  1  0.18353990  0.68985457  0.49946221  1
  Al  Al227  1  0.66986371  0.68566615  0.00191186  1
  Al  Al228  1  0.19448059  0.18846319  0.00135898  1
  Al  Al229  1  0.68179107  0.50034858  0.17476667  1
  Al  Al230  1  0.81526748  0.17225780  0.00188491  1
  Al  Al231  1  0.49825458  0.68027548  0.68257233  1
  Al  Al232  1  0.82615297  -0.00053447  0.82706735  1
  Al  Al233  1  0.00166574  0.67093981  0.82529068  1
  Al  Al234  1  0.00061119  0.68244120  0.17717438  1
  Al  Al235  1  0.82915456  0.82868582  0.49816520  1
  Al  Al236  1  0.17557251  0.82863247  0.00222340  1
  Al  Al237  1  0.66605102  0.31690172  0.00039159  1
  Al  Al238  1  0.68277989  -0.00160975  0.17564982  1
  Au  Au239  1  0.00152614  0.16514166  0.33275067  1
  Au  Au240  1  -0.00001119  0.67546733  0.16165698  1
  Au  Au241  1  0.15482016  0.33197653  0.50011160  1
  Au  Au242  1  0.65256226  0.00141715  0.67704234  1
  Au  Au243  1  0.15364912  0.49940558  0.67726992  1
  Au  Au244  1  -0.00003634  0.16642921  0.83333557  1
  Au  Au245  1  0.67057054  0.50059981  0.16624664  1
  Au  Au246  1  0.17393651  -0.00054098  0.83016843  1
  Au  Au247  1  0.84073111  0.32389736  -0.00058786  1
  Au  Au248  1  0.00348264  0.84038246  0.32564095  1
  Au  Au249  1  0.32305449  -0.00096492  0.32951170  1
  Au  Au250  1  0.33712820  0.83593745  -0.00057363  1
  Au  Au251  1  0.81873736  0.66088812  0.00059193  1
  Au  Au252  1  0.33191446  0.49757766  0.84199742  1
  Au  Au253  1  0.16153195  0.49725037  0.33420662  1
  Au  Au254  1  -0.00564917  0.66758842  0.33597629  1
  Au  Au255  1  0.34498219  0.50025688  0.66437910  1
  Au  Au256  1  0.65047958  0.32217370  -0.00036919  1
  Au  Au257  1  0.33723881  0.50082069  0.33065514  1
  Au  Au258  1  0.50039501  0.67217513  0.83157896  1
  Au  Au259  1  0.34177258  0.68319790  0.49751216  1
  Au  Au260  1  0.49839433  0.17807783  0.33631346  1
  Au  Au261  1  0.16988052  0.50248468  0.15861988  1
  Au  Au262  1  0.34856619  0.32246482  0.49868710  1
  Au  Au263  1  0.67256544  0.00189992  0.33973648  1
  Au  Au264  1  0.32226258  0.31836068  0.00083119  1
  Au  Au265  1  0.66684900  0.50102538  0.68132530  1
  Au  Au266  1  0.84520298  0.00074515  0.67375062  1
  Au  Au267  1  0.18014858  0.14960097  0.49910649  1
  Au  Au268  1  -0.00572806  0.67220753  0.66071077  1
  Au  Au269  1  0.00335159  0.17148832  0.65900311  1
  Au  Au270  1  0.32519882  0.66742463  0.00309419  1
  Au  Au271  1  0.32459766  -0.00102243  0.66759104  1
  Au  Au272  1  0.16969716  0.67956044  0.49920262  1
  Au  Au273  1  0.83918896  0.49865225  0.67363937  1
  Au  Au274  1  0.49727239  0.17864475  0.16189773  1
  Au  Au275  1  0.82836915  0.84177035  0.00237916  1
  Au  Au276  1  0.16340200  0.82530575  0.00419365  1
  Au  Au277  1  0.00064141  0.33946720  0.17059170  1
  Au  Au278  1  0.49569517  0.82471909  0.32511599  1
  Au  Au279  1  0.49571017  0.82772319  0.67187262  1
  Au  Au280  1  0.00570210  0.67280271  0.84169801  1
  Au  Au281  1  0.00708151  0.83978268  0.66939203  1
  Au  Au282  1  0.67463319  0.83644793  0.50246509  1
  Au  Au283  1  0.67357155  -0.00185415  0.16180178  1
  Au  Au284  1  0.49671556  0.17776264  0.67143052  1
  Au  Au285  1  0.82045712  0.31940186  0.49783867  1
  Au  Au286  1  0.34881950  0.49942023  0.17191530  1
  Au  Au287  1  0.00366170  0.34005482  0.82690752  1
