# generated using pymatgen
data_Ca24Ti8Al207Au49
_symmetry_space_group_name_H-M   'P 1'
_cell_length_a   17.32077003
_cell_length_b   17.31997813
_cell_length_c   17.32088089
_cell_angle_alpha   90.00305939
_cell_angle_beta   90.00157686
_cell_angle_gamma   89.99955534
_symmetry_Int_Tables_number   1
_chemical_formula_structural   Ca24Ti8Al207Au49
_chemical_formula_sum   'Ca24 Ti8 Al207 Au49'
_cell_volume   5196.18385567
_cell_formula_units_Z   1
loop_
 _symmetry_equiv_pos_site_id
 _symmetry_equiv_pos_as_xyz
  1  'x, y, z'
loop_
 _atom_site_type_symbol
 _atom_site_label
 _atom_site_symmetry_multiplicity
 _atom_site_fract_x
 _atom_site_fract_y
 _atom_site_fract_z
 _atom_site_occupancy
  Ca  Ca0  1  0.24539141  0.00386754  0.00080206  1
  Ca  Ca1  1  0.24543839  0.00009203  0.50045570  1
  Ca  Ca2  1  0.24528756  0.49682431  0.00090603  1
  Ca  Ca3  1  0.24999025  0.49565306  0.49941097  1
  Ca  Ca4  1  0.74791321  -0.00239421  0.00181555  1
  Ca  Ca5  1  0.75237865  -0.00184536  0.49846420  1
  Ca  Ca6  1  0.75036403  0.50083752  0.00063785  1
  Ca  Ca7  1  0.74991267  0.50237886  0.49653593  1
  Ca  Ca8  1  0.00513304  0.24728759  -0.00280821  1
  Ca  Ca9  1  0.00060547  0.24486865  0.50064265  1
  Ca  Ca10  1  0.00219449  0.74753340  0.00543112  1
  Ca  Ca11  1  -0.00364796  0.74527996  0.49636879  1
  Ca  Ca12  1  0.49352723  0.24887984  0.00111187  1
  Ca  Ca13  1  0.50389985  0.25083146  0.49848255  1
  Ca  Ca14  1  0.50057222  0.75125396  0.00603591  1
  Ca  Ca15  1  0.50345280  0.74825793  0.49488840  1
  Ca  Ca16  1  -0.00482765  -0.00461969  0.24806409  1
  Ca  Ca17  1  0.00376251  0.00245899  0.75094536  1
  Ca  Ca18  1  0.00163919  0.50501185  0.24702189  1
  Ca  Ca19  1  0.00541487  0.50213374  0.74950357  1
  Ca  Ca20  1  0.50730562  -0.00381853  0.24793637  1
  Ca  Ca21  1  0.49889309  0.00286801  0.75179453  1
  Ca  Ca22  1  0.49878802  0.50261564  0.24980150  1
  Ca  Ca23  1  0.49802327  0.50096304  0.74495902  1
  Ti  Ti24  1  0.24994154  0.25033544  0.25023138  1
  Ti  Ti25  1  0.24787945  0.25215525  0.75000062  1
  Ti  Ti26  1  0.24992446  0.75060294  0.24938861  1
  Ti  Ti27  1  0.24938196  0.74756045  0.75079710  1
  Ti  Ti28  1  0.74883616  0.24856621  0.25099220  1
  Ti  Ti29  1  0.75180889  0.24747237  0.74848592  1
  Ti  Ti30  1  0.75050545  0.74989487  0.25145424  1
  Ti  Ti31  1  0.75005126  0.75135637  0.74653975  1
  Al  Al32  1  0.08984794  0.08766261  0.07310102  1
  Al  Al33  1  0.08248521  0.09488397  0.58845820  1
  Al  Al34  1  0.09166385  0.58854172  0.08237473  1
  Al  Al35  1  0.07851391  0.58121587  0.58035721  1
  Al  Al36  1  0.59154800  0.07935069  0.09167904  1
  Al  Al37  1  0.59559231  0.08865897  0.57135431  1
  Al  Al38  1  0.58351112  0.58789061  0.10351737  1
  Al  Al39  1  0.58304722  0.58071912  0.57320348  1
  Al  Al40  1  0.40692509  0.41623293  0.08002781  1
  Al  Al41  1  0.41028255  0.41140399  0.58166755  1
  Al  Al42  1  0.43055109  0.91310276  0.09153926  1
  Al  Al43  1  0.42577274  0.92241507  0.57912944  1
  Al  Al44  1  0.92406713  0.42370671  0.08099477  1
  Al  Al45  1  0.91315039  0.41573710  0.58094541  1
  Al  Al46  1  0.91311790  0.90278519  0.08944473  1
  Al  Al47  1  0.90933757  0.92638044  0.58243700  1
  Al  Al48  1  0.41366651  0.07794481  0.41921995  1
  Al  Al49  1  0.39785628  0.08855452  0.92082767  1
  Al  Al50  1  0.42348524  0.59008070  0.40683355  1
  Al  Al51  1  0.40922450  0.57175146  0.91380494  1
  Al  Al52  1  0.91471523  0.07606887  0.42718954  1
  Al  Al53  1  0.92402373  0.08200697  0.91886639  1
  Al  Al54  1  0.91302360  0.59071901  0.41595515  1
  Al  Al55  1  0.92832335  0.59618152  0.91815813  1
  Al  Al56  1  0.09109647  0.42246583  0.42113714  1
  Al  Al57  1  0.09153302  0.42053496  0.91955168  1
  Al  Al58  1  0.08095381  0.91967005  0.39767514  1
  Al  Al59  1  0.08938124  0.92382008  0.91873561  1
  Al  Al60  1  0.59090278  0.41618896  0.41844141  1
  Al  Al61  1  0.57085031  0.42124406  0.92895420  1
  Al  Al62  1  0.58935643  0.91321638  0.40058170  1
  Al  Al63  1  0.57738233  0.91606162  0.93161169  1
  Al  Al64  1  0.09417518  0.07890643  0.42595249  1
  Al  Al65  1  0.09794878  0.08623779  0.91054586  1
  Al  Al66  1  0.08063261  0.58348576  0.41219975  1
  Al  Al67  1  0.09096862  0.59011405  0.91545802  1
  Al  Al68  1  0.60106840  0.07631952  0.41138371  1
  Al  Al69  1  0.58611720  0.08813287  0.93307747  1
  Al  Al70  1  0.58323763  0.59329925  0.40720939  1
  Al  Al71  1  0.57231269  0.57876527  0.92937787  1
  Al  Al72  1  0.41451089  0.41782500  0.42643732  1
  Al  Al73  1  0.39665249  0.41232899  0.91902555  1
  Al  Al74  1  0.42751227  0.91198081  0.40243235  1
  Al  Al75  1  0.42091497  0.92955137  0.91461112  1
  Al  Al76  1  0.90771193  0.42277298  0.42504840  1
  Al  Al77  1  0.93141505  0.42139134  0.92128552  1
  Al  Al78  1  0.92027285  0.90939562  0.41049017  1
  Al  Al79  1  0.91318332  0.91074764  0.92792433  1
  Al  Al80  1  0.09585985  0.42388034  0.08555053  1
  Al  Al81  1  0.08637568  0.41456342  0.58372193  1
  Al  Al82  1  0.07455786  0.90840788  0.08324901  1
  Al  Al83  1  0.07417543  0.93402370  0.57527125  1
  Al  Al84  1  0.58566865  0.42575092  0.09159412  1
  Al  Al85  1  0.58545543  0.40907257  0.57588873  1
  Al  Al86  1  0.59181603  0.91396640  0.09817662  1
  Al  Al87  1  0.58547398  0.92051638  0.57556161  1
  Al  Al88  1  0.41653807  0.08753782  0.07696308  1
  Al  Al89  1  0.41619023  0.08442939  0.57586013  1
  Al  Al90  1  0.42123405  0.58336830  0.09426673  1
  Al  Al91  1  0.41733168  0.57519001  0.57962787  1
  Al  Al92  1  0.91891109  0.07566029  0.08006060  1
  Al  Al93  1  0.91656838  0.08801643  0.59388572  1
  Al  Al94  1  0.92052897  0.58781816  0.08072007  1
  Al  Al95  1  0.91322673  0.58779154  0.57847013  1
  Al  Al96  1  0.25166529  0.13408425  0.12990683  1
  Al  Al97  1  0.24350775  0.13816342  0.63266043  1
  Al  Al98  1  0.24416446  0.63633081  0.13526648  1
  Al  Al99  1  0.25249946  0.62983850  0.63595420  1
  Al  Al100  1  0.74855611  0.13326570  0.13047864  1
  Al  Al101  1  0.75391951  0.13115153  0.63186782  1
  Al  Al102  1  0.74868883  0.63978325  0.14096033  1
  Al  Al103  1  0.74875852  0.63738293  0.62720758  1
  Al  Al104  1  0.24851058  0.36123521  0.12770697  1
  Al  Al105  1  0.24914327  0.36693397  0.62999706  1
  Al  Al106  1  0.24988566  0.86385114  0.13963402  1
  Al  Al107  1  0.24905693  0.86160870  0.63539764  1
  Al  Al108  1  0.74551253  0.36355667  0.13364375  1
  Al  Al109  1  0.74724296  0.36297807  0.63493630  1
  Al  Al110  1  0.74839119  0.86284776  0.13973103  1
  Al  Al111  1  0.74901858  0.86796310  0.63140693  1
  Al  Al112  1  0.24933280  0.13023887  0.36584643  1
  Al  Al113  1  0.24614750  0.13734644  0.86711737  1
  Al  Al114  1  0.25149070  0.63766616  0.36170918  1
  Al  Al115  1  0.25030046  0.63313187  0.86825870  1
  Al  Al116  1  0.74933072  0.13128752  0.36876084  1
  Al  Al117  1  0.75173627  0.13443450  0.86778203  1
  Al  Al118  1  0.74734863  0.63915651  0.36862788  1
  Al  Al119  1  0.74807539  0.63784350  0.86334208  1
  Al  Al120  1  0.24547202  0.36454497  0.36769952  1
  Al  Al121  1  0.24962720  0.36204330  0.87293219  1
  Al  Al122  1  0.24831561  0.86924660  0.36058800  1
  Al  Al123  1  0.24538311  0.86285459  0.86411157  1
  Al  Al124  1  0.74614748  0.36558869  0.36370729  1
  Al  Al125  1  0.74660298  0.36036319  0.86558400  1
  Al  Al126  1  0.74784161  0.86849982  0.36026641  1
  Al  Al127  1  0.75438959  0.86476832  0.86590443  1
  Al  Al128  1  0.13483821  0.24785171  0.13010317  1
  Al  Al129  1  0.13303033  0.25009290  0.62860521  1
  Al  Al130  1  0.13043267  0.75093357  0.13746113  1
  Al  Al131  1  0.13589507  0.74853283  0.63783956  1
  Al  Al132  1  0.63554807  0.24624869  0.13714184  1
  Al  Al133  1  0.63982967  0.24737656  0.62850392  1
  Al  Al134  1  0.62525168  0.75089522  0.14362354  1
  Al  Al135  1  0.63097003  0.74958466  0.63333435  1
  Al  Al136  1  0.13659069  0.24662601  0.37246311  1
  Al  Al137  1  0.13475337  0.25003697  0.87187594  1
  Al  Al138  1  0.13501887  0.75144962  0.36122376  1
  Al  Al139  1  0.13513191  0.74188657  0.86933875  1
  Al  Al140  1  0.63671541  0.24951089  0.36690693  1
  Al  Al141  1  0.63222152  0.24198687  0.86417957  1
  Al  Al142  1  0.62723609  0.74984192  0.35769234  1
  Al  Al143  1  0.63550258  0.75349716  0.86061121  1
  Al  Al144  1  0.36107006  0.24997642  0.13048133  1
  Al  Al145  1  0.36280634  0.25149426  0.63411229  1
  Al  Al146  1  0.36901283  0.74650768  0.13598374  1
  Al  Al147  1  0.36910582  0.74673096  0.63645153  1
  Al  Al148  1  0.86713460  0.24638170  0.13595357  1
  Al  Al149  1  0.86733252  0.24339129  0.63259646  1
  Al  Al150  1  0.86976730  0.75356795  0.13837528  1
  Al  Al151  1  0.86328156  0.74690528  0.63103712  1
  Al  Al152  1  0.36137508  0.25617016  0.36855294  1
  Al  Al153  1  0.36044126  0.24890765  0.87113403  1
  Al  Al154  1  0.36919593  0.75057191  0.36112772  1
  Al  Al155  1  0.36208137  0.74971444  0.86518392  1
  Al  Al156  1  0.86311142  0.24703191  0.36697757  1
  Al  Al157  1  0.87195867  0.24467068  0.86204763  1
  Al  Al158  1  0.86373766  0.75014492  0.36383947  1
  Al  Al159  1  0.86574586  0.75097581  0.86365963  1
  Al  Al160  1  0.13766141  0.13696491  0.24861629  1
  Al  Al161  1  0.13125296  0.14081226  0.75069185  1
  Al  Al162  1  0.13252440  0.63496092  0.24527147  1
  Al  Al163  1  0.13450582  0.63450499  0.75269144  1
  Al  Al164  1  0.63942059  0.12919385  0.25016995  1
  Al  Al165  1  0.64006095  0.13249364  0.74495126  1
  Al  Al166  1  0.63417718  0.63165016  0.25168230  1
  Al  Al167  1  0.63640413  0.63327846  0.74362004  1
  Al  Al168  1  0.36389165  0.13713460  0.25301548  1
  Al  Al169  1  0.36251115  0.13993277  0.75338157  1
  Al  Al170  1  0.36722899  0.63557428  0.24821562  1
  Al  Al171  1  0.36272845  0.62719981  0.75129149  1
  Al  Al172  1  0.86367372  0.13227390  0.25101546  1
  Al  Al173  1  0.86955284  0.13246672  0.74647052  1
  Al  Al174  1  0.86676567  0.63604917  0.24782500  1
  Al  Al175  1  0.86396082  0.63971587  0.74952099  1
  Al  Al176  1  0.13573334  0.36156736  0.24614597  1
  Al  Al177  1  0.13654237  0.36256883  0.74903035  1
  Al  Al178  1  0.12812289  0.86375581  0.25061240  1
  Al  Al179  1  0.13347628  0.86423026  0.75462205  1
  Al  Al180  1  0.63356810  0.36846072  0.24903277  1
  Al  Al181  1  0.63552616  0.36053977  0.74953780  1
  Al  Al182  1  0.63243597  0.86551628  0.25030591  1
  Al  Al183  1  0.63780896  0.86732435  0.74507141  1
  Al  Al184  1  0.36519585  0.36291885  0.24502239  1
  Al  Al185  1  0.35702516  0.36872908  0.75284359  1
  Al  Al186  1  0.37045305  0.86449804  0.24766962  1
  Al  Al187  1  0.36440984  0.86285956  0.74854984  1
  Al  Al188  1  0.86367596  0.36297390  0.24694578  1
  Al  Al189  1  0.86477648  0.36260248  0.74836148  1
  Al  Al190  1  0.86947265  0.86511897  0.25227863  1
  Al  Al191  1  0.86290105  0.86551370  0.74169230  1
  Al  Al192  1  0.49839988  0.32809390  0.32631497  1
  Al  Al193  1  0.31089987  0.49882728  0.17642309  1
  Al  Al194  1  0.31673381  0.00336378  0.67228196  1
  Al  Al195  1  0.18697206  0.49835185  0.82059309  1
  Al  Al196  1  0.32840204  0.49823988  0.32773721  1
  Al  Al197  1  0.66843953  0.67790087  0.00173232  1
  Al  Al198  1  0.33284781  0.00138673  0.18204665  1
  Al  Al199  1  0.49943753  0.17955685  0.17138706  1
  Al  Al200  1  -0.00386901  0.32029028  0.67541802  1
  Al  Al201  1  0.49820023  0.66961031  0.82328211  1
  Al  Al202  1  -0.00061349  0.68643435  0.31917967  1
  Al  Al203  1  0.67012421  -0.00089777  0.82566330  1
  Al  Al204  1  0.50381371  0.16682346  0.32700992  1
  Al  Al205  1  0.81801460  0.50237365  0.32400967  1
  Al  Al206  1  -0.00113750  0.83189880  0.67249700  1
  Al  Al207  1  0.50001664  0.82760807  0.82269130  1
  Al  Al208  1  0.81105295  0.31888939  0.50007826  1
  Al  Al209  1  0.00327123  0.16692272  0.32597496  1
  Al  Al210  1  0.83215184  0.50366662  0.83242491  1
  Al  Al211  1  0.81584238  -0.00220946  0.18002576  1
  Al  Al212  1  0.82699618  0.81989654  0.49809234  1
  Al  Al213  1  0.83107557  0.31565490  -0.00138420  1
  Al  Al214  1  0.50265985  0.16987586  0.67572730  1
  Al  Al215  1  0.31079259  0.18650061  0.49938218  1
  Al  Al216  1  0.67401182  0.82073345  0.49506072  1
  Al  Al217  1  0.82662109  0.68830360  0.00122379  1
  Al  Al218  1  0.81299696  0.50061932  0.16562728  1
  Al  Al219  1  0.30861017  0.00006125  0.82574768  1
  Al  Al220  1  0.00205061  0.81628138  0.83147390  1
  Al  Al221  1  0.49926041  0.32557924  0.67301160  1
  Al  Al222  1  0.49441766  0.32516833  0.83062539  1
  Al  Al223  1  0.66754368  0.49904233  0.82113962  1
  Al  Al224  1  0.16930243  0.00180530  0.68522379  1
  Al  Al225  1  0.82096472  0.50140538  0.67369676  1
  Al  Al226  1  0.33198904  0.82229191  0.49772439  1
  Al  Al227  1  0.17516242  0.81783340  0.00241155  1
  Al  Al228  1  0.17712814  0.50086886  0.31085237  1
  Al  Al229  1  0.31908733  0.66831443  0.00371140  1
  Al  Al230  1  0.82929618  -0.00076354  0.81672759  1
  Al  Al231  1  0.68495347  0.82654832  0.00270609  1
  Al  Al232  1  0.17722554  0.67456608  0.49960481  1
  Al  Al233  1  0.16939171  -0.00177228  0.18300953  1
  Al  Al234  1  0.16782523  0.83156468  0.49864431  1
  Al  Al235  1  0.33009305  0.83039844  0.00089308  1
  Al  Al236  1  0.66779181  0.31261481  -0.00119307  1
  Al  Al237  1  -0.00060250  0.67484454  0.68088433  1
  Al  Al238  1  -0.00228580  0.33203207  0.32759270  1
  Au  Au239  1  0.32480673  0.17646822  0.49786488  1
  Au  Au240  1  0.66211208  0.32811574  0.00330311  1
  Au  Au241  1  0.32465145  0.65313122  0.00489933  1
  Au  Au242  1  0.67647430  0.66498261  0.00927266  1
  Au  Au243  1  0.32907627  0.84608046  -0.00302210  1
  Au  Au244  1  0.00102980  0.17013426  0.15752889  1
  Au  Au245  1  0.00172846  0.67608674  0.17038104  1
  Au  Au246  1  0.34725282  0.82782755  0.49691149  1
  Au  Au247  1  -0.00329503  0.34677272  0.33468392  1
  Au  Au248  1  0.00674346  0.33256411  0.83042227  1
  Au  Au249  1  0.82434127  0.15896961  -0.00095443  1
  Au  Au250  1  0.15252098  0.83114891  0.49349634  1
  Au  Au251  1  0.50661039  0.17218284  0.65913182  1
  Au  Au252  1  0.67931749  0.00090580  0.65752623  1
  Au  Au253  1  0.15834669  -0.00302069  0.17073818  1
  Au  Au254  1  0.84301716  -0.00421885  0.82598291  1
  Au  Au255  1  0.66772682  0.50154464  0.32673834  1
  Au  Au256  1  0.49538783  0.67435012  0.83957989  1
  Au  Au257  1  0.32508648  -0.00339055  0.33482557  1
  Au  Au258  1  0.49641327  0.16302902  0.84420539  1
  Au  Au259  1  0.65817574  -0.00047722  0.83668993  1
  Au  Au260  1  0.17478750  0.32610925  0.00099706  1
  Au  Au261  1  0.49147837  0.34135223  0.82652592  1
  Au  Au262  1  0.00421520  0.82334607  0.84599081  1
  Au  Au263  1  0.82386429  -0.00297075  0.16557982  1
  Au  Au264  1  0.67398875  0.67291129  0.49685126  1
  Au  Au265  1  0.17529696  0.32720483  0.49912377  1
  Au  Au266  1  -0.00130101  0.32876778  0.66647851  1
  Au  Au267  1  0.33663195  0.00245301  0.17034660  1
  Au  Au268  1  0.82927818  0.50135818  0.17179960  1
  Au  Au269  1  0.16666215  0.50359513  0.67263080  1
  Au  Au270  1  0.83746824  0.33211828  -0.00289238  1
  Au  Au271  1  0.49961468  0.66878450  0.65983110  1
  Au  Au272  1  0.00642331  0.33576623  0.16337226  1
  Au  Au273  1  0.50522616  0.83980146  0.67303153  1
  Au  Au274  1  0.49642945  0.33197461  0.16221223  1
  Au  Au275  1  0.49542326  0.33046319  0.33827295  1
  Au  Au276  1  0.84778312  0.50664638  0.82662368  1
  Au  Au277  1  0.66447600  0.49905685  0.83779788  1
  Au  Au278  1  0.00466948  0.15185927  0.33264253  1
  Au  Au279  1  0.33304228  -0.00178460  0.67394876  1
  Au  Au280  1  -0.00259499  0.82836662  0.66021854  1
  Au  Au281  1  0.82291764  -0.00249280  0.33815121  1
  Au  Au282  1  0.32597235  0.65575911  0.49609592  1
  Au  Au283  1  0.50820013  0.15556328  0.32975235  1
  Au  Au284  1  0.82550975  0.17112513  0.50196402  1
  Au  Au285  1  0.67153282  0.49587747  0.65675393  1
  Au  Au286  1  0.00389332  0.16547859  0.82784659  1
  Au  Au287  1  0.33359635  0.49603781  0.67699787  1
