# generated using pymatgen
data_Ca24Ti8Al207Au49
_symmetry_space_group_name_H-M   'P 1'
_cell_length_a   17.32214696
_cell_length_b   17.32085097
_cell_length_c   17.32253910
_cell_angle_alpha   89.99932426
_cell_angle_beta   90.00398258
_cell_angle_gamma   89.99957277
_symmetry_Int_Tables_number   1
_chemical_formula_structural   Ca24Ti8Al207Au49
_chemical_formula_sum   'Ca24 Ti8 Al207 Au49'
_cell_volume   5197.35632947
_cell_formula_units_Z   1
loop_
 _symmetry_equiv_pos_site_id
 _symmetry_equiv_pos_as_xyz
  1  'x, y, z'
loop_
 _atom_site_type_symbol
 _atom_site_label
 _atom_site_symmetry_multiplicity
 _atom_site_fract_x
 _atom_site_fract_y
 _atom_site_fract_z
 _atom_site_occupancy
  Ca  Ca0  1  0.24807336  0.01010923  0.00455838  1
  Ca  Ca1  1  0.25499825  0.00036878  0.49844085  1
  Ca  Ca2  1  0.24489981  0.49263253  0.00170749  1
  Ca  Ca3  1  0.24948362  0.50110887  0.49799275  1
  Ca  Ca4  1  0.74793219  0.00194982  0.00698943  1
  Ca  Ca5  1  0.74605260  -0.00044717  0.49715668  1
  Ca  Ca6  1  0.75266344  0.49578641  0.00224608  1
  Ca  Ca7  1  0.74822571  0.50350777  0.49674870  1
  Ca  Ca8  1  -0.00020496  0.25628023  0.00716760  1
  Ca  Ca9  1  0.00130965  0.25805895  0.49478766  1
  Ca  Ca10  1  -0.00650121  0.74990917  0.00553498  1
  Ca  Ca11  1  -0.00211539  0.74755466  0.49922780  1
  Ca  Ca12  1  0.49995854  0.25030893  0.00286816  1
  Ca  Ca13  1  0.50280608  0.24878350  0.49515384  1
  Ca  Ca14  1  0.50524809  0.74740888  -0.00163334  1
  Ca  Ca15  1  0.50696620  0.74857045  0.50006187  1
  Ca  Ca16  1  -0.00056095  0.00343240  0.24554302  1
  Ca  Ca17  1  0.00020282  0.00385081  0.75468691  1
  Ca  Ca18  1  -0.00316675  0.49494608  0.24513670  1
  Ca  Ca19  1  -0.00624088  0.49314895  0.75664136  1
  Ca  Ca20  1  0.50054399  0.00253609  0.25194355  1
  Ca  Ca21  1  0.49754803  0.00136271  0.74884408  1
  Ca  Ca22  1  0.50367149  0.49302925  0.25096055  1
  Ca  Ca23  1  0.50304078  0.49505686  0.75124939  1
  Ti  Ti24  1  0.24947941  0.25010565  0.25025242  1
  Ti  Ti25  1  0.25253708  0.25061452  0.75096948  1
  Ti  Ti26  1  0.24970381  0.75148676  0.25206680  1
  Ti  Ti27  1  0.25507606  0.74859588  0.74808735  1
  Ti  Ti28  1  0.75093985  0.24919458  0.24941851  1
  Ti  Ti29  1  0.74709290  0.25277571  0.75062812  1
  Ti  Ti30  1  0.75065577  0.75235051  0.25112013  1
  Ti  Ti31  1  0.74707386  0.74741829  0.75037476  1
  Al  Al32  1  0.09386608  0.09013390  0.09149548  1
  Al  Al33  1  0.08470718  0.07929773  0.57799874  1
  Al  Al34  1  0.08577835  0.56478990  0.08840626  1
  Al  Al35  1  0.07725020  0.57289449  0.57386209  1
  Al  Al36  1  0.57847916  0.08948880  0.09140582  1
  Al  Al37  1  0.57660266  0.07817118  0.58106141  1
  Al  Al38  1  0.60051618  0.57372135  0.08444093  1
  Al  Al39  1  0.58997668  0.59547759  0.58216482  1
  Al  Al40  1  0.40572241  0.40280502  0.07791338  1
  Al  Al41  1  0.42733797  0.41077331  0.58850154  1
  Al  Al42  1  0.41950191  0.93531389  0.08198083  1
  Al  Al43  1  0.41549794  0.90898729  0.57811813  1
  Al  Al44  1  0.91109320  0.41155452  0.08785422  1
  Al  Al45  1  0.91208923  0.40973468  0.57893743  1
  Al  Al46  1  0.91063775  0.92059102  0.09034352  1
  Al  Al47  1  0.91315594  0.91416448  0.57234681  1
  Al  Al48  1  0.42309409  0.08241208  0.40804379  1
  Al  Al49  1  0.40861777  0.09458984  0.92293908  1
  Al  Al50  1  0.42276158  0.58161077  0.42054835  1
  Al  Al51  1  0.42930570  0.57134596  0.91693576  1
  Al  Al52  1  0.91646411  0.07667241  0.41093801  1
  Al  Al53  1  0.92345180  0.08703832  0.92943264  1
  Al  Al54  1  0.91102447  0.58511758  0.41520924  1
  Al  Al55  1  0.90859399  0.58777986  0.92466878  1
  Al  Al56  1  0.07580500  0.41840787  0.41067477  1
  Al  Al57  1  0.08239887  0.40113874  0.91987889  1
  Al  Al58  1  0.08532083  0.91729879  0.41322141  1
  Al  Al59  1  0.07757180  0.92479609  0.92868823  1
  Al  Al60  1  0.58379930  0.41812275  0.40978108  1
  Al  Al61  1  0.58256650  0.40688293  0.91444629  1
  Al  Al62  1  0.59601216  0.91607805  0.41466003  1
  Al  Al63  1  0.58410524  0.92340639  0.91808538  1
  Al  Al64  1  0.08084133  0.07956027  0.41501606  1
  Al  Al65  1  0.09124178  0.09525319  0.93121762  1
  Al  Al66  1  0.07634641  0.57828840  0.41099156  1
  Al  Al67  1  0.06671096  0.57026175  0.92442747  1
  Al  Al68  1  0.58393877  0.07906662  0.40094199  1
  Al  Al69  1  0.57842914  0.08402807  0.91677106  1
  Al  Al70  1  0.59617893  0.58976668  0.41858702  1
  Al  Al71  1  0.58794249  0.58378318  0.92193819  1
  Al  Al72  1  0.42425488  0.41558448  0.41480866  1
  Al  Al73  1  0.41953021  0.39674007  0.91629592  1
  Al  Al74  1  0.41350791  0.91919667  0.41869321  1
  Al  Al75  1  0.42511303  0.93084326  0.91892874  1
  Al  Al76  1  0.91148712  0.41229470  0.41532487  1
  Al  Al77  1  0.91822141  0.41181501  0.92342500  1
  Al  Al78  1  0.90759247  0.91271923  0.41259433  1
  Al  Al79  1  0.91963706  0.91518674  0.92762583  1
  Al  Al80  1  0.08704885  0.40446083  0.08899989  1
  Al  Al81  1  0.07378216  0.41716246  0.58421155  1
  Al  Al82  1  0.08518442  0.92654299  0.09042966  1
  Al  Al83  1  0.08400310  0.92266264  0.57486511  1
  Al  Al84  1  0.59310206  0.41348496  0.08419771  1
  Al  Al85  1  0.58276626  0.41384843  0.58922162  1
  Al  Al86  1  0.58501762  0.92883824  0.08055521  1
  Al  Al87  1  0.58717014  0.90538907  0.57562756  1
  Al  Al88  1  0.41061635  0.09996366  0.08601960  1
  Al  Al89  1  0.42085107  0.08258998  0.58017331  1
  Al  Al90  1  0.42246590  0.56192801  0.08041276  1
  Al  Al91  1  0.42841116  0.59228295  0.58679198  1
  Al  Al92  1  0.91375030  0.08523755  0.09093453  1
  Al  Al93  1  0.92299620  0.07898261  0.57195743  1
  Al  Al94  1  0.89891131  0.57596459  0.08602612  1
  Al  Al95  1  0.90527862  0.58319994  0.57415524  1
  Al  Al96  1  0.24888173  0.13565618  0.13182756  1
  Al  Al97  1  0.25333671  0.13905352  0.63152924  1
  Al  Al98  1  0.24868990  0.62792811  0.13741536  1
  Al  Al99  1  0.25525321  0.63815150  0.62804576  1
  Al  Al100  1  0.75276209  0.12924878  0.13863389  1
  Al  Al101  1  0.74395678  0.13862780  0.63547599  1
  Al  Al102  1  0.75127306  0.62821650  0.13746121  1
  Al  Al103  1  0.74740588  0.63626486  0.62949253  1
  Al  Al104  1  0.24704710  0.36409865  0.12961457  1
  Al  Al105  1  0.25384553  0.36225469  0.63437955  1
  Al  Al106  1  0.25079663  0.87548335  0.13907250  1
  Al  Al107  1  0.25599508  0.86360512  0.63253938  1
  Al  Al108  1  0.75247705  0.36990240  0.13459552  1
  Al  Al109  1  0.74815667  0.36349500  0.62971205  1
  Al  Al110  1  0.75153606  0.87379877  0.13885709  1
  Al  Al111  1  0.74192430  0.86220267  0.63285022  1
  Al  Al112  1  0.24645784  0.13644186  0.36791525  1
  Al  Al113  1  0.25331417  0.14337756  0.87284176  1
  Al  Al114  1  0.25196355  0.63768331  0.37067608  1
  Al  Al115  1  0.25837041  0.62965904  0.85944091  1
  Al  Al116  1  0.75048079  0.12707826  0.36264032  1
  Al  Al117  1  0.74662362  0.14218374  0.86562239  1
  Al  Al118  1  0.74986219  0.63722081  0.37153077  1
  Al  Al119  1  0.75336210  0.63453401  0.86518636  1
  Al  Al120  1  0.25092446  0.36422670  0.36524868  1
  Al  Al121  1  0.25240224  0.36295646  0.87058651  1
  Al  Al122  1  0.25251751  0.86661795  0.36754856  1
  Al  Al123  1  0.25329458  0.86146035  0.86070971  1
  Al  Al124  1  0.74991685  0.36464319  0.36952569  1
  Al  Al125  1  0.75218962  0.36508739  0.86565282  1
  Al  Al126  1  0.74709264  0.87369566  0.36718627  1
  Al  Al127  1  0.74874394  0.86235951  0.86356841  1
  Al  Al128  1  0.13938420  0.24938289  0.12744346  1
  Al  Al129  1  0.13867095  0.25190728  0.62923372  1
  Al  Al130  1  0.14101900  0.75444793  0.13887470  1
  Al  Al131  1  0.13826362  0.74904381  0.63161707  1
  Al  Al132  1  0.63855214  0.24845577  0.13668657  1
  Al  Al133  1  0.62684590  0.25790611  0.63488721  1
  Al  Al134  1  0.63941804  0.75174196  0.13855514  1
  Al  Al135  1  0.63127078  0.74606245  0.63246323  1
  Al  Al136  1  0.13536578  0.25295556  0.36486931  1
  Al  Al137  1  0.13878844  0.25333057  0.87467328  1
  Al  Al138  1  0.13506268  0.75203607  0.36429233  1
  Al  Al139  1  0.13859430  0.74886160  0.86386037  1
  Al  Al140  1  0.63743870  0.24947324  0.36203944  1
  Al  Al141  1  0.62571594  0.25359780  0.86228784  1
  Al  Al142  1  0.63929924  0.75433979  0.36772273  1
  Al  Al143  1  0.62926884  0.74598453  0.86297631  1
  Al  Al144  1  0.35969401  0.25026702  0.12664988  1
  Al  Al145  1  0.37218580  0.25280768  0.63531990  1
  Al  Al146  1  0.35921698  0.75213040  0.13606180  1
  Al  Al147  1  0.37044684  0.75066468  0.63034308  1
  Al  Al148  1  0.86524864  0.25843353  0.13485004  1
  Al  Al149  1  0.86205587  0.25346975  0.63411695  1
  Al  Al150  1  0.86000613  0.74736368  0.13915133  1
  Al  Al151  1  0.86158656  0.74515047  0.63182746  1
  Al  Al152  1  0.36634331  0.24598579  0.36435946  1
  Al  Al153  1  0.36913800  0.25092130  0.86848400  1
  Al  Al154  1  0.36564605  0.75349799  0.36965567  1
  Al  Al155  1  0.37543867  0.74644099  0.86139776  1
  Al  Al156  1  0.86228813  0.25291621  0.35970229  1
  Al  Al157  1  0.86499698  0.25659990  0.87153406  1
  Al  Al158  1  0.86073593  0.75066942  0.36488090  1
  Al  Al159  1  0.86307171  0.75075149  0.86777407  1
  Al  Al160  1  0.13739320  0.13154092  0.24654864  1
  Al  Al161  1  0.13989565  0.14162859  0.75418864  1
  Al  Al162  1  0.13457195  0.63569912  0.24797152  1
  Al  Al163  1  0.13864859  0.63530354  0.75165480  1
  Al  Al164  1  0.63534514  0.12933510  0.25168129  1
  Al  Al165  1  0.62653968  0.14004762  0.74706650  1
  Al  Al166  1  0.64115536  0.63715278  0.25163376  1
  Al  Al167  1  0.63139665  0.63489129  0.74733802  1
  Al  Al168  1  0.36332594  0.13679961  0.24757197  1
  Al  Al169  1  0.37029848  0.14015090  0.75117779  1
  Al  Al170  1  0.36415002  0.63758791  0.25281885  1
  Al  Al171  1  0.37520685  0.63671378  0.74451319  1
  Al  Al172  1  0.86495502  0.13162130  0.24907446  1
  Al  Al173  1  0.86197593  0.14043916  0.75181292  1
  Al  Al174  1  0.85868771  0.62611680  0.25206893  1
  Al  Al175  1  0.85864126  0.62669353  0.74749456  1
  Al  Al176  1  0.13294148  0.36279001  0.24141559  1
  Al  Al177  1  0.13616004  0.36038320  0.75528721  1
  Al  Al178  1  0.13759250  0.87288803  0.25144103  1
  Al  Al179  1  0.13740784  0.86012303  0.74800637  1
  Al  Al180  1  0.63954860  0.36641731  0.24567998  1
  Al  Al181  1  0.63431249  0.36627231  0.75109868  1
  Al  Al182  1  0.63504643  0.87223159  0.25332124  1
  Al  Al183  1  0.62693902  0.86022778  0.74734434  1
  Al  Al184  1  0.36427730  0.36341816  0.24321519  1
  Al  Al185  1  0.36848340  0.36445287  0.75435948  1
  Al  Al186  1  0.36746357  0.86600861  0.25131817  1
  Al  Al187  1  0.37232310  0.86267059  0.74757073  1
  Al  Al188  1  0.85965641  0.37420429  0.24812471  1
  Al  Al189  1  0.86055386  0.36897873  0.75019470  1
  Al  Al190  1  0.86257906  0.87024480  0.25330005  1
  Al  Al191  1  0.86202695  0.86168575  0.74484615  1
  Al  Al192  1  0.67527366  0.50173538  0.67375261  1
  Al  Al193  1  0.31902782  0.00148035  0.31849298  1
  Al  Al194  1  0.83216732  0.00203815  0.82940835  1
  Al  Al195  1  0.50096223  0.82911704  0.17555108  1
  Al  Al196  1  0.81625668  0.00097341  0.66657157  1
  Al  Al197  1  0.00100920  0.83006675  0.67712307  1
  Al  Al198  1  0.66935730  0.82736615  0.00004656  1
  Al  Al199  1  0.50135159  0.31120278  0.31514862  1
  Al  Al200  1  0.80659196  0.81146669  0.49979670  1
  Al  Al201  1  0.50285676  0.66339088  0.16909847  1
  Al  Al202  1  0.50339262  0.67905207  0.32642575  1
  Al  Al203  1  0.00031542  0.82641975  0.18040508  1
  Al  Al204  1  0.17105498  0.49715867  0.83160201  1
  Al  Al205  1  0.17296198  0.82709910  0.00293117  1
  Al  Al206  1  0.33037150  0.83375241  -0.00123520  1
  Al  Al207  1  -0.00114024  0.66768293  0.67043115  1
  Al  Al208  1  0.49975052  0.18587427  0.19157547  1
  Al  Al209  1  0.32982144  0.50152598  0.67791473  1
  Al  Al210  1  0.66985790  0.17776164  0.49713016  1
  Al  Al211  1  -0.00128681  0.66999701  0.16544942  1
  Al  Al212  1  0.68923485  0.31776701  -0.00061886  1
  Al  Al213  1  0.69097679  0.67584771  0.00168802  1
  Al  Al214  1  0.82794886  0.18593644  0.49733429  1
  Al  Al215  1  0.00104679  0.18858231  0.17505779  1
  Al  Al216  1  0.00042998  0.17397948  0.32554295  1
  Al  Al217  1  0.82093788  0.81455204  0.00384444  1
  Al  Al218  1  0.00169065  0.16973391  0.67590327  1
  Al  Al219  1  0.82058062  0.18637095  0.00379813  1
  Al  Al220  1  0.17431143  0.49848508  0.67420119  1
  Al  Al221  1  0.32907216  0.50083432  0.31952267  1
  Al  Al222  1  0.17826862  0.82222707  0.49993799  1
  Al  Al223  1  0.00145389  0.19196500  0.83106858  1
  Al  Al224  1  0.17759893  0.00151099  0.67452820  1
  Al  Al225  1  0.16740578  -0.00041207  0.82557814  1
  Al  Al226  1  0.33022828  0.00039089  0.67115207  1
  Al  Al227  1  0.32999864  0.66903219  0.00057392  1
  Al  Al228  1  -0.00157580  0.32599073  0.68590879  1
  Al  Al229  1  -0.00273944  0.32443085  0.30876672  1
  Al  Al230  1  0.17214799  0.49898569  0.31262226  1
  Al  Al231  1  0.67417225  0.00211730  0.81882743  1
  Al  Al232  1  0.32647137  0.00385439  0.82454474  1
  Al  Al233  1  0.67794434  0.49944967  0.82837741  1
  Al  Al234  1  0.32805469  0.32255386  0.50268450  1
  Al  Al235  1  -0.00287893  0.68088951  0.32408889  1
  Al  Al236  1  0.16864371  0.66683240  -0.00005881  1
  Al  Al237  1  0.68134731  0.50056559  0.31456721  1
  Al  Al238  1  -0.00251785  0.67710872  0.82677842  1
  Au  Au239  1  0.49949219  0.17842554  0.66565741  1
  Au  Au240  1  0.84262176  0.17835948  0.49340143  1
  Au  Au241  1  0.66528321  0.17106638  -0.00039149  1
  Au  Au242  1  0.50038339  0.82135880  0.66098501  1
  Au  Au243  1  0.82538291  0.00288851  0.84495774  1
  Au  Au244  1  0.16804382  0.16697762  0.49679100  1
  Au  Au245  1  0.82820293  0.49941624  0.32848810  1
  Au  Au246  1  -0.00261685  0.65123825  0.67437178  1
  Au  Au247  1  0.33326250  0.49029120  0.84320065  1
  Au  Au248  1  0.33643685  0.33156419  0.50023226  1
  Au  Au249  1  0.50133920  0.82912896  0.34407740  1
  Au  Au250  1  0.50568619  0.64876610  0.17552516  1
  Au  Au251  1  0.15281842  0.67246534  0.00057418  1
  Au  Au252  1  0.33664532  0.16556922  0.49488654  1
  Au  Au253  1  0.65702236  -0.00447173  0.67112320  1
  Au  Au254  1  -0.00702691  0.65706096  0.17366987  1
  Au  Au255  1  0.49708201  0.17628349  0.83493842  1
  Au  Au256  1  0.66576037  0.16151524  0.49506744  1
  Au  Au257  1  0.16969360  0.00313762  0.32392537  1
  Au  Au258  1  0.32562786  0.50210015  0.33153779  1
  Au  Au259  1  0.82597379  0.17474534  0.00389582  1
  Au  Au260  1  0.50366334  0.65968493  0.82284440  1
  Au  Au261  1  0.00401109  0.18081601  0.84361340  1
  Au  Au262  1  0.67327143  0.00245547  0.17333163  1
  Au  Au263  1  0.32358593  0.84954558  -0.00277334  1
  Au  Au264  1  0.83312100  0.00509716  0.66450577  1
  Au  Au265  1  0.82299912  0.49556371  0.65873930  1
  Au  Au266  1  0.33395065  0.50229631  0.66202097  1
  Au  Au267  1  0.50099624  0.83408293  0.83399043  1
  Au  Au268  1  0.00444014  0.82558049  0.84365098  1
  Au  Au269  1  0.67270280  0.34149598  0.49876769  1
  Au  Au270  1  0.50029326  0.83535018  0.16039880  1
  Au  Au271  1  0.31967559  0.49385676  0.16399649  1
  Au  Au272  1  0.82535883  0.82663985  0.00414881  1
  Au  Au273  1  0.82552709  0.00095681  0.32335289  1
  Au  Au274  1  0.34594788  0.66477534  -0.00000345  1
  Au  Au275  1  0.82993368  0.49693451  0.84034144  1
  Au  Au276  1  0.16364191  0.33861167  0.49872860  1
  Au  Au277  1  0.34294347  0.67852630  0.49964314  1
  Au  Au278  1  0.16766116  0.66052496  0.49646220  1
  Au  Au279  1  0.00342050  0.17697077  0.66012419  1
  Au  Au280  1  0.15857492  0.49662726  0.82834261  1
  Au  Au281  1  -0.00059464  0.83082674  0.33017812  1
  Au  Au282  1  0.17565006  0.00447299  0.83961187  1
  Au  Au283  1  0.32608558  0.00791515  0.17039502  1
  Au  Au284  1  0.17918396  0.83472505  0.50223395  1
  Au  Au285  1  0.82188862  0.81946097  0.49894074  1
  Au  Au286  1  0.00229038  0.84623975  0.67137893  1
  Au  Au287  1  0.50117777  0.33194982  0.16763345  1
