# generated using pymatgen
data_Ca24Ti8Al207Au49
_symmetry_space_group_name_H-M   'P 1'
_cell_length_a   17.31839227
_cell_length_b   17.31860079
_cell_length_c   17.31915339
_cell_angle_alpha   90.00284988
_cell_angle_beta   90.00222744
_cell_angle_gamma   90.00287994
_symmetry_Int_Tables_number   1
_chemical_formula_structural   Ca24Ti8Al207Au49
_chemical_formula_sum   'Ca24 Ti8 Al207 Au49'
_cell_volume   5194.53923820
_cell_formula_units_Z   1
loop_
 _symmetry_equiv_pos_site_id
 _symmetry_equiv_pos_as_xyz
  1  'x, y, z'
loop_
 _atom_site_type_symbol
 _atom_site_label
 _atom_site_symmetry_multiplicity
 _atom_site_fract_x
 _atom_site_fract_y
 _atom_site_fract_z
 _atom_site_occupancy
  Ca  Ca0  1  0.25560581  0.00444062  -0.00108760  1
  Ca  Ca1  1  0.25601611  -0.00087554  0.50424165  1
  Ca  Ca2  1  0.25435068  0.49571695  -0.00001866  1
  Ca  Ca3  1  0.25241837  0.49917359  0.49731252  1
  Ca  Ca4  1  0.74981550  -0.00068476  0.00036095  1
  Ca  Ca5  1  0.75348334  0.00389825  0.50196541  1
  Ca  Ca6  1  0.74980077  0.49838522  -0.00106702  1
  Ca  Ca7  1  0.75206724  0.49555032  0.50394991  1
  Ca  Ca8  1  0.00121457  0.25666560  0.00179020  1
  Ca  Ca9  1  -0.00815370  0.25681642  0.49627377  1
  Ca  Ca10  1  -0.00224120  0.75228319  0.00217594  1
  Ca  Ca11  1  -0.00826763  0.74933582  0.49704700  1
  Ca  Ca12  1  0.49689496  0.25177652  -0.00509279  1
  Ca  Ca13  1  0.50112485  0.25254606  0.50230866  1
  Ca  Ca14  1  0.50694196  0.75021403  0.00070093  1
  Ca  Ca15  1  0.50126169  0.74135614  0.49632695  1
  Ca  Ca16  1  -0.00065656  0.00011933  0.24861470  1
  Ca  Ca17  1  -0.00151741  0.00221493  0.75369619  1
  Ca  Ca18  1  0.00045027  0.49980373  0.24669075  1
  Ca  Ca19  1  -0.00502035  0.49796410  0.74690720  1
  Ca  Ca20  1  0.50260298  -0.00042097  0.24517567  1
  Ca  Ca21  1  0.49857169  0.00333392  0.75499754  1
  Ca  Ca22  1  0.49926649  0.49840200  0.24809604  1
  Ca  Ca23  1  0.50267004  0.49442601  0.75352256  1
  Ti  Ti24  1  0.25089260  0.25221658  0.24893060  1
  Ti  Ti25  1  0.25244456  0.25201426  0.75124050  1
  Ti  Ti26  1  0.24755270  0.74804262  0.24925817  1
  Ti  Ti27  1  0.25106869  0.74877397  0.75330778  1
  Ti  Ti28  1  0.74873982  0.25099406  0.24576946  1
  Ti  Ti29  1  0.74895739  0.24974799  0.75211240  1
  Ti  Ti30  1  0.75201938  0.75012394  0.24713980  1
  Ti  Ti31  1  0.75017567  0.75044679  0.75202016  1
  Al  Al32  1  0.08614901  0.09516315  0.07941240  1
  Al  Al33  1  0.08753160  0.09224494  0.57819837  1
  Al  Al34  1  0.08307651  0.57363525  0.09261614  1
  Al  Al35  1  0.07618307  0.57301384  0.57549475  1
  Al  Al36  1  0.57315219  0.08053658  0.07793728  1
  Al  Al37  1  0.57755582  0.08949274  0.59977675  1
  Al  Al38  1  0.59357643  0.58782142  0.07774065  1
  Al  Al39  1  0.58307679  0.57340675  0.58543020  1
  Al  Al40  1  0.41248039  0.40254804  0.08455553  1
  Al  Al41  1  0.42582027  0.41803248  0.59075553  1
  Al  Al42  1  0.41066884  0.91645880  0.07292826  1
  Al  Al43  1  0.41589324  0.92961443  0.57902496  1
  Al  Al44  1  0.92034003  0.40650392  0.07919086  1
  Al  Al45  1  0.90647299  0.41177599  0.59118255  1
  Al  Al46  1  0.91132065  0.90180685  0.08240618  1
  Al  Al47  1  0.90667085  0.90980903  0.57672459  1
  Al  Al48  1  0.41752576  0.07854615  0.42172812  1
  Al  Al49  1  0.41211039  0.09293937  0.90863246  1
  Al  Al50  1  0.41535585  0.58610239  0.40310807  1
  Al  Al51  1  0.41472632  0.56889555  0.91076171  1
  Al  Al52  1  0.91340869  0.07686539  0.42060484  1
  Al  Al53  1  0.91269664  0.07355969  0.91865335  1
  Al  Al54  1  0.91369243  0.59060744  0.42773157  1
  Al  Al55  1  0.90764776  0.57754220  0.91889352  1
  Al  Al56  1  0.07860184  0.41832549  0.41035114  1
  Al  Al57  1  0.08214821  0.41377274  0.91881575  1
  Al  Al58  1  0.07184482  0.91863835  0.41846823  1
  Al  Al59  1  0.08452079  0.92504343  0.91837818  1
  Al  Al60  1  0.58340687  0.42036317  0.42194105  1
  Al  Al61  1  0.57532479  0.41196239  0.91312961  1
  Al  Al62  1  0.58287517  0.91559588  0.41755592  1
  Al  Al63  1  0.59826437  0.92310007  0.91385896  1
  Al  Al64  1  0.08692460  0.09318044  0.42587495  1
  Al  Al65  1  0.10135440  0.08548706  0.92305330  1
  Al  Al66  1  0.08248541  0.57912523  0.41426210  1
  Al  Al67  1  0.08054084  0.57301905  0.92111489  1
  Al  Al68  1  0.57929487  0.07624901  0.41810242  1
  Al  Al69  1  0.57716518  0.08547710  0.90261957  1
  Al  Al70  1  0.57618883  0.58319378  0.41099466  1
  Al  Al71  1  0.59065675  0.58711883  0.91941415  1
  Al  Al72  1  0.41433002  0.42647495  0.40723799  1
  Al  Al73  1  0.41184949  0.40510949  0.91088002  1
  Al  Al74  1  0.41742373  0.91919465  0.41700660  1
  Al  Al75  1  0.40869517  0.92755643  0.91338290  1
  Al  Al76  1  0.91713549  0.41066518  0.42609501  1
  Al  Al77  1  0.90801949  0.41314203  0.91572373  1
  Al  Al78  1  0.90641264  0.90991068  0.41559009  1
  Al  Al79  1  0.90195398  0.91296560  0.92055810  1
  Al  Al80  1  0.08413912  0.41141403  0.09137114  1
  Al  Al81  1  0.07042328  0.41111538  0.59109055  1
  Al  Al82  1  0.07369773  0.91162355  0.08455523  1
  Al  Al83  1  0.07193769  0.92552721  0.57719119  1
  Al  Al84  1  0.57541323  0.41068033  0.08623846  1
  Al  Al85  1  0.58748546  0.41272209  0.58987096  1
  Al  Al86  1  0.59321998  0.91319490  0.07249712  1
  Al  Al87  1  0.58715663  0.92687449  0.58102316  1
  Al  Al88  1  0.41105480  0.09633969  0.07346716  1
  Al  Al89  1  0.41806014  0.09085872  0.59657662  1
  Al  Al90  1  0.42152257  0.57236508  0.08029423  1
  Al  Al91  1  0.42092431  0.57699115  0.58119113  1
  Al  Al92  1  0.92400124  0.08106356  0.08342438  1
  Al  Al93  1  0.91693045  0.08162798  0.57948822  1
  Al  Al94  1  0.91695494  0.58683347  0.07935673  1
  Al  Al95  1  0.89980741  0.57619976  0.58724824  1
  Al  Al96  1  0.25196336  0.13787342  0.12545772  1
  Al  Al97  1  0.25287808  0.14048212  0.63331817  1
  Al  Al98  1  0.24685902  0.63072932  0.13843384  1
  Al  Al99  1  0.25163871  0.63378910  0.63760050  1
  Al  Al100  1  0.74679224  0.13176077  0.13138957  1
  Al  Al101  1  0.74739605  0.12924894  0.64063529  1
  Al  Al102  1  0.75215287  0.63174355  0.13179982  1
  Al  Al103  1  0.75446688  0.63436340  0.63264735  1
  Al  Al104  1  0.25058710  0.36649163  0.13376453  1
  Al  Al105  1  0.25489245  0.36448565  0.63841957  1
  Al  Al106  1  0.24903487  0.86374270  0.13024227  1
  Al  Al107  1  0.25344462  0.86355360  0.64033636  1
  Al  Al108  1  0.74796456  0.36758949  0.12828317  1
  Al  Al109  1  0.75162002  0.36545563  0.63757478  1
  Al  Al110  1  0.75148062  0.86850960  0.13331555  1
  Al  Al111  1  0.74988694  0.87186737  0.63912533  1
  Al  Al112  1  0.25128553  0.13975150  0.36919934  1
  Al  Al113  1  0.25745881  0.13813682  0.86969591  1
  Al  Al114  1  0.24920200  0.62867980  0.36068708  1
  Al  Al115  1  0.25224171  0.62805492  0.86690278  1
  Al  Al116  1  0.74909632  0.13676205  0.36166777  1
  Al  Al117  1  0.74530292  0.13470748  0.86836299  1
  Al  Al118  1  0.75595760  0.63950324  0.36419523  1
  Al  Al119  1  0.74880124  0.63673583  0.87243958  1
  Al  Al120  1  0.25212737  0.37324550  0.36204812  1
  Al  Al121  1  0.25561737  0.36880059  0.86778987  1
  Al  Al122  1  0.24935025  0.86105534  0.36012045  1
  Al  Al123  1  0.25123756  0.86355716  0.87254397  1
  Al  Al124  1  0.75059206  0.36444927  0.36097423  1
  Al  Al125  1  0.74785697  0.36200096  0.87218427  1
  Al  Al126  1  0.75410544  0.86070523  0.36391915  1
  Al  Al127  1  0.74894578  0.86340474  0.87308701  1
  Al  Al128  1  0.13591393  0.25399909  0.13506883  1
  Al  Al129  1  0.13650579  0.25116295  0.63635822  1
  Al  Al130  1  0.12843085  0.75015047  0.13614057  1
  Al  Al131  1  0.13333381  0.74794970  0.63889493  1
  Al  Al132  1  0.63660073  0.25171968  0.12658171  1
  Al  Al133  1  0.63539113  0.24770090  0.64111713  1
  Al  Al134  1  0.63801391  0.75158670  0.13158699  1
  Al  Al135  1  0.63962462  0.75019059  0.63655728  1
  Al  Al136  1  0.13751377  0.25160499  0.36182394  1
  Al  Al137  1  0.14164256  0.24905606  0.86888635  1
  Al  Al138  1  0.12802633  0.74974559  0.35931478  1
  Al  Al139  1  0.13790100  0.74997131  0.86864599  1
  Al  Al140  1  0.63334965  0.25668932  0.36106437  1
  Al  Al141  1  0.62966635  0.24892865  0.86687983  1
  Al  Al142  1  0.63069813  0.74928604  0.36308006  1
  Al  Al143  1  0.63463844  0.75134435  0.86849019  1
  Al  Al144  1  0.36265894  0.25281694  0.12828082  1
  Al  Al145  1  0.37000227  0.24648005  0.63563174  1
  Al  Al146  1  0.36429740  0.74841044  0.13549109  1
  Al  Al147  1  0.36315104  0.74756124  0.63850142  1
  Al  Al148  1  0.86346332  0.25519100  0.13007865  1
  Al  Al149  1  0.86445557  0.25735847  0.63391573  1
  Al  Al150  1  0.86391092  0.75074026  0.12595961  1
  Al  Al151  1  0.86404517  0.75129622  0.63355289  1
  Al  Al152  1  0.36439986  0.25335082  0.36602662  1
  Al  Al153  1  0.36749891  0.25085408  0.86871515  1
  Al  Al154  1  0.36767060  0.74665009  0.36134574  1
  Al  Al155  1  0.36764245  0.75363687  0.86680250  1
  Al  Al156  1  0.86139537  0.25391194  0.36195036  1
  Al  Al157  1  0.86242777  0.25321409  0.86623781  1
  Al  Al158  1  0.87010493  0.75150539  0.36138036  1
  Al  Al159  1  0.86073541  0.74930357  0.87416776  1
  Al  Al160  1  0.14247375  0.13729884  0.24204261  1
  Al  Al161  1  0.14083802  0.13803210  0.75501744  1
  Al  Al162  1  0.13041069  0.62949942  0.25017162  1
  Al  Al163  1  0.13539963  0.63133108  0.75218799  1
  Al  Al164  1  0.63559048  0.13220774  0.24752006  1
  Al  Al165  1  0.63129903  0.13367672  0.75509232  1
  Al  Al166  1  0.64010791  0.63695294  0.24784923  1
  Al  Al167  1  0.63873571  0.63656628  0.75466910  1
  Al  Al168  1  0.36071361  0.13867175  0.24437615  1
  Al  Al169  1  0.37010362  0.14012316  0.75470074  1
  Al  Al170  1  0.36601970  0.63083493  0.25274370  1
  Al  Al171  1  0.36628507  0.63503030  0.75540738  1
  Al  Al172  1  0.86185383  0.13696278  0.24341413  1
  Al  Al173  1  0.86404324  0.13763054  0.74852180  1
  Al  Al174  1  0.87167010  0.63850046  0.24290689  1
  Al  Al175  1  0.86372674  0.63661661  0.74898210  1
  Al  Al176  1  0.13770132  0.37026711  0.24849881  1
  Al  Al177  1  0.13637744  0.36299043  0.75333075  1
  Al  Al178  1  0.12930152  0.86479469  0.24479430  1
  Al  Al179  1  0.13515349  0.86102721  0.75365496  1
  Al  Al180  1  0.63142905  0.36382313  0.24307309  1
  Al  Al181  1  0.63573545  0.36378909  0.75553040  1
  Al  Al182  1  0.63957521  0.86962122  0.25002843  1
  Al  Al183  1  0.63963311  0.87358688  0.75785500  1
  Al  Al184  1  0.37161313  0.36210460  0.24732529  1
  Al  Al185  1  0.37076559  0.36191874  0.75670940  1
  Al  Al186  1  0.36453598  0.86343661  0.24777546  1
  Al  Al187  1  0.36402413  0.86878355  0.75858660  1
  Al  Al188  1  0.86424829  0.36704465  0.24126974  1
  Al  Al189  1  0.86424824  0.36578562  0.74858147  1
  Al  Al190  1  0.86991675  0.86193275  0.24368252  1
  Al  Al191  1  0.86218644  0.86227090  0.75209997  1
  Al  Al192  1  0.49858959  0.83009422  0.66902359  1
  Al  Al193  1  0.32953171  0.66948268  0.49847564  1
  Al  Al194  1  -0.00079261  0.32532915  0.81851123  1
  Al  Al195  1  0.00202627  0.17027131  0.82999588  1
  Al  Al196  1  0.49830680  0.17909608  0.32697537  1
  Al  Al197  1  0.81634045  0.49952448  0.81285297  1
  Al  Al198  1  0.17557901  0.67108897  0.49862653  1
  Al  Al199  1  -0.00186365  0.82344244  0.67190506  1
  Al  Al200  1  0.50213361  0.82554389  0.83241796  1
  Al  Al201  1  0.68811455  0.50038443  0.68364374  1
  Al  Al202  1  0.19290867  0.00070141  0.82671424  1
  Al  Al203  1  0.82500609  0.18544829  0.49972000  1
  Al  Al204  1  0.17430815  0.00271200  0.16959416  1
  Al  Al205  1  0.50085689  0.67106426  0.18541617  1
  Al  Al206  1  0.32774823  0.00067404  0.31703900  1
  Al  Al207  1  -0.00001283  0.16760344  0.32162360  1
  Al  Al208  1  -0.00199302  0.82838589  0.83066901  1
  Al  Al209  1  -0.00131091  0.67228000  0.82335053  1
  Al  Al210  1  0.68647136  0.32798202  0.50054429  1
  Al  Al211  1  0.32958992  0.49900648  0.68681011  1
  Al  Al212  1  0.68066827  0.67111903  0.49854263  1
  Al  Al213  1  0.32673359  0.00316530  0.69097113  1
  Al  Al214  1  0.32663575  0.82397296  0.49973617  1
  Al  Al215  1  0.17091647  0.67617288  0.00284372  1
  Al  Al216  1  0.18666218  0.31638734  0.00073547  1
  Al  Al217  1  0.17151919  0.00298155  0.33031458  1
  Al  Al218  1  0.82003357  -0.00049639  0.31910632  1
  Al  Al219  1  0.49945048  0.18770445  0.16968255  1
  Al  Al220  1  0.33042073  0.67980880  -0.00038487  1
  Al  Al221  1  0.67598939  0.17830145  0.50039177  1
  Al  Al222  1  0.68825282  0.82483161  0.50134365  1
  Al  Al223  1  0.81027110  -0.00045795  0.81820710  1
  Al  Al224  1  0.16835687  0.31926772  0.49979848  1
  Al  Al225  1  0.32072074  0.49821552  0.18537203  1
  Al  Al226  1  0.82295948  0.18280816  -0.00032837  1
  Al  Al227  1  0.00002798  0.18964363  0.17337315  1
  Al  Al228  1  0.16830088  -0.00026042  0.67720796  1
  Al  Al229  1  -0.00109591  0.32608379  0.31075778  1
  Al  Al230  1  0.32848843  0.32544968  0.50026824  1
  Al  Al231  1  0.50208141  0.83052939  0.17575150  1
  Al  Al232  1  0.17605302  0.82922635  0.50134837  1
  Al  Al233  1  -0.00139894  0.18703393  0.67107605  1
  Al  Al234  1  0.17151370  0.49812880  0.67861732  1
  Al  Al235  1  0.83245184  0.50044124  0.32694362  1
  Al  Al236  1  0.50242429  0.31479463  0.68740757  1
  Al  Al237  1  0.67407906  0.50071734  0.31973583  1
  Al  Al238  1  0.50232918  0.67191414  0.67824623  1
  Au  Au239  1  0.17223532  0.83845228  0.00011966  1
  Au  Au240  1  0.83525181  0.49532867  0.15987747  1
  Au  Au241  1  0.50337816  0.65952145  0.17333671  1
  Au  Au242  1  0.66379575  0.16706263  0.50269476  1
  Au  Au243  1  0.17243754  0.49958368  0.32597562  1
  Au  Au244  1  0.17068479  0.65901137  0.00744324  1
  Au  Au245  1  0.17764337  0.00654541  0.66461305  1
  Au  Au246  1  0.32435560  0.49547380  0.16856188  1
  Au  Au247  1  -0.00323402  0.83734076  0.32122787  1
  Au  Au248  1  0.50125835  0.83492054  0.16007816  1
  Au  Au249  1  -0.00169534  0.66975452  0.33491465  1
  Au  Au250  1  0.66964262  0.49799681  0.83095631  1
  Au  Au251  1  0.00013224  0.67331135  0.16591726  1
  Au  Au252  1  0.67218916  -0.00082472  0.33113477  1
  Au  Au253  1  -0.00363554  0.83606732  0.67435379  1
  Au  Au254  1  0.82680516  0.49954023  0.34237486  1
  Au  Au255  1  0.68393878  0.84131200  0.50151809  1
  Au  Au256  1  0.66395373  0.49709203  0.16952021  1
  Au  Au257  1  0.00686312  0.17177033  0.84612002  1
  Au  Au258  1  0.17492551  0.49952716  0.66662223  1
  Au  Au259  1  0.67246202  0.65648245  0.49858489  1
  Au  Au260  1  0.82093805  0.67285273  0.00091880  1
  Au  Au261  1  -0.00168005  0.66913442  0.83992274  1
  Au  Au262  1  -0.00150060  0.18301385  0.65467070  1
  Au  Au263  1  -0.00518139  0.66537868  0.65461365  1
  Au  Au264  1  0.50120189  0.65910643  0.82780133  1
  Au  Au265  1  0.49658200  0.82479268  0.65316424  1
  Au  Au266  1  0.84121010  -0.00335252  0.17110522  1
  Au  Au267  1  0.17516404  0.49606425  0.83296927  1
  Au  Au268  1  0.83318569  0.00089363  0.67116841  1
  Au  Au269  1  0.16330031  -0.00179340  0.16566734  1
  Au  Au270  1  0.34530440  0.67196116  -0.00372442  1
  Au  Au271  1  0.66874845  0.00273213  0.16152944  1
  Au  Au272  1  0.49764554  0.82308550  0.34006356  1
  Au  Au273  1  0.50224348  0.83641023  0.83870523  1
  Au  Au274  1  0.16115899  0.82100321  0.49982097  1
  Au  Au275  1  0.17819505  0.00424953  0.34627119  1
  Au  Au276  1  0.17248614  0.32590726  0.00183065  1
  Au  Au277  1  0.83455606  0.17092682  0.00168360  1
  Au  Au278  1  0.65791794  0.16727887  -0.00531666  1
  Au  Au279  1  0.50310390  0.34156526  0.32435422  1
  Au  Au280  1  0.33896185  0.33788808  0.50077531  1
  Au  Au281  1  0.15193361  0.32342919  0.49964417  1
  Au  Au282  1  0.32630161  0.16058856  0.50216212  1
  Au  Au283  1  0.66744239  0.33520097  -0.00082819  1
  Au  Au284  1  0.33842796  0.00476751  0.16579732  1
  Au  Au285  1  0.49671131  0.16333222  0.32062423  1
  Au  Au286  1  -0.00503561  0.17602415  0.33550396  1
  Au  Au287  1  0.66395985  0.00286424  0.68505076  1
