# generated using pymatgen
data_Ca24Ti8Al207Au49
_symmetry_space_group_name_H-M   'P 1'
_cell_length_a   17.32050490
_cell_length_b   17.32167254
_cell_length_c   17.32045953
_cell_angle_alpha   90.00495107
_cell_angle_beta   89.99604487
_cell_angle_gamma   89.99997586
_symmetry_Int_Tables_number   1
_chemical_formula_structural   Ca24Ti8Al207Au49
_chemical_formula_sum   'Ca24 Ti8 Al207 Au49'
_cell_volume   5196.48621233
_cell_formula_units_Z   1
loop_
 _symmetry_equiv_pos_site_id
 _symmetry_equiv_pos_as_xyz
  1  'x, y, z'
loop_
 _atom_site_type_symbol
 _atom_site_label
 _atom_site_symmetry_multiplicity
 _atom_site_fract_x
 _atom_site_fract_y
 _atom_site_fract_z
 _atom_site_occupancy
  Ca  Ca0  1  0.25346981  0.00070439  0.00101764  1
  Ca  Ca1  1  0.25384350  -0.00209920  0.49977680  1
  Ca  Ca2  1  0.25103818  0.49753868  0.00177556  1
  Ca  Ca3  1  0.25240229  0.50154666  0.50291842  1
  Ca  Ca4  1  0.74453673  -0.00244946  0.00240179  1
  Ca  Ca5  1  0.74626114  -0.00307776  0.50083056  1
  Ca  Ca6  1  0.75114700  0.50191955  -0.00340424  1
  Ca  Ca7  1  0.74618247  0.50250318  0.50205941  1
  Ca  Ca8  1  0.00283595  0.24797419  0.00455114  1
  Ca  Ca9  1  0.00262685  0.24801100  0.49873494  1
  Ca  Ca10  1  0.00074991  0.74478120  -0.00131179  1
  Ca  Ca11  1  0.00340169  0.75090830  0.50325266  1
  Ca  Ca12  1  0.49523367  0.24107804  0.00380757  1
  Ca  Ca13  1  0.49678283  0.24692348  0.49845301  1
  Ca  Ca14  1  0.50203698  0.75297669  -0.00381269  1
  Ca  Ca15  1  0.49502386  0.75270402  0.50088419  1
  Ca  Ca16  1  0.00261998  0.00031066  0.24565447  1
  Ca  Ca17  1  0.00196902  -0.00534879  0.74617559  1
  Ca  Ca18  1  0.00170404  0.50431248  0.24801144  1
  Ca  Ca19  1  0.00010143  0.50525232  0.74812872  1
  Ca  Ca20  1  0.49616807  0.00178470  0.25534558  1
  Ca  Ca21  1  0.49666554  -0.00183911  0.74859738  1
  Ca  Ca22  1  0.49570879  0.50025963  0.25090855  1
  Ca  Ca23  1  0.49994756  0.50411293  0.74427686  1
  Ti  Ti24  1  0.25110635  0.25068782  0.25001919  1
  Ti  Ti25  1  0.25024468  0.24949422  0.74910367  1
  Ti  Ti26  1  0.25098160  0.74856537  0.25333531  1
  Ti  Ti27  1  0.25088277  0.75109095  0.74765711  1
  Ti  Ti28  1  0.74862847  0.24917950  0.25029566  1
  Ti  Ti29  1  0.74873092  0.24850413  0.74872411  1
  Ti  Ti30  1  0.74885312  0.75077127  0.25176634  1
  Ti  Ti31  1  0.74978436  0.75161518  0.74920459  1
  Al  Al32  1  0.08464482  0.08771466  0.09020179  1
  Al  Al33  1  0.08399040  0.07819174  0.58472249  1
  Al  Al34  1  0.07926597  0.57798711  0.09321398  1
  Al  Al35  1  0.08936833  0.58880300  0.59634796  1
  Al  Al36  1  0.57917163  0.08679910  0.07977615  1
  Al  Al37  1  0.58733970  0.08379013  0.57672475  1
  Al  Al38  1  0.59224316  0.58720321  0.07148439  1
  Al  Al39  1  0.58319420  0.58521235  0.58702145  1
  Al  Al40  1  0.41218624  0.41649857  0.08138757  1
  Al  Al41  1  0.41171164  0.42698424  0.58048794  1
  Al  Al42  1  0.40841528  0.92464246  0.09496511  1
  Al  Al43  1  0.41249499  0.91601883  0.57148887  1
  Al  Al44  1  0.92818893  0.42169455  0.09535086  1
  Al  Al45  1  0.92241686  0.42271489  0.58238462  1
  Al  Al46  1  0.92152877  0.91829923  0.08511570  1
  Al  Al47  1  0.92110958  0.90862341  0.58578842  1
  Al  Al48  1  0.40898569  0.07717325  0.41192129  1
  Al  Al49  1  0.40782304  0.08537380  0.92423281  1
  Al  Al50  1  0.40090633  0.58425656  0.42029578  1
  Al  Al51  1  0.41850647  0.58390628  0.91788364  1
  Al  Al52  1  0.91390314  0.08032434  0.41906311  1
  Al  Al53  1  0.92164686  0.07147256  0.92311282  1
  Al  Al54  1  0.92082313  0.58407676  0.42107466  1
  Al  Al55  1  0.92022254  0.59121703  0.91404029  1
  Al  Al56  1  0.08550636  0.42469710  0.41482178  1
  Al  Al57  1  0.08498499  0.42531300  0.91814262  1
  Al  Al58  1  0.08677476  0.91965323  0.42077762  1
  Al  Al59  1  0.08576930  0.91490466  0.89887938  1
  Al  Al60  1  0.57406433  0.41654840  0.42159267  1
  Al  Al61  1  0.58016379  0.42549381  0.91311868  1
  Al  Al62  1  0.57704874  0.90943905  0.41344652  1
  Al  Al63  1  0.58530246  0.92187699  0.91841414  1
  Al  Al64  1  0.08524422  0.07884430  0.41759548  1
  Al  Al65  1  0.09281635  0.07404133  0.91509679  1
  Al  Al66  1  0.08817701  0.58504654  0.41532128  1
  Al  Al67  1  0.07941494  0.58652898  0.90694594  1
  Al  Al68  1  0.58324237  0.08251483  0.41824828  1
  Al  Al69  1  0.59067457  0.08263784  0.92104643  1
  Al  Al70  1  0.57992108  0.58000458  0.42589998  1
  Al  Al71  1  0.59323010  0.58838146  0.91299413  1
  Al  Al72  1  0.41209131  0.42176762  0.41169175  1
  Al  Al73  1  0.41313847  0.41687159  0.91938821  1
  Al  Al74  1  0.41171750  0.91183417  0.40730712  1
  Al  Al75  1  0.41700478  0.92297649  0.91854360  1
  Al  Al76  1  0.92115961  0.42163730  0.41806872  1
  Al  Al77  1  0.92750861  0.43159833  0.92398131  1
  Al  Al78  1  0.91362788  0.91819819  0.42167108  1
  Al  Al79  1  0.92496282  0.90917836  0.91189621  1
  Al  Al80  1  0.08621910  0.41687718  0.09925166  1
  Al  Al81  1  0.09172858  0.42676872  0.59242917  1
  Al  Al82  1  0.07921480  0.92124595  0.08779737  1
  Al  Al83  1  0.08447637  0.91093459  0.58937825  1
  Al  Al84  1  0.57712359  0.42429326  0.07853688  1
  Al  Al85  1  0.58697752  0.42334273  0.58583427  1
  Al  Al86  1  0.57678139  0.91822753  0.07860471  1
  Al  Al87  1  0.58467790  0.91234147  0.57486516  1
  Al  Al88  1  0.40573970  0.08680148  0.08896035  1
  Al  Al89  1  0.41294713  0.08151438  0.57321978  1
  Al  Al90  1  0.41235353  0.57728551  0.07761278  1
  Al  Al91  1  0.40737804  0.59028960  0.58383653  1
  Al  Al92  1  0.92477244  0.08614816  0.09362269  1
  Al  Al93  1  0.92065124  0.08252384  0.57850522  1
  Al  Al94  1  0.91847080  0.58504671  0.08620514  1
  Al  Al95  1  0.92438325  0.58912241  0.58837753  1
  Al  Al96  1  0.25262068  0.13636688  0.13038285  1
  Al  Al97  1  0.24846282  0.13511206  0.63065330  1
  Al  Al98  1  0.25233239  0.62969131  0.13914844  1
  Al  Al99  1  0.25201676  0.63550866  0.62964908  1
  Al  Al100  1  0.74672934  0.13648915  0.13542143  1
  Al  Al101  1  0.74837605  0.12855631  0.63673210  1
  Al  Al102  1  0.74893610  0.63818868  0.13087711  1
  Al  Al103  1  0.74679560  0.63817064  0.63585974  1
  Al  Al104  1  0.25166352  0.37142283  0.13893488  1
  Al  Al105  1  0.24932724  0.37001173  0.63645533  1
  Al  Al106  1  0.25535360  0.86446307  0.13728788  1
  Al  Al107  1  0.24941491  0.86335239  0.62794059  1
  Al  Al108  1  0.74819941  0.36312130  0.13478669  1
  Al  Al109  1  0.74213050  0.36601540  0.63462512  1
  Al  Al110  1  0.74910194  0.86259351  0.13905682  1
  Al  Al111  1  0.74934196  0.86783519  0.63135459  1
  Al  Al112  1  0.25172084  0.13620204  0.37126651  1
  Al  Al113  1  0.24968820  0.13793978  0.87028300  1
  Al  Al114  1  0.25264822  0.63458523  0.37236230  1
  Al  Al115  1  0.24969871  0.63496241  0.86251141  1
  Al  Al116  1  0.75033433  0.13385486  0.36524101  1
  Al  Al117  1  0.75089389  0.13521096  0.86657607  1
  Al  Al118  1  0.74785701  0.63661087  0.36547496  1
  Al  Al119  1  0.74837900  0.63753501  0.86769770  1
  Al  Al120  1  0.25264581  0.36798036  0.36317526  1
  Al  Al121  1  0.24886625  0.36586210  0.86218770  1
  Al  Al122  1  0.25597456  0.86297931  0.37339242  1
  Al  Al123  1  0.24760192  0.86219790  0.86486385  1
  Al  Al124  1  0.74941366  0.36598321  0.36389156  1
  Al  Al125  1  0.74475230  0.36333817  0.86471922  1
  Al  Al126  1  0.74809431  0.86042090  0.37379133  1
  Al  Al127  1  0.75194006  0.86180821  0.86321644  1
  Al  Al128  1  0.13516663  0.24876710  0.13600703  1
  Al  Al129  1  0.13671206  0.24961639  0.63732952  1
  Al  Al130  1  0.13771695  0.75064648  0.13768060  1
  Al  Al131  1  0.13673306  0.75020888  0.62938182  1
  Al  Al132  1  0.63457570  0.24605678  0.13377642  1
  Al  Al133  1  0.63479730  0.24637959  0.62887692  1
  Al  Al134  1  0.63294170  0.75193467  0.13582948  1
  Al  Al135  1  0.63281321  0.75551095  0.63346399  1
  Al  Al136  1  0.13624428  0.24815500  0.36250306  1
  Al  Al137  1  0.13350972  0.25039687  0.86228439  1
  Al  Al138  1  0.13841593  0.74720956  0.37243307  1
  Al  Al139  1  0.13226695  0.74792636  0.85991519  1
  Al  Al140  1  0.63728939  0.24750234  0.37125682  1
  Al  Al141  1  0.63373358  0.24351553  0.86430553  1
  Al  Al142  1  0.62912627  0.75482469  0.36620420  1
  Al  Al143  1  0.63064090  0.74882073  0.86227814  1
  Al  Al144  1  0.36267525  0.24851226  0.13910668  1
  Al  Al145  1  0.36248620  0.24906674  0.63329189  1
  Al  Al146  1  0.36488583  0.75134742  0.14121889  1
  Al  Al147  1  0.36253242  0.75054493  0.62875787  1
  Al  Al148  1  0.86837483  0.24933021  0.13563216  1
  Al  Al149  1  0.86206941  0.25007888  0.63738065  1
  Al  Al150  1  0.86665211  0.74757159  0.13487313  1
  Al  Al151  1  0.86665461  0.75480600  0.63636773  1
  Al  Al152  1  0.36359049  0.24548051  0.36322235  1
  Al  Al153  1  0.36488239  0.24737091  0.86365226  1
  Al  Al154  1  0.36490830  0.75152314  0.36850815  1
  Al  Al155  1  0.36897122  0.75093436  0.86019662  1
  Al  Al156  1  0.86614360  0.24838943  0.36368247  1
  Al  Al157  1  0.86420330  0.25460407  0.86518188  1
  Al  Al158  1  0.86766690  0.75185313  0.36717066  1
  Al  Al159  1  0.86787567  0.74610012  0.86516001  1
  Al  Al160  1  0.13964209  0.13431031  0.24754304  1
  Al  Al161  1  0.14067630  0.12729313  0.75229917  1
  Al  Al162  1  0.13694813  0.63410446  0.24918746  1
  Al  Al163  1  0.13959795  0.63194870  0.74518072  1
  Al  Al164  1  0.63414905  0.13541436  0.25497627  1
  Al  Al165  1  0.63072571  0.13477213  0.74515353  1
  Al  Al166  1  0.63419193  0.63430965  0.24947559  1
  Al  Al167  1  0.63504337  0.63645008  0.74810051  1
  Al  Al168  1  0.35969733  0.12747878  0.25167837  1
  Al  Al169  1  0.36585111  0.13475402  0.74875044  1
  Al  Al170  1  0.36394747  0.62881014  0.25580999  1
  Al  Al171  1  0.36193034  0.63160326  0.74324373  1
  Al  Al172  1  0.86380929  0.13581019  0.24791834  1
  Al  Al173  1  0.86199561  0.12914358  0.75074267  1
  Al  Al174  1  0.86452852  0.63701442  0.24949300  1
  Al  Al175  1  0.86506951  0.63774055  0.74958163  1
  Al  Al176  1  0.13614870  0.36831986  0.24609245  1
  Al  Al177  1  0.13225874  0.36782945  0.74854165  1
  Al  Al178  1  0.13961936  0.86247030  0.25517569  1
  Al  Al179  1  0.13767609  0.86667908  0.74602050  1
  Al  Al180  1  0.63475661  0.36559021  0.25014752  1
  Al  Al181  1  0.63239104  0.36162783  0.74736274  1
  Al  Al182  1  0.62781486  0.86298920  0.25295189  1
  Al  Al183  1  0.62951661  0.86460986  0.74815016  1
  Al  Al184  1  0.36420347  0.37001784  0.25091986  1
  Al  Al185  1  0.36403202  0.36791140  0.74463323  1
  Al  Al186  1  0.36790737  0.86493553  0.25587855  1
  Al  Al187  1  0.36843055  0.86408701  0.74734231  1
  Al  Al188  1  0.86523785  0.36396258  0.24848963  1
  Al  Al189  1  0.86922832  0.36379724  0.74629423  1
  Al  Al190  1  0.86265624  0.86436686  0.25427906  1
  Al  Al191  1  0.86362317  0.86979782  0.74671972  1
  Al  Al192  1  0.32007590  -0.00112782  0.67148268  1
  Al  Al193  1  0.17204192  0.32233509  0.00211813  1
  Al  Al194  1  0.82087723  0.32875407  0.49978772  1
  Al  Al195  1  0.32380268  0.68245371  -0.00027624  1
  Al  Al196  1  0.17541673  0.83332634  0.00042227  1
  Al  Al197  1  0.00009975  0.17345146  0.83100458  1
  Al  Al198  1  0.83081627  0.33339191  0.00253104  1
  Al  Al199  1  0.49808342  0.68019467  0.67898197  1
  Al  Al200  1  0.49727901  0.17327048  0.67359079  1
  Al  Al201  1  0.67649656  -0.00397083  0.32643690  1
  Al  Al202  1  0.82410513  -0.00057255  0.18022411  1
  Al  Al203  1  0.67639746  0.49985763  0.81172664  1
  Al  Al204  1  0.82833164  0.82000329  0.00178806  1
  Al  Al205  1  0.18592323  -0.00076437  0.17265509  1
  Al  Al206  1  0.81130469  0.50136460  0.66985470  1
  Al  Al207  1  0.66907430  0.31683711  -0.00106932  1
  Al  Al208  1  0.67286387  0.68468237  0.50051704  1
  Al  Al209  1  0.32569347  0.31339691  0.00096099  1
  Al  Al210  1  0.82781758  0.50020841  0.82713729  1
  Al  Al211  1  0.68017292  0.00011176  0.81793466  1
  Al  Al212  1  0.16920049  0.66957370  0.00470190  1
  Al  Al213  1  -0.00044212  0.81102572  0.80475991  1
  Al  Al214  1  0.17381012  0.32155080  0.49911513  1
  Al  Al215  1  0.82136343  0.50098361  0.18067137  1
  Al  Al216  1  0.00211416  0.32593614  0.31086647  1
  Al  Al217  1  0.32149454  0.50272898  0.82114290  1
  Al  Al218  1  0.31430894  0.00076392  0.82565920  1
  Al  Al219  1  0.49885276  0.31841334  0.32439446  1
  Al  Al220  1  0.67240743  0.81790949  -0.00115828  1
  Al  Al221  1  0.82675866  0.67784064  0.50225118  1
  Al  Al222  1  0.00218374  0.68099403  0.31231236  1
  Al  Al223  1  0.00097475  0.81388602  0.18168776  1
  Al  Al224  1  0.32953288  0.32071186  0.49849804  1
  Al  Al225  1  0.49940130  0.32753326  0.17153444  1
  Al  Al226  1  0.66901263  0.00011416  0.17169288  1
  Al  Al227  1  0.49937709  0.67544934  0.16831813  1
  Al  Al228  1  0.81554391  0.17165709  0.50165051  1
  Al  Al229  1  0.19552872  -0.00090633  0.32726551  1
  Al  Al230  1  0.49791654  0.17335023  0.18332996  1
  Al  Al231  1  -0.00002282  0.17919612  0.67384420  1
  Al  Al232  1  0.49667080  0.67741762  0.33170803  1
  Al  Al233  1  0.49651466  0.32142672  0.82380764  1
  Al  Al234  1  0.67385005  0.49699598  0.32498805  1
  Al  Al235  1  0.00095335  0.17047503  0.31224042  1
  Al  Al236  1  0.00204452  0.69132446  0.69058416  1
  Al  Al237  1  0.82038611  0.17046037  0.00231921  1
  Al  Al238  1  0.19004466  0.50124255  0.31114985  1
  Au  Au239  1  0.82627064  0.82664878  0.50240239  1
  Au  Au240  1  0.33064059  0.50050274  0.82957254  1
  Au  Au241  1  0.66421817  -0.00387777  0.66798273  1
  Au  Au242  1  0.17968314  0.50288361  0.32495928  1
  Au  Au243  1  0.00078091  0.67088903  0.32567264  1
  Au  Au244  1  0.49711510  0.16737990  0.66247587  1
  Au  Au245  1  0.50141021  0.83831143  0.83108573  1
  Au  Au246  1  0.83673987  0.32214805  0.49957221  1
  Au  Au247  1  0.49583193  0.34274095  0.66883219  1
  Au  Au248  1  0.17473274  0.83165927  0.50034638  1
  Au  Au249  1  0.67436447  0.50148650  0.15946204  1
  Au  Au250  1  0.17375449  0.33845487  0.00628839  1
  Au  Au251  1  0.16311008  0.83100771  -0.00089943  1
  Au  Au252  1  0.00242195  0.15741611  0.82554809  1
  Au  Au253  1  0.17642680  0.33800133  0.50282276  1
  Au  Au254  1  0.65454245  0.32524944  -0.00194418  1
  Au  Au255  1  0.33969268  0.83050049  0.00225524  1
  Au  Au256  1  0.00057807  0.84339494  0.32680184  1
  Au  Au257  1  0.49536040  0.67183947  0.34679735  1
  Au  Au258  1  0.17311566  0.65224116  0.00579791  1
  Au  Au259  1  0.49990660  0.16477320  0.83977211  1
  Au  Au260  1  0.17690352  0.66437950  0.50319596  1
  Au  Au261  1  0.84554921  0.33943136  0.00440247  1
  Au  Au262  1  0.66500941  0.49899567  0.33371800  1
  Au  Au263  1  0.82557294  -0.00075079  0.33002116  1
  Au  Au264  1  0.50008037  0.66964490  0.15338260  1
  Au  Au265  1  0.50025639  0.66754459  0.82920920  1
  Au  Au266  1  0.83876790  0.00004726  0.66724842  1
  Au  Au267  1  0.17025584  -0.00165272  0.67740999  1
  Au  Au268  1  0.17910005  -0.00099822  0.32254261  1
  Au  Au269  1  0.82748116  0.50208478  0.67500574  1
  Au  Au270  1  0.49712953  0.16808590  0.33474285  1
  Au  Au271  1  0.82771897  -0.00510613  0.83556890  1
  Au  Au272  1  -0.00023453  0.16452478  0.32841774  1
  Au  Au273  1  0.82740770  0.15542277  0.00426177  1
  Au  Au274  1  0.82561419  0.66436273  0.00025285  1
  Au  Au275  1  0.49832820  0.33054435  0.83221198  1
  Au  Au276  1  0.49452976  0.82920865  0.65821568  1
  Au  Au277  1  0.49833867  0.84277203  0.17840673  1
  Au  Au278  1  0.00387063  0.32974558  0.66371345  1
  Au  Au279  1  0.17563737  0.16151846  0.50176442  1
  Au  Au280  1  0.16464324  0.50157974  0.81599490  1
  Au  Au281  1  0.65846727  0.32373578  0.50111124  1
  Au  Au282  1  -0.00142560  0.33948763  0.83176346  1
  Au  Au283  1  0.00243821  0.33991292  0.32123059  1
  Au  Au284  1  0.17660082  0.16025724  0.00071653  1
  Au  Au285  1  0.32712645  0.50026313  0.17260303  1
  Au  Au286  1  0.83151923  0.50384264  0.33060003  1
  Au  Au287  1  0.82475433  0.83194829  0.00351590  1
