# generated using pymatgen
data_Ca24Ti8Al207Au49
_symmetry_space_group_name_H-M   'P 1'
_cell_length_a   17.31743946
_cell_length_b   17.31667603
_cell_length_c   17.31777454
_cell_angle_alpha   89.99586712
_cell_angle_beta   90.00186075
_cell_angle_gamma   89.99834205
_symmetry_Int_Tables_number   1
_chemical_formula_structural   Ca24Ti8Al207Au49
_chemical_formula_sum   'Ca24 Ti8 Al207 Au49'
_cell_volume   5193.26267316
_cell_formula_units_Z   1
loop_
 _symmetry_equiv_pos_site_id
 _symmetry_equiv_pos_as_xyz
  1  'x, y, z'
loop_
 _atom_site_type_symbol
 _atom_site_label
 _atom_site_symmetry_multiplicity
 _atom_site_fract_x
 _atom_site_fract_y
 _atom_site_fract_z
 _atom_site_occupancy
  Ca  Ca0  1  0.24649960  0.00045012  -0.00577733  1
  Ca  Ca1  1  0.25324530  -0.00405252  0.50649060  1
  Ca  Ca2  1  0.25392835  0.50104392  0.00113713  1
  Ca  Ca3  1  0.25235586  0.50136340  0.49760771  1
  Ca  Ca4  1  0.75069601  -0.00084384  0.00212784  1
  Ca  Ca5  1  0.75258273  -0.00288067  0.49735168  1
  Ca  Ca6  1  0.74747069  0.50470472  -0.00141682  1
  Ca  Ca7  1  0.75132084  0.50224779  0.50136155  1
  Ca  Ca8  1  0.00290591  0.24630784  0.00215024  1
  Ca  Ca9  1  -0.00609271  0.24738148  0.50072990  1
  Ca  Ca10  1  -0.00076075  0.75237332  -0.00497395  1
  Ca  Ca11  1  -0.00694801  0.74885319  0.50300801  1
  Ca  Ca12  1  0.49702035  0.25262805  -0.00679214  1
  Ca  Ca13  1  0.50443026  0.24654261  0.50625686  1
  Ca  Ca14  1  0.50296605  0.74961731  -0.00545194  1
  Ca  Ca15  1  0.50645644  0.74884631  0.50572506  1
  Ca  Ca16  1  -0.00597096  0.00042092  0.25171820  1
  Ca  Ca17  1  -0.00423846  -0.00477279  0.74961655  1
  Ca  Ca18  1  -0.00214417  0.49921758  0.25031232  1
  Ca  Ca19  1  -0.00431966  0.50442309  0.74659623  1
  Ca  Ca20  1  0.50282706  -0.00229502  0.24931921  1
  Ca  Ca21  1  0.50149745  0.00047699  0.74935748  1
  Ca  Ca22  1  0.50246183  0.50186306  0.24590166  1
  Ca  Ca23  1  0.50359020  0.50048441  0.75398810  1
  Ti  Ti24  1  0.24797939  0.25153291  0.24735349  1
  Ti  Ti25  1  0.25100622  0.24648297  0.75204260  1
  Ti  Ti26  1  0.24985914  0.74696490  0.24749908  1
  Ti  Ti27  1  0.25057172  0.75071132  0.75132474  1
  Ti  Ti28  1  0.75217516  0.25026009  0.25116935  1
  Ti  Ti29  1  0.74908232  0.24937075  0.74860212  1
  Ti  Ti30  1  0.74848366  0.74976756  0.25135566  1
  Ti  Ti31  1  0.75015549  0.74866927  0.74896043  1
  Al  Al32  1  0.07966715  0.08392000  0.08290754  1
  Al  Al33  1  0.08277063  0.07122159  0.58700710  1
  Al  Al34  1  0.08614091  0.57932667  0.08001388  1
  Al  Al35  1  0.07420446  0.59547615  0.58494629  1
  Al  Al36  1  0.57996353  0.07057812  0.07900519  1
  Al  Al37  1  0.58251589  0.08405945  0.58094622  1
  Al  Al38  1  0.59794387  0.58671278  0.08046800  1
  Al  Al39  1  0.59015730  0.58388912  0.58689082  1
  Al  Al40  1  0.41133111  0.41929960  0.07303469  1
  Al  Al41  1  0.42807402  0.42130026  0.58609651  1
  Al  Al42  1  0.42676548  0.90400875  0.08320797  1
  Al  Al43  1  0.41714613  0.92472652  0.59145287  1
  Al  Al44  1  0.91088363  0.42135639  0.09066551  1
  Al  Al45  1  0.89768263  0.42836493  0.58255037  1
  Al  Al46  1  0.91756954  0.91899367  0.07244161  1
  Al  Al47  1  0.90806215  0.90632711  0.59127556  1
  Al  Al48  1  0.42107656  0.09199215  0.43322813  1
  Al  Al49  1  0.41643185  0.08962952  0.90846434  1
  Al  Al50  1  0.39768236  0.58664194  0.41776200  1
  Al  Al51  1  0.41925917  0.59066499  0.91286201  1
  Al  Al52  1  0.90454144  0.08554721  0.41686921  1
  Al  Al53  1  0.92000578  0.08098544  0.90134957  1
  Al  Al54  1  0.91431202  0.58611039  0.42868001  1
  Al  Al55  1  0.91157306  0.59164183  0.91569680  1
  Al  Al56  1  0.08272505  0.42856549  0.40495026  1
  Al  Al57  1  0.08077183  0.41711261  0.92700550  1
  Al  Al58  1  0.06441026  0.92451408  0.42903429  1
  Al  Al59  1  0.08760553  0.91866327  0.91050587  1
  Al  Al60  1  0.59206579  0.42087402  0.42532230  1
  Al  Al61  1  0.58575325  0.41337234  0.91997061  1
  Al  Al62  1  0.59368612  0.90553023  0.41726226  1
  Al  Al63  1  0.58691982  0.90553493  0.92356213  1
  Al  Al64  1  0.07157386  0.08376086  0.42349325  1
  Al  Al65  1  0.08154578  0.08187309  0.90701505  1
  Al  Al66  1  0.09097654  0.58423532  0.41587828  1
  Al  Al67  1  0.07500480  0.59109324  0.91719478  1
  Al  Al68  1  0.58566298  0.08078257  0.41965295  1
  Al  Al69  1  0.57468091  0.08623230  0.90964187  1
  Al  Al70  1  0.58896688  0.58127418  0.42350404  1
  Al  Al71  1  0.58357224  0.59387925  0.91641670  1
  Al  Al72  1  0.40764306  0.42692797  0.40985403  1
  Al  Al73  1  0.41521146  0.41439556  0.91533805  1
  Al  Al74  1  0.43382536  0.91768556  0.42624670  1
  Al  Al75  1  0.41785537  0.91444924  0.91563167  1
  Al  Al76  1  0.91162425  0.41347570  0.42281269  1
  Al  Al77  1  0.91550334  0.42266703  0.91860486  1
  Al  Al78  1  0.90152072  0.91206524  0.41976218  1
  Al  Al79  1  0.91018483  0.91796860  0.90614658  1
  Al  Al80  1  0.08548969  0.41488121  0.08649092  1
  Al  Al81  1  0.06984004  0.43316498  0.56862618  1
  Al  Al82  1  0.08035530  0.91933286  0.07308875  1
  Al  Al83  1  0.07134834  0.91012123  0.59867655  1
  Al  Al84  1  0.59537509  0.42265332  0.08134641  1
  Al  Al85  1  0.59033157  0.41407750  0.58920557  1
  Al  Al86  1  0.58836734  0.90449900  0.08720771  1
  Al  Al87  1  0.58656441  0.90978152  0.57702049  1
  Al  Al88  1  0.42292955  0.08437260  0.07073105  1
  Al  Al89  1  0.40447526  0.08543041  0.59108617  1
  Al  Al90  1  0.41184008  0.58583084  0.07506393  1
  Al  Al91  1  0.41376025  0.59214064  0.57914380  1
  Al  Al92  1  0.92436492  0.08400421  0.08800945  1
  Al  Al93  1  0.90254165  0.08037350  0.58409051  1
  Al  Al94  1  0.89941523  0.58373569  0.08029432  1
  Al  Al95  1  0.90915746  0.59275559  0.59046225  1
  Al  Al96  1  0.24795482  0.13879298  0.12733790  1
  Al  Al97  1  0.25228840  0.12419012  0.64077891  1
  Al  Al98  1  0.25052264  0.63339505  0.12837008  1
  Al  Al99  1  0.25531470  0.63667422  0.63556466  1
  Al  Al100  1  0.74982121  0.13573594  0.13379731  1
  Al  Al101  1  0.75346635  0.13211655  0.63026402  1
  Al  Al102  1  0.74742484  0.63862641  0.12701947  1
  Al  Al103  1  0.75407274  0.63792846  0.62741214  1
  Al  Al104  1  0.24877079  0.36668203  0.13127565  1
  Al  Al105  1  0.25579240  0.36567806  0.63862221  1
  Al  Al106  1  0.25204403  0.86189214  0.13371440  1
  Al  Al107  1  0.25179286  0.87089170  0.63990659  1
  Al  Al108  1  0.75202760  0.36404163  0.13118146  1
  Al  Al109  1  0.75239789  0.36485261  0.63365370  1
  Al  Al110  1  0.74681972  0.86513772  0.13210890  1
  Al  Al111  1  0.75561381  0.86330727  0.63272137  1
  Al  Al112  1  0.25150970  0.13700122  0.36428384  1
  Al  Al113  1  0.25119339  0.13477144  0.87061830  1
  Al  Al114  1  0.24931784  0.63143178  0.36602372  1
  Al  Al115  1  0.25264162  0.63962717  0.87112065  1
  Al  Al116  1  0.75160661  0.13016070  0.36924580  1
  Al  Al117  1  0.75372547  0.13448413  0.86311329  1
  Al  Al118  1  0.74968223  0.63744357  0.37522476  1
  Al  Al119  1  0.75048923  0.63849958  0.86934125  1
  Al  Al120  1  0.24769931  0.36822413  0.36472522  1
  Al  Al121  1  0.25114480  0.36045162  0.87087791  1
  Al  Al122  1  0.25528022  0.86475420  0.36111393  1
  Al  Al123  1  0.25074549  0.86583563  0.86456285  1
  Al  Al124  1  0.75593937  0.36681688  0.36677192  1
  Al  Al125  1  0.75038460  0.36400243  0.87027966  1
  Al  Al126  1  0.75035660  0.86950187  0.36653582  1
  Al  Al127  1  0.75280543  0.86261388  0.86238877  1
  Al  Al128  1  0.13096059  0.25222860  0.13133539  1
  Al  Al129  1  0.13628730  0.23895835  0.63941087  1
  Al  Al130  1  0.13545844  0.74507524  0.13448005  1
  Al  Al131  1  0.13265321  0.75355946  0.63877302  1
  Al  Al132  1  0.63959210  0.25411791  0.13405173  1
  Al  Al133  1  0.63749849  0.24425152  0.63420166  1
  Al  Al134  1  0.63507784  0.75297127  0.13023819  1
  Al  Al135  1  0.64011166  0.75044285  0.63040135  1
  Al  Al136  1  0.13232178  0.24863748  0.36191272  1
  Al  Al137  1  0.13509665  0.24423263  0.86894279  1
  Al  Al138  1  0.13620433  0.74708246  0.36313588  1
  Al  Al139  1  0.13371256  0.75114029  0.86344350  1
  Al  Al140  1  0.64098800  0.25028438  0.36499423  1
  Al  Al141  1  0.63291356  0.25086095  0.86402598  1
  Al  Al142  1  0.63944801  0.75250688  0.37360267  1
  Al  Al143  1  0.63379708  0.74989574  0.86619352  1
  Al  Al144  1  0.36240564  0.25285066  0.13018358  1
  Al  Al145  1  0.36419823  0.24143401  0.63513675  1
  Al  Al146  1  0.36531551  0.74735084  0.12994415  1
  Al  Al147  1  0.36633703  0.74913820  0.63764306  1
  Al  Al148  1  0.86817998  0.25065219  0.13439969  1
  Al  Al149  1  0.86401695  0.24703871  0.63188505  1
  Al  Al150  1  0.85963736  0.74912362  0.13302732  1
  Al  Al151  1  0.86798916  0.74977508  0.63414177  1
  Al  Al152  1  0.36137867  0.25096596  0.36584396  1
  Al  Al153  1  0.36806523  0.24920467  0.86575467  1
  Al  Al154  1  0.36059422  0.74634144  0.36728620  1
  Al  Al155  1  0.36987376  0.75116799  0.86801463  1
  Al  Al156  1  0.86380661  0.24675967  0.37113643  1
  Al  Al157  1  0.86664665  0.24882974  0.86009484  1
  Al  Al158  1  0.86081131  0.75289076  0.37191431  1
  Al  Al159  1  0.86603524  0.74889084  0.86415679  1
  Al  Al160  1  0.13217061  0.13619108  0.24642799  1
  Al  Al161  1  0.13584817  0.12545193  0.75524653  1
  Al  Al162  1  0.14046757  0.62733935  0.25269264  1
  Al  Al163  1  0.13499014  0.63555663  0.74333713  1
  Al  Al164  1  0.63816089  0.13637463  0.25354797  1
  Al  Al165  1  0.63152610  0.13396845  0.75102102  1
  Al  Al166  1  0.63964540  0.63292392  0.24323873  1
  Al  Al167  1  0.63756459  0.63770892  0.75326597  1
  Al  Al168  1  0.36299435  0.13872251  0.24621403  1
  Al  Al169  1  0.37051242  0.13472985  0.75154997  1
  Al  Al170  1  0.36231092  0.63165284  0.25234265  1
  Al  Al171  1  0.36691882  0.63699682  0.75470316  1
  Al  Al172  1  0.86378485  0.13484664  0.25227453  1
  Al  Al173  1  0.86285501  0.13157596  0.74796336  1
  Al  Al174  1  0.85817811  0.63761428  0.25318138  1
  Al  Al175  1  0.86437563  0.63348928  0.74350537  1
  Al  Al176  1  0.13221935  0.36690190  0.24789487  1
  Al  Al177  1  0.13799598  0.36153071  0.75130106  1
  Al  Al178  1  0.13564631  0.86022962  0.24908110  1
  Al  Al179  1  0.13260755  0.86787538  0.75163243  1
  Al  Al180  1  0.64052988  0.36955796  0.24514604  1
  Al  Al181  1  0.63746466  0.36509956  0.75262842  1
  Al  Al182  1  0.63606816  0.86179544  0.25064409  1
  Al  Al183  1  0.63744591  0.86447114  0.75130665  1
  Al  Al184  1  0.36131609  0.36706947  0.25334678  1
  Al  Al185  1  0.36579739  0.36219277  0.75373533  1
  Al  Al186  1  0.36702020  0.86245664  0.24466927  1
  Al  Al187  1  0.36788841  0.86494648  0.75248683  1
  Al  Al188  1  0.86835475  0.36280560  0.24921769  1
  Al  Al189  1  0.86052610  0.36807666  0.74688182  1
  Al  Al190  1  0.86134421  0.86277804  0.25305522  1
  Al  Al191  1  0.86995159  0.86046963  0.74794588  1
  Al  Al192  1  0.17376210  -0.00108504  0.17243165  1
  Al  Al193  1  0.50158890  0.32945812  0.32952846  1
  Al  Al194  1  0.50290776  0.82614256  0.67930930  1
  Al  Al195  1  -0.00148970  0.66962057  0.17650719  1
  Al  Al196  1  -0.00123955  0.16899310  0.68352170  1
  Al  Al197  1  0.50166481  0.31565583  0.68380505  1
  Al  Al198  1  0.33009208  0.31821522  0.50292877  1
  Al  Al199  1  0.82067731  0.50228716  0.81595220  1
  Al  Al200  1  0.83011430  0.17724695  -0.00284513  1
  Al  Al201  1  0.66900054  0.18000441  -0.00044381  1
  Al  Al202  1  -0.00255044  0.82713633  0.32844481  1
  Al  Al203  1  0.81344082  0.81405252  -0.00090624  1
  Al  Al204  1  0.68081767  0.50146658  0.32010984  1
  Al  Al205  1  0.68805418  0.31979119  0.50144613  1
  Al  Al206  1  0.18692732  0.16911361  0.50284727  1
  Al  Al207  1  0.18223359  0.81982519  -0.00086146  1
  Al  Al208  1  0.32585801  0.50057075  0.82227849  1
  Al  Al209  1  0.83289237  -0.00168638  0.18523580  1
  Al  Al210  1  -0.00172002  0.67354044  0.32966027  1
  Al  Al211  1  -0.00310294  0.18059382  0.32347765  1
  Al  Al212  1  0.33007896  0.81995457  0.50306795  1
  Al  Al213  1  0.69077457  0.50171152  0.68274486  1
  Al  Al214  1  0.32392360  0.49997741  0.17890815  1
  Al  Al215  1  0.16774423  0.50121976  0.82497570  1
  Al  Al216  1  0.16858274  0.83039279  0.50119449  1
  Al  Al217  1  0.49957023  0.17392954  0.32742248  1
  Al  Al218  1  0.50052256  0.32958735  0.16606028  1
  Al  Al219  1  0.32916401  0.00048716  0.16838498  1
  Al  Al220  1  0.16885591  0.32616237  0.50107458  1
  Al  Al221  1  0.31627023  0.00107588  0.81395358  1
  Al  Al222  1  -0.00240619  0.33218758  0.67013076  1
  Al  Al223  1  0.68453214  -0.00269067  0.67218400  1
  Al  Al224  1  0.33548635  0.00311853  0.33334945  1
  Al  Al225  1  0.80397325  0.50177895  0.18531891  1
  Al  Al226  1  0.18360928  0.67440604  0.50213056  1
  Al  Al227  1  -0.00158344  0.82870046  0.17248930  1
  Al  Al228  1  0.68417094  0.00011100  0.82919582  1
  Al  Al229  1  0.67476021  -0.00010095  0.18192384  1
  Al  Al230  1  0.00221211  0.31813644  0.82656660  1
  Al  Al231  1  -0.00123658  0.68310695  0.81109528  1
  Al  Al232  1  0.50294955  0.67328509  0.68208135  1
  Al  Al233  1  0.50227507  0.17231090  0.17329650  1
  Al  Al234  1  0.17493660  0.50374547  0.66843509  1
  Al  Al235  1  0.16889254  -0.00275693  0.33102903  1
  Al  Al236  1  0.49869319  0.66972649  0.32993224  1
  Al  Al237  1  0.50176878  0.68181263  0.16817252  1
  Al  Al238  1  0.50083037  0.82388427  0.31690865  1
  Au  Au239  1  0.33913216  0.00309537  0.34903123  1
  Au  Au240  1  0.84412137  0.16800676  -0.00414667  1
  Au  Au241  1  0.67626999  0.17310839  0.49812246  1
  Au  Au242  1  0.32834302  0.00086079  0.82594244  1
  Au  Au243  1  0.67605000  0.67463596  0.50333399  1
  Au  Au244  1  0.50472393  0.32772249  0.34596067  1
  Au  Au245  1  0.33995870  0.50305344  0.67134121  1
  Au  Au246  1  0.15326509  -0.00520849  0.32417422  1
  Au  Au247  1  0.67567284  -0.00201633  0.84372823  1
  Au  Au248  1  0.17421342  0.15765853  0.50430255  1
  Au  Au249  1  0.50379189  0.82453439  0.82834163  1
  Au  Au250  1  0.17362087  0.50221553  0.84148093  1
  Au  Au251  1  0.34635832  0.82360818  0.50496739  1
  Au  Au252  1  0.00164226  0.83116505  0.82351199  1
  Au  Au253  1  0.49585585  0.67442638  0.34598092  1
  Au  Au254  1  0.82783109  -0.00097376  0.16875268  1
  Au  Au255  1  0.66532115  0.50293342  0.83201068  1
  Au  Au256  1  0.50244468  0.67617401  0.15278082  1
  Au  Au257  1  -0.00360206  0.16826575  0.32609853  1
  Au  Au258  1  0.17186108  -0.00469837  0.67841602  1
  Au  Au259  1  0.16508086  0.16473690  -0.00271160  1
  Au  Au260  1  0.16279778  0.33928546  0.49132374  1
  Au  Au261  1  0.33245157  -0.00105758  0.15259067  1
  Au  Au262  1  0.67806683  -0.00418505  0.65718597  1
  Au  Au263  1  -0.00880311  0.67312745  0.16213582  1
  Au  Au264  1  0.82619463  0.50232324  0.82749068  1
  Au  Au265  1  0.82579215  0.82604030  -0.00368970  1
  Au  Au266  1  -0.00255245  0.33315805  0.33187468  1
  Au  Au267  1  0.67158542  -0.00117294  0.33248276  1
  Au  Au268  1  -0.00283624  0.15736320  0.67217019  1
  Au  Au269  1  0.00121019  0.32393844  0.84272621  1
  Au  Au270  1  0.50246745  0.32601628  0.14959023  1
  Au  Au271  1  0.16537869  0.49920698  0.17979020  1
  Au  Au272  1  0.33555912  0.50022352  0.17128404  1
  Au  Au273  1  0.66811385  0.50401407  0.32101324  1
  Au  Au274  1  0.15321996  0.82362276  0.50222748  1
  Au  Au275  1  0.50099087  0.32612850  0.83278718  1
  Au  Au276  1  0.49862372  0.16612086  0.67326328  1
  Au  Au277  1  -0.01109377  0.34278626  0.65943619  1
  Au  Au278  1  0.17296873  0.67100190  -0.00117396  1
  Au  Au279  1  0.83803719  0.50358320  0.33116439  1
  Au  Au280  1  0.34171230  0.33019691  0.50434172  1
  Au  Au281  1  -0.00149792  0.32420735  0.16263653  1
  Au  Au282  1  0.33765770  0.18027029  -0.00197558  1
  Au  Au283  1  0.33293797  0.82261360  -0.00051759  1
  Au  Au284  1  0.65291537  0.17517557  0.00152006  1
  Au  Au285  1  0.17948789  0.33341035  0.00169156  1
  Au  Au286  1  0.16438829  0.49873313  0.66394251  1
  Au  Au287  1  0.82276887  0.34169796  0.00162338  1
