# generated using pymatgen
data_Ca24Ti8Al207Au49
_symmetry_space_group_name_H-M   'P 1'
_cell_length_a   17.31632734
_cell_length_b   17.31533706
_cell_length_c   17.31866567
_cell_angle_alpha   89.99898822
_cell_angle_beta   89.99211840
_cell_angle_gamma   89.99825918
_symmetry_Int_Tables_number   1
_chemical_formula_structural   Ca24Ti8Al207Au49
_chemical_formula_sum   'Ca24 Ti8 Al207 Au49'
_cell_volume   5192.79479709
_cell_formula_units_Z   1
loop_
 _symmetry_equiv_pos_site_id
 _symmetry_equiv_pos_as_xyz
  1  'x, y, z'
loop_
 _atom_site_type_symbol
 _atom_site_label
 _atom_site_symmetry_multiplicity
 _atom_site_fract_x
 _atom_site_fract_y
 _atom_site_fract_z
 _atom_site_occupancy
  Ca  Ca0  1  0.25094070  -0.00087230  0.00176609  1
  Ca  Ca1  1  0.25085839  0.00348135  0.49971325  1
  Ca  Ca2  1  0.24842231  0.50297175  -0.00155679  1
  Ca  Ca3  1  0.24866310  0.50020300  0.50152249  1
  Ca  Ca4  1  0.75430589  -0.00131940  0.00302454  1
  Ca  Ca5  1  0.74911512  -0.00237983  0.49679532  1
  Ca  Ca6  1  0.75083578  0.50455476  0.00012655  1
  Ca  Ca7  1  0.75049100  0.50380025  0.50308698  1
  Ca  Ca8  1  0.00206505  0.24744142  0.00564247  1
  Ca  Ca9  1  0.00122691  0.25527768  0.49721065  1
  Ca  Ca10  1  0.00060522  0.74680217  -0.00024181  1
  Ca  Ca11  1  -0.00784276  0.74686637  0.49846474  1
  Ca  Ca12  1  0.49602964  0.25192114  0.00381832  1
  Ca  Ca13  1  0.49949659  0.24772782  0.49504221  1
  Ca  Ca14  1  0.49649443  0.74909441  -0.00305423  1
  Ca  Ca15  1  0.50257354  0.75267236  0.50026678  1
  Ca  Ca16  1  -0.00219182  -0.00012521  0.24743719  1
  Ca  Ca17  1  0.00054469  -0.00256573  0.75272424  1
  Ca  Ca18  1  0.00550804  0.49892286  0.24573072  1
  Ca  Ca19  1  0.00118951  0.50134793  0.75153951  1
  Ca  Ca20  1  0.50124518  0.00466935  0.24760833  1
  Ca  Ca21  1  0.50155782  0.00201126  0.74755769  1
  Ca  Ca22  1  0.49919976  0.49650958  0.24395952  1
  Ca  Ca23  1  0.49999030  0.49972021  0.75125644  1
  Ti  Ti24  1  0.25065727  0.25132866  0.24879232  1
  Ti  Ti25  1  0.24965576  0.25128416  0.75236969  1
  Ti  Ti26  1  0.24998326  0.74960997  0.24808805  1
  Ti  Ti27  1  0.25080992  0.74935513  0.75003456  1
  Ti  Ti28  1  0.74990600  0.24942972  0.24745400  1
  Ti  Ti29  1  0.75031071  0.25067496  0.75098551  1
  Ti  Ti30  1  0.74956303  0.75122596  0.24791124  1
  Ti  Ti31  1  0.74968728  0.74809325  0.74945489  1
  Al  Al32  1  0.08259900  0.09863537  0.08016304  1
  Al  Al33  1  0.08681783  0.08278789  0.57878265  1
  Al  Al34  1  0.08682022  0.58693226  0.07571040  1
  Al  Al35  1  0.07150093  0.58395225  0.59163736  1
  Al  Al36  1  0.57854987  0.08429634  0.08979215  1
  Al  Al37  1  0.57936915  0.09467828  0.57890849  1
  Al  Al38  1  0.58641818  0.58939177  0.07457318  1
  Al  Al39  1  0.58576110  0.59409121  0.58978100  1
  Al  Al40  1  0.41403421  0.41446856  0.08588603  1
  Al  Al41  1  0.41575525  0.41748348  0.58364468  1
  Al  Al42  1  0.41505872  0.90705974  0.09048794  1
  Al  Al43  1  0.42434087  0.91349169  0.58018262  1
  Al  Al44  1  0.92885951  0.41110680  0.09209632  1
  Al  Al45  1  0.90389206  0.43301485  0.58273905  1
  Al  Al46  1  0.90482375  0.91755454  0.08770728  1
  Al  Al47  1  0.91414875  0.90606388  0.57527013  1
  Al  Al48  1  0.41728376  0.08794281  0.40322750  1
  Al  Al49  1  0.41904585  0.09364826  0.92249341  1
  Al  Al50  1  0.42377130  0.57179094  0.42163283  1
  Al  Al51  1  0.40345943  0.58628185  0.91278179  1
  Al  Al52  1  0.91752088  0.07806606  0.41318177  1
  Al  Al53  1  0.93046166  0.08494042  0.91754636  1
  Al  Al54  1  0.91095414  0.58138203  0.42940120  1
  Al  Al55  1  0.91284916  0.58986703  0.91817902  1
  Al  Al56  1  0.09420842  0.41109889  0.41025185  1
  Al  Al57  1  0.09943585  0.41817770  0.91960629  1
  Al  Al58  1  0.08538474  0.90559643  0.41994557  1
  Al  Al59  1  0.08728362  0.91972256  0.92268371  1
  Al  Al60  1  0.58335909  0.39859128  0.41726477  1
  Al  Al61  1  0.57790516  0.42608331  0.92178616  1
  Al  Al62  1  0.58961611  0.91790236  0.42197044  1
  Al  Al63  1  0.58059450  0.91036375  0.92675155  1
  Al  Al64  1  0.08238859  0.08627448  0.41862557  1
  Al  Al65  1  0.09027755  0.09576976  0.91673890  1
  Al  Al66  1  0.08803197  0.56971176  0.41430740  1
  Al  Al67  1  0.09472219  0.58322495  0.91285681  1
  Al  Al68  1  0.57937137  0.08912509  0.41292095  1
  Al  Al69  1  0.57478765  0.09043539  0.91685792  1
  Al  Al70  1  0.58638994  0.58503226  0.43032470  1
  Al  Al71  1  0.58744398  0.58981167  0.91588767  1
  Al  Al72  1  0.42189176  0.40809579  0.41234500  1
  Al  Al73  1  0.40403561  0.42228064  0.91489793  1
  Al  Al74  1  0.40909188  0.92803376  0.41162154  1
  Al  Al75  1  0.41428439  0.90827798  0.92820912  1
  Al  Al76  1  0.92198879  0.41873152  0.41923914  1
  Al  Al77  1  0.92319137  0.42750797  0.92093068  1
  Al  Al78  1  0.90927651  0.90935150  0.41623969  1
  Al  Al79  1  0.91535602  0.91203904  0.92758531  1
  Al  Al80  1  0.08957765  0.40251262  0.08280403  1
  Al  Al81  1  0.09424002  0.42009652  0.57080489  1
  Al  Al82  1  0.08167914  0.91122006  0.07683233  1
  Al  Al83  1  0.08821368  0.90555303  0.57827127  1
  Al  Al84  1  0.57320488  0.41530684  0.08787757  1
  Al  Al85  1  0.58907910  0.40999981  0.57944899  1
  Al  Al86  1  0.58103147  0.90771748  0.08934863  1
  Al  Al87  1  0.58400153  0.90080124  0.57891733  1
  Al  Al88  1  0.41500859  0.08771274  0.08654661  1
  Al  Al89  1  0.42480281  0.08418687  0.58082870  1
  Al  Al90  1  0.41046421  0.58447298  0.07565962  1
  Al  Al91  1  0.42474369  0.58418107  0.59609178  1
  Al  Al92  1  0.92062846  0.08058849  0.09218658  1
  Al  Al93  1  0.92224087  0.07629893  0.57546919  1
  Al  Al94  1  0.91507848  0.58891239  0.07761435  1
  Al  Al95  1  0.90821770  0.59394542  0.59230644  1
  Al  Al96  1  0.25000878  0.14021217  0.13656424  1
  Al  Al97  1  0.24590830  0.13301520  0.63805849  1
  Al  Al98  1  0.24549142  0.63654818  0.13162288  1
  Al  Al99  1  0.25132953  0.63281248  0.63589095  1
  Al  Al100  1  0.75117978  0.13709943  0.13114272  1
  Al  Al101  1  0.75166217  0.13300001  0.63673277  1
  Al  Al102  1  0.74795555  0.63258743  0.13312422  1
  Al  Al103  1  0.75185141  0.62955937  0.63545452  1
  Al  Al104  1  0.24766288  0.36323756  0.12892543  1
  Al  Al105  1  0.24864257  0.36555944  0.63733000  1
  Al  Al106  1  0.25563498  0.86492725  0.13255447  1
  Al  Al107  1  0.24979230  0.86281823  0.62869269  1
  Al  Al108  1  0.74992846  0.36959695  0.13651279  1
  Al  Al109  1  0.74826970  0.36874246  0.63565624  1
  Al  Al110  1  0.75235303  0.86596587  0.13055070  1
  Al  Al111  1  0.74825426  0.86373758  0.63452397  1
  Al  Al112  1  0.25111532  0.13666436  0.36115966  1
  Al  Al113  1  0.24740330  0.13669881  0.86823871  1
  Al  Al114  1  0.24405209  0.63490820  0.36571385  1
  Al  Al115  1  0.25000320  0.63146180  0.86439795  1
  Al  Al116  1  0.75150267  0.13657162  0.36059106  1
  Al  Al117  1  0.75052019  0.13696142  0.87104726  1
  Al  Al118  1  0.75015170  0.63526990  0.36493402  1
  Al  Al119  1  0.74931894  0.63639551  0.86395160  1
  Al  Al120  1  0.24290876  0.36629475  0.36252418  1
  Al  Al121  1  0.24794212  0.36330986  0.87396502  1
  Al  Al122  1  0.25373794  0.86298043  0.36715399  1
  Al  Al123  1  0.25213595  0.86155799  0.86547948  1
  Al  Al124  1  0.74693953  0.36037378  0.36385754  1
  Al  Al125  1  0.75288347  0.36403371  0.86750471  1
  Al  Al126  1  0.75024906  0.86553063  0.36360250  1
  Al  Al127  1  0.75451290  0.86416694  0.86697126  1
  Al  Al128  1  0.13445851  0.25251768  0.13097366  1
  Al  Al129  1  0.13295663  0.25405203  0.63851931  1
  Al  Al130  1  0.13623083  0.74990672  0.13366581  1
  Al  Al131  1  0.13127459  0.74702278  0.63697303  1
  Al  Al132  1  0.63168296  0.24859622  0.13203104  1
  Al  Al133  1  0.63737745  0.25078769  0.63408614  1
  Al  Al134  1  0.63028076  0.74883014  0.13424141  1
  Al  Al135  1  0.63631461  0.74923514  0.63484408  1
  Al  Al136  1  0.13207761  0.25279268  0.36210138  1
  Al  Al137  1  0.13588208  0.24805863  0.87328513  1
  Al  Al138  1  0.13698950  0.75536021  0.36690334  1
  Al  Al139  1  0.13768201  0.74421041  0.86780540  1
  Al  Al140  1  0.63287448  0.24864963  0.36130585  1
  Al  Al141  1  0.63706149  0.25081355  0.86978443  1
  Al  Al142  1  0.63455660  0.75284880  0.36570717  1
  Al  Al143  1  0.62961684  0.74672012  0.86470833  1
  Al  Al144  1  0.37207441  0.25278310  0.13784917  1
  Al  Al145  1  0.36435254  0.25088631  0.63583327  1
  Al  Al146  1  0.36927057  0.75272202  0.13365271  1
  Al  Al147  1  0.36576852  0.74851246  0.63533376  1
  Al  Al148  1  0.86871187  0.24744992  0.13468930  1
  Al  Al149  1  0.86292379  0.25145119  0.63726227  1
  Al  Al150  1  0.86420902  0.75548487  0.13360490  1
  Al  Al151  1  0.86804667  0.74577382  0.63660387  1
  Al  Al152  1  0.36440198  0.25169397  0.36394763  1
  Al  Al153  1  0.36341059  0.25437606  0.86656889  1
  Al  Al154  1  0.36601609  0.74965397  0.36457357  1
  Al  Al155  1  0.36950137  0.74808593  0.86393659  1
  Al  Al156  1  0.86654157  0.25282843  0.36297478  1
  Al  Al157  1  0.86913366  0.24558137  0.86569622  1
  Al  Al158  1  0.86277374  0.74927361  0.36232670  1
  Al  Al159  1  0.86495932  0.74959960  0.86184179  1
  Al  Al160  1  0.12962500  0.14005288  0.24216593  1
  Al  Al161  1  0.13275662  0.13975835  0.75442526  1
  Al  Al162  1  0.13661850  0.63108102  0.24888356  1
  Al  Al163  1  0.13661791  0.63188302  0.75259374  1
  Al  Al164  1  0.62917343  0.13732415  0.24752494  1
  Al  Al165  1  0.63632031  0.13476258  0.74848319  1
  Al  Al166  1  0.63508878  0.63519488  0.24560846  1
  Al  Al167  1  0.62878124  0.63534422  0.74796210  1
  Al  Al168  1  0.37131891  0.13776144  0.25244407  1
  Al  Al169  1  0.36395787  0.13648992  0.74977698  1
  Al  Al170  1  0.36389239  0.63605349  0.24577358  1
  Al  Al171  1  0.36670690  0.63274344  0.75253991  1
  Al  Al172  1  0.86664036  0.12994105  0.24560859  1
  Al  Al173  1  0.86270823  0.12984748  0.75401791  1
  Al  Al174  1  0.86156048  0.63641301  0.24480885  1
  Al  Al175  1  0.86475255  0.63072461  0.74777639  1
  Al  Al176  1  0.13297729  0.36746288  0.24447136  1
  Al  Al177  1  0.13782285  0.37064883  0.76059844  1
  Al  Al178  1  0.13764533  0.86451411  0.24748822  1
  Al  Al179  1  0.13594123  0.86197015  0.74614581  1
  Al  Al180  1  0.63240231  0.36562092  0.24367927  1
  Al  Al181  1  0.63364914  0.36662759  0.75086058  1
  Al  Al182  1  0.63578489  0.86449273  0.24538546  1
  Al  Al183  1  0.63622039  0.86471016  0.75413356  1
  Al  Al184  1  0.36272392  0.36631922  0.24895278  1
  Al  Al185  1  0.36155638  0.37120494  0.75509308  1
  Al  Al186  1  0.36569380  0.86472823  0.24886806  1
  Al  Al187  1  0.36379647  0.86499025  0.74932087  1
  Al  Al188  1  0.86964321  0.36339756  0.24512327  1
  Al  Al189  1  0.86531891  0.36872790  0.74997532  1
  Al  Al190  1  0.86161657  0.87120285  0.24788243  1
  Al  Al191  1  0.86382944  0.86679040  0.74443885  1
  Al  Al192  1  -0.00162179  0.18043307  0.32166282  1
  Al  Al193  1  0.30715148  0.32810410  0.49888727  1
  Al  Al194  1  0.81113923  0.69153373  -0.00052589  1
  Al  Al195  1  0.50068937  0.67050252  0.31614952  1
  Al  Al196  1  0.32667903  0.00209605  0.18378386  1
  Al  Al197  1  0.67749818  0.00206373  0.32470277  1
  Al  Al198  1  0.50010997  0.31287146  0.67918839  1
  Al  Al199  1  0.82738951  0.17183397  0.49936280  1
  Al  Al200  1  0.30895045  0.69014882  -0.00070652  1
  Al  Al201  1  0.66792222  0.49759072  0.32715360  1
  Al  Al202  1  0.18790675  -0.00247040  0.33017262  1
  Al  Al203  1  0.32383724  0.00116515  0.66989015  1
  Al  Al204  1  0.82599803  0.49890170  0.32181887  1
  Al  Al205  1  0.67289998  -0.00071743  0.66513997  1
  Al  Al206  1  -0.00265576  0.17196804  0.68554251  1
  Al  Al207  1  0.81462336  0.32725011  0.50061073  1
  Al  Al208  1  0.17670071  0.18949391  0.49975397  1
  Al  Al209  1  0.00090535  0.68098378  0.17283781  1
  Al  Al210  1  0.00273584  0.31946612  0.83176324  1
  Al  Al211  1  0.50088020  0.81277031  0.68160877  1
  Al  Al212  1  0.68063271  0.00037363  0.17236251  1
  Al  Al213  1  0.16952154  0.00285293  0.17116451  1
  Al  Al214  1  0.31421131  0.50019114  0.33214567  1
  Al  Al215  1  0.31583805  0.50075083  0.17332789  1
  Al  Al216  1  0.31379389  0.18381684  0.00267543  1
  Al  Al217  1  0.82524682  0.32386280  0.00221432  1
  Al  Al218  1  0.80713611  0.80582924  0.49988401  1
  Al  Al219  1  0.49996836  0.18534446  0.81174162  1
  Al  Al220  1  0.32902187  0.67650936  0.50072875  1
  Al  Al221  1  0.67583820  0.18650995  0.49710503  1
  Al  Al222  1  -0.00091107  0.82425313  0.31776191  1
  Al  Al223  1  0.49899590  0.30871121  0.30713244  1
  Al  Al224  1  0.32860821  0.17078362  0.49923016  1
  Al  Al225  1  0.33127899  0.00069888  0.83103077  1
  Al  Al226  1  -0.00051277  0.33588451  0.66876195  1
  Al  Al227  1  0.67979415  0.49891161  0.82010047  1
  Al  Al228  1  0.17946812  0.50046205  0.67686199  1
  Al  Al229  1  0.67815236  0.00070468  0.83190134  1
  Al  Al230  1  0.16869524  0.68088686  0.50091628  1
  Al  Al231  1  0.69490885  0.68891079  0.50009962  1
  Al  Al232  1  0.68925681  0.80659455  -0.00094823  1
  Al  Al233  1  -0.00034731  0.67121642  0.33286819  1
  Al  Al234  1  0.50174573  0.83205997  0.31836221  1
  Al  Al235  1  0.00081959  0.82668431  0.82320387  1
  Al  Al236  1  0.00116388  0.67095205  0.81903020  1
  Al  Al237  1  0.17300377  0.00015515  0.82087982  1
  Al  Al238  1  0.18969373  0.81099843  -0.00030309  1
  Au  Au239  1  0.49754866  0.67356560  0.15589684  1
  Au  Au240  1  -0.00393278  0.65672445  0.32629390  1
  Au  Au241  1  0.66460871  0.16619721  0.00299429  1
  Au  Au242  1  0.83741528  0.16078821  0.00192218  1
  Au  Au243  1  -0.00322018  0.16782407  0.32076179  1
  Au  Au244  1  0.66731920  0.50164507  0.16016667  1
  Au  Au245  1  0.50325039  0.66435274  0.33259305  1
  Au  Au246  1  -0.00339705  0.83242151  0.16619716  1
  Au  Au247  1  0.66560499  0.00023515  0.84213156  1
  Au  Au248  1  0.84115227  0.00006739  0.83623653  1
  Au  Au249  1  -0.00172992  0.34348660  0.65476376  1
  Au  Au250  1  0.16532136  0.50011903  0.16473382  1
  Au  Au251  1  0.32683667  0.00066713  0.84294124  1
  Au  Au252  1  0.67788655  0.68678844  0.50173989  1
  Au  Au253  1  0.83738244  -0.00387142  0.66391791  1
  Au  Au254  1  0.65831538  0.33129061  0.00254789  1
  Au  Au255  1  0.33562437  0.00355612  0.66698260  1
  Au  Au256  1  0.83579556  0.50204377  0.82385515  1
  Au  Au257  1  0.33440993  0.50113344  0.68090400  1
  Au  Au258  1  0.67232996  0.50081645  0.83001969  1
  Au  Au259  1  0.82659112  0.33204174  0.50043748  1
  Au  Au260  1  0.49662279  0.33090546  0.84066801  1
  Au  Au261  1  0.49895918  0.17973828  0.17870565  1
  Au  Au262  1  0.84375470  0.50147957  0.17272700  1
  Au  Au263  1  0.83413305  0.33780595  0.00297849  1
  Au  Au264  1  0.67343734  0.49473909  0.34297769  1
  Au  Au265  1  0.16691054  0.50207613  0.67623408  1
  Au  Au266  1  -0.00215074  0.16418824  0.67049385  1
  Au  Au267  1  0.50164520  0.31958239  0.66393311  1
  Au  Au268  1  0.32375403  0.32321244  0.49886825  1
  Au  Au269  1  0.67606154  0.81683394  0.00214656  1
  Au  Au270  1  0.00149548  0.33951873  0.31991752  1
  Au  Au271  1  -0.00046583  0.81921383  0.65931528  1
  Au  Au272  1  0.32580533  0.84074196  0.49788275  1
  Au  Au273  1  0.49760823  0.83428048  0.82772855  1
  Au  Au274  1  0.17415286  -0.00299754  0.33934968  1
  Au  Au275  1  0.34417074  0.66884358  0.50291783  1
  Au  Au276  1  0.00449749  0.82483566  0.83889843  1
  Au  Au277  1  0.33020748  0.49914147  0.32548871  1
  Au  Au278  1  0.67231680  0.49953611  0.66377399  1
  Au  Au279  1  0.32312074  0.33131236  0.00233706  1
  Au  Au280  1  0.50062849  0.84505138  0.32848969  1
  Au  Au281  1  0.66109149  -0.00051138  0.65471439  1
  Au  Au282  1  0.82697279  -0.00147876  0.32603567  1
  Au  Au283  1  0.15591732  0.66990230  0.50173846  1
  Au  Au284  1  0.16120147  -0.00516440  0.66979201  1
  Au  Au285  1  0.00529461  0.32688008  0.84635840  1
  Au  Au286  1  0.49752535  0.66435499  0.82556044  1
  Au  Au287  1  0.17307719  0.00365821  0.15897283  1
