# generated using pymatgen
data_Ca24Ti8Al207Au49
_symmetry_space_group_name_H-M   'P 1'
_cell_length_a   17.32488429
_cell_length_b   17.32347112
_cell_length_c   17.32599988
_cell_angle_alpha   89.99694122
_cell_angle_beta   89.99578357
_cell_angle_gamma   89.99689289
_symmetry_Int_Tables_number   1
_chemical_formula_structural   Ca24Ti8Al207Au49
_chemical_formula_sum   'Ca24 Ti8 Al207 Au49'
_cell_volume   5200.00263392
_cell_formula_units_Z   1
loop_
 _symmetry_equiv_pos_site_id
 _symmetry_equiv_pos_as_xyz
  1  'x, y, z'
loop_
 _atom_site_type_symbol
 _atom_site_label
 _atom_site_symmetry_multiplicity
 _atom_site_fract_x
 _atom_site_fract_y
 _atom_site_fract_z
 _atom_site_occupancy
  Ca  Ca0  1  0.25225476  0.00349881  0.00099059  1
  Ca  Ca1  1  0.24953088  0.00027196  0.50199545  1
  Ca  Ca2  1  0.25203668  0.49433454  -0.00435356  1
  Ca  Ca3  1  0.25014629  0.50062932  0.50353747  1
  Ca  Ca4  1  0.74455795  0.00049866  -0.00014581  1
  Ca  Ca5  1  0.74223673  0.00330680  0.49936241  1
  Ca  Ca6  1  0.74722222  0.49811626  -0.00230357  1
  Ca  Ca7  1  0.74718510  0.49726080  0.50184704  1
  Ca  Ca8  1  -0.00027446  0.24830678  -0.00059507  1
  Ca  Ca9  1  -0.00173397  0.24449830  0.49884327  1
  Ca  Ca10  1  -0.00223009  0.75430873  -0.00274166  1
  Ca  Ca11  1  0.00297956  0.75099021  0.50350555  1
  Ca  Ca12  1  0.50189678  0.24636526  -0.00160533  1
  Ca  Ca13  1  0.50492256  0.24587858  0.49800926  1
  Ca  Ca14  1  0.50380856  0.75440156  -0.00082685  1
  Ca  Ca15  1  0.50020465  0.75598349  0.50517652  1
  Ca  Ca16  1  0.00213762  0.00452665  0.25021939  1
  Ca  Ca17  1  0.00078117  0.00094563  0.74833246  1
  Ca  Ca18  1  -0.00283784  0.49491730  0.25294061  1
  Ca  Ca19  1  -0.00139460  0.49976510  0.75263023  1
  Ca  Ca20  1  0.50000645  -0.00173689  0.24824048  1
  Ca  Ca21  1  0.50061536  0.00014770  0.74913439  1
  Ca  Ca22  1  0.50719941  0.50056282  0.25119418  1
  Ca  Ca23  1  0.50030448  0.50110115  0.75235409  1
  Ti  Ti24  1  0.25040943  0.24855832  0.24960482  1
  Ti  Ti25  1  0.25216700  0.24877514  0.75078608  1
  Ti  Ti26  1  0.25148148  0.75291924  0.24919861  1
  Ti  Ti27  1  0.25218219  0.75087618  0.74979449  1
  Ti  Ti28  1  0.75005121  0.24966088  0.24974567  1
  Ti  Ti29  1  0.74795782  0.24938034  0.74901261  1
  Ti  Ti30  1  0.74848161  0.75056239  0.24929867  1
  Ti  Ti31  1  0.74780622  0.75029266  0.74902949  1
  Al  Al32  1  0.08977234  0.09311622  0.08052830  1
  Al  Al33  1  0.08970229  0.08633633  0.57689420  1
  Al  Al34  1  0.07601405  0.57954429  0.07736967  1
  Al  Al35  1  0.07980774  0.59553921  0.58838329  1
  Al  Al36  1  0.58959623  0.07711336  0.08416458  1
  Al  Al37  1  0.59147348  0.08198648  0.57956546  1
  Al  Al38  1  0.58982600  0.58971779  0.07833269  1
  Al  Al39  1  0.57909328  0.58457141  0.58838822  1
  Al  Al40  1  0.41526326  0.40807542  0.07626199  1
  Al  Al41  1  0.42454227  0.41523953  0.58352180  1
  Al  Al42  1  0.41714437  0.91405264  0.09064027  1
  Al  Al43  1  0.42231081  0.90992305  0.58871904  1
  Al  Al44  1  0.91335167  0.41083015  0.07887692  1
  Al  Al45  1  0.91523440  0.41775506  0.57916727  1
  Al  Al46  1  0.91486393  0.92225036  0.08034586  1
  Al  Al47  1  0.92292011  0.91731911  0.58961619  1
  Al  Al48  1  0.42115192  0.08942442  0.41218272  1
  Al  Al49  1  0.41514138  0.08526782  0.92322782  1
  Al  Al50  1  0.42621128  0.58136054  0.42394958  1
  Al  Al51  1  0.42554446  0.58458271  0.91450025  1
  Al  Al52  1  0.91946505  0.09126631  0.41556309  1
  Al  Al53  1  0.91664447  0.08812263  0.92333735  1
  Al  Al54  1  0.91678954  0.57567362  0.41637470  1
  Al  Al55  1  0.91368041  0.58704488  0.91916037  1
  Al  Al56  1  0.07626346  0.40581384  0.42398099  1
  Al  Al57  1  0.08988143  0.40680985  0.92307190  1
  Al  Al58  1  0.08674395  0.91347235  0.42241461  1
  Al  Al59  1  0.08299720  0.92708571  0.91689827  1
  Al  Al60  1  0.59712280  0.41040271  0.41608255  1
  Al  Al61  1  0.58822259  0.41158155  0.92143338  1
  Al  Al62  1  0.57793224  0.92618365  0.41943680  1
  Al  Al63  1  0.58496041  0.91637331  0.91757917  1
  Al  Al64  1  0.08453701  0.09347391  0.41470634  1
  Al  Al65  1  0.09106399  0.09071053  0.91861395  1
  Al  Al66  1  0.07782899  0.58673786  0.42812596  1
  Al  Al67  1  0.08117699  0.58276545  0.91411082  1
  Al  Al68  1  0.58488593  0.09281383  0.41403154  1
  Al  Al69  1  0.58950719  0.08363546  0.92102631  1
  Al  Al70  1  0.58625596  0.57343137  0.41164990  1
  Al  Al71  1  0.58727646  0.59284864  0.91630813  1
  Al  Al72  1  0.42413600  0.41347161  0.42208827  1
  Al  Al73  1  0.41174618  0.40754921  0.91988922  1
  Al  Al74  1  0.41595325  0.92020433  0.41626995  1
  Al  Al75  1  0.41998210  0.91526581  0.92020658  1
  Al  Al76  1  0.91327393  0.41298295  0.41538048  1
  Al  Al77  1  0.91092610  0.41408772  0.92217795  1
  Al  Al78  1  0.92492204  0.92356406  0.42062665  1
  Al  Al79  1  0.91769342  0.92068261  0.92076045  1
  Al  Al80  1  0.08865172  0.40503871  0.07851857  1
  Al  Al81  1  0.08362931  0.41663388  0.57942039  1
  Al  Al82  1  0.08102005  0.92531126  0.07986200  1
  Al  Al83  1  0.08532835  0.90646963  0.58357707  1
  Al  Al84  1  0.58734791  0.41280694  0.07913890  1
  Al  Al85  1  0.58683345  0.40645962  0.57876487  1
  Al  Al86  1  0.58482281  0.91289408  0.09062021  1
  Al  Al87  1  0.58357949  0.91882713  0.59479291  1
  Al  Al88  1  0.40759788  0.07735585  0.08426926  1
  Al  Al89  1  0.42021935  0.08066543  0.57600523  1
  Al  Al90  1  0.42324248  0.58041999  0.07766497  1
  Al  Al91  1  0.42287328  0.59219705  0.58856137  1
  Al  Al92  1  0.91401428  0.08789144  0.08546978  1
  Al  Al93  1  0.91188006  0.08236483  0.57839083  1
  Al  Al94  1  0.91440611  0.58441690  0.07603187  1
  Al  Al95  1  0.92315117  0.58458602  0.58968917  1
  Al  Al96  1  0.24925946  0.13203950  0.13554722  1
  Al  Al97  1  0.25166185  0.12760943  0.63791673  1
  Al  Al98  1  0.25283566  0.63558944  0.13311114  1
  Al  Al99  1  0.25161867  0.63458824  0.63671408  1
  Al  Al100  1  0.74973945  0.13057395  0.13422528  1
  Al  Al101  1  0.74209994  0.13177887  0.63309491  1
  Al  Al102  1  0.74711076  0.63280476  0.13449902  1
  Al  Al103  1  0.74876003  0.63020496  0.63476053  1
  Al  Al104  1  0.25014393  0.35992480  0.12844592  1
  Al  Al105  1  0.25133974  0.36552866  0.63778144  1
  Al  Al106  1  0.25340537  0.87328634  0.13803243  1
  Al  Al107  1  0.25294316  0.86710153  0.63254292  1
  Al  Al108  1  0.74862221  0.36338345  0.13348333  1
  Al  Al109  1  0.74648840  0.36619540  0.62908549  1
  Al  Al110  1  0.74594040  0.87249624  0.13768470  1
  Al  Al111  1  0.74512377  0.86556494  0.63612012  1
  Al  Al112  1  0.24888589  0.13579536  0.36510103  1
  Al  Al113  1  0.25078204  0.13693371  0.86741215  1
  Al  Al114  1  0.25239605  0.63769932  0.36414429  1
  Al  Al115  1  0.25071915  0.63016415  0.86183415  1
  Al  Al116  1  0.74634544  0.13601184  0.36559699  1
  Al  Al117  1  0.74325329  0.13674255  0.86565154  1
  Al  Al118  1  0.74510696  0.63459608  0.36668030  1
  Al  Al119  1  0.74608677  0.63557037  0.86251757  1
  Al  Al120  1  0.25072728  0.35965814  0.36388108  1
  Al  Al121  1  0.25058419  0.36303798  0.86968694  1
  Al  Al122  1  0.25112677  0.86643203  0.36934786  1
  Al  Al123  1  0.25251560  0.86590674  0.86257299  1
  Al  Al124  1  0.74611615  0.36015828  0.37235568  1
  Al  Al125  1  0.75055051  0.36431912  0.86492767  1
  Al  Al126  1  0.74872636  0.86579499  0.36282441  1
  Al  Al127  1  0.74709142  0.86506178  0.86202080  1
  Al  Al128  1  0.13807056  0.24573341  0.12798719  1
  Al  Al129  1  0.13620786  0.24467825  0.63465333  1
  Al  Al130  1  0.13789116  0.75258217  0.13075484  1
  Al  Al131  1  0.13827851  0.75309981  0.63520422  1
  Al  Al132  1  0.63613863  0.24588759  0.13363468  1
  Al  Al133  1  0.63630109  0.24817453  0.62870421  1
  Al  Al134  1  0.63551586  0.75139489  0.13443478  1
  Al  Al135  1  0.62974554  0.74985885  0.63588665  1
  Al  Al136  1  0.13314766  0.24404544  0.36497154  1
  Al  Al137  1  0.13802645  0.24863638  0.87113644  1
  Al  Al138  1  0.13710602  0.75180866  0.36436673  1
  Al  Al139  1  0.13548944  0.75070620  0.86516861  1
  Al  Al140  1  0.63283667  0.24819438  0.36569727  1
  Al  Al141  1  0.62858184  0.24818277  0.86331139  1
  Al  Al142  1  0.63450686  0.75385704  0.36218467  1
  Al  Al143  1  0.63340229  0.75041484  0.86501287  1
  Al  Al144  1  0.36282738  0.24929150  0.13271188  1
  Al  Al145  1  0.36576957  0.24452136  0.63733478  1
  Al  Al146  1  0.36895946  0.75630198  0.13684662  1
  Al  Al147  1  0.36858619  0.75066721  0.63512397  1
  Al  Al148  1  0.86344466  0.24910361  0.13165174  1
  Al  Al149  1  0.86265752  0.25091314  0.63239402  1
  Al  Al150  1  0.86057374  0.75178823  0.13442419  1
  Al  Al151  1  0.86258644  0.74965504  0.63256264  1
  Al  Al152  1  0.37353408  0.24727410  0.36286464  1
  Al  Al153  1  0.36939341  0.25067040  0.86560383  1
  Al  Al154  1  0.36761483  0.75842182  0.36431001  1
  Al  Al155  1  0.36634780  0.75147070  0.86240689  1
  Al  Al156  1  0.86323736  0.24931435  0.36650124  1
  Al  Al157  1  0.86341651  0.25254773  0.86614843  1
  Al  Al158  1  0.86182710  0.74909425  0.36693514  1
  Al  Al159  1  0.86339575  0.74990730  0.86452966  1
  Al  Al160  1  0.12949087  0.13519285  0.24818926  1
  Al  Al161  1  0.13693123  0.13678700  0.74873161  1
  Al  Al162  1  0.13430452  0.63740797  0.24511413  1
  Al  Al163  1  0.13248087  0.63620725  0.74634929  1
  Al  Al164  1  0.63435600  0.13642986  0.25011312  1
  Al  Al165  1  0.62774748  0.13633327  0.74705804  1
  Al  Al166  1  0.63580253  0.63062740  0.24863563  1
  Al  Al167  1  0.63327169  0.63504287  0.74498652  1
  Al  Al168  1  0.36269682  0.13144478  0.24955543  1
  Al  Al169  1  0.36846714  0.13100049  0.75351211  1
  Al  Al170  1  0.36513618  0.63624644  0.24786142  1
  Al  Al171  1  0.36607341  0.63284585  0.74851428  1
  Al  Al172  1  0.86994999  0.13927172  0.24876932  1
  Al  Al173  1  0.86105298  0.13798201  0.74691398  1
  Al  Al174  1  0.86506517  0.63559282  0.24886759  1
  Al  Al175  1  0.86591952  0.63634808  0.74510135  1
  Al  Al176  1  0.13592573  0.35956882  0.24524496  1
  Al  Al177  1  0.13762787  0.36347010  0.75229086  1
  Al  Al178  1  0.13704832  0.86689322  0.24938579  1
  Al  Al179  1  0.13722912  0.86628301  0.74696631  1
  Al  Al180  1  0.63772815  0.36821266  0.25289271  1
  Al  Al181  1  0.63663667  0.36220335  0.74822817  1
  Al  Al182  1  0.62714122  0.86488907  0.24570723  1
  Al  Al183  1  0.62611739  0.86291702  0.74708376  1
  Al  Al184  1  0.36609150  0.36564266  0.24987886  1
  Al  Al185  1  0.36381033  0.36910582  0.75510898  1
  Al  Al186  1  0.36839504  0.87106158  0.24985326  1
  Al  Al187  1  0.36928937  0.86818868  0.74752773  1
  Al  Al188  1  0.86190049  0.36282058  0.25105287  1
  Al  Al189  1  0.86115972  0.36472984  0.74532737  1
  Al  Al190  1  0.86338445  0.86714041  0.25103769  1
  Al  Al191  1  0.86386049  0.86394639  0.74873123  1
  Al  Al192  1  0.81131081  0.18587448  -0.00295902  1
  Al  Al193  1  0.17665888  0.49724921  0.16858246  1
  Al  Al194  1  0.68113925  0.81608483  0.00045670  1
  Al  Al195  1  0.82701042  0.82365478  0.49970545  1
  Al  Al196  1  0.82661834  0.00298225  0.82965663  1
  Al  Al197  1  0.81260193  0.49766968  0.32737812  1
  Al  Al198  1  0.49858709  0.16480616  0.17842636  1
  Al  Al199  1  0.82893653  0.00308816  0.32001037  1
  Al  Al200  1  -0.00098674  0.31438979  0.32475896  1
  Al  Al201  1  0.31462181  0.18486638  0.00087021  1
  Al  Al202  1  0.50005847  0.31777894  0.68062332  1
  Al  Al203  1  0.00062037  0.82198284  0.32611350  1
  Al  Al204  1  0.32948996  0.68296119  0.49987787  1
  Al  Al205  1  0.31552448  0.17340257  0.49994738  1
  Al  Al206  1  0.67093283  0.83023298  0.50067097  1
  Al  Al207  1  -0.00082435  0.32579031  0.83077779  1
  Al  Al208  1  -0.00054818  0.31830850  0.17198972  1
  Al  Al209  1  0.81317329  -0.00002039  0.67683803  1
  Al  Al210  1  0.17537347  0.50389885  0.67532398  1
  Al  Al211  1  0.00004282  0.80666458  0.68326422  1
  Al  Al212  1  -0.00008152  0.83265258  0.17270109  1
  Al  Al213  1  -0.00024314  0.17324728  0.82058681  1
  Al  Al214  1  0.18108169  0.00249635  0.81876254  1
  Al  Al215  1  0.33329836  0.50135335  0.31970723  1
  Al  Al216  1  0.67377647  -0.00036750  0.81352415  1
  Al  Al217  1  0.00006316  0.67926843  0.81667373  1
  Al  Al218  1  0.50067250  0.68197734  0.81204551  1
  Al  Al219  1  0.17476392  0.68635494  0.50089219  1
  Al  Al220  1  0.32047642  0.82189077  0.00150245  1
  Al  Al221  1  0.82015609  0.49854657  0.17132259  1
  Al  Al222  1  0.67215594  0.49996685  0.82268781  1
  Al  Al223  1  -0.00153164  0.67687277  0.17865205  1
  Al  Al224  1  0.80748346  0.68145849  -0.00109304  1
  Al  Al225  1  0.00099206  0.32032286  0.67490660  1
  Al  Al226  1  0.50001959  0.32257756  0.18138365  1
  Al  Al227  1  0.17582158  0.30978634  0.50051084  1
  Al  Al228  1  0.69178670  0.30575519  -0.00179142  1
  Al  Al229  1  0.17789586  0.00247906  0.32606528  1
  Al  Al230  1  0.17135930  0.49867501  0.33211424  1
  Al  Al231  1  0.50098049  0.68079404  0.32657241  1
  Al  Al232  1  0.50134554  0.68250208  0.17379937  1
  Al  Al233  1  0.81262131  0.18070983  0.49989877  1
  Al  Al234  1  0.82575179  0.50024006  0.82333267  1
  Al  Al235  1  0.32525120  0.32132623  0.50055369  1
  Al  Al236  1  0.67132840  0.00026722  0.31625346  1
  Al  Al237  1  0.17961689  0.67596347  0.00132944  1
  Al  Al238  1  0.67228732  0.67384675  0.49907693  1
  Au  Au239  1  0.17242327  -0.00230065  0.33620867  1
  Au  Au240  1  0.34085560  0.50017758  0.66974169  1
  Au  Au241  1  0.82519046  0.00006089  0.67204282  1
  Au  Au242  1  0.50320348  0.17028482  0.65932014  1
  Au  Au243  1  0.32980607  0.49663084  0.15618820  1
  Au  Au244  1  0.16716523  0.50150065  0.66623235  1
  Au  Au245  1  0.17628249  0.00293897  0.16214794  1
  Au  Au246  1  0.16476444  -0.00214887  0.66815915  1
  Au  Au247  1  0.33821349  0.00000931  0.66955174  1
  Au  Au248  1  0.16596103  0.49388211  0.83247775  1
  Au  Au249  1  0.32635764  0.67089158  0.50155446  1
  Au  Au250  1  0.83141440  0.83559149  0.49942699  1
  Au  Au251  1  0.66025128  0.49559413  0.67230333  1
  Au  Au252  1  0.33908590  0.50146556  0.33085172  1
  Au  Au253  1  0.83620129  0.66384534  0.50197082  1
  Au  Au254  1  0.82250280  0.32794170  0.49969497  1
  Au  Au255  1  -0.00153851  0.67275418  0.16660828  1
  Au  Au256  1  -0.00550748  0.66856081  0.82115701  1
  Au  Au257  1  0.50147210  0.33575904  0.82874666  1
  Au  Au258  1  0.17079120  0.66721398  -0.00093656  1
  Au  Au259  1  0.82582403  0.00177273  0.33213194  1
  Au  Au260  1  0.66023743  0.67036115  0.49785583  1
  Au  Au261  1  -0.00029332  0.16165955  0.66879283  1
  Au  Au262  1  0.82905316  0.82808146  -0.00047791  1
  Au  Au263  1  0.82304775  0.00085570  0.16653333  1
  Au  Au264  1  0.50630635  0.32526943  0.33586797  1
  Au  Au265  1  0.00137282  0.84296271  0.82584475  1
  Au  Au266  1  0.50026251  0.32739440  0.16994813  1
  Au  Au267  1  0.33313594  0.32981607  0.49599272  1
  Au  Au268  1  0.83524099  0.50087649  0.67377439  1
  Au  Au269  1  0.16621470  0.49692717  0.34869209  1
  Au  Au270  1  0.49968116  0.16731782  0.16623216  1
  Au  Au271  1  0.83215389  0.50016422  0.17480215  1
  Au  Au272  1  -0.00036570  0.67334487  0.33730245  1
  Au  Au273  1  0.50102058  0.67029222  0.16985526  1
  Au  Au274  1  0.33378709  0.50015783  0.83729454  1
  Au  Au275  1  0.16446020  0.50017161  0.16689831  1
  Au  Au276  1  0.50078859  0.16539505  0.83539353  1
  Au  Au277  1  0.50263688  0.83195096  0.33075549  1
  Au  Au278  1  0.17240760  0.84056274  -0.00166247  1
  Au  Au279  1  0.00255579  0.33218758  0.67091935  1
  Au  Au280  1  0.49974434  0.82913658  0.82602478  1
  Au  Au281  1  0.33430562  0.00398188  0.32441732  1
  Au  Au282  1  0.81986996  0.17715169  0.00074174  1
  Au  Au283  1  0.33997107  0.67417872  -0.00417793  1
  Au  Au284  1  0.00144075  0.17014366  0.17375925  1
  Au  Au285  1  0.66676048  0.49889852  0.17027680  1
  Au  Au286  1  0.32604220  0.83673643  0.50177013  1
  Au  Au287  1  0.32803228  -0.00051255  0.83940210  1
