# generated using pymatgen
data_Ca24Ti8Al207Au49
_symmetry_space_group_name_H-M   'P 1'
_cell_length_a   17.32025789
_cell_length_b   17.32278013
_cell_length_c   17.32040033
_cell_angle_alpha   89.99700884
_cell_angle_beta   90.00049949
_cell_angle_gamma   90.00489389
_symmetry_Int_Tables_number   1
_chemical_formula_structural   Ca24Ti8Al207Au49
_chemical_formula_sum   'Ca24 Ti8 Al207 Au49'
_cell_volume   5196.72662173
_cell_formula_units_Z   1
loop_
 _symmetry_equiv_pos_site_id
 _symmetry_equiv_pos_as_xyz
  1  'x, y, z'
loop_
 _atom_site_type_symbol
 _atom_site_label
 _atom_site_symmetry_multiplicity
 _atom_site_fract_x
 _atom_site_fract_y
 _atom_site_fract_z
 _atom_site_occupancy
  Ca  Ca0  1  0.24746221  0.00289081  -0.00216259  1
  Ca  Ca1  1  0.25256111  -0.00284468  0.50481609  1
  Ca  Ca2  1  0.25129316  0.49648923  0.00630399  1
  Ca  Ca3  1  0.25150725  0.50393126  0.49602373  1
  Ca  Ca4  1  0.75834175  -0.00293932  0.00197807  1
  Ca  Ca5  1  0.75062870  -0.00279482  0.49913219  1
  Ca  Ca6  1  0.75414772  0.49913007  -0.00078037  1
  Ca  Ca7  1  0.75204089  0.50090905  0.50082095  1
  Ca  Ca8  1  0.00693325  0.24380533  -0.00117125  1
  Ca  Ca9  1  -0.00284461  0.24997580  0.50533710  1
  Ca  Ca10  1  0.00033314  0.75512654  0.00170702  1
  Ca  Ca11  1  0.00288087  0.75304845  0.49864112  1
  Ca  Ca12  1  0.49303707  0.25434495  0.00231431  1
  Ca  Ca13  1  0.50132464  0.24889883  0.49693877  1
  Ca  Ca14  1  0.49926266  0.75081202  0.00149670  1
  Ca  Ca15  1  0.49738168  0.75253930  0.50007381  1
  Ca  Ca16  1  0.00004025  -0.00008010  0.25295952  1
  Ca  Ca17  1  0.00089197  0.00222094  0.74603355  1
  Ca  Ca18  1  0.00525657  0.50096589  0.25254645  1
  Ca  Ca19  1  -0.00126190  0.49881828  0.74329067  1
  Ca  Ca20  1  0.50020495  -0.00190802  0.25577972  1
  Ca  Ca21  1  0.49803732  -0.00446657  0.73880268  1
  Ca  Ca22  1  0.49436946  0.50143748  0.25300445  1
  Ca  Ca23  1  0.50065977  0.50339565  0.74223448  1
  Ti  Ti24  1  0.25170204  0.24876903  0.25091274  1
  Ti  Ti25  1  0.25004338  0.24795091  0.74846692  1
  Ti  Ti26  1  0.25036595  0.75107834  0.25120657  1
  Ti  Ti27  1  0.25042012  0.75174863  0.74779710  1
  Ti  Ti28  1  0.74927890  0.24905350  0.25452240  1
  Ti  Ti29  1  0.75139851  0.25061665  0.74432678  1
  Ti  Ti30  1  0.74924968  0.75110884  0.25238294  1
  Ti  Ti31  1  0.75004266  0.74971661  0.74587045  1
  Al  Al32  1  0.08982816  0.08592032  0.07981960  1
  Al  Al33  1  0.07848664  0.08117661  0.59005964  1
  Al  Al34  1  0.09088442  0.57805710  0.08793503  1
  Al  Al35  1  0.08050400  0.57673659  0.57307219  1
  Al  Al36  1  0.58558125  0.06949236  0.09138111  1
  Al  Al37  1  0.59147352  0.08095753  0.57640658  1
  Al  Al38  1  0.58345161  0.58085473  0.09628035  1
  Al  Al39  1  0.57675772  0.59314395  0.58844952  1
  Al  Al40  1  0.40774573  0.41407632  0.08907435  1
  Al  Al41  1  0.41072557  0.41537506  0.57345726  1
  Al  Al42  1  0.42113964  0.90753211  0.08938545  1
  Al  Al43  1  0.40963964  0.90688784  0.58746297  1
  Al  Al44  1  0.92018077  0.42270774  0.08464974  1
  Al  Al45  1  0.90932718  0.41078090  0.59102881  1
  Al  Al46  1  0.91855388  0.91849080  0.08824480  1
  Al  Al47  1  0.90315066  0.91898617  0.58396217  1
  Al  Al48  1  0.41948323  0.07730379  0.42204114  1
  Al  Al49  1  0.40255673  0.08287397  0.91887646  1
  Al  Al50  1  0.40639788  0.58717787  0.41783499  1
  Al  Al51  1  0.41919658  0.57728753  0.91316252  1
  Al  Al52  1  0.91808758  0.08020504  0.42469787  1
  Al  Al53  1  0.92301753  0.07690647  0.91807449  1
  Al  Al54  1  0.92422227  0.59037894  0.41447715  1
  Al  Al55  1  0.91728769  0.58044032  0.91639522  1
  Al  Al56  1  0.08725484  0.42925988  0.41490523  1
  Al  Al57  1  0.08290927  0.40514168  0.92043249  1
  Al  Al58  1  0.09001188  0.91630412  0.41550663  1
  Al  Al59  1  0.08287183  0.91839966  0.91163559  1
  Al  Al60  1  0.58688360  0.41721647  0.41570570  1
  Al  Al61  1  0.57652574  0.42797035  0.92308210  1
  Al  Al62  1  0.58937264  0.91266502  0.42183623  1
  Al  Al63  1  0.57667204  0.91721810  0.91335007  1
  Al  Al64  1  0.08448600  0.07363451  0.41610671  1
  Al  Al65  1  0.09186413  0.08518588  0.91730690  1
  Al  Al66  1  0.08745142  0.58997224  0.40773670  1
  Al  Al67  1  0.07849121  0.58317038  0.92625202  1
  Al  Al68  1  0.59213251  0.08409248  0.41992282  1
  Al  Al69  1  0.57668280  0.07163203  0.91948174  1
  Al  Al70  1  0.58028452  0.57996646  0.42035042  1
  Al  Al71  1  0.57993666  0.58278506  0.91351019  1
  Al  Al72  1  0.40466141  0.42014920  0.41376311  1
  Al  Al73  1  0.40460755  0.41967353  0.92862262  1
  Al  Al74  1  0.41134021  0.90873212  0.42499810  1
  Al  Al75  1  0.41269330  0.91984699  0.91390886  1
  Al  Al76  1  0.91199840  0.41670363  0.43039088  1
  Al  Al77  1  0.91991458  0.41974910  0.90977533  1
  Al  Al78  1  0.90988914  0.90958226  0.42227788  1
  Al  Al79  1  0.92165670  0.91621470  0.91326132  1
  Al  Al80  1  0.09611762  0.41657776  0.08637874  1
  Al  Al81  1  0.07381026  0.41444339  0.58620432  1
  Al  Al82  1  0.08068776  0.91910943  0.08443862  1
  Al  Al83  1  0.09036537  0.92056836  0.58266409  1
  Al  Al84  1  0.57522427  0.42653668  0.09399789  1
  Al  Al85  1  0.58815428  0.42056827  0.57545067  1
  Al  Al86  1  0.58098976  0.91226901  0.10256752  1
  Al  Al87  1  0.58754132  0.90582813  0.58353475  1
  Al  Al88  1  0.41228802  0.08438018  0.07626655  1
  Al  Al89  1  0.40939448  0.07148423  0.58503436  1
  Al  Al90  1  0.41724344  0.57542697  0.09412102  1
  Al  Al91  1  0.41335501  0.60135607  0.58150848  1
  Al  Al92  1  0.91935098  0.07557337  0.08363608  1
  Al  Al93  1  0.91137331  0.08378572  0.59249010  1
  Al  Al94  1  0.91869258  0.58036373  0.08093291  1
  Al  Al95  1  0.91146898  0.57583364  0.58411030  1
  Al  Al96  1  0.24857048  0.13367046  0.13429202  1
  Al  Al97  1  0.24954144  0.12981606  0.63388544  1
  Al  Al98  1  0.25157362  0.63641944  0.13888392  1
  Al  Al99  1  0.25510892  0.63893567  0.63125343  1
  Al  Al100  1  0.74733131  0.13492284  0.14005127  1
  Al  Al101  1  0.75174663  0.13265596  0.62811843  1
  Al  Al102  1  0.74913173  0.63152648  0.14125888  1
  Al  Al103  1  0.75065343  0.63284187  0.63182231  1
  Al  Al104  1  0.25624774  0.36651840  0.13283112  1
  Al  Al105  1  0.25533294  0.36421708  0.63102390  1
  Al  Al106  1  0.24738462  0.86571199  0.13623834  1
  Al  Al107  1  0.25469297  0.86747254  0.63340344  1
  Al  Al108  1  0.74602934  0.37279092  0.14088514  1
  Al  Al109  1  0.75310256  0.36837227  0.62542464  1
  Al  Al110  1  0.74724459  0.86466084  0.13943066  1
  Al  Al111  1  0.74861228  0.86644529  0.63091045  1
  Al  Al112  1  0.25150533  0.12869586  0.36633549  1
  Al  Al113  1  0.24739003  0.13184589  0.86325014  1
  Al  Al114  1  0.25139936  0.63723048  0.36596264  1
  Al  Al115  1  0.25357355  0.63886211  0.86099304  1
  Al  Al116  1  0.74881181  0.13173943  0.37339498  1
  Al  Al117  1  0.75060528  0.13288171  0.85935322  1
  Al  Al118  1  0.74940486  0.63789733  0.36703627  1
  Al  Al119  1  0.74782357  0.63004809  0.85894195  1
  Al  Al120  1  0.25270873  0.36502394  0.36972844  1
  Al  Al121  1  0.25045657  0.36405591  0.86805523  1
  Al  Al122  1  0.25332169  0.86659825  0.36563941  1
  Al  Al123  1  0.24776411  0.86621690  0.86168828  1
  Al  Al124  1  0.75045169  0.36425938  0.37189930  1
  Al  Al125  1  0.75541254  0.37098266  0.85951031  1
  Al  Al126  1  0.74923379  0.86902520  0.36780723  1
  Al  Al127  1  0.74839663  0.86487349  0.86141512  1
  Al  Al128  1  0.13719363  0.24859546  0.13798446  1
  Al  Al129  1  0.13466158  0.25063496  0.63557183  1
  Al  Al130  1  0.13616132  0.74999895  0.14053733  1
  Al  Al131  1  0.13231961  0.75231511  0.63396643  1
  Al  Al132  1  0.63600064  0.25072213  0.14200729  1
  Al  Al133  1  0.63952337  0.25005228  0.62445610  1
  Al  Al134  1  0.62613150  0.75520611  0.14025231  1
  Al  Al135  1  0.63409095  0.75418759  0.62974876  1
  Al  Al136  1  0.13926336  0.24986004  0.36360570  1
  Al  Al137  1  0.13636445  0.24753319  0.86613022  1
  Al  Al138  1  0.13053703  0.75226469  0.36442050  1
  Al  Al139  1  0.13639160  0.75216612  0.86170474  1
  Al  Al140  1  0.63345538  0.24808043  0.36966076  1
  Al  Al141  1  0.63732115  0.24836552  0.85682638  1
  Al  Al142  1  0.63557136  0.75558465  0.36772150  1
  Al  Al143  1  0.63309376  0.75156348  0.85671730  1
  Al  Al144  1  0.36493015  0.24941786  0.13556269  1
  Al  Al145  1  0.36411354  0.24602790  0.62920700  1
  Al  Al146  1  0.37133314  0.75193030  0.13876550  1
  Al  Al147  1  0.36570700  0.75242568  0.62826321  1
  Al  Al148  1  0.85956598  0.25145786  0.13589193  1
  Al  Al149  1  0.86247169  0.25170343  0.62796420  1
  Al  Al150  1  0.86320269  0.74783090  0.13876592  1
  Al  Al151  1  0.86536035  0.75277393  0.62853861  1
  Al  Al152  1  0.36576594  0.25038699  0.36947378  1
  Al  Al153  1  0.36274048  0.24754436  0.86348564  1
  Al  Al154  1  0.36312305  0.75022597  0.36968812  1
  Al  Al155  1  0.36810512  0.75624478  0.85972157  1
  Al  Al156  1  0.86134417  0.24853919  0.37395433  1
  Al  Al157  1  0.86342396  0.25165628  0.85891457  1
  Al  Al158  1  0.86558147  0.75352005  0.37067562  1
  Al  Al159  1  0.86226066  0.74899268  0.85900288  1
  Al  Al160  1  0.13749437  0.13072518  0.25070388  1
  Al  Al161  1  0.13711743  0.12901795  0.74767841  1
  Al  Al162  1  0.13396883  0.63340795  0.25743368  1
  Al  Al163  1  0.13511190  0.63810077  0.74703541  1
  Al  Al164  1  0.63463126  0.12894095  0.25586720  1
  Al  Al165  1  0.63316209  0.13528706  0.74010252  1
  Al  Al166  1  0.63295551  0.63777406  0.24833957  1
  Al  Al167  1  0.63295099  0.63364687  0.74187106  1
  Al  Al168  1  0.36635837  0.13313107  0.25479170  1
  Al  Al169  1  0.36580530  0.13430318  0.74501203  1
  Al  Al170  1  0.36510244  0.63506866  0.24876842  1
  Al  Al171  1  0.36900321  0.63852126  0.74190162  1
  Al  Al172  1  0.86242431  0.13668717  0.25539843  1
  Al  Al173  1  0.86241881  0.13039323  0.74446469  1
  Al  Al174  1  0.86994688  0.63672925  0.25688731  1
  Al  Al175  1  0.86501439  0.63184467  0.74574461  1
  Al  Al176  1  0.14061906  0.36594962  0.25188412  1
  Al  Al177  1  0.13741545  0.36246153  0.74504970  1
  Al  Al178  1  0.13717665  0.87118809  0.25638295  1
  Al  Al179  1  0.13878474  0.87269590  0.74265010  1
  Al  Al180  1  0.63454478  0.36408981  0.25667350  1
  Al  Al181  1  0.64112695  0.37029113  0.73990662  1
  Al  Al182  1  0.63513303  0.87157742  0.25226625  1
  Al  Al183  1  0.62853912  0.86466510  0.74302415  1
  Al  Al184  1  0.36313091  0.36544978  0.25214080  1
  Al  Al185  1  0.36275164  0.36250346  0.74471405  1
  Al  Al186  1  0.36732433  0.86637602  0.24961252  1
  Al  Al187  1  0.36996595  0.86482061  0.74234286  1
  Al  Al188  1  0.86125249  0.36413502  0.25056413  1
  Al  Al189  1  0.86606523  0.36996890  0.74170289  1
  Al  Al190  1  0.86507419  0.86517705  0.25760406  1
  Al  Al191  1  0.86213214  0.86998712  0.74256465  1
  Al  Al192  1  -0.00149389  0.17195491  0.17235622  1
  Al  Al193  1  0.32533963  0.50030286  0.81434469  1
  Al  Al194  1  -0.00158845  0.18904566  0.68335632  1
  Al  Al195  1  0.50134347  0.32360380  0.66553137  1
  Al  Al196  1  0.49868399  0.16870751  0.82466639  1
  Al  Al197  1  0.00146285  0.17210450  0.32784714  1
  Al  Al198  1  0.18170359  0.67458476  0.49944140  1
  Al  Al199  1  0.83128325  0.32492318  0.00091998  1
  Al  Al200  1  0.17418360  0.32746302  0.50161590  1
  Al  Al201  1  0.50044482  0.16917948  0.17481404  1
  Al  Al202  1  0.00165517  0.67006747  0.18022554  1
  Al  Al203  1  0.66996819  0.16675920  0.00077261  1
  Al  Al204  1  0.67770352  0.67853154  0.49987844  1
  Al  Al205  1  0.31832799  0.82646710  0.00001638  1
  Al  Al206  1  0.67311220  0.83200596  0.00135104  1
  Al  Al207  1  0.49893211  0.32902194  0.82764013  1
  Al  Al208  1  0.30160830  0.19537836  -0.00081596  1
  Al  Al209  1  0.67339677  0.50265874  0.31595863  1
  Al  Al210  1  0.32182320  -0.00314409  0.17673976  1
  Al  Al211  1  0.00238779  0.67518914  0.67378594  1
  Al  Al212  1  0.50236480  0.67773166  0.81505170  1
  Al  Al213  1  0.82784693  0.16915932  -0.00047898  1
  Al  Al214  1  0.00160104  0.32640830  0.17351278  1
  Al  Al215  1  -0.00115378  0.32680052  0.32420929  1
  Al  Al216  1  0.49900149  0.32609888  0.18224878  1
  Al  Al217  1  0.49988077  0.82765340  0.32412668  1
  Al  Al218  1  0.00030109  0.82460384  0.18671879  1
  Al  Al219  1  0.82905773  0.82738613  -0.00031042  1
  Al  Al220  1  0.30827751  0.50164454  0.31171346  1
  Al  Al221  1  0.17142672  0.17336461  0.50069686  1
  Al  Al222  1  0.00004645  0.82141713  0.81385863  1
  Al  Al223  1  0.16689131  0.50083071  0.82469708  1
  Al  Al224  1  0.82764589  0.67562863  -0.00115882  1
  Al  Al225  1  0.49903022  0.67492023  0.32522340  1
  Al  Al226  1  0.19180153  0.50059444  0.19112230  1
  Al  Al227  1  0.33280788  0.67423583  0.00078389  1
  Al  Al228  1  0.17472893  0.68295023  0.00122214  1
  Al  Al229  1  0.67193269  0.67186655  0.00310284  1
  Al  Al230  1  0.66708452  0.32889571  0.00461966  1
  Al  Al231  1  0.68096012  -0.00088120  0.81856504  1
  Al  Al232  1  0.18745626  0.31108315  0.00416840  1
  Al  Al233  1  0.00249152  0.31966862  0.81027427  1
  Al  Al234  1  0.31947862  -0.00126830  0.81022271  1
  Al  Al235  1  0.18131810  0.50091600  0.67180254  1
  Al  Al236  1  0.82945814  0.50039640  0.32327833  1
  Al  Al237  1  0.18631368  0.82593300  0.50017247  1
  Al  Al238  1  0.81563216  -0.00001490  0.18233218  1
  Au  Au239  1  0.32581920  0.65889007  0.00274011  1
  Au  Au240  1  0.17907359  0.31963140  0.00016434  1
  Au  Au241  1  0.67551074  -0.00250810  0.66336708  1
  Au  Au242  1  0.17431551  0.16121399  0.50171823  1
  Au  Au243  1  -0.00260171  0.33044522  0.34045960  1
  Au  Au244  1  0.00028866  0.66643417  0.66502491  1
  Au  Au245  1  0.67739297  0.65586781  0.00450011  1
  Au  Au246  1  0.83669490  0.67702320  0.49931493  1
  Au  Au247  1  0.67009063  0.84353096  0.00602491  1
  Au  Au248  1  0.50254567  0.16511092  0.83606830  1
  Au  Au249  1  0.67364034  0.50370688  0.66151361  1
  Au  Au250  1  0.33560100  0.17279135  0.50057043  1
  Au  Au251  1  0.49610584  0.33892192  0.33145397  1
  Au  Au252  1  0.17512078  0.50425841  0.83930203  1
  Au  Au253  1  0.50115673  0.33604995  0.66733362  1
  Au  Au254  1  0.50163761  0.17198308  0.16223406  1
  Au  Au255  1  0.48967812  0.33687993  0.84067114  1
  Au  Au256  1  0.66925732  -0.00072655  0.82294482  1
  Au  Au257  1  0.00083172  0.16497300  0.83006891  1
  Au  Au258  1  0.66814874  -0.00188873  0.32790606  1
  Au  Au259  1  0.83661415  -0.00078599  0.82362642  1
  Au  Au260  1  0.00050437  0.82891189  0.33631647  1
  Au  Au261  1  0.00035425  0.67593371  0.83948784  1
  Au  Au262  1  0.16576469  0.83273622  0.00001916  1
  Au  Au263  1  0.82450498  0.50116933  0.16776741  1
  Au  Au264  1  0.67478785  0.32683255  0.49703769  1
  Au  Au265  1  0.32450039  -0.00353375  0.34120209  1
  Au  Au266  1  -0.00053414  0.67048764  0.16740387  1
  Au  Au267  1  0.32935215  0.00021366  0.16754659  1
  Au  Au268  1  0.00036021  0.32794212  0.81988779  1
  Au  Au269  1  0.66807860  0.49815702  0.82743422  1
  Au  Au270  1  0.82925658  0.17024606  0.50146832  1
  Au  Au271  1  0.50040097  0.15945117  0.66115243  1
  Au  Au272  1  -0.00164029  0.84252885  0.66659223  1
  Au  Au273  1  0.50003370  0.66891976  0.82405377  1
  Au  Au274  1  0.82612510  0.50184373  0.33541030  1
  Au  Au275  1  0.49645984  0.83360891  0.82144841  1
  Au  Au276  1  0.49846466  0.67344330  0.17510275  1
  Au  Au277  1  0.66759798  0.34497844  0.01006355  1
  Au  Au278  1  0.66529308  0.68114056  0.49836234  1
  Au  Au279  1  0.17181190  -0.00015286  0.82190431  1
  Au  Au280  1  0.33352828  0.50446064  0.66187161  1
  Au  Au281  1  0.83515920  0.50253858  0.82095408  1
  Au  Au282  1  0.50203124  0.16653610  0.33699791  1
  Au  Au283  1  0.83556146  0.00114242  0.32933462  1
  Au  Au284  1  0.16463097  0.00025397  0.17712922  1
  Au  Au285  1  0.84239553  0.32791234  -0.00413820  1
  Au  Au286  1  0.17360568  0.33989033  0.49861433  1
  Au  Au287  1  0.67610515  0.15098171  0.00206731  1
