# generated using pymatgen
data_Ca24Ti8Al207Au49
_symmetry_space_group_name_H-M   'P 1'
_cell_length_a   17.31886847
_cell_length_b   17.31886971
_cell_length_c   17.31846821
_cell_angle_alpha   89.99961099
_cell_angle_beta   90.00329288
_cell_angle_gamma   90.00376449
_symmetry_Int_Tables_number   1
_chemical_formula_structural   Ca24Ti8Al207Au49
_chemical_formula_sum   'Ca24 Ti8 Al207 Au49'
_cell_volume   5194.55721590
_cell_formula_units_Z   1
loop_
 _symmetry_equiv_pos_site_id
 _symmetry_equiv_pos_as_xyz
  1  'x, y, z'
loop_
 _atom_site_type_symbol
 _atom_site_label
 _atom_site_symmetry_multiplicity
 _atom_site_fract_x
 _atom_site_fract_y
 _atom_site_fract_z
 _atom_site_occupancy
  Ca  Ca0  1  0.25143115  -0.00128847  -0.00213433  1
  Ca  Ca1  1  0.24783696  -0.00005404  0.50363792  1
  Ca  Ca2  1  0.25833636  0.50475006  0.00050202  1
  Ca  Ca3  1  0.25190024  0.50006111  0.50222735  1
  Ca  Ca4  1  0.74642930  0.00068521  0.00143913  1
  Ca  Ca5  1  0.74817525  0.00030750  0.49890524  1
  Ca  Ca6  1  0.74396905  0.50020721  0.00342302  1
  Ca  Ca7  1  0.74622881  0.50129389  0.49759108  1
  Ca  Ca8  1  -0.00325176  0.24531897  0.00305966  1
  Ca  Ca9  1  0.00205096  0.24938845  0.49737035  1
  Ca  Ca10  1  0.00137263  0.75641253  -0.00064087  1
  Ca  Ca11  1  -0.00253928  0.75126660  0.50288922  1
  Ca  Ca12  1  0.50698923  0.24966887  -0.00374892  1
  Ca  Ca13  1  0.49826644  0.25338602  0.50480778  1
  Ca  Ca14  1  0.50113217  0.74746861  0.00056332  1
  Ca  Ca15  1  0.50341231  0.74709195  0.49813225  1
  Ca  Ca16  1  0.00027245  -0.00149182  0.24949834  1
  Ca  Ca17  1  -0.00156525  -0.00256511  0.74709062  1
  Ca  Ca18  1  -0.00478934  0.50061921  0.25174762  1
  Ca  Ca19  1  -0.00258549  0.50114093  0.74630994  1
  Ca  Ca20  1  0.50182930  -0.00523331  0.24591907  1
  Ca  Ca21  1  0.50102517  0.00739050  0.74851784  1
  Ca  Ca22  1  0.50398058  0.50389232  0.24412703  1
  Ca  Ca23  1  0.50333399  0.49520256  0.74795555  1
  Ti  Ti24  1  0.25035986  0.24991595  0.25118770  1
  Ti  Ti25  1  0.25167576  0.25083980  0.74944515  1
  Ti  Ti26  1  0.25131686  0.75066387  0.24687798  1
  Ti  Ti27  1  0.24916811  0.75170925  0.75241260  1
  Ti  Ti28  1  0.74913699  0.24902400  0.24951917  1
  Ti  Ti29  1  0.75003085  0.24885446  0.74922975  1
  Ti  Ti30  1  0.74941258  0.75062855  0.24883184  1
  Ti  Ti31  1  0.74890931  0.75058166  0.75132206  1
  Al  Al32  1  0.08064570  0.07773272  0.10064914  1
  Al  Al33  1  0.08670798  0.07095916  0.58413512  1
  Al  Al34  1  0.08990468  0.59496711  0.07768959  1
  Al  Al35  1  0.07871754  0.58431565  0.58009268  1
  Al  Al36  1  0.59018200  0.09319222  0.08217710  1
  Al  Al37  1  0.57867736  0.08505461  0.59244111  1
  Al  Al38  1  0.59108424  0.58917304  0.09234165  1
  Al  Al39  1  0.59118563  0.58186905  0.58074889  1
  Al  Al40  1  0.41799045  0.41298748  0.07223330  1
  Al  Al41  1  0.41700042  0.40896190  0.58745786  1
  Al  Al42  1  0.41520674  0.90673166  0.08112613  1
  Al  Al43  1  0.42245029  0.93034843  0.58341410  1
  Al  Al44  1  0.91185325  0.42641172  0.08704147  1
  Al  Al45  1  0.91290730  0.41844198  0.58024607  1
  Al  Al46  1  0.91755710  0.92143814  0.07339376  1
  Al  Al47  1  0.91859214  0.91109312  0.59358396  1
  Al  Al48  1  0.42183795  0.07924633  0.42701887  1
  Al  Al49  1  0.42684734  0.08897134  0.90722265  1
  Al  Al50  1  0.42624937  0.59331262  0.40998603  1
  Al  Al51  1  0.41556634  0.57973805  0.92842783  1
  Al  Al52  1  0.91033979  0.07937668  0.40803472  1
  Al  Al53  1  0.90627351  0.07755277  0.91979781  1
  Al  Al54  1  0.91879342  0.58728746  0.41070593  1
  Al  Al55  1  0.90640578  0.58896444  0.92510743  1
  Al  Al56  1  0.08214271  0.42261327  0.42103901  1
  Al  Al57  1  0.07735706  0.42307234  0.91932637  1
  Al  Al58  1  0.07791274  0.92015638  0.42521869  1
  Al  Al59  1  0.09524497  0.90949127  0.91700610  1
  Al  Al60  1  0.58363152  0.43373600  0.41936268  1
  Al  Al61  1  0.58085265  0.40701198  0.91186470  1
  Al  Al62  1  0.59145195  0.89893244  0.41462314  1
  Al  Al63  1  0.58886705  0.92419140  0.92443224  1
  Al  Al64  1  0.07732609  0.08282219  0.41798084  1
  Al  Al65  1  0.07718369  0.06522972  0.91728736  1
  Al  Al66  1  0.07722605  0.58823245  0.41234415  1
  Al  Al67  1  0.08972242  0.59114781  0.92357308  1
  Al  Al68  1  0.58155180  0.07322085  0.41822896  1
  Al  Al69  1  0.58923290  0.09655639  0.91574833  1
  Al  Al70  1  0.58751177  0.59363975  0.40637598  1
  Al  Al71  1  0.58992846  0.58088246  0.92929711  1
  Al  Al72  1  0.41350082  0.41641345  0.42993318  1
  Al  Al73  1  0.41953031  0.39940413  0.91286056  1
  Al  Al74  1  0.43312558  0.90711581  0.40975048  1
  Al  Al75  1  0.40801986  0.91904708  0.92280544  1
  Al  Al76  1  0.91400422  0.42033065  0.41975174  1
  Al  Al77  1  0.91771928  0.42559667  0.92224669  1
  Al  Al78  1  0.90969393  0.92167535  0.41402862  1
  Al  Al79  1  0.90521113  0.91751910  0.90925658  1
  Al  Al80  1  0.07617436  0.41946888  0.07987326  1
  Al  Al81  1  0.08304872  0.41944617  0.57847412  1
  Al  Al82  1  0.10118816  0.91807842  0.07979829  1
  Al  Al83  1  0.08369522  0.90969325  0.59466961  1
  Al  Al84  1  0.58860315  0.42160340  0.08300195  1
  Al  Al85  1  0.58317391  0.42016366  0.59441570  1
  Al  Al86  1  0.58381003  0.91375042  0.08288364  1
  Al  Al87  1  0.58874750  0.91400296  0.57591612  1
  Al  Al88  1  0.42843063  0.08861852  0.08971549  1
  Al  Al89  1  0.41675729  0.08995681  0.59545330  1
  Al  Al90  1  0.42656123  0.59474270  0.08723946  1
  Al  Al91  1  0.42339710  0.57606487  0.57439170  1
  Al  Al92  1  0.91947795  0.08975706  0.08332602  1
  Al  Al93  1  0.91164691  0.07241945  0.58283454  1
  Al  Al94  1  0.89701799  0.58786499  0.08356875  1
  Al  Al95  1  0.91653497  0.58267250  0.58211964  1
  Al  Al96  1  0.24472371  0.13360443  0.13691587  1
  Al  Al97  1  0.24932739  0.13638820  0.63543544  1
  Al  Al98  1  0.25542822  0.63439746  0.13548067  1
  Al  Al99  1  0.24863339  0.63798366  0.63593983  1
  Al  Al100  1  0.74566623  0.13476176  0.13460960  1
  Al  Al101  1  0.75116826  0.12682599  0.63714206  1
  Al  Al102  1  0.74523014  0.63549996  0.13350470  1
  Al  Al103  1  0.74871596  0.63265091  0.63437274  1
  Al  Al104  1  0.25585665  0.36242641  0.13339925  1
  Al  Al105  1  0.25346667  0.36375324  0.63201931  1
  Al  Al106  1  0.24954303  0.86388960  0.12724113  1
  Al  Al107  1  0.24508400  0.86728141  0.63681860  1
  Al  Al108  1  0.74636619  0.36055981  0.13433021  1
  Al  Al109  1  0.74649467  0.36839967  0.63790433  1
  Al  Al110  1  0.75056576  0.86388964  0.13494336  1
  Al  Al111  1  0.75062070  0.87202941  0.63747413  1
  Al  Al112  1  0.25146149  0.13278315  0.36382300  1
  Al  Al113  1  0.25317817  0.13896878  0.86689992  1
  Al  Al114  1  0.25186091  0.63890068  0.35980499  1
  Al  Al115  1  0.25230374  0.63329877  0.86716014  1
  Al  Al116  1  0.75188817  0.12662569  0.36140876  1
  Al  Al117  1  0.74704933  0.13338236  0.86392312  1
  Al  Al118  1  0.74781512  0.63669332  0.36311294  1
  Al  Al119  1  0.74828392  0.63634995  0.87244951  1
  Al  Al120  1  0.25166643  0.36513862  0.36757971  1
  Al  Al121  1  0.26056213  0.36319247  0.86819975  1
  Al  Al122  1  0.24834457  0.86290854  0.36206488  1
  Al  Al123  1  0.24851144  0.86391639  0.87257999  1
  Al  Al124  1  0.75014809  0.36322816  0.36384765  1
  Al  Al125  1  0.74567287  0.36313160  0.86464547  1
  Al  Al126  1  0.74864283  0.86468942  0.36593920  1
  Al  Al127  1  0.75319548  0.87312498  0.86427146  1
  Al  Al128  1  0.13337305  0.24861130  0.13557911  1
  Al  Al129  1  0.13496745  0.25279054  0.62921416  1
  Al  Al130  1  0.13186731  0.75218880  0.13297728  1
  Al  Al131  1  0.13295858  0.75135458  0.63534779  1
  Al  Al132  1  0.62822214  0.24507180  0.13573540  1
  Al  Al133  1  0.63544124  0.24517657  0.64111972  1
  Al  Al134  1  0.63176229  0.74565447  0.13283802  1
  Al  Al135  1  0.63754531  0.75239109  0.63765242  1
  Al  Al136  1  0.13334915  0.24838907  0.36752134  1
  Al  Al137  1  0.13531674  0.25530594  0.86410138  1
  Al  Al138  1  0.13275421  0.74749585  0.36144617  1
  Al  Al139  1  0.13249419  0.75529068  0.86697480  1
  Al  Al140  1  0.63648963  0.24955618  0.36139855  1
  Al  Al141  1  0.62939004  0.24623360  0.85895976  1
  Al  Al142  1  0.63125229  0.74922476  0.36197874  1
  Al  Al143  1  0.63489666  0.74924992  0.86366245  1
  Al  Al144  1  0.37011891  0.24976617  0.13619427  1
  Al  Al145  1  0.36688956  0.25014585  0.63423970  1
  Al  Al146  1  0.36584256  0.74967139  0.12869470  1
  Al  Al147  1  0.36445124  0.75050781  0.63842964  1
  Al  Al148  1  0.86275829  0.24599521  0.13512408  1
  Al  Al149  1  0.86345893  0.24674747  0.63726944  1
  Al  Al150  1  0.86098930  0.74792003  0.12827176  1
  Al  Al151  1  0.86257717  0.75539616  0.63469753  1
  Al  Al152  1  0.36530119  0.25396135  0.36845041  1
  Al  Al153  1  0.37385418  0.25007916  0.86421436  1
  Al  Al154  1  0.36992792  0.75057128  0.36208492  1
  Al  Al155  1  0.36355945  0.74862517  0.87392894  1
  Al  Al156  1  0.86826522  0.24542008  0.36335861  1
  Al  Al157  1  0.86303357  0.24736484  0.86292840  1
  Al  Al158  1  0.86509531  0.74747463  0.36696825  1
  Al  Al159  1  0.86064801  0.75169524  0.87040962  1
  Al  Al160  1  0.12953255  0.13470310  0.25033924  1
  Al  Al161  1  0.13604782  0.13590380  0.74902230  1
  Al  Al162  1  0.13274611  0.63867851  0.24674077  1
  Al  Al163  1  0.13605227  0.64036859  0.75207736  1
  Al  Al164  1  0.63388036  0.13291869  0.25014691  1
  Al  Al165  1  0.63479582  0.12779465  0.75120065  1
  Al  Al166  1  0.63107753  0.63736040  0.24799253  1
  Al  Al167  1  0.63910998  0.63014816  0.75066705  1
  Al  Al168  1  0.36449420  0.13484346  0.24605305  1
  Al  Al169  1  0.37084175  0.14008062  0.75082913  1
  Al  Al170  1  0.37118966  0.63617543  0.24778682  1
  Al  Al171  1  0.36330698  0.63711826  0.75389161  1
  Al  Al172  1  0.86865596  0.13618071  0.24917333  1
  Al  Al173  1  0.86265724  0.12785084  0.75194826  1
  Al  Al174  1  0.86191970  0.63571114  0.24992956  1
  Al  Al175  1  0.85890159  0.63391343  0.74875455  1
  Al  Al176  1  0.13495732  0.36254689  0.25026088  1
  Al  Al177  1  0.13329968  0.36263151  0.74768003  1
  Al  Al178  1  0.13514312  0.86639645  0.24257462  1
  Al  Al179  1  0.12897760  0.86448739  0.74762652  1
  Al  Al180  1  0.63247181  0.36601505  0.24223769  1
  Al  Al181  1  0.63374184  0.36632119  0.75214040  1
  Al  Al182  1  0.63304067  0.86273772  0.25357782  1
  Al  Al183  1  0.63948391  0.87347170  0.75132224  1
  Al  Al184  1  0.36718780  0.36761546  0.24576359  1
  Al  Al185  1  0.36843755  0.36310163  0.75217767  1
  Al  Al186  1  0.36457413  0.86515324  0.24877037  1
  Al  Al187  1  0.36145533  0.86457872  0.75401494  1
  Al  Al188  1  0.86479777  0.36382713  0.25066934  1
  Al  Al189  1  0.86784631  0.36491829  0.74879472  1
  Al  Al190  1  0.86627527  0.86146593  0.25088923  1
  Al  Al191  1  0.86705758  0.86335600  0.75122866  1
  Al  Al192  1  0.81997026  0.82514174  0.50160238  1
  Al  Al193  1  -0.00151808  0.17496510  0.83324003  1
  Al  Al194  1  0.82734227  0.32851890  0.00047622  1
  Al  Al195  1  -0.00295353  0.31748884  0.17716154  1
  Al  Al196  1  0.49835140  0.17267257  0.31759948  1
  Al  Al197  1  0.68107871  0.81480443  -0.00071523  1
  Al  Al198  1  0.32773251  0.82432027  0.50103456  1
  Al  Al199  1  0.19633692  0.69602085  0.00042051  1
  Al  Al200  1  0.31391150  0.00147713  0.68344188  1
  Al  Al201  1  0.50139877  0.31365906  0.68603693  1
  Al  Al202  1  0.17353693  0.50201581  0.32596921  1
  Al  Al203  1  0.49989713  0.83353954  0.82734548  1
  Al  Al204  1  0.18222731  -0.00126356  0.81120713  1
  Al  Al205  1  0.32974956  0.50251029  0.32738492  1
  Al  Al206  1  0.17686590  -0.00087906  0.31610723  1
  Al  Al207  1  0.50033514  0.67007047  0.83008808  1
  Al  Al208  1  0.68040618  0.68971636  0.49968891  1
  Al  Al209  1  0.50203999  0.33263460  0.32467159  1
  Al  Al210  1  -0.00265416  0.68217423  0.67491976  1
  Al  Al211  1  0.67466719  0.17340031  0.49983691  1
  Al  Al212  1  0.32929671  0.50097582  0.67850634  1
  Al  Al213  1  0.67002958  0.33219838  0.50174219  1
  Al  Al214  1  0.68169197  0.50041410  0.30917097  1
  Al  Al215  1  0.17790475  0.50000622  0.16875247  1
  Al  Al216  1  0.32365413  0.17577180  0.50102754  1
  Al  Al217  1  0.17933299  0.49963810  0.82731600  1
  Al  Al218  1  0.18553910  0.32701925  0.00037772  1
  Al  Al219  1  -0.00386074  0.68175841  0.82794020  1
  Al  Al220  1  0.80490151  0.49898486  0.18103960  1
  Al  Al221  1  0.31791549  -0.00025009  0.17412104  1
  Al  Al222  1  0.50146023  0.67161927  0.67309103  1
  Al  Al223  1  0.49904297  0.81247666  0.18627431  1
  Al  Al224  1  0.50097336  0.82832913  0.67205821  1
  Al  Al225  1  0.00013876  0.17265663  0.66850933  1
  Al  Al226  1  0.17487826  0.50118555  0.67121536  1
  Al  Al227  1  0.32058661  0.67264399  0.49925556  1
  Al  Al228  1  0.82002380  0.50130780  0.82178109  1
  Al  Al229  1  0.00060504  0.82002835  0.32399391  1
  Al  Al230  1  -0.00482123  0.67660041  0.17937470  1
  Al  Al231  1  0.67394419  -0.00169207  0.18050771  1
  Al  Al232  1  0.67507727  0.31102384  -0.00115978  1
  Al  Al233  1  0.82320394  0.31847033  0.50026316  1
  Al  Al234  1  0.16574361  0.16858008  0.00101782  1
  Al  Al235  1  0.81095765  0.17632572  -0.00045180  1
  Al  Al236  1  0.33379499  0.18198590  0.00046979  1
  Al  Al237  1  0.17388122  0.81998756  0.49882066  1
  Al  Al238  1  0.83122756  -0.00027769  0.18556234  1
  Au  Au239  1  0.17907201  0.33840947  0.49855717  1
  Au  Au240  1  -0.00022210  0.16041872  0.67110034  1
  Au  Au241  1  0.50378236  0.84887467  0.82743925  1
  Au  Au242  1  0.82737524  0.66501765  0.49824282  1
  Au  Au243  1  0.16333598  0.50304840  0.82281258  1
  Au  Au244  1  0.67326560  -0.00182469  0.66542398  1
  Au  Au245  1  -0.00201541  0.82519452  0.33995704  1
  Au  Au246  1  -0.00209654  0.16321770  0.32256145  1
  Au  Au247  1  0.33299140  0.49911874  0.33935760  1
  Au  Au248  1  -0.00607013  0.66538661  0.16699407  1
  Au  Au249  1  0.31891414  0.81589446  -0.00026544  1
  Au  Au250  1  0.32831786  0.00530338  0.83037188  1
  Au  Au251  1  0.49791975  0.15567162  0.32052476  1
  Au  Au252  1  0.83008038  0.50021925  0.32629894  1
  Au  Au253  1  0.00514836  0.84044691  0.16068094  1
  Au  Au254  1  0.16616660  -0.00276718  0.32943517  1
  Au  Au255  1  -0.00295945  0.16292382  0.83056276  1
  Au  Au256  1  0.34276723  0.49545243  0.83088483  1
  Au  Au257  1  0.33620832  0.17673582  0.49895793  1
  Au  Au258  1  0.00033868  0.33696859  0.66665263  1
  Au  Au259  1  0.00196278  0.33186604  0.33760647  1
  Au  Au260  1  0.17567876  0.34091712  -0.00222603  1
  Au  Au261  1  -0.00402401  0.66562706  0.83142909  1
  Au  Au262  1  0.82973851  0.00308871  0.16915389  1
  Au  Au263  1  0.67772900  0.00392215  0.83713443  1
  Au  Au264  1  0.16759426  0.66834029  0.49742213  1
  Au  Au265  1  0.82113091  0.49941820  0.66432078  1
  Au  Au266  1  0.50309856  0.33458226  0.34163043  1
  Au  Au267  1  -0.00051651  0.84212675  0.82518004  1
  Au  Au268  1  0.50231162  0.82424865  0.17426145  1
  Au  Au269  1  0.66533236  0.49769161  0.83063417  1
  Au  Au270  1  0.16852894  0.16544348  0.50164617  1
  Au  Au271  1  0.32938484  0.00068860  0.16125186  1
  Au  Au272  1  0.16180325  0.50173080  0.17418711  1
  Au  Au273  1  0.67213328  -0.00567072  0.33232342  1
  Au  Au274  1  0.34062060  -0.00446602  0.33540573  1
  Au  Au275  1  0.65867452  0.17875323  0.50090765  1
  Au  Au276  1  0.82434947  0.50227797  0.83335935  1
  Au  Au277  1  0.33839338  0.83668851  0.50089037  1
  Au  Au278  1  0.50113001  0.32645855  0.15724584  1
  Au  Au279  1  -0.00415798  0.32892789  0.84017829  1
  Au  Au280  1  0.16197312  0.15312389  0.00307900  1
  Au  Au281  1  0.50382766  0.65493174  0.83088014  1
  Au  Au282  1  0.83785391  0.16914576  0.49905116  1
  Au  Au283  1  0.82835406  0.82423088  -0.00047075  1
  Au  Au284  1  0.34955811  0.17750220  -0.00000287  1
  Au  Au285  1  0.34263342  0.50122869  0.16356266  1
  Au  Au286  1  0.81787155  0.83769823  0.50310247  1
  Au  Au287  1  -0.00548515  0.32361699  0.16135626  1
