# generated using pymatgen
data_Ca24Ti8Al207Au49
_symmetry_space_group_name_H-M   'P 1'
_cell_length_a   17.32386226
_cell_length_b   17.32337808
_cell_length_c   17.32475369
_cell_angle_alpha   90.00070061
_cell_angle_beta   90.00546539
_cell_angle_gamma   89.99617566
_symmetry_Int_Tables_number   1
_chemical_formula_structural   Ca24Ti8Al207Au49
_chemical_formula_sum   'Ca24 Ti8 Al207 Au49'
_cell_volume   5199.29395215
_cell_formula_units_Z   1
loop_
 _symmetry_equiv_pos_site_id
 _symmetry_equiv_pos_as_xyz
  1  'x, y, z'
loop_
 _atom_site_type_symbol
 _atom_site_label
 _atom_site_symmetry_multiplicity
 _atom_site_fract_x
 _atom_site_fract_y
 _atom_site_fract_z
 _atom_site_occupancy
  Ca  Ca0  1  0.25012731  -0.00122257  -0.00258903  1
  Ca  Ca1  1  0.24649565  0.00158128  0.50031633  1
  Ca  Ca2  1  0.24838407  0.50242772  -0.00402816  1
  Ca  Ca3  1  0.24627375  0.49637675  0.50311116  1
  Ca  Ca4  1  0.74766294  -0.00112464  -0.00288510  1
  Ca  Ca5  1  0.75077526  -0.00098317  0.49840780  1
  Ca  Ca6  1  0.75203210  0.50000975  -0.00550857  1
  Ca  Ca7  1  0.74840314  0.50136256  0.50411497  1
  Ca  Ca8  1  0.00170023  0.25029302  0.00193790  1
  Ca  Ca9  1  0.00429284  0.25083321  0.50008863  1
  Ca  Ca10  1  0.00107047  0.75360509  -0.00193985  1
  Ca  Ca11  1  0.00015132  0.75916597  0.50285830  1
  Ca  Ca12  1  0.49696074  0.24407509  -0.00408713  1
  Ca  Ca13  1  0.49471514  0.25071370  0.50214609  1
  Ca  Ca14  1  0.49628544  0.75444130  -0.00486606  1
  Ca  Ca15  1  0.50102347  0.75697862  0.50550429  1
  Ca  Ca16  1  0.00283375  0.00121498  0.24726729  1
  Ca  Ca17  1  0.00312303  -0.00469356  0.75542390  1
  Ca  Ca18  1  0.00356055  0.49784550  0.24221476  1
  Ca  Ca19  1  0.00454374  0.50352993  0.75165760  1
  Ca  Ca20  1  0.49687390  -0.00320196  0.24886858  1
  Ca  Ca21  1  0.49745565  -0.00235691  0.75885970  1
  Ca  Ca22  1  0.49872266  0.50174341  0.24396882  1
  Ca  Ca23  1  0.49793607  0.50124790  0.75467952  1
  Ti  Ti24  1  0.25057328  0.24864764  0.24686529  1
  Ti  Ti25  1  0.24964989  0.24793361  0.75291196  1
  Ti  Ti26  1  0.24774768  0.75193768  0.24679296  1
  Ti  Ti27  1  0.24891892  0.75280266  0.75112259  1
  Ti  Ti28  1  0.75082266  0.24789009  0.24743703  1
  Ti  Ti29  1  0.74821558  0.24852893  0.75136645  1
  Ti  Ti30  1  0.75232167  0.75254617  0.24783062  1
  Ti  Ti31  1  0.74958497  0.75045610  0.75223558  1
  Al  Al32  1  0.08807924  0.09130188  0.08061484  1
  Al  Al33  1  0.09097801  0.07543999  0.58987547  1
  Al  Al34  1  0.09176572  0.58621709  0.07595887  1
  Al  Al35  1  0.08569699  0.57867725  0.59548113  1
  Al  Al36  1  0.58667828  0.07775778  0.08236420  1
  Al  Al37  1  0.57478891  0.07623111  0.58792421  1
  Al  Al38  1  0.57858748  0.59198551  0.07109472  1
  Al  Al39  1  0.58605229  0.58209204  0.60243894  1
  Al  Al40  1  0.41736162  0.41970406  0.07535788  1
  Al  Al41  1  0.41928991  0.42034166  0.58317533  1
  Al  Al42  1  0.40531191  0.91898337  0.07263643  1
  Al  Al43  1  0.42197691  0.91589990  0.59678871  1
  Al  Al44  1  0.91686796  0.40765755  0.08601451  1
  Al  Al45  1  0.92096418  0.41996588  0.58260812  1
  Al  Al46  1  0.91805474  0.92105437  0.08286231  1
  Al  Al47  1  0.92532678  0.91077290  0.59044303  1
  Al  Al48  1  0.40513742  0.08090094  0.41874341  1
  Al  Al49  1  0.40709821  0.08424896  0.91144298  1
  Al  Al50  1  0.42046586  0.57875163  0.41660854  1
  Al  Al51  1  0.41032335  0.59590175  0.91380684  1
  Al  Al52  1  0.92237943  0.07267533  0.41901699  1
  Al  Al53  1  0.91744595  0.07597043  0.91536239  1
  Al  Al54  1  0.92061942  0.57962671  0.41837755  1
  Al  Al55  1  0.92041447  0.58709503  0.91934344  1
  Al  Al56  1  0.08292332  0.41066666  0.42003427  1
  Al  Al57  1  0.08438521  0.42118033  0.92060393  1
  Al  Al58  1  0.08259080  0.91736088  0.40628499  1
  Al  Al59  1  0.08653641  0.90917491  0.91214306  1
  Al  Al60  1  0.57775457  0.41708283  0.42905624  1
  Al  Al61  1  0.58717091  0.41014204  0.91634185  1
  Al  Al62  1  0.58171595  0.91590623  0.41776278  1
  Al  Al63  1  0.58338706  0.91412310  0.91186290  1
  Al  Al64  1  0.08686502  0.07654345  0.41757103  1
  Al  Al65  1  0.09300406  0.08561177  0.91923734  1
  Al  Al66  1  0.07674178  0.57628019  0.42004781  1
  Al  Al67  1  0.09200509  0.59447331  0.91743838  1
  Al  Al68  1  0.57574020  0.07466215  0.41685636  1
  Al  Al69  1  0.58206675  0.07960800  0.91298684  1
  Al  Al70  1  0.57500291  0.58091135  0.42170779  1
  Al  Al71  1  0.58215558  0.59379553  0.91400557  1
  Al  Al72  1  0.41522152  0.41625034  0.42119043  1
  Al  Al73  1  0.41616450  0.41770822  0.91534173  1
  Al  Al74  1  0.41503144  0.92472708  0.40762243  1
  Al  Al75  1  0.40973994  0.91180809  0.91014389  1
  Al  Al76  1  0.92414542  0.41379030  0.41565515  1
  Al  Al77  1  0.91692290  0.41773991  0.92631993  1
  Al  Al78  1  0.92270010  0.91355420  0.40938872  1
  Al  Al79  1  0.92066179  0.91397149  0.90632943  1
  Al  Al80  1  0.08003857  0.41149578  0.08734108  1
  Al  Al81  1  0.09331710  0.41913355  0.58397625  1
  Al  Al82  1  0.08932903  0.91348733  0.07691036  1
  Al  Al83  1  0.08597902  0.91562422  0.60312575  1
  Al  Al84  1  0.58411820  0.41096742  0.07112686  1
  Al  Al85  1  0.59199173  0.42291951  0.58875600  1
  Al  Al86  1  0.59143838  0.92009950  0.07733614  1
  Al  Al87  1  0.58059275  0.90969012  0.59186478  1
  Al  Al88  1  0.40564443  0.08334282  0.07480677  1
  Al  Al89  1  0.41232323  0.08417471  0.58397502  1
  Al  Al90  1  0.41328011  0.59481228  0.07389484  1
  Al  Al91  1  0.42855637  0.58381106  0.59517062  1
  Al  Al92  1  0.92151915  0.08309514  0.08559956  1
  Al  Al93  1  0.92501327  0.07550092  0.58178339  1
  Al  Al94  1  0.91603328  0.57945742  0.07599628  1
  Al  Al95  1  0.92385173  0.58323909  0.58538440  1
  Al  Al96  1  0.24848938  0.13515426  0.12761378  1
  Al  Al97  1  0.25044180  0.12728463  0.64049803  1
  Al  Al98  1  0.24955545  0.64083031  0.12684880  1
  Al  Al99  1  0.24289792  0.63434414  0.64254912  1
  Al  Al100  1  0.74897364  0.12934033  0.13309950  1
  Al  Al101  1  0.75106606  0.13186470  0.63890230  1
  Al  Al102  1  0.75001956  0.63934363  0.13572803  1
  Al  Al103  1  0.75075355  0.63850504  0.64032577  1
  Al  Al104  1  0.25275475  0.36380110  0.12595124  1
  Al  Al105  1  0.24932298  0.36471677  0.63914336  1
  Al  Al106  1  0.24874330  0.86427517  0.13120227  1
  Al  Al107  1  0.24814551  0.87258200  0.63749370  1
  Al  Al108  1  0.74790611  0.36446765  0.13431866  1
  Al  Al109  1  0.74842606  0.36363685  0.63859579  1
  Al  Al110  1  0.75126977  0.87012670  0.13518003  1
  Al  Al111  1  0.75127077  0.86414411  0.63975873  1
  Al  Al112  1  0.25054601  0.13280609  0.36358036  1
  Al  Al113  1  0.25158735  0.12914730  0.86713457  1
  Al  Al114  1  0.24342847  0.63803386  0.36216949  1
  Al  Al115  1  0.24911099  0.64292012  0.86926678  1
  Al  Al116  1  0.75280583  0.13345370  0.36057275  1
  Al  Al117  1  0.74549392  0.13346030  0.86430122  1
  Al  Al118  1  0.75846824  0.63504514  0.36235276  1
  Al  Al119  1  0.74435645  0.63985787  0.86221241  1
  Al  Al120  1  0.25063851  0.36171736  0.36257827  1
  Al  Al121  1  0.25018005  0.36122968  0.87234002  1
  Al  Al122  1  0.25224443  0.86536438  0.36540489  1
  Al  Al123  1  0.25250683  0.87067105  0.86628113  1
  Al  Al124  1  0.75298564  0.36332555  0.36289238  1
  Al  Al125  1  0.74463960  0.36395467  0.86378540  1
  Al  Al126  1  0.75155026  0.86500480  0.36156248  1
  Al  Al127  1  0.74721598  0.86313719  0.86375872  1
  Al  Al128  1  0.13856972  0.25051363  0.12789651  1
  Al  Al129  1  0.13203115  0.24522971  0.64109291  1
  Al  Al130  1  0.13045439  0.74895715  0.13148564  1
  Al  Al131  1  0.13030684  0.75509621  0.63758508  1
  Al  Al132  1  0.63285161  0.25158003  0.13078168  1
  Al  Al133  1  0.63268110  0.24633641  0.63991572  1
  Al  Al134  1  0.63579943  0.74839722  0.13221604  1
  Al  Al135  1  0.63350197  0.75108463  0.64234669  1
  Al  Al136  1  0.13709255  0.24774899  0.36288512  1
  Al  Al137  1  0.13779463  0.24725922  0.86981779  1
  Al  Al138  1  0.13405163  0.75752988  0.36723137  1
  Al  Al139  1  0.13098115  0.75414475  0.86164549  1
  Al  Al140  1  0.63395230  0.24784456  0.36155687  1
  Al  Al141  1  0.62872664  0.25083470  0.86442529  1
  Al  Al142  1  0.63813776  0.75042520  0.36414379  1
  Al  Al143  1  0.62474110  0.75087870  0.86051269  1
  Al  Al144  1  0.36407000  0.24507447  0.12550214  1
  Al  Al145  1  0.36194950  0.24641707  0.64068036  1
  Al  Al146  1  0.36206892  0.75261636  0.12662610  1
  Al  Al147  1  0.36117325  0.75388299  0.64044413  1
  Al  Al148  1  0.86384137  0.25040651  0.13271099  1
  Al  Al149  1  0.86926238  0.25103675  0.63601987  1
  Al  Al150  1  0.86993518  0.74995487  0.13406910  1
  Al  Al151  1  0.87128510  0.75188366  0.63617363  1
  Al  Al152  1  0.36531836  0.24986164  0.36332566  1
  Al  Al153  1  0.36576596  0.24513290  0.86789116  1
  Al  Al154  1  0.36337161  0.74785626  0.36149050  1
  Al  Al155  1  0.36742755  0.75465832  0.86381929  1
  Al  Al156  1  0.86563957  0.24937311  0.36481986  1
  Al  Al157  1  0.86308866  0.24793197  0.86438946  1
  Al  Al158  1  0.86887678  0.75665823  0.36553494  1
  Al  Al159  1  0.86985985  0.75093602  0.86400785  1
  Al  Al160  1  0.13735152  0.13529692  0.24474757  1
  Al  Al161  1  0.13894996  0.12615772  0.75272428  1
  Al  Al162  1  0.13340882  0.63685232  0.24606410  1
  Al  Al163  1  0.13044081  0.63481777  0.75529302  1
  Al  Al164  1  0.63388746  0.13478202  0.24481876  1
  Al  Al165  1  0.62900297  0.12936892  0.75611162  1
  Al  Al166  1  0.63604069  0.63623747  0.25475253  1
  Al  Al167  1  0.62546815  0.63373635  0.75075253  1
  Al  Al168  1  0.36331087  0.13406008  0.24823141  1
  Al  Al169  1  0.36687872  0.12591061  0.75648903  1
  Al  Al170  1  0.36096311  0.63687583  0.24458094  1
  Al  Al171  1  0.36779180  0.63750038  0.75213495  1
  Al  Al172  1  0.86643794  0.13463931  0.24392069  1
  Al  Al173  1  0.86691625  0.13524340  0.74861974  1
  Al  Al174  1  0.86921242  0.63709420  0.24920031  1
  Al  Al175  1  0.87299841  0.63831747  0.75013711  1
  Al  Al176  1  0.13785328  0.36228301  0.24338718  1
  Al  Al177  1  0.13914324  0.37009821  0.75317898  1
  Al  Al178  1  0.13056691  0.86337155  0.24564719  1
  Al  Al179  1  0.13677919  0.87120320  0.75271959  1
  Al  Al180  1  0.63469357  0.36418027  0.24966686  1
  Al  Al181  1  0.63078978  0.36809093  0.75077334  1
  Al  Al182  1  0.63596452  0.86458494  0.24467669  1
  Al  Al183  1  0.63116313  0.87010197  0.75766755  1
  Al  Al184  1  0.36642970  0.36126634  0.24310312  1
  Al  Al185  1  0.36831671  0.36386652  0.75377007  1
  Al  Al186  1  0.36207149  0.86473055  0.24862001  1
  Al  Al187  1  0.36275884  0.87359579  0.75445701  1
  Al  Al188  1  0.86501538  0.36277490  0.24673961  1
  Al  Al189  1  0.86513591  0.36332652  0.75086655  1
  Al  Al190  1  0.87245499  0.86451174  0.24512391  1
  Al  Al191  1  0.86973075  0.86281059  0.75207954  1
  Al  Al192  1  0.68003575  -0.00090525  0.67973480  1
  Al  Al193  1  0.00271994  0.17188167  0.82388412  1
  Al  Al194  1  0.82890834  0.82877643  -0.00168795  1
  Al  Al195  1  0.16823522  0.67477792  0.50227366  1
  Al  Al196  1  0.81172458  -0.00096205  0.82050246  1
  Al  Al197  1  0.31574565  0.18054237  0.50185813  1
  Al  Al198  1  0.49492323  0.17178475  0.17306917  1
  Al  Al199  1  0.67293789  0.50184614  0.81936096  1
  Al  Al200  1  0.49775358  0.80863279  0.69788969  1
  Al  Al201  1  0.81387957  0.50089053  0.67116859  1
  Al  Al202  1  0.67956121  0.49909725  0.32915656  1
  Al  Al203  1  0.00281427  0.32158566  0.31013216  1
  Al  Al204  1  0.67057796  0.67073792  0.50479252  1
  Al  Al205  1  0.31912607  0.50181257  0.67315083  1
  Al  Al206  1  0.81195984  0.67660616  -0.00191986  1
  Al  Al207  1  0.32578946  0.49960060  0.31884851  1
  Al  Al208  1  0.83011170  0.17737791  0.49880564  1
  Al  Al209  1  0.16857275  0.49803519  0.32473844  1
  Al  Al210  1  -0.00024488  0.32976241  0.82276240  1
  Al  Al211  1  0.49951892  0.67542055  0.17721452  1
  Al  Al212  1  0.82736667  -0.00121668  0.31657798  1
  Al  Al213  1  0.67165835  0.16706669  0.49967969  1
  Al  Al214  1  0.32877302  0.67099797  0.50378247  1
  Al  Al215  1  0.00225754  0.18984520  0.17564668  1
  Al  Al216  1  0.18725175  -0.00170371  0.31456501  1
  Al  Al217  1  0.18642473  0.81164996  -0.00327227  1
  Al  Al218  1  0.32491693  0.83497440  0.50035970  1
  Al  Al219  1  0.50019815  0.81919551  0.32477737  1
  Al  Al220  1  0.18199240  0.31532518  0.50179809  1
  Al  Al221  1  0.67713121  0.17717419  -0.00231059  1
  Al  Al222  1  0.68137381  0.82689099  0.50138060  1
  Al  Al223  1  0.31786097  -0.00016287  0.18214613  1
  Al  Al224  1  0.82874653  0.50154304  0.82834750  1
  Al  Al225  1  0.83038619  0.67908249  0.50183438  1
  Al  Al226  1  0.00224093  0.68476424  0.32091857  1
  Al  Al227  1  0.17900388  0.50019727  0.17078373  1
  Al  Al228  1  0.67997171  0.32411806  0.50205242  1
  Al  Al229  1  0.49805144  0.82720550  0.16986918  1
  Al  Al230  1  0.67258825  -0.00092541  0.31655157  1
  Al  Al231  1  0.49733694  0.18079050  0.68202183  1
  Al  Al232  1  0.50317519  0.32402212  0.32353096  1
  Al  Al233  1  0.00102165  0.16903862  0.32730199  1
  Al  Al234  1  0.80949420  0.31814548  -0.00142965  1
  Al  Al235  1  0.31687907  0.50193226  0.82854777  1
  Al  Al236  1  0.82636449  0.50011648  0.17548533  1
  Al  Al237  1  0.67597445  0.81280896  -0.00283657  1
  Al  Al238  1  0.66886090  0.50401948  0.16400101  1
  Au  Au239  1  0.17051581  0.66221793  0.50198036  1
  Au  Au240  1  -0.00208587  0.32512842  0.83436547  1
  Au  Au241  1  0.65557970  0.17418070  0.49872879  1
  Au  Au242  1  0.84026619  -0.00354131  0.67614265  1
  Au  Au243  1  0.67092311  0.49834280  0.34358487  1
  Au  Au244  1  0.00657213  0.33503563  0.66775121  1
  Au  Au245  1  0.00061203  0.67913423  0.83701724  1
  Au  Au246  1  0.33013394  0.32780858  0.50417934  1
  Au  Au247  1  0.82932666  0.66650048  0.49977551  1
  Au  Au248  1  0.49958854  0.16160348  0.16762449  1
  Au  Au249  1  0.17103922  0.00183726  0.16616392  1
  Au  Au250  1  0.00305089  0.67770237  0.66959906  1
  Au  Au251  1  0.00390248  0.15918391  0.67506740  1
  Au  Au252  1  0.49993364  0.33644251  0.16653775  1
  Au  Au253  1  0.50105243  0.33271564  0.33248390  1
  Au  Au254  1  0.32019642  0.49977781  0.33495993  1
  Au  Au255  1  0.50408149  0.33365924  0.66784034  1
  Au  Au256  1  0.33315729  0.32234045  -0.00285814  1
  Au  Au257  1  0.16525751  0.32475872  0.00099400  1
  Au  Au258  1  0.32781604  0.00006341  0.67326390  1
  Au  Au259  1  0.33708549  0.83295660  0.49900536  1
  Au  Au260  1  0.83172696  0.84213058  0.49952388  1
  Au  Au261  1  0.65399447  0.67639121  0.50855618  1
  Au  Au262  1  0.66468786  0.17961258  -0.00367358  1
  Au  Au263  1  0.16779019  0.16595956  0.50174160  1
  Au  Au264  1  0.49356349  0.15865359  0.32840171  1
  Au  Au265  1  0.49712204  0.84024469  0.16054933  1
  Au  Au266  1  0.34644438  0.67222268  0.50749418  1
  Au  Au267  1  0.16041687  0.83912840  0.50261806  1
  Au  Au268  1  0.49737912  0.16835758  0.67997949  1
  Au  Au269  1  0.00154169  0.83756109  0.17079135  1
  Au  Au270  1  0.49570239  0.68188800  0.82313779  1
  Au  Au271  1  0.82394008  0.00078246  0.16795726  1
  Au  Au272  1  0.66855309  0.50173301  0.83147413  1
  Au  Au273  1  0.32657735  0.50674035  0.15322042  1
  Au  Au274  1  0.66739309  0.00115782  0.68012869  1
  Au  Au275  1  0.49749397  0.32269659  0.83663910  1
  Au  Au276  1  0.00256511  0.67646458  0.33570036  1
  Au  Au277  1  0.83030719  0.50123558  0.67653362  1
  Au  Au278  1  0.67341237  0.50463060  0.14851752  1
  Au  Au279  1  0.83462044  0.16563849  0.49821822  1
  Au  Au280  1  0.84486828  0.49740656  0.32310679  1
  Au  Au281  1  0.00019105  0.66800912  0.15669384  1
  Au  Au282  1  0.16893670  0.50339960  0.83000260  1
  Au  Au283  1  0.49936088  0.66883301  0.32710850  1
  Au  Au284  1  0.84066345  0.17242091  -0.00187204  1
  Au  Au285  1  0.33170657  0.50394048  0.67544381  1
  Au  Au286  1  0.17267165  -0.00099493  0.83077313  1
  Au  Au287  1  0.82840382  0.33887090  0.49899726  1
