# generated using pymatgen
data_Ca24Ti8Al207Au49
_symmetry_space_group_name_H-M   'P 1'
_cell_length_a   17.32497948
_cell_length_b   17.32533131
_cell_length_c   17.32361030
_cell_angle_alpha   90.00227740
_cell_angle_beta   90.00015269
_cell_angle_gamma   90.00148223
_symmetry_Int_Tables_number   1
_chemical_formula_structural   Ca24Ti8Al207Au49
_chemical_formula_sum   'Ca24 Ti8 Al207 Au49'
_cell_volume   5199.87234823
_cell_formula_units_Z   1
loop_
 _symmetry_equiv_pos_site_id
 _symmetry_equiv_pos_as_xyz
  1  'x, y, z'
loop_
 _atom_site_type_symbol
 _atom_site_label
 _atom_site_symmetry_multiplicity
 _atom_site_fract_x
 _atom_site_fract_y
 _atom_site_fract_z
 _atom_site_occupancy
  Ca  Ca0  1  0.24703270  -0.00156700  0.00324837  1
  Ca  Ca1  1  0.25170155  -0.00287624  0.49608993  1
  Ca  Ca2  1  0.24830083  0.50016135  0.00442809  1
  Ca  Ca3  1  0.25377016  0.50305656  0.49840156  1
  Ca  Ca4  1  0.74886542  0.00175760  0.00273289  1
  Ca  Ca5  1  0.74482612  -0.00436698  0.50003387  1
  Ca  Ca6  1  0.74924999  0.49701997  -0.00144198  1
  Ca  Ca7  1  0.74461570  0.50229075  0.50195799  1
  Ca  Ca8  1  0.00012944  0.25011030  -0.00079260  1
  Ca  Ca9  1  0.00088088  0.24946035  0.50163046  1
  Ca  Ca10  1  0.00316998  0.75459349  0.00228713  1
  Ca  Ca11  1  0.00141685  0.75456443  0.49984206  1
  Ca  Ca12  1  0.49694796  0.24978206  0.00414221  1
  Ca  Ca13  1  0.50092802  0.25387753  0.49491170  1
  Ca  Ca14  1  0.49585336  0.75410190  0.00117809  1
  Ca  Ca15  1  0.49988621  0.75047090  0.50250937  1
  Ca  Ca16  1  0.00459990  -0.00076362  0.24648334  1
  Ca  Ca17  1  0.00332216  -0.00312380  0.75233027  1
  Ca  Ca18  1  -0.00027948  0.50000437  0.24590234  1
  Ca  Ca19  1  -0.00204313  0.50160225  0.75118944  1
  Ca  Ca20  1  0.49788598  0.00195671  0.24986494  1
  Ca  Ca21  1  0.49843399  -0.00199282  0.74995133  1
  Ca  Ca22  1  0.49919240  0.49698963  0.25047439  1
  Ca  Ca23  1  0.50131921  0.50173161  0.74654297  1
  Ti  Ti24  1  0.25086597  0.24818267  0.24859179  1
  Ti  Ti25  1  0.24960022  0.25126986  0.75003113  1
  Ti  Ti26  1  0.25080360  0.75132035  0.24992737  1
  Ti  Ti27  1  0.25095110  0.75066266  0.74847853  1
  Ti  Ti28  1  0.74875501  0.24912835  0.24945973  1
  Ti  Ti29  1  0.75032250  0.25166639  0.74994138  1
  Ti  Ti30  1  0.74863897  0.75037628  0.25196997  1
  Ti  Ti31  1  0.74817820  0.74889538  0.74853883  1
  Al  Al32  1  0.09026363  0.07544122  0.08862463  1
  Al  Al33  1  0.08223469  0.07199559  0.58421387  1
  Al  Al34  1  0.08895516  0.58368368  0.09274377  1
  Al  Al35  1  0.07541334  0.58524770  0.58484572  1
  Al  Al36  1  0.58110605  0.08311858  0.08577183  1
  Al  Al37  1  0.58451518  0.07396399  0.57529635  1
  Al  Al38  1  0.57747065  0.58005256  0.07995609  1
  Al  Al39  1  0.58817865  0.59672062  0.58268649  1
  Al  Al40  1  0.41175906  0.40673745  0.09096611  1
  Al  Al41  1  0.41180888  0.41321457  0.57299027  1
  Al  Al42  1  0.40487076  0.92067371  0.09064175  1
  Al  Al43  1  0.41813741  0.90940734  0.58619779  1
  Al  Al44  1  0.93122202  0.41813752  0.07210906  1
  Al  Al45  1  0.91186812  0.42445135  0.59288716  1
  Al  Al46  1  0.92458703  0.91708449  0.09268682  1
  Al  Al47  1  0.92378194  0.92122005  0.57678194  1
  Al  Al48  1  0.41218437  0.08224360  0.40381495  1
  Al  Al49  1  0.41049829  0.07552716  0.92368189  1
  Al  Al50  1  0.42872733  0.57742195  0.42418586  1
  Al  Al51  1  0.42350802  0.58288199  0.92020026  1
  Al  Al52  1  0.92069547  0.07838441  0.41492199  1
  Al  Al53  1  0.91584098  0.07996494  0.92199019  1
  Al  Al54  1  0.92100990  0.58547423  0.42115517  1
  Al  Al55  1  0.92056601  0.58299881  0.90636107  1
  Al  Al56  1  0.07996865  0.41889541  0.41821739  1
  Al  Al57  1  0.07686581  0.41415378  0.91376478  1
  Al  Al58  1  0.09437076  0.91067296  0.40861580  1
  Al  Al59  1  0.08795467  0.90820967  0.92457703  1
  Al  Al60  1  0.58390601  0.41756139  0.40429807  1
  Al  Al61  1  0.58376311  0.41957303  0.92351901  1
  Al  Al62  1  0.57472119  0.91522448  0.42001929  1
  Al  Al63  1  0.58698540  0.91860148  0.91215363  1
  Al  Al64  1  0.08760458  0.07188699  0.40394463  1
  Al  Al65  1  0.08216912  0.07965849  0.92259773  1
  Al  Al66  1  0.07985702  0.58419703  0.41722797  1
  Al  Al67  1  0.07910761  0.58724851  0.91377621  1
  Al  Al68  1  0.57513581  0.08717645  0.41593790  1
  Al  Al69  1  0.59374034  0.07576690  0.91719756  1
  Al  Al70  1  0.59304120  0.58039970  0.41921160  1
  Al  Al71  1  0.58220885  0.58228120  0.91347507  1
  Al  Al72  1  0.42335378  0.40262336  0.41413996  1
  Al  Al73  1  0.41100887  0.41187636  0.92987945  1
  Al  Al74  1  0.41139134  0.91952084  0.40718672  1
  Al  Al75  1  0.41475155  0.91713560  0.91972231  1
  Al  Al76  1  0.92221333  0.41843255  0.42070133  1
  Al  Al77  1  0.91852085  0.41666895  0.90726823  1
  Al  Al78  1  0.92507560  0.91628556  0.41024770  1
  Al  Al79  1  0.92609311  0.92176445  0.91361290  1
  Al  Al80  1  0.08963524  0.42254385  0.08894920  1
  Al  Al81  1  0.07808879  0.41977443  0.58447698  1
  Al  Al82  1  0.09024617  0.91167660  0.09089828  1
  Al  Al83  1  0.09352046  0.91330658  0.57600918  1
  Al  Al84  1  0.57375204  0.40701105  0.08600349  1
  Al  Al85  1  0.57820168  0.42949518  0.57572291  1
  Al  Al86  1  0.58221914  0.92115471  0.08176566  1
  Al  Al87  1  0.57863602  0.90647827  0.59041358  1
  Al  Al88  1  0.40916524  0.08233807  0.09304256  1
  Al  Al89  1  0.41581807  0.07470597  0.57474627  1
  Al  Al90  1  0.41559213  0.57413624  0.08217057  1
  Al  Al91  1  0.42735404  0.58812887  0.58864057  1
  Al  Al92  1  0.91231580  0.07803887  0.08599680  1
  Al  Al93  1  0.92051829  0.08073963  0.58020096  1
  Al  Al94  1  0.93199773  0.58791896  0.07884575  1
  Al  Al95  1  0.91223509  0.58435169  0.59157597  1
  Al  Al96  1  0.25230462  0.12897223  0.13829811  1
  Al  Al97  1  0.25343246  0.13692202  0.63271380  1
  Al  Al98  1  0.24775670  0.63754647  0.13850717  1
  Al  Al99  1  0.25175827  0.63100699  0.63591901  1
  Al  Al100  1  0.74970175  0.13621178  0.13712679  1
  Al  Al101  1  0.74978143  0.13589735  0.63571230  1
  Al  Al102  1  0.74516043  0.63690146  0.13690771  1
  Al  Al103  1  0.74689625  0.63149629  0.63384773  1
  Al  Al104  1  0.25246206  0.36230297  0.13503170  1
  Al  Al105  1  0.25202262  0.37053393  0.63843414  1
  Al  Al106  1  0.24770584  0.87178733  0.13729754  1
  Al  Al107  1  0.25195062  0.86275434  0.62608564  1
  Al  Al108  1  0.74570097  0.36297791  0.13791795  1
  Al  Al109  1  0.75228292  0.37299196  0.64070240  1
  Al  Al110  1  0.75204272  0.86354336  0.13686060  1
  Al  Al111  1  0.74285292  0.86193481  0.62812332  1
  Al  Al112  1  0.25245719  0.12935887  0.36149207  1
  Al  Al113  1  0.25150355  0.13669603  0.86471254  1
  Al  Al114  1  0.24910051  0.63679846  0.36630299  1
  Al  Al115  1  0.25171717  0.63715187  0.86110596  1
  Al  Al116  1  0.75131189  0.13587163  0.36197198  1
  Al  Al117  1  0.74631934  0.13735501  0.86368649  1
  Al  Al118  1  0.74230527  0.63346079  0.36956190  1
  Al  Al119  1  0.74643211  0.63293183  0.86302854  1
  Al  Al120  1  0.25532423  0.36224122  0.36524465  1
  Al  Al121  1  0.25093663  0.36339331  0.86517986  1
  Al  Al122  1  0.24978500  0.86842622  0.36572295  1
  Al  Al123  1  0.24638888  0.86341751  0.86620571  1
  Al  Al124  1  0.74580788  0.36565900  0.36249153  1
  Al  Al125  1  0.74902679  0.36516760  0.86273058  1
  Al  Al126  1  0.74958805  0.86228575  0.36946056  1
  Al  Al127  1  0.74708338  0.86325676  0.86283617  1
  Al  Al128  1  0.13741130  0.24561325  0.13535597  1
  Al  Al129  1  0.13157678  0.25366349  0.63546511  1
  Al  Al130  1  0.13523817  0.75990150  0.13499132  1
  Al  Al131  1  0.13665275  0.75220511  0.63446916  1
  Al  Al132  1  0.62695705  0.24956247  0.13944144  1
  Al  Al133  1  0.63739698  0.25294142  0.63735974  1
  Al  Al134  1  0.62827911  0.74758678  0.13907882  1
  Al  Al135  1  0.63261773  0.74723279  0.63128283  1
  Al  Al136  1  0.13755512  0.24571966  0.36337787  1
  Al  Al137  1  0.13152469  0.25542945  0.86418203  1
  Al  Al138  1  0.13665123  0.75520869  0.36586642  1
  Al  Al139  1  0.13529950  0.74856352  0.86544652  1
  Al  Al140  1  0.63301208  0.25198074  0.36392267  1
  Al  Al141  1  0.63321448  0.25230644  0.86143474  1
  Al  Al142  1  0.63469846  0.74962530  0.37129713  1
  Al  Al143  1  0.63368525  0.74705258  0.86210619  1
  Al  Al144  1  0.36661058  0.24817910  0.13161953  1
  Al  Al145  1  0.36350598  0.25292697  0.62780101  1
  Al  Al146  1  0.36604549  0.75436415  0.13795374  1
  Al  Al147  1  0.36491516  0.74936993  0.62896734  1
  Al  Al148  1  0.86514809  0.24760430  0.13491712  1
  Al  Al149  1  0.87000516  0.25090302  0.63756041  1
  Al  Al150  1  0.86563522  0.75112903  0.13421427  1
  Al  Al151  1  0.86345025  0.74921846  0.63509575  1
  Al  Al152  1  0.36396064  0.24815327  0.36560521  1
  Al  Al153  1  0.36385139  0.25196302  0.87101843  1
  Al  Al154  1  0.36269842  0.75224626  0.36863904  1
  Al  Al155  1  0.36599903  0.75318957  0.86389091  1
  Al  Al156  1  0.86506998  0.24577334  0.36408036  1
  Al  Al157  1  0.86708372  0.25332478  0.86383255  1
  Al  Al158  1  0.86356204  0.74768600  0.36732319  1
  Al  Al159  1  0.86416399  0.74702061  0.86423158  1
  Al  Al160  1  0.13443606  0.13037942  0.24881288  1
  Al  Al161  1  0.13531052  0.13585315  0.75134356  1
  Al  Al162  1  0.13531434  0.63928908  0.24979855  1
  Al  Al163  1  0.13580588  0.63740746  0.74958407  1
  Al  Al164  1  0.63359788  0.13418833  0.24900619  1
  Al  Al165  1  0.63557123  0.12963843  0.74976224  1
  Al  Al166  1  0.62938346  0.63419878  0.25498954  1
  Al  Al167  1  0.62935252  0.63209608  0.74380125  1
  Al  Al168  1  0.36515670  0.13289491  0.24860673  1
  Al  Al169  1  0.36520051  0.13929002  0.74843714  1
  Al  Al170  1  0.36989002  0.63831478  0.25086579  1
  Al  Al171  1  0.37122829  0.63721377  0.74444692  1
  Al  Al172  1  0.87230757  0.13448792  0.24572912  1
  Al  Al173  1  0.86681948  0.13663051  0.75235258  1
  Al  Al174  1  0.86238628  0.63539432  0.25259953  1
  Al  Al175  1  0.86208147  0.63447482  0.74841000  1
  Al  Al176  1  0.13773557  0.36330644  0.24802487  1
  Al  Al177  1  0.13149926  0.36547626  0.74795882  1
  Al  Al178  1  0.13978861  0.87317328  0.25002183  1
  Al  Al179  1  0.13688449  0.86389664  0.75141171  1
  Al  Al180  1  0.62850556  0.36375320  0.25296710  1
  Al  Al181  1  0.63130334  0.36944151  0.74849648  1
  Al  Al182  1  0.63462031  0.86346862  0.24925260  1
  Al  Al183  1  0.63248470  0.86385770  0.74581761  1
  Al  Al184  1  0.37133676  0.35941882  0.24811648  1
  Al  Al185  1  0.37098955  0.36104629  0.74780319  1
  Al  Al186  1  0.35957077  0.87231095  0.24963916  1
  Al  Al187  1  0.36702805  0.86244001  0.74271280  1
  Al  Al188  1  0.86456195  0.36385132  0.25148303  1
  Al  Al189  1  0.86965378  0.36449126  0.75018582  1
  Al  Al190  1  0.86616869  0.86426641  0.24720453  1
  Al  Al191  1  0.86263912  0.86186344  0.75070217  1
  Al  Al192  1  0.00165473  0.82935782  0.67087925  1
  Al  Al193  1  0.17271908  0.49987591  0.31283404  1
  Al  Al194  1  0.00010874  0.81233572  0.82353537  1
  Al  Al195  1  0.31705421  -0.00147528  0.81839545  1
  Al  Al196  1  0.82844227  0.32968722  -0.00017972  1
  Al  Al197  1  0.18431183  0.32736470  0.50113812  1
  Al  Al198  1  0.00232609  0.82050942  0.30883663  1
  Al  Al199  1  0.32777532  0.67435404  0.00110965  1
  Al  Al200  1  0.67467721  0.31723305  0.00194427  1
  Al  Al201  1  0.67007662  0.32932751  0.49985427  1
  Al  Al202  1  -0.00116348  0.67808367  0.68955128  1
  Al  Al203  1  0.82321872  0.67079573  -0.00106119  1
  Al  Al204  1  0.82644277  0.32101980  0.50135189  1
  Al  Al205  1  0.83203009  0.82994625  -0.00068583  1
  Al  Al206  1  0.49889660  0.17389809  0.83258346  1
  Al  Al207  1  0.66885556  0.49790908  0.18460759  1
  Al  Al208  1  0.17809871  0.16815370  0.49898470  1
  Al  Al209  1  0.68565212  -0.00107342  0.17557594  1
  Al  Al210  1  0.00105132  0.32144852  0.32614559  1
  Al  Al211  1  0.83039021  0.49922384  0.16648593  1
  Al  Al212  1  0.66908295  -0.00102594  0.32906666  1
  Al  Al213  1  0.67675048  0.17484663  0.49848821  1
  Al  Al214  1  0.82009505  -0.00244429  0.67324433  1
  Al  Al215  1  0.81405276  0.50085033  0.32998683  1
  Al  Al216  1  -0.00033104  0.17418669  0.82471816  1
  Al  Al217  1  0.82134957  0.67965740  0.50181938  1
  Al  Al218  1  0.00148536  0.69027777  0.18132486  1
  Al  Al219  1  0.00150209  0.32038076  0.17333934  1
  Al  Al220  1  0.82180688  0.49922939  0.81228219  1
  Al  Al221  1  0.18080671  0.32926137  0.00036027  1
  Al  Al222  1  0.50153090  0.17946592  0.66723664  1
  Al  Al223  1  0.32982125  0.49963181  0.82532270  1
  Al  Al224  1  0.17268578  0.68564387  0.00210959  1
  Al  Al225  1  0.17845526  0.68257538  0.50142155  1
  Al  Al226  1  0.67319472  0.82161376  0.00098335  1
  Al  Al227  1  0.49912654  0.18714912  0.31805985  1
  Al  Al228  1  0.31404910  0.82725058  0.00166050  1
  Al  Al229  1  0.31478693  0.49960738  0.17503500  1
  Al  Al230  1  0.82466658  -0.00078586  0.30645913  1
  Al  Al231  1  0.81539943  0.00050999  0.82941025  1
  Al  Al232  1  0.17105189  0.49976238  0.82221849  1
  Al  Al233  1  0.18416583  -0.00146414  0.68219007  1
  Al  Al234  1  0.49760810  0.81977787  0.31905158  1
  Al  Al235  1  0.50007637  0.82184681  0.82294574  1
  Al  Al236  1  0.18106080  0.17327099  0.00085369  1
  Al  Al237  1  0.32948750  0.49874579  0.32811201  1
  Al  Al238  1  0.81922598  0.17562040  -0.00059852  1
  Au  Au239  1  0.16837676  -0.00267781  0.83470728  1
  Au  Au240  1  0.49383624  0.66777846  0.16688393  1
  Au  Au241  1  0.16392437  0.67382673  0.50168494  1
  Au  Au242  1  0.17033609  0.15407907  0.49720776  1
  Au  Au243  1  0.65984724  -0.00271158  0.67694459  1
  Au  Au244  1  0.50042889  0.34095518  0.66509147  1
  Au  Au245  1  0.33248784  -0.00141930  0.67035058  1
  Au  Au246  1  0.50146118  0.16851475  0.65520827  1
  Au  Au247  1  0.49834235  0.33722902  0.83821606  1
  Au  Au248  1  0.32354803  0.49989925  0.84121216  1
  Au  Au249  1  0.49949873  0.15825902  0.83709965  1
  Au  Au250  1  0.34465661  0.49354021  0.32704938  1
  Au  Au251  1  0.15679013  0.50130475  0.31859438  1
  Au  Au252  1  0.82441100  0.15773902  0.49889414  1
  Au  Au253  1  0.83596374  -0.00268330  0.67907181  1
  Au  Au254  1  0.49852769  0.83427529  0.82060023  1
  Au  Au255  1  0.32750795  0.83749292  0.49541043  1
  Au  Au256  1  0.16861307  0.33301493  0.00014504  1
  Au  Au257  1  0.82941547  0.84241763  -0.00025098  1
  Au  Au258  1  0.32879964  0.16887700  0.00278591  1
  Au  Au259  1  0.67532359  0.49803408  0.83418994  1
  Au  Au260  1  0.83648377  0.83232380  0.49817171  1
  Au  Au261  1  0.82357349  0.66728710  0.50273737  1
  Au  Au262  1  0.16166445  0.50379406  0.67351289  1
  Au  Au263  1  0.33267197  0.50069392  0.65990076  1
  Au  Au264  1  -0.00259176  0.17517258  0.83712738  1
  Au  Au265  1  0.17295274  0.66938340  -0.00067979  1
  Au  Au266  1  0.33926030  0.66957344  0.50084737  1
  Au  Au267  1  0.67382091  0.50233000  0.66354483  1
  Au  Au268  1  0.84599946  0.49891875  0.16278202  1
  Au  Au269  1  0.83426066  0.66481886  -0.00134417  1
  Au  Au270  1  0.00385002  0.16998277  0.66392954  1
  Au  Au271  1  0.49784094  0.17303395  0.17209799  1
  Au  Au272  1  -0.00167550  0.33738532  0.67749387  1
  Au  Au273  1  0.66009298  0.67384521  0.00044853  1
  Au  Au274  1  0.82500431  0.33735243  0.50530405  1
  Au  Au275  1  0.82935680  0.50062245  0.33750252  1
  Au  Au276  1  0.49920990  0.66708009  0.82031826  1
  Au  Au277  1  0.17643178  0.34249987  0.50162319  1
  Au  Au278  1  -0.00192239  0.67467248  0.32758266  1
  Au  Au279  1  0.00171441  0.16886234  0.16090770  1
  Au  Au280  1  0.50559082  0.67143272  0.33917768  1
  Au  Au281  1  0.82626248  -0.00260816  0.32306561  1
  Au  Au282  1  0.65680634  0.49570367  0.17343056  1
  Au  Au283  1  0.34035747  0.17443349  0.49472963  1
  Au  Au284  1  0.67094294  0.16864384  0.00216153  1
  Au  Au285  1  0.49830077  0.84053366  0.17183905  1
  Au  Au286  1  0.66168871  0.82539839  0.49980056  1
  Au  Au287  1  0.00290901  0.17254988  0.33476427  1
