# generated using pymatgen
data_Ca24Ti8Al207Au49
_symmetry_space_group_name_H-M   'P 1'
_cell_length_a   17.32427109
_cell_length_b   17.32230416
_cell_length_c   17.32175198
_cell_angle_alpha   89.99914217
_cell_angle_beta   90.00055549
_cell_angle_gamma   90.00014290
_symmetry_Int_Tables_number   1
_chemical_formula_structural   Ca24Ti8Al207Au49
_chemical_formula_sum   'Ca24 Ti8 Al207 Au49'
_cell_volume   5198.19356145
_cell_formula_units_Z   1
loop_
 _symmetry_equiv_pos_site_id
 _symmetry_equiv_pos_as_xyz
  1  'x, y, z'
loop_
 _atom_site_type_symbol
 _atom_site_label
 _atom_site_symmetry_multiplicity
 _atom_site_fract_x
 _atom_site_fract_y
 _atom_site_fract_z
 _atom_site_occupancy
  Ca  Ca0  1  0.25240642  0.00025814  0.00764819  1
  Ca  Ca1  1  0.25322897  -0.00219824  0.49279222  1
  Ca  Ca2  1  0.24901386  0.49893693  -0.00470344  1
  Ca  Ca3  1  0.24825632  0.50156167  0.50164833  1
  Ca  Ca4  1  0.75314094  0.00223915  -0.00258075  1
  Ca  Ca5  1  0.74857556  -0.00022211  0.50034755  1
  Ca  Ca6  1  0.75371333  0.49858818  0.00019442  1
  Ca  Ca7  1  0.74567963  0.50103733  0.50177349  1
  Ca  Ca8  1  -0.00206064  0.25343795  0.00570905  1
  Ca  Ca9  1  0.00299942  0.24584688  0.49573055  1
  Ca  Ca10  1  0.00047843  0.74689384  0.00003574  1
  Ca  Ca11  1  0.00264263  0.75250516  0.49686206  1
  Ca  Ca12  1  0.50160534  0.25424594  -0.00579541  1
  Ca  Ca13  1  0.49852933  0.24497116  0.49971426  1
  Ca  Ca14  1  0.49896846  0.74648544  -0.00490156  1
  Ca  Ca15  1  0.49928970  0.75392484  0.50501960  1
  Ca  Ca16  1  0.00087635  -0.00078627  0.25857594  1
  Ca  Ca17  1  -0.00381451  -0.00091075  0.74364065  1
  Ca  Ca18  1  0.00400942  0.49986875  0.25088222  1
  Ca  Ca19  1  -0.00124551  0.50535644  0.74696998  1
  Ca  Ca20  1  0.49974002  0.00258780  0.26164386  1
  Ca  Ca21  1  0.50182058  -0.00004715  0.74257592  1
  Ca  Ca22  1  0.49621775  0.49735784  0.25108206  1
  Ca  Ca23  1  0.50309524  0.49822459  0.74645947  1
  Ti  Ti24  1  0.25032857  0.25072802  0.25207550  1
  Ti  Ti25  1  0.25096977  0.25254234  0.74828186  1
  Ti  Ti26  1  0.25055195  0.74835674  0.25318149  1
  Ti  Ti27  1  0.25039424  0.74773220  0.74717515  1
  Ti  Ti28  1  0.75019171  0.24779974  0.25194162  1
  Ti  Ti29  1  0.74978025  0.24728887  0.74930026  1
  Ti  Ti30  1  0.75107391  0.75267663  0.25356017  1
  Ti  Ti31  1  0.74921440  0.75165742  0.74920754  1
  Al  Al32  1  0.07646671  0.08603618  0.10009084  1
  Al  Al33  1  0.07534604  0.07910379  0.57241257  1
  Al  Al34  1  0.08184745  0.58313001  0.07993503  1
  Al  Al35  1  0.08514451  0.59546346  0.58510043  1
  Al  Al36  1  0.57761420  0.08017626  0.08541111  1
  Al  Al37  1  0.59114378  0.08962544  0.58213176  1
  Al  Al38  1  0.57613377  0.57262821  0.07959814  1
  Al  Al39  1  0.58698632  0.58866333  0.59478131  1
  Al  Al40  1  0.41257873  0.41987561  0.08750114  1
  Al  Al41  1  0.42516646  0.41277315  0.58887433  1
  Al  Al42  1  0.41836082  0.92441856  0.08789377  1
  Al  Al43  1  0.41473769  0.90774995  0.57786031  1
  Al  Al44  1  0.92426109  0.41254292  0.09302277  1
  Al  Al45  1  0.91939660  0.42123362  0.58628310  1
  Al  Al46  1  0.92001760  0.92438176  0.08762743  1
  Al  Al47  1  0.90710667  0.91548617  0.58209730  1
  Al  Al48  1  0.41473560  0.08288852  0.41109890  1
  Al  Al49  1  0.42610035  0.08679517  0.90863531  1
  Al  Al50  1  0.40981941  0.58064057  0.42546330  1
  Al  Al51  1  0.41469430  0.57700077  0.90631200  1
  Al  Al52  1  0.91295027  0.08758909  0.42247526  1
  Al  Al53  1  0.91267656  0.08044723  0.91274399  1
  Al  Al54  1  0.92638959  0.59343868  0.41373368  1
  Al  Al55  1  0.92422468  0.58505876  0.90302635  1
  Al  Al56  1  0.08064984  0.41707713  0.41631990  1
  Al  Al57  1  0.08390518  0.42182931  0.92062130  1
  Al  Al58  1  0.09233832  0.90776974  0.40948092  1
  Al  Al59  1  0.07214990  0.91595707  0.91563289  1
  Al  Al60  1  0.57661192  0.41540746  0.41902632  1
  Al  Al61  1  0.58143614  0.41616134  0.89685109  1
  Al  Al62  1  0.58481521  0.91477969  0.42525036  1
  Al  Al63  1  0.58806014  0.92591345  0.90690371  1
  Al  Al64  1  0.08823241  0.07282309  0.40863619  1
  Al  Al65  1  0.07236772  0.07910801  0.92282365  1
  Al  Al66  1  0.08802406  0.60251071  0.42073131  1
  Al  Al67  1  0.08327935  0.59005879  0.90824747  1
  Al  Al68  1  0.58159121  0.09268462  0.41910217  1
  Al  Al69  1  0.58288513  0.08382181  0.89531825  1
  Al  Al70  1  0.58326790  0.57905820  0.43118820  1
  Al  Al71  1  0.58312572  0.57489287  0.90118991  1
  Al  Al72  1  0.41775341  0.41513865  0.41466114  1
  Al  Al73  1  0.41834753  0.41590107  0.90447544  1
  Al  Al74  1  0.40429678  0.91781494  0.41612562  1
  Al  Al75  1  0.42722959  0.92462834  0.91720341  1
  Al  Al76  1  0.92397091  0.41761091  0.41905431  1
  Al  Al77  1  0.91872150  0.42258202  0.91780219  1
  Al  Al78  1  0.91653843  0.90592046  0.41936580  1
  Al  Al79  1  0.91493483  0.91705989  0.90726652  1
  Al  Al80  1  0.08125847  0.41118586  0.08584381  1
  Al  Al81  1  0.07799109  0.42244148  0.58531507  1
  Al  Al82  1  0.07881148  0.92463787  0.08844998  1
  Al  Al83  1  0.08305616  0.90737163  0.56873226  1
  Al  Al84  1  0.57495047  0.42113099  0.08393796  1
  Al  Al85  1  0.58693917  0.41740416  0.59782471  1
  Al  Al86  1  0.58035048  0.92135483  0.08139749  1
  Al  Al87  1  0.58936109  0.90994601  0.58444214  1
  Al  Al88  1  0.41832195  0.08117074  0.08761494  1
  Al  Al89  1  0.42436106  0.08396904  0.57734430  1
  Al  Al90  1  0.40793711  0.57466898  0.08512142  1
  Al  Al91  1  0.42323004  0.59177612  0.58723016  1
  Al  Al92  1  0.91997047  0.08602976  0.09837528  1
  Al  Al93  1  0.89992786  0.08065021  0.58391903  1
  Al  Al94  1  0.92655696  0.57608699  0.08536230  1
  Al  Al95  1  0.92198759  0.58846525  0.58850834  1
  Al  Al96  1  0.25293999  0.13462882  0.13903818  1
  Al  Al97  1  0.25041820  0.13724504  0.63528959  1
  Al  Al98  1  0.25279657  0.63373594  0.13643185  1
  Al  Al99  1  0.25002652  0.63564198  0.62844900  1
  Al  Al100  1  0.75054768  0.13579709  0.13488102  1
  Al  Al101  1  0.74912963  0.12837686  0.63498176  1
  Al  Al102  1  0.74985368  0.63670151  0.13746935  1
  Al  Al103  1  0.74753322  0.63549213  0.63636406  1
  Al  Al104  1  0.25423538  0.36627920  0.13674470  1
  Al  Al105  1  0.25213532  0.36644733  0.62925585  1
  Al  Al106  1  0.24811443  0.86616536  0.14063573  1
  Al  Al107  1  0.24833298  0.85853793  0.62926832  1
  Al  Al108  1  0.75197769  0.36241457  0.13609298  1
  Al  Al109  1  0.74635125  0.36501345  0.63424426  1
  Al  Al110  1  0.75127738  0.86514388  0.13597945  1
  Al  Al111  1  0.74882280  0.86804589  0.63234486  1
  Al  Al112  1  0.24849348  0.12905648  0.36310640  1
  Al  Al113  1  0.25268377  0.13864483  0.86081490  1
  Al  Al114  1  0.25021714  0.63423613  0.37369890  1
  Al  Al115  1  0.25118303  0.63104539  0.85880747  1
  Al  Al116  1  0.75164460  0.13064999  0.36875359  1
  Al  Al117  1  0.75005508  0.12756007  0.85970092  1
  Al  Al118  1  0.74732035  0.63743827  0.36720937  1
  Al  Al119  1  0.74210945  0.63471190  0.85813759  1
  Al  Al120  1  0.24945036  0.36922759  0.36929091  1
  Al  Al121  1  0.25355976  0.37081261  0.86156560  1
  Al  Al122  1  0.24877345  0.86568879  0.36902801  1
  Al  Al123  1  0.25281234  0.85942441  0.86126329  1
  Al  Al124  1  0.74781015  0.36333954  0.36678422  1
  Al  Al125  1  0.74587679  0.36633512  0.86158290  1
  Al  Al126  1  0.75168128  0.86883890  0.37181810  1
  Al  Al127  1  0.75052271  0.86805567  0.86297834  1
  Al  Al128  1  0.13286949  0.25173370  0.14132726  1
  Al  Al129  1  0.13698177  0.25150784  0.62910616  1
  Al  Al130  1  0.13736339  0.74762380  0.14147896  1
  Al  Al131  1  0.13119456  0.74527654  0.63160576  1
  Al  Al132  1  0.63685674  0.24777811  0.13478838  1
  Al  Al133  1  0.63649551  0.24551828  0.63699394  1
  Al  Al134  1  0.63469550  0.75780199  0.13851393  1
  Al  Al135  1  0.63641582  0.75280084  0.63648417  1
  Al  Al136  1  0.13799923  0.25109291  0.37025016  1
  Al  Al137  1  0.13353118  0.25069363  0.86344460  1
  Al  Al138  1  0.13700764  0.75080541  0.37078008  1
  Al  Al139  1  0.13169758  0.74699594  0.86239625  1
  Al  Al140  1  0.63521543  0.24047841  0.36873880  1
  Al  Al141  1  0.63351972  0.24541330  0.85973976  1
  Al  Al142  1  0.63708082  0.75681220  0.36713016  1
  Al  Al143  1  0.62761956  0.75429128  0.85742394  1
  Al  Al144  1  0.36297502  0.24858342  0.13378323  1
  Al  Al145  1  0.36770041  0.25416282  0.63475424  1
  Al  Al146  1  0.36353949  0.75246287  0.13861433  1
  Al  Al147  1  0.36321770  0.74973629  0.62830615  1
  Al  Al148  1  0.86706173  0.24815938  0.13562879  1
  Al  Al149  1  0.86059739  0.24216726  0.63401746  1
  Al  Al150  1  0.86402456  0.75098588  0.13740837  1
  Al  Al151  1  0.86400726  0.75351958  0.63521314  1
  Al  Al152  1  0.36240982  0.25009679  0.36566368  1
  Al  Al153  1  0.36621911  0.25160271  0.86493606  1
  Al  Al154  1  0.35965596  0.75196392  0.37549270  1
  Al  Al155  1  0.37100760  0.74356734  0.86243607  1
  Al  Al156  1  0.86449233  0.24685268  0.36638774  1
  Al  Al157  1  0.86064544  0.24766781  0.86905681  1
  Al  Al158  1  0.86676257  0.75482379  0.37091727  1
  Al  Al159  1  0.86533895  0.75034749  0.86199033  1
  Al  Al160  1  0.13506802  0.13648727  0.25187539  1
  Al  Al161  1  0.13137714  0.13934120  0.74564688  1
  Al  Al162  1  0.13534864  0.63445345  0.25908109  1
  Al  Al163  1  0.13167288  0.63651542  0.74931303  1
  Al  Al164  1  0.63779015  0.12795254  0.25470302  1
  Al  Al165  1  0.63487522  0.12575827  0.74763368  1
  Al  Al166  1  0.63530486  0.63735189  0.25048564  1
  Al  Al167  1  0.62820324  0.63669288  0.74529534  1
  Al  Al168  1  0.36668193  0.13405058  0.25926363  1
  Al  Al169  1  0.36673298  0.13624747  0.74925322  1
  Al  Al170  1  0.36147531  0.62962309  0.25249023  1
  Al  Al171  1  0.37009548  0.63694428  0.74583937  1
  Al  Al172  1  0.86555570  0.13501473  0.25180556  1
  Al  Al173  1  0.86497422  0.12716737  0.74780264  1
  Al  Al174  1  0.86649997  0.64008933  0.25719424  1
  Al  Al175  1  0.86568154  0.63626297  0.74944747  1
  Al  Al176  1  0.13662690  0.36852473  0.24990932  1
  Al  Al177  1  0.13654732  0.36612756  0.75184547  1
  Al  Al178  1  0.13420712  0.86455071  0.25880037  1
  Al  Al179  1  0.13264040  0.85935332  0.74762032  1
  Al  Al180  1  0.63542977  0.36054216  0.25437666  1
  Al  Al181  1  0.63467287  0.36568602  0.74642980  1
  Al  Al182  1  0.63857073  0.87238442  0.25446174  1
  Al  Al183  1  0.63727545  0.87334608  0.74704563  1
  Al  Al184  1  0.36301649  0.36927821  0.25337765  1
  Al  Al185  1  0.36634192  0.36711123  0.74930436  1
  Al  Al186  1  0.36196085  0.86483724  0.25704319  1
  Al  Al187  1  0.36387261  0.86221074  0.74621855  1
  Al  Al188  1  0.86637186  0.36122484  0.24956282  1
  Al  Al189  1  0.86335689  0.36334963  0.75085524  1
  Al  Al190  1  0.86665698  0.86590210  0.26032796  1
  Al  Al191  1  0.86314485  0.87319752  0.74654629  1
  Al  Al192  1  0.17340460  0.00027656  0.18823989  1
  Al  Al193  1  0.66737974  0.67073434  -0.00023941  1
  Al  Al194  1  0.49816365  0.67984862  0.16890097  1
  Al  Al195  1  0.50014096  0.67187572  0.33336735  1
  Al  Al196  1  0.17883587  0.67367805  -0.00097624  1
  Al  Al197  1  0.83207186  0.67417412  -0.00044347  1
  Al  Al198  1  0.82778282  0.31722909  0.50140514  1
  Al  Al199  1  -0.00068221  0.31811929  0.68032853  1
  Al  Al200  1  0.67396034  0.33275711  -0.00117196  1
  Al  Al201  1  0.49816769  0.32754286  0.17460747  1
  Al  Al202  1  0.18066419  0.50133220  0.17589850  1
  Al  Al203  1  0.67692382  0.83143014  -0.00378321  1
  Al  Al204  1  0.81681913  0.50052117  0.67083201  1
  Al  Al205  1  0.67342709  0.49800622  0.18042683  1
  Al  Al206  1  0.67615351  0.16882725  -0.00580708  1
  Al  Al207  1  0.17253287  0.00052393  0.82940478  1
  Al  Al208  1  0.33062367  0.17802305  -0.00194651  1
  Al  Al209  1  -0.00112590  0.82415685  0.67466065  1
  Al  Al210  1  0.00159437  0.67272514  0.18524089  1
  Al  Al211  1  0.49947256  0.81500554  0.67654075  1
  Al  Al212  1  0.17379393  0.50231479  0.68038837  1
  Al  Al213  1  0.00150106  0.32348676  0.31591417  1
  Al  Al214  1  0.00106799  0.17209240  0.32091081  1
  Al  Al215  1  0.33283439  0.82016733  -0.00169100  1
  Al  Al216  1  0.32980174  0.50162785  0.67948858  1
  Al  Al217  1  0.17306845  -0.00321283  0.66825709  1
  Al  Al218  1  0.49828647  0.82940443  0.32706310  1
  Al  Al219  1  0.67060572  0.31555001  0.50106218  1
  Al  Al220  1  0.00079439  0.82681369  0.19185556  1
  Al  Al221  1  0.81406056  0.50104569  0.82216598  1
  Al  Al222  1  0.82102801  -0.00032577  0.18426815  1
  Al  Al223  1  0.50010259  0.31106917  0.80621917  1
  Al  Al224  1  0.17124396  0.83016558  0.00234790  1
  Al  Al225  1  0.50074992  0.17202252  0.19365577  1
  Al  Al226  1  0.50003801  0.18576992  0.68859071  1
  Al  Al227  1  0.32533867  0.00070473  0.18920536  1
  Al  Al228  1  0.18047554  0.32560402  -0.00013381  1
  Al  Al229  1  0.16990892  0.16998246  0.00604242  1
  Al  Al230  1  0.32131703  0.17670595  0.49957249  1
  Al  Al231  1  0.82369997  0.50053685  0.33087901  1
  Al  Al232  1  0.50005997  0.30997415  0.32508261  1
  Al  Al233  1  0.67364415  0.68706175  0.50232856  1
  Al  Al234  1  0.82676260  0.50108174  0.17397093  1
  Al  Al235  1  0.32927025  -0.00052160  0.66844558  1
  Al  Al236  1  0.00078762  0.18011374  0.82063889  1
  Al  Al237  1  0.82598212  0.68196140  0.50149722  1
  Al  Al238  1  0.32890195  -0.00042042  0.82353700  1
  Au  Au239  1  0.17523121  0.49984007  0.16037718  1
  Au  Au240  1  0.33498977  0.49983614  0.32612925  1
  Au  Au241  1  0.83467525  0.67095812  0.50119151  1
  Au  Au242  1  0.67418801  0.00007184  0.16621879  1
  Au  Au243  1  0.32601798  0.65431109  -0.00537710  1
  Au  Au244  1  0.83986781  0.50093179  0.32532249  1
  Au  Au245  1  0.50028894  0.17673738  0.17697785  1
  Au  Au246  1  0.49893935  0.66389131  0.81944701  1
  Au  Au247  1  0.66430348  0.82964139  -0.00484724  1
  Au  Au248  1  0.33660632  0.16688519  -0.00201079  1
  Au  Au249  1  0.50053606  0.84320374  0.17836957  1
  Au  Au250  1  0.84024927  0.33250078  0.00380118  1
  Au  Au251  1  -0.00163058  0.17116008  0.82922411  1
  Au  Au252  1  0.82420469  -0.00082918  0.82414784  1
  Au  Au253  1  0.34076947  0.32606130  0.50168879  1
  Au  Au254  1  0.17822508  0.00042287  0.84541388  1
  Au  Au255  1  0.17338326  0.50137150  0.83099699  1
  Au  Au256  1  0.65780197  0.50016924  0.32840220  1
  Au  Au257  1  0.17284510  0.16162621  0.49407376  1
  Au  Au258  1  0.65576448  0.32252288  0.50321605  1
  Au  Au259  1  0.84777870  0.66825730  0.00034909  1
  Au  Au260  1  0.32972689  0.34197669  -0.00294298  1
  Au  Au261  1  0.32515079  0.67539990  0.50312857  1
  Au  Au262  1  0.15397123  0.17576468  0.00900551  1
  Au  Au263  1  0.49576822  0.66316905  0.16629091  1
  Au  Au264  1  0.66860383  0.65339862  -0.00425881  1
  Au  Au265  1  0.50017924  0.17946437  0.67283912  1
  Au  Au266  1  0.66378756  0.15827696  -0.00610388  1
  Au  Au267  1  0.83356166  0.84224984  0.00264446  1
  Au  Au268  1  0.16677287  0.50601799  0.34001161  1
  Au  Au269  1  0.16465227  0.33481586  0.50351076  1
  Au  Au270  1  0.82629214  0.50138155  0.82610026  1
  Au  Au271  1  0.66553773  0.34649957  -0.00235726  1
  Au  Au272  1  0.17500029  -0.00723177  0.65205588  1
  Au  Au273  1  -0.00061224  0.82097479  0.66219119  1
  Au  Au274  1  0.66488593  0.00142270  0.33880448  1
  Au  Au275  1  0.15555338  0.82425685  0.00445821  1
  Au  Au276  1  0.50118365  0.67738072  0.34847953  1
  Au  Au277  1  0.84019506  0.16625127  0.00618435  1
  Au  Au278  1  -0.00482803  0.17005688  0.65619672  1
  Au  Au279  1  0.33357465  0.50142380  0.66728885  1
  Au  Au280  1  0.00188925  0.33718085  0.82876162  1
  Au  Au281  1  -0.00261780  0.81966781  0.82757933  1
  Au  Au282  1  0.33911651  0.83580133  -0.00093191  1
  Au  Au283  1  0.83802315  -0.00150954  0.33379526  1
  Au  Au284  1  0.84355267  0.32297985  0.50241267  1
  Au  Au285  1  0.67349112  -0.00093481  0.66750410  1
  Au  Au286  1  -0.00266619  0.82581994  0.17523849  1
  Au  Au287  1  0.50120022  0.83838143  0.82165055  1
