# generated using pymatgen
data_Ca24Ti8Al207Au49
_symmetry_space_group_name_H-M   'P 1'
_cell_length_a   17.32543140
_cell_length_b   17.32482181
_cell_length_c   17.32416261
_cell_angle_alpha   89.99830762
_cell_angle_beta   90.00204360
_cell_angle_gamma   90.00026227
_symmetry_Int_Tables_number   1
_chemical_formula_structural   Ca24Ti8Al207Au49
_chemical_formula_sum   'Ca24 Ti8 Al207 Au49'
_cell_volume   5200.02084847
_cell_formula_units_Z   1
loop_
 _symmetry_equiv_pos_site_id
 _symmetry_equiv_pos_as_xyz
  1  'x, y, z'
loop_
 _atom_site_type_symbol
 _atom_site_label
 _atom_site_symmetry_multiplicity
 _atom_site_fract_x
 _atom_site_fract_y
 _atom_site_fract_z
 _atom_site_occupancy
  Ca  Ca0  1  0.25334541  0.00242783  0.00364788  1
  Ca  Ca1  1  0.24902660  0.00039142  0.50105155  1
  Ca  Ca2  1  0.24804170  0.49667183  -0.00056997  1
  Ca  Ca3  1  0.24983113  0.49826674  0.49998410  1
  Ca  Ca4  1  0.75183829  0.00333451  -0.00208068  1
  Ca  Ca5  1  0.75271989  0.00167491  0.50183664  1
  Ca  Ca6  1  0.74990577  0.50051672  0.00341582  1
  Ca  Ca7  1  0.74512326  0.50041018  0.49850400  1
  Ca  Ca8  1  -0.00236299  0.24829014  0.00010222  1
  Ca  Ca9  1  -0.00021865  0.25088986  0.49877482  1
  Ca  Ca10  1  -0.00195295  0.74744637  -0.00230141  1
  Ca  Ca11  1  0.00375046  0.75264142  0.50275564  1
  Ca  Ca12  1  0.49883392  0.24934092  0.00346861  1
  Ca  Ca13  1  0.50040506  0.25374200  0.49691806  1
  Ca  Ca14  1  0.50129216  0.74969027  0.00187742  1
  Ca  Ca15  1  0.49679786  0.74872338  0.49828820  1
  Ca  Ca16  1  0.00123425  0.00156720  0.25308459  1
  Ca  Ca17  1  0.00061081  -0.00071170  0.74477333  1
  Ca  Ca18  1  0.00113501  0.49917009  0.24844392  1
  Ca  Ca19  1  0.00247292  0.49997290  0.74489455  1
  Ca  Ca20  1  0.49864722  0.00253131  0.25208560  1
  Ca  Ca21  1  0.50020919  0.00174054  0.74755954  1
  Ca  Ca22  1  0.50145237  0.49975124  0.25491721  1
  Ca  Ca23  1  0.50080437  0.49714266  0.74503843  1
  Ti  Ti24  1  0.25083034  0.24878734  0.25132939  1
  Ti  Ti25  1  0.25022458  0.25075352  0.74835360  1
  Ti  Ti26  1  0.25144307  0.75088092  0.25419247  1
  Ti  Ti27  1  0.24746803  0.74980522  0.74625623  1
  Ti  Ti28  1  0.75004887  0.24967613  0.24952052  1
  Ti  Ti29  1  0.75138715  0.24952239  0.75040587  1
  Ti  Ti30  1  0.74824652  0.74924230  0.25087503  1
  Ti  Ti31  1  0.75133596  0.74990285  0.74898582  1
  Al  Al32  1  0.08243111  0.07808084  0.08625219  1
  Al  Al33  1  0.08982041  0.07770971  0.58753639  1
  Al  Al34  1  0.07947451  0.57674284  0.07903970  1
  Al  Al35  1  0.08912557  0.58386516  0.58799989  1
  Al  Al36  1  0.57755205  0.09029399  0.08660830  1
  Al  Al37  1  0.58631206  0.08459426  0.57605309  1
  Al  Al38  1  0.58246742  0.58481178  0.09648109  1
  Al  Al39  1  0.58949098  0.58203160  0.57818463  1
  Al  Al40  1  0.42114573  0.41421127  0.08947840  1
  Al  Al41  1  0.41229145  0.41115553  0.57989959  1
  Al  Al42  1  0.41906977  0.92355394  0.09849762  1
  Al  Al43  1  0.40182983  0.91592082  0.58208804  1
  Al  Al44  1  0.91457302  0.41658542  0.09039736  1
  Al  Al45  1  0.91661519  0.41534005  0.57647749  1
  Al  Al46  1  0.92265691  0.91739545  0.08412302  1
  Al  Al47  1  0.92569580  0.91083348  0.58442655  1
  Al  Al48  1  0.41859138  0.08900806  0.41228624  1
  Al  Al49  1  0.41931412  0.08366197  0.91364622  1
  Al  Al50  1  0.41855500  0.59093462  0.41460009  1
  Al  Al51  1  0.42531492  0.57322526  0.91816653  1
  Al  Al52  1  0.90930283  0.08445921  0.42018247  1
  Al  Al53  1  0.91394331  0.09136450  0.91329290  1
  Al  Al54  1  0.91562438  0.58267045  0.41783281  1
  Al  Al55  1  0.92152127  0.58161619  0.92079730  1
  Al  Al56  1  0.09155572  0.41304849  0.42296059  1
  Al  Al57  1  0.08315081  0.41630356  0.91807803  1
  Al  Al58  1  0.08879244  0.91279173  0.42529998  1
  Al  Al59  1  0.07905321  0.92063769  0.91188889  1
  Al  Al60  1  0.57534748  0.41411972  0.41675733  1
  Al  Al61  1  0.57877761  0.41030711  0.91042757  1
  Al  Al62  1  0.57871294  0.91453389  0.41603524  1
  Al  Al63  1  0.58075541  0.92002671  0.91542589  1
  Al  Al64  1  0.08261043  0.08104861  0.42248661  1
  Al  Al65  1  0.07579826  0.08611285  0.90655733  1
  Al  Al66  1  0.08623330  0.58246908  0.42282447  1
  Al  Al67  1  0.08158759  0.58067357  0.91630607  1
  Al  Al68  1  0.58094587  0.09498312  0.41592971  1
  Al  Al69  1  0.58085125  0.08399005  0.91639364  1
  Al  Al70  1  0.58062728  0.59227983  0.41637935  1
  Al  Al71  1  0.58217162  0.57805172  0.91955291  1
  Al  Al72  1  0.41465837  0.40870884  0.41742484  1
  Al  Al73  1  0.41966632  0.41129257  0.90871721  1
  Al  Al74  1  0.41149303  0.91086676  0.41806669  1
  Al  Al75  1  0.42228570  0.92355969  0.91174970  1
  Al  Al76  1  0.91302771  0.41510847  0.41826298  1
  Al  Al77  1  0.91953707  0.41565572  0.92298369  1
  Al  Al78  1  0.91676031  0.92186055  0.42133684  1
  Al  Al79  1  0.91814610  0.91876075  0.91594308  1
  Al  Al80  1  0.07779200  0.41518461  0.08187423  1
  Al  Al81  1  0.09539183  0.41688774  0.58443545  1
  Al  Al82  1  0.08119150  0.92099154  0.09247183  1
  Al  Al83  1  0.09092700  0.91231998  0.58826242  1
  Al  Al84  1  0.58179078  0.41428762  0.08973201  1
  Al  Al85  1  0.58412377  0.42027148  0.58648200  1
  Al  Al86  1  0.57789137  0.91470975  0.08618016  1
  Al  Al87  1  0.58205110  0.91735796  0.58060312  1
  Al  Al88  1  0.41726324  0.08431882  0.09866268  1
  Al  Al89  1  0.40664889  0.07757912  0.58632176  1
  Al  Al90  1  0.42468598  0.58354408  0.09501969  1
  Al  Al91  1  0.41180747  0.58329773  0.57511169  1
  Al  Al92  1  0.91097585  0.08833165  0.07585009  1
  Al  Al93  1  0.91334016  0.08712826  0.57968090  1
  Al  Al94  1  0.91162131  0.57612919  0.08859602  1
  Al  Al95  1  0.92192159  0.58755140  0.58366558  1
  Al  Al96  1  0.25474405  0.13327388  0.13489932  1
  Al  Al97  1  0.24943036  0.13328832  0.63329115  1
  Al  Al98  1  0.25234805  0.63785809  0.14017166  1
  Al  Al99  1  0.24778625  0.63279059  0.62912455  1
  Al  Al100  1  0.74927323  0.13277129  0.13184351  1
  Al  Al101  1  0.75330403  0.13020061  0.63643219  1
  Al  Al102  1  0.74844169  0.63576536  0.13286465  1
  Al  Al103  1  0.75226467  0.63460392  0.62887868  1
  Al  Al104  1  0.25651238  0.36073279  0.13721303  1
  Al  Al105  1  0.24792951  0.36954961  0.63272572  1
  Al  Al106  1  0.25253378  0.86491605  0.13764582  1
  Al  Al107  1  0.24423497  0.86872119  0.63227178  1
  Al  Al108  1  0.75292787  0.36408466  0.13520660  1
  Al  Al109  1  0.74637175  0.36671346  0.63456706  1
  Al  Al110  1  0.74760058  0.86438800  0.13300614  1
  Al  Al111  1  0.75081879  0.86890345  0.63502269  1
  Al  Al112  1  0.25146005  0.13024375  0.36342831  1
  Al  Al113  1  0.25268183  0.13842786  0.86691621  1
  Al  Al114  1  0.25476036  0.63894315  0.37408247  1
  Al  Al115  1  0.24840987  0.63332091  0.86021977  1
  Al  Al116  1  0.75072206  0.13849446  0.36455927  1
  Al  Al117  1  0.75204635  0.13696635  0.87000527  1
  Al  Al118  1  0.74901704  0.63575097  0.37002940  1
  Al  Al119  1  0.74901445  0.63612141  0.86821899  1
  Al  Al120  1  0.25231555  0.36153380  0.37151682  1
  Al  Al121  1  0.24987073  0.36525404  0.86320471  1
  Al  Al122  1  0.25050700  0.87076068  0.36615624  1
  Al  Al123  1  0.24699268  0.85994851  0.86192428  1
  Al  Al124  1  0.75073617  0.36333854  0.36493850  1
  Al  Al125  1  0.75158511  0.36417298  0.86819877  1
  Al  Al126  1  0.74657713  0.86433087  0.36314699  1
  Al  Al127  1  0.75121573  0.86440400  0.86271020  1
  Al  Al128  1  0.13642271  0.24693134  0.13690712  1
  Al  Al129  1  0.13849210  0.25315913  0.63259736  1
  Al  Al130  1  0.13768947  0.75026717  0.13925859  1
  Al  Al131  1  0.13790799  0.75140996  0.62679258  1
  Al  Al132  1  0.63394178  0.24708746  0.13466660  1
  Al  Al133  1  0.63543678  0.25096577  0.63489687  1
  Al  Al134  1  0.63366219  0.74632403  0.13304663  1
  Al  Al135  1  0.63561187  0.74577679  0.63179416  1
  Al  Al136  1  0.13208411  0.25226837  0.36606366  1
  Al  Al137  1  0.13464445  0.24717903  0.86160884  1
  Al  Al138  1  0.13869992  0.75100125  0.37521305  1
  Al  Al139  1  0.12832789  0.75157815  0.85861048  1
  Al  Al140  1  0.63283653  0.25391322  0.36483058  1
  Al  Al141  1  0.63556420  0.25180821  0.86531411  1
  Al  Al142  1  0.62828435  0.74578389  0.36818778  1
  Al  Al143  1  0.63686235  0.75013360  0.86721812  1
  Al  Al144  1  0.36763637  0.24605314  0.13409211  1
  Al  Al145  1  0.36150394  0.25474613  0.63141079  1
  Al  Al146  1  0.36672712  0.74793841  0.13808917  1
  Al  Al147  1  0.36279136  0.74888053  0.63158952  1
  Al  Al148  1  0.86353690  0.24728858  0.13115311  1
  Al  Al149  1  0.86227557  0.24631386  0.63371623  1
  Al  Al150  1  0.86308494  0.74876014  0.13340402  1
  Al  Al151  1  0.86569549  0.74836769  0.63470924  1
  Al  Al152  1  0.36583023  0.25178631  0.36494333  1
  Al  Al153  1  0.36459617  0.25377332  0.86783077  1
  Al  Al154  1  0.37016068  0.74985896  0.36418752  1
  Al  Al155  1  0.36388779  0.75048930  0.86182145  1
  Al  Al156  1  0.86998107  0.24774283  0.36420508  1
  Al  Al157  1  0.86728956  0.24731322  0.87037448  1
  Al  Al158  1  0.86399225  0.74699551  0.36459718  1
  Al  Al159  1  0.86996189  0.75132245  0.86389984  1
  Al  Al160  1  0.13028284  0.13685958  0.25403620  1
  Al  Al161  1  0.13560304  0.13422710  0.74565396  1
  Al  Al162  1  0.13730664  0.63637190  0.25433097  1
  Al  Al163  1  0.13693652  0.63129218  0.74565961  1
  Al  Al164  1  0.63489799  0.13510921  0.24985809  1
  Al  Al165  1  0.63745104  0.13739543  0.74894074  1
  Al  Al166  1  0.63166440  0.63706667  0.25134634  1
  Al  Al167  1  0.64006982  0.63260791  0.74383451  1
  Al  Al168  1  0.36599158  0.13105653  0.24940536  1
  Al  Al169  1  0.36362281  0.13501958  0.74476092  1
  Al  Al170  1  0.36948019  0.63454524  0.25531672  1
  Al  Al171  1  0.36202402  0.63434514  0.74360181  1
  Al  Al172  1  0.86887140  0.13691513  0.24874663  1
  Al  Al173  1  0.86948501  0.13726853  0.75200196  1
  Al  Al174  1  0.86536150  0.63332857  0.24711340  1
  Al  Al175  1  0.86430387  0.63320338  0.74976746  1
  Al  Al176  1  0.13788353  0.36469535  0.25387167  1
  Al  Al177  1  0.13549114  0.37008093  0.74876321  1
  Al  Al178  1  0.13554688  0.86405376  0.25626164  1
  Al  Al179  1  0.12903078  0.86763634  0.74300440  1
  Al  Al180  1  0.63478082  0.36376723  0.25039162  1
  Al  Al181  1  0.63703945  0.36519871  0.74955834  1
  Al  Al182  1  0.63283130  0.86478243  0.25216293  1
  Al  Al183  1  0.63622496  0.86265754  0.74534339  1
  Al  Al184  1  0.36764372  0.36531597  0.25565622  1
  Al  Al185  1  0.36395590  0.36462051  0.74799399  1
  Al  Al186  1  0.36539344  0.87027888  0.25434205  1
  Al  Al187  1  0.36071388  0.86760830  0.74177566  1
  Al  Al188  1  0.86522197  0.36436407  0.25058609  1
  Al  Al189  1  0.86451735  0.36420005  0.75018559  1
  Al  Al190  1  0.86289096  0.86366507  0.25056591  1
  Al  Al191  1  0.87045330  0.86272906  0.74573967  1
  Al  Al192  1  0.81742613  0.31059542  0.49982238  1
  Al  Al193  1  0.18136703  0.50059391  0.32782238  1
  Al  Al194  1  0.82206587  0.49973796  0.31518856  1
  Al  Al195  1  0.67656088  0.81565932  0.49886342  1
  Al  Al196  1  0.17745791  0.00282873  0.81796349  1
  Al  Al197  1  0.32205552  0.50029650  0.18264548  1
  Al  Al198  1  0.00279899  0.68655117  0.67956956  1
  Al  Al199  1  0.00147819  0.17673278  0.67916210  1
  Al  Al200  1  0.49957629  0.19027669  0.31018673  1
  Al  Al201  1  0.32854657  0.67026330  -0.00089756  1
  Al  Al202  1  0.00430274  0.67871377  0.32375456  1
  Al  Al203  1  0.82721079  0.00095417  0.81898976  1
  Al  Al204  1  -0.00026499  0.31608532  0.82482765  1
  Al  Al205  1  0.67551949  0.50018223  0.81803617  1
  Al  Al206  1  0.17473926  0.18154547  0.49907466  1
  Al  Al207  1  0.32293076  0.50256314  0.81768207  1
  Al  Al208  1  0.00011291  0.81722526  0.18447397  1
  Al  Al209  1  0.50025051  0.82493430  0.81881262  1
  Al  Al210  1  0.00062085  0.32372711  0.66885536  1
  Al  Al211  1  0.82381940  0.81986098  0.49998127  1
  Al  Al212  1  0.17571595  0.49864020  0.17168098  1
  Al  Al213  1  0.50032553  0.31140797  0.19028177  1
  Al  Al214  1  0.49993069  0.81416331  0.18236285  1
  Al  Al215  1  0.32309398  0.00191506  0.81494474  1
  Al  Al216  1  0.50036192  0.32771457  0.68434913  1
  Al  Al217  1  0.17185864  0.82951230  0.00186485  1
  Al  Al218  1  0.18148056  0.32623749  0.00147715  1
  Al  Al219  1  0.68604525  0.49921992  0.17814454  1
  Al  Al220  1  0.17474510  0.67256728  -0.00064862  1
  Al  Al221  1  0.67406385  0.00082817  0.82017850  1
  Al  Al222  1  0.33205437  0.83149456  0.00223833  1
  Al  Al223  1  0.30843012  0.81112409  0.49849736  1
  Al  Al224  1  0.66672659  0.50126849  0.32896514  1
  Al  Al225  1  0.81725345  0.49895305  0.67614037  1
  Al  Al226  1  0.18584319  0.00061166  0.18479948  1
  Al  Al227  1  0.81838892  0.00067338  0.32010400  1
  Al  Al228  1  0.00060945  0.31946696  0.18203719  1
  Al  Al229  1  0.68984235  0.18453148  0.50038938  1
  Al  Al230  1  0.67534578  0.00294047  0.17748967  1
  Al  Al231  1  0.17491227  0.16970207  -0.00080996  1
  Al  Al232  1  0.82275089  0.82346200  0.00224617  1
  Al  Al233  1  0.49828555  0.17150970  0.67426581  1
  Al  Al234  1  0.50077314  0.67583341  0.66853177  1
  Al  Al235  1  0.50080521  0.67266160  0.82524972  1
  Al  Al236  1  0.32649937  0.18165903  0.49835764  1
  Al  Al237  1  0.67632517  0.32218653  -0.00142877  1
  Al  Al238  1  0.50001344  0.18762107  0.82558415  1
  Au  Au239  1  0.82804078  0.49888318  0.66331115  1
  Au  Au240  1  0.83077215  0.66612075  0.00160467  1
  Au  Au241  1  0.33069981  0.50057315  0.33886190  1
  Au  Au242  1  0.32287780  0.49915600  0.66008461  1
  Au  Au243  1  0.15933528  0.82663330  0.00207741  1
  Au  Au244  1  0.49840512  0.82386416  0.32870971  1
  Au  Au245  1  0.17846831  0.67418622  0.50136352  1
  Au  Au246  1  0.16911304  0.00079775  0.82682861  1
  Au  Au247  1  0.66597005  0.00230932  0.67104496  1
  Au  Au248  1  0.49382322  0.84022216  0.67045451  1
  Au  Au249  1  0.82666876  0.49994475  0.32722981  1
  Au  Au250  1  0.16251122  0.17297749  -0.00145361  1
  Au  Au251  1  0.82883011  0.67080613  0.50108031  1
  Au  Au252  1  0.33593716  0.84670530  0.00313100  1
  Au  Au253  1  0.00198238  0.67016186  0.33270802  1
  Au  Au254  1  0.33543464  0.00183319  0.32583869  1
  Au  Au255  1  0.82977772  0.49975367  0.83995029  1
  Au  Au256  1  0.66565186  0.83443302  -0.00181836  1
  Au  Au257  1  0.84009014  0.00087807  0.17221055  1
  Au  Au258  1  0.16805318  -0.00074794  0.33160488  1
  Au  Au259  1  0.00031569  0.66648798  0.82577907  1
  Au  Au260  1  0.00105762  0.67036647  0.16021591  1
  Au  Au261  1  0.66643873  0.00040841  0.16898129  1
  Au  Au262  1  0.83151711  0.83217262  0.00005181  1
  Au  Au263  1  -0.00221369  0.17174381  0.16289683  1
  Au  Au264  1  0.33080318  0.50013832  0.17401791  1
  Au  Au265  1  0.66126120  0.66654932  0.00266793  1
  Au  Au266  1  0.67297151  0.16498951  -0.00090854  1
  Au  Au267  1  0.33181350  0.50029906  0.82622638  1
  Au  Au268  1  -0.00134349  0.83440400  0.81915711  1
  Au  Au269  1  0.33247697  0.33603381  -0.00004072  1
  Au  Au270  1  0.67039124  0.00455912  0.34154793  1
  Au  Au271  1  0.49711665  0.17411647  0.66175358  1
  Au  Au272  1  0.16629005  0.50027790  0.82546948  1
  Au  Au273  1  -0.00005658  0.32821004  0.82915971  1
  Au  Au274  1  0.67190989  0.82776411  0.49887387  1
  Au  Au275  1  0.00110044  0.17158854  0.66729476  1
  Au  Au276  1  0.66892273  0.33291670  0.50004974  1
  Au  Au277  1  0.83754530  -0.00408246  0.66823733  1
  Au  Au278  1  0.00375716  0.33673077  0.33146993  1
  Au  Au279  1  -0.00082200  0.83621842  0.33324116  1
  Au  Au280  1  0.50225174  0.66358879  0.67164228  1
  Au  Au281  1  0.33206854  0.65440627  0.00005481  1
  Au  Au282  1  0.33189893  -0.00075090  0.82318799  1
  Au  Au283  1  0.66775151  0.33082019  0.00097555  1
  Au  Au284  1  -0.00193522  0.16559525  0.33605162  1
  Au  Au285  1  0.83388968  0.32485730  0.00433298  1
  Au  Au286  1  0.66645143  0.49821611  0.82683521  1
  Au  Au287  1  0.33866421  0.16460490  0.00411312  1
