# generated using pymatgen
data_Ca24Ti8Al207Au49
_symmetry_space_group_name_H-M   'P 1'
_cell_length_a   17.32092409
_cell_length_b   17.32229039
_cell_length_c   17.32235146
_cell_angle_alpha   89.99824806
_cell_angle_beta   90.00337448
_cell_angle_gamma   90.00094026
_symmetry_Int_Tables_number   1
_chemical_formula_structural   Ca24Ti8Al207Au49
_chemical_formula_sum   'Ca24 Ti8 Al207 Au49'
_cell_volume   5197.36501061
_cell_formula_units_Z   1
loop_
 _symmetry_equiv_pos_site_id
 _symmetry_equiv_pos_as_xyz
  1  'x, y, z'
loop_
 _atom_site_type_symbol
 _atom_site_label
 _atom_site_symmetry_multiplicity
 _atom_site_fract_x
 _atom_site_fract_y
 _atom_site_fract_z
 _atom_site_occupancy
  Ca  Ca0  1  0.24694972  -0.00487844  0.00232011  1
  Ca  Ca1  1  0.24909615  -0.00304090  0.49723177  1
  Ca  Ca2  1  0.24964309  0.50498276  -0.00127150  1
  Ca  Ca3  1  0.24821967  0.50309345  0.49861582  1
  Ca  Ca4  1  0.74741252  0.00060703  0.00087882  1
  Ca  Ca5  1  0.75220524  0.00079323  0.49853585  1
  Ca  Ca6  1  0.74815682  0.50335257  0.00015079  1
  Ca  Ca7  1  0.74867224  0.50183015  0.49900758  1
  Ca  Ca8  1  -0.00586369  0.24752640  0.00269054  1
  Ca  Ca9  1  -0.00070234  0.24576486  0.49362663  1
  Ca  Ca10  1  -0.00070345  0.74569805  -0.00475812  1
  Ca  Ca11  1  0.00096452  0.74942763  0.50323977  1
  Ca  Ca12  1  0.50630948  0.25208188  -0.00134633  1
  Ca  Ca13  1  0.50165650  0.24181141  0.49967715  1
  Ca  Ca14  1  0.50380828  0.74763269  -0.00236936  1
  Ca  Ca15  1  0.49976876  0.75303292  0.49916286  1
  Ca  Ca16  1  -0.00339690  0.00748332  0.25342947  1
  Ca  Ca17  1  -0.00275982  -0.00199195  0.74224840  1
  Ca  Ca18  1  -0.00016724  0.49666350  0.25115855  1
  Ca  Ca19  1  0.00023398  0.50880689  0.75475677  1
  Ca  Ca20  1  0.50760041  -0.00126184  0.25209407  1
  Ca  Ca21  1  0.50270885  0.00106386  0.74909391  1
  Ca  Ca22  1  0.49923223  0.50449544  0.25107688  1
  Ca  Ca23  1  0.50310191  0.50273489  0.75609791  1
  Ti  Ti24  1  0.24915527  0.24969625  0.25161681  1
  Ti  Ti25  1  0.24912745  0.25003720  0.74997704  1
  Ti  Ti26  1  0.25203224  0.74955399  0.25278425  1
  Ti  Ti27  1  0.25029473  0.75019670  0.74829056  1
  Ti  Ti28  1  0.75079132  0.24943295  0.24720260  1
  Ti  Ti29  1  0.75039191  0.25072982  0.75239566  1
  Ti  Ti30  1  0.74796354  0.75104930  0.24968165  1
  Ti  Ti31  1  0.74963445  0.74892663  0.74962575  1
  Al  Al32  1  0.07290597  0.08453905  0.09688734  1
  Al  Al33  1  0.07631908  0.07536885  0.57437526  1
  Al  Al34  1  0.08776109  0.57804474  0.07709173  1
  Al  Al35  1  0.08687346  0.59453374  0.58719456  1
  Al  Al36  1  0.59214245  0.07776864  0.08835138  1
  Al  Al37  1  0.58574364  0.08440546  0.57835922  1
  Al  Al38  1  0.58804757  0.58341974  0.07561524  1
  Al  Al39  1  0.58564496  0.58798197  0.58015448  1
  Al  Al40  1  0.42194688  0.42660356  0.08641709  1
  Al  Al41  1  0.42147621  0.42251390  0.58170179  1
  Al  Al42  1  0.42121743  0.91299186  0.08116341  1
  Al  Al43  1  0.41501430  0.91711625  0.57632322  1
  Al  Al44  1  0.91794941  0.41069484  0.08183288  1
  Al  Al45  1  0.91797843  0.42117965  0.57447433  1
  Al  Al46  1  0.91509701  0.91991782  0.07750698  1
  Al  Al47  1  0.90895704  0.91697457  0.58786577  1
  Al  Al48  1  0.41167529  0.07536128  0.41685348  1
  Al  Al49  1  0.42655049  0.08715062  0.91032527  1
  Al  Al50  1  0.40105764  0.58697376  0.41746367  1
  Al  Al51  1  0.42122090  0.58730933  0.90763189  1
  Al  Al52  1  0.91110406  0.09255051  0.41476528  1
  Al  Al53  1  0.90785889  0.08438221  0.92253072  1
  Al  Al54  1  0.91582451  0.57428570  0.42580871  1
  Al  Al55  1  0.91305215  0.59144576  0.91084231  1
  Al  Al56  1  0.08390659  0.41704700  0.40175912  1
  Al  Al57  1  0.08691722  0.43032131  0.91356673  1
  Al  Al58  1  0.09142085  0.91518302  0.42277755  1
  Al  Al59  1  0.07949051  0.91485348  0.91800008  1
  Al  Al60  1  0.57978690  0.42055497  0.41757906  1
  Al  Al61  1  0.59658006  0.41709185  0.91436677  1
  Al  Al62  1  0.59575840  0.91562579  0.41455816  1
  Al  Al63  1  0.58382060  0.90532996  0.92345388  1
  Al  Al64  1  0.07669667  0.08891534  0.40765376  1
  Al  Al65  1  0.07515809  0.07816865  0.92222148  1
  Al  Al66  1  0.09707430  0.57931673  0.41991945  1
  Al  Al67  1  0.08534446  0.59039138  0.90940030  1
  Al  Al68  1  0.59634829  0.07874194  0.41559218  1
  Al  Al69  1  0.58258206  0.09245350  0.91605848  1
  Al  Al70  1  0.58473222  0.58631219  0.42076878  1
  Al  Al71  1  0.58959833  0.58966410  0.91129723  1
  Al  Al72  1  0.41029194  0.42718474  0.41023166  1
  Al  Al73  1  0.42429084  0.42654164  0.91014887  1
  Al  Al74  1  0.40842333  0.91628480  0.41387322  1
  Al  Al75  1  0.42351412  0.91003804  0.91965946  1
  Al  Al76  1  0.92177276  0.40958552  0.40928860  1
  Al  Al77  1  0.91329504  0.42174483  0.92118513  1
  Al  Al78  1  0.91255714  0.92442537  0.42636831  1
  Al  Al79  1  0.91275090  0.91687196  0.91681864  1
  Al  Al80  1  0.07924898  0.42025180  0.09203245  1
  Al  Al81  1  0.08110924  0.42447675  0.57937019  1
  Al  Al82  1  0.08069559  0.92381955  0.08144666  1
  Al  Al83  1  0.08353468  0.90674467  0.57976159  1
  Al  Al84  1  0.59231941  0.41767367  0.07565786  1
  Al  Al85  1  0.58152728  0.41997581  0.58299401  1
  Al  Al86  1  0.59084909  0.91385840  0.08724978  1
  Al  Al87  1  0.59002512  0.91152703  0.57642339  1
  Al  Al88  1  0.42474040  0.07446120  0.08030470  1
  Al  Al89  1  0.41966165  0.07976232  0.58037952  1
  Al  Al90  1  0.41526091  0.58426540  0.08367435  1
  Al  Al91  1  0.41458487  0.59259452  0.57849548  1
  Al  Al92  1  0.91271871  0.09301610  0.08487590  1
  Al  Al93  1  0.90643468  0.08096523  0.57865912  1
  Al  Al94  1  0.90996943  0.58702598  0.07037057  1
  Al  Al95  1  0.92279393  0.59194810  0.59063983  1
  Al  Al96  1  0.25353524  0.13483698  0.13528168  1
  Al  Al97  1  0.24321074  0.13504189  0.63562398  1
  Al  Al98  1  0.25430834  0.63299087  0.13704537  1
  Al  Al99  1  0.25200896  0.63464297  0.63473717  1
  Al  Al100  1  0.74973609  0.13645987  0.12878980  1
  Al  Al101  1  0.75229974  0.12916809  0.63696530  1
  Al  Al102  1  0.74970276  0.63555204  0.13505860  1
  Al  Al103  1  0.74709742  0.63225612  0.63871510  1
  Al  Al104  1  0.24579930  0.36357094  0.13697352  1
  Al  Al105  1  0.24641036  0.36772801  0.63378371  1
  Al  Al106  1  0.25154832  0.86303096  0.13761149  1
  Al  Al107  1  0.24654321  0.86018210  0.62578975  1
  Al  Al108  1  0.75190905  0.36323273  0.12867110  1
  Al  Al109  1  0.75034422  0.36696858  0.63508761  1
  Al  Al110  1  0.74240600  0.87063762  0.13148536  1
  Al  Al111  1  0.75074617  0.86967851  0.63638791  1
  Al  Al112  1  0.24504606  0.13013180  0.36335347  1
  Al  Al113  1  0.24870046  0.13456752  0.86726652  1
  Al  Al114  1  0.25334287  0.63342961  0.36776855  1
  Al  Al115  1  0.24632597  0.63370690  0.86266759  1
  Al  Al116  1  0.75193947  0.13598330  0.36380508  1
  Al  Al117  1  0.74897378  0.13703658  0.87354401  1
  Al  Al118  1  0.74574697  0.63654857  0.36330630  1
  Al  Al119  1  0.74908844  0.63503011  0.86509321  1
  Al  Al120  1  0.24617119  0.36889480  0.36546409  1
  Al  Al121  1  0.24841317  0.36604267  0.86450309  1
  Al  Al122  1  0.25127015  0.86615412  0.37011965  1
  Al  Al123  1  0.24656490  0.86380569  0.86383976  1
  Al  Al124  1  0.74888648  0.36118615  0.36467204  1
  Al  Al125  1  0.74682667  0.36309985  0.87451213  1
  Al  Al126  1  0.74400562  0.86568349  0.36689597  1
  Al  Al127  1  0.74942173  0.86065561  0.86582233  1
  Al  Al128  1  0.13273394  0.24580351  0.13607639  1
  Al  Al129  1  0.13495609  0.25303312  0.63120973  1
  Al  Al130  1  0.13707315  0.74943473  0.13971682  1
  Al  Al131  1  0.13426054  0.74754224  0.63675256  1
  Al  Al132  1  0.63693982  0.24925572  0.12831479  1
  Al  Al133  1  0.63795113  0.24978502  0.63887644  1
  Al  Al134  1  0.63591533  0.75273704  0.13328560  1
  Al  Al135  1  0.63508616  0.75302935  0.63412310  1
  Al  Al136  1  0.13445634  0.25006714  0.36820174  1
  Al  Al137  1  0.13460286  0.24787181  0.86817098  1
  Al  Al138  1  0.13555493  0.75279128  0.36839247  1
  Al  Al139  1  0.13304802  0.74723826  0.86276096  1
  Al  Al140  1  0.63251325  0.24595752  0.36169121  1
  Al  Al141  1  0.63467401  0.24986875  0.86912088  1
  Al  Al142  1  0.62765939  0.75405742  0.36418361  1
  Al  Al143  1  0.63530331  0.74832899  0.86527193  1
  Al  Al144  1  0.36841919  0.24810640  0.14092813  1
  Al  Al145  1  0.36313109  0.25028805  0.63446280  1
  Al  Al146  1  0.36712702  0.74567048  0.13837078  1
  Al  Al147  1  0.36461934  0.74946910  0.62506440  1
  Al  Al148  1  0.86530503  0.24846742  0.12930469  1
  Al  Al149  1  0.86242861  0.24595168  0.63223651  1
  Al  Al150  1  0.86217554  0.74941731  0.13381087  1
  Al  Al151  1  0.86213004  0.74746844  0.63556565  1
  Al  Al152  1  0.36416956  0.25123781  0.36227391  1
  Al  Al153  1  0.37155997  0.24722202  0.86287462  1
  Al  Al154  1  0.36637464  0.74875158  0.37237914  1
  Al  Al155  1  0.36481178  0.74650928  0.86499934  1
  Al  Al156  1  0.86795007  0.24462159  0.36522219  1
  Al  Al157  1  0.86348788  0.24893156  0.87229090  1
  Al  Al158  1  0.86231747  0.75018579  0.36570170  1
  Al  Al159  1  0.86489366  0.74243617  0.86829388  1
  Al  Al160  1  0.12892053  0.13783075  0.25409605  1
  Al  Al161  1  0.13358072  0.13021838  0.75251467  1
  Al  Al162  1  0.13950413  0.63334715  0.25767374  1
  Al  Al163  1  0.13201573  0.63566067  0.74987855  1
  Al  Al164  1  0.63991509  0.13092966  0.24812871  1
  Al  Al165  1  0.63815092  0.13477694  0.75244293  1
  Al  Al166  1  0.62874079  0.64013699  0.25034402  1
  Al  Al167  1  0.63230121  0.63291952  0.75463693  1
  Al  Al168  1  0.36633013  0.13036916  0.25553138  1
  Al  Al169  1  0.36316744  0.13387381  0.75057851  1
  Al  Al170  1  0.36804209  0.63140050  0.25511446  1
  Al  Al171  1  0.36689513  0.63839584  0.75122543  1
  Al  Al172  1  0.86636791  0.13701374  0.24702066  1
  Al  Al173  1  0.86088848  0.13439058  0.75047670  1
  Al  Al174  1  0.86444480  0.63648860  0.25057629  1
  Al  Al175  1  0.86832212  0.63519518  0.75093319  1
  Al  Al176  1  0.13057657  0.36425819  0.25511722  1
  Al  Al177  1  0.13392361  0.36730977  0.75488579  1
  Al  Al178  1  0.13711887  0.86498240  0.25586808  1
  Al  Al179  1  0.13650155  0.86880646  0.74680180  1
  Al  Al180  1  0.63670791  0.36212302  0.24822593  1
  Al  Al181  1  0.63751042  0.37118903  0.75598709  1
  Al  Al182  1  0.63625931  0.87007081  0.25071863  1
  Al  Al183  1  0.63498034  0.86468333  0.74619005  1
  Al  Al184  1  0.35949449  0.37288869  0.25136779  1
  Al  Al185  1  0.36665667  0.36435104  0.75104273  1
  Al  Al186  1  0.36585199  0.86484999  0.25695215  1
  Al  Al187  1  0.36286837  0.86169691  0.74712689  1
  Al  Al188  1  0.86483675  0.36069233  0.25123865  1
  Al  Al189  1  0.86528776  0.36177797  0.75114663  1
  Al  Al190  1  0.85917275  0.86452739  0.24815747  1
  Al  Al191  1  0.86220997  0.86288445  0.74993925  1
  Al  Al192  1  0.31817663  0.17226498  0.49893600  1
  Al  Al193  1  0.18044719  0.49954877  0.18653399  1
  Al  Al194  1  0.00023342  0.66912864  0.33036256  1
  Al  Al195  1  0.82925521  0.49934516  0.17015450  1
  Al  Al196  1  0.82029967  0.49846692  0.32358214  1
  Al  Al197  1  0.81801920  0.00225871  0.17176625  1
  Al  Al198  1  0.32785156  0.32766889  -0.00027495  1
  Al  Al199  1  0.31731754  -0.00099306  0.67164521  1
  Al  Al200  1  -0.00456509  0.17908893  0.82654324  1
  Al  Al201  1  0.31372581  0.50084705  0.81703368  1
  Al  Al202  1  0.82067556  0.31990853  0.49697693  1
  Al  Al203  1  0.32486092  0.32823984  0.49800207  1
  Al  Al204  1  -0.00429480  0.83006539  0.32676752  1
  Al  Al205  1  0.69133775  0.18150859  0.50072414  1
  Al  Al206  1  0.81088178  0.81977984  0.50093189  1
  Al  Al207  1  0.50048802  0.16909808  0.68182075  1
  Al  Al208  1  0.50101921  0.82045707  0.17981877  1
  Al  Al209  1  0.17866450  0.49892904  0.68416381  1
  Al  Al210  1  0.67094478  -0.00155661  0.82293086  1
  Al  Al211  1  0.68308363  0.69079100  0.49945406  1
  Al  Al212  1  -0.00054205  0.82838934  0.17166371  1
  Al  Al213  1  0.49612919  0.32423266  0.32150731  1
  Al  Al214  1  0.50146740  0.32503643  0.68266872  1
  Al  Al215  1  -0.00133028  0.31069303  0.18839041  1
  Al  Al216  1  0.82503612  -0.00025720  0.81836818  1
  Al  Al217  1  -0.00265191  0.81184596  0.82698068  1
  Al  Al218  1  0.50098544  0.17492163  0.17845618  1
  Al  Al219  1  -0.00069228  0.32930436  0.67654551  1
  Al  Al220  1  0.18205443  0.68249431  0.00062452  1
  Al  Al221  1  0.82221034  0.50024919  0.67545019  1
  Al  Al222  1  0.49906520  0.68024198  0.67991552  1
  Al  Al223  1  -0.00035108  0.67205487  0.16872442  1
  Al  Al224  1  0.81019224  0.81134612  0.00069083  1
  Al  Al225  1  0.32870123  -0.00271748  0.18329998  1
  Al  Al226  1  0.67604899  0.50083377  0.18113871  1
  Al  Al227  1  0.32910237  -0.00223776  0.82735846  1
  Al  Al228  1  0.50043948  0.80969917  0.81785120  1
  Al  Al229  1  -0.00185958  0.17035025  0.67040498  1
  Al  Al230  1  0.31937979  0.81680514  0.00075124  1
  Al  Al231  1  0.68971061  0.68818532  -0.00014493  1
  Al  Al232  1  -0.00181840  0.81503281  0.67140060  1
  Al  Al233  1  0.18942820  0.68958940  0.50083871  1
  Al  Al234  1  0.81484125  0.00002663  0.32671554  1
  Al  Al235  1  0.32389468  0.16972601  -0.00028548  1
  Al  Al236  1  0.16711069  0.32596509  -0.00042382  1
  Al  Al237  1  0.17391324  0.00130838  0.18454204  1
  Al  Al238  1  0.81318355  0.49907618  0.83091360  1
  Au  Au239  1  0.50173809  0.84048218  0.32957593  1
  Au  Au240  1  0.32803912  0.50156929  0.17848111  1
  Au  Au241  1  0.50462584  0.67206810  0.16212073  1
  Au  Au242  1  0.00548180  0.65821025  0.33334651  1
  Au  Au243  1  0.67159760  0.50226967  0.33135053  1
  Au  Au244  1  0.83065536  0.00254327  0.17493299  1
  Au  Au245  1  0.17212487  -0.00018902  0.33356929  1
  Au  Au246  1  0.33570506  0.16607682  -0.00177424  1
  Au  Au247  1  0.33683949  0.34259465  -0.00213749  1
  Au  Au248  1  -0.00058222  0.34307916  0.83048568  1
  Au  Au249  1  0.16050926  0.16219880  0.00861044  1
  Au  Au250  1  0.67736280  0.00018806  0.65848670  1
  Au  Au251  1  0.83312507  0.31976551  0.49490499  1
  Au  Au252  1  0.83054830  0.67206630  0.50090294  1
  Au  Au253  1  -0.00424058  0.66906513  0.15738800  1
  Au  Au254  1  0.34074824  -0.00635193  0.82980854  1
  Au  Au255  1  0.16891765  0.83151507  0.00518132  1
  Au  Au256  1  0.66494806  0.50139441  0.67502544  1
  Au  Au257  1  0.67184094  -0.00493825  0.83904717  1
  Au  Au258  1  0.50109675  0.15877078  0.33491656  1
  Au  Au259  1  0.49872082  0.84341116  0.67241043  1
  Au  Au260  1  0.82602923  0.32710396  -0.00019853  1
  Au  Au261  1  0.33231378  0.66762625  -0.00505697  1
  Au  Au262  1  0.16727348  0.16481816  0.49904305  1
  Au  Au263  1  0.50297225  0.16614564  0.16958679  1
  Au  Au264  1  -0.00333371  0.82797313  0.82165589  1
  Au  Au265  1  0.16934054  0.50214786  0.67598117  1
  Au  Au266  1  0.82239993  0.82365313  0.00042549  1
  Au  Au267  1  0.50668013  0.33812222  0.16652401  1
  Au  Au268  1  0.33476273  0.50370712  0.67048211  1
  Au  Au269  1  0.33248418  -0.00299972  0.17104895  1
  Au  Au270  1  -0.00476778  0.16709266  0.83096905  1
  Au  Au271  1  0.67240700  0.17153032  0.00128114  1
  Au  Au272  1  0.49682729  0.33472459  0.32838434  1
  Au  Au273  1  0.16418874  0.33773999  -0.00286081  1
  Au  Au274  1  0.50598866  0.32731491  0.83614899  1
  Au  Au275  1  0.49955280  0.32137038  0.67081559  1
  Au  Au276  1  0.83428756  0.50188923  0.67286786  1
  Au  Au277  1  0.16556434  0.00081720  0.83293924  1
  Au  Au278  1  -0.00088584  0.32365832  0.17727401  1
  Au  Au279  1  -0.00269712  0.32474702  0.66479937  1
  Au  Au280  1  0.50434900  0.66942978  0.67554219  1
  Au  Au281  1  -0.00327146  0.83912506  0.33732710  1
  Au  Au282  1  0.33633784  0.33155114  0.50216537  1
  Au  Au283  1  0.16248527  0.33575677  0.49445697  1
  Au  Au284  1  0.49453300  0.66626282  0.33741467  1
  Au  Au285  1  0.32164734  0.82354778  0.49886109  1
  Au  Au286  1  0.16802169  -0.00355678  0.66006652  1
  Au  Au287  1  0.66298965  0.32621329  0.50061702  1
