# generated using pymatgen
data_Ca24Ti8Al207Au49
_symmetry_space_group_name_H-M   'P 1'
_cell_length_a   17.32226232
_cell_length_b   17.32184764
_cell_length_c   17.32268607
_cell_angle_alpha   90.00525434
_cell_angle_beta   89.99922593
_cell_angle_gamma   89.99865417
_symmetry_Int_Tables_number   1
_chemical_formula_structural   Ca24Ti8Al207Au49
_chemical_formula_sum   'Ca24 Ti8 Al207 Au49'
_cell_volume   5197.73409854
_cell_formula_units_Z   1
loop_
 _symmetry_equiv_pos_site_id
 _symmetry_equiv_pos_as_xyz
  1  'x, y, z'
loop_
 _atom_site_type_symbol
 _atom_site_label
 _atom_site_symmetry_multiplicity
 _atom_site_fract_x
 _atom_site_fract_y
 _atom_site_fract_z
 _atom_site_occupancy
  Ca  Ca0  1  0.24639256  0.00274886  0.00257009  1
  Ca  Ca1  1  0.24640036  -0.00389350  0.49860570  1
  Ca  Ca2  1  0.25473749  0.49947341  0.00182805  1
  Ca  Ca3  1  0.25193904  0.50274427  0.49419620  1
  Ca  Ca4  1  0.75970207  0.00661917  -0.00187893  1
  Ca  Ca5  1  0.75520138  0.00319892  0.50318899  1
  Ca  Ca6  1  0.75382521  0.49364318  -0.00271472  1
  Ca  Ca7  1  0.74923135  0.49818521  0.49995374  1
  Ca  Ca8  1  0.00261854  0.24653581  0.00097169  1
  Ca  Ca9  1  -0.00333267  0.25008332  0.49754476  1
  Ca  Ca10  1  0.00233970  0.75460104  -0.00198537  1
  Ca  Ca11  1  -0.00475922  0.74935702  0.50246874  1
  Ca  Ca12  1  0.49701677  0.25005478  -0.00070161  1
  Ca  Ca13  1  0.50355320  0.25367103  0.50339155  1
  Ca  Ca14  1  0.49971926  0.74899185  -0.00512868  1
  Ca  Ca15  1  0.50330630  0.74412014  0.50542971  1
  Ca  Ca16  1  0.00502316  0.00502087  0.24347380  1
  Ca  Ca17  1  0.00007797  0.00117277  0.75507253  1
  Ca  Ca18  1  0.00054289  0.49905654  0.25094866  1
  Ca  Ca19  1  -0.00033723  0.50166812  0.75322273  1
  Ca  Ca20  1  0.49561301  0.00292662  0.24377731  1
  Ca  Ca21  1  0.49715481  -0.00215779  0.75370391  1
  Ca  Ca22  1  0.49853205  0.49428037  0.24997345  1
  Ca  Ca23  1  0.49982958  0.50306830  0.74830112  1
  Ti  Ti24  1  0.24825468  0.25185494  0.24838515  1
  Ti  Ti25  1  0.25116159  0.24702944  0.75234138  1
  Ti  Ti26  1  0.24984604  0.74847825  0.24676550  1
  Ti  Ti27  1  0.25012338  0.75181006  0.75244311  1
  Ti  Ti28  1  0.75229435  0.25241487  0.24986756  1
  Ti  Ti29  1  0.75031543  0.25003759  0.75037378  1
  Ti  Ti30  1  0.75223778  0.74787119  0.25215619  1
  Ti  Ti31  1  0.75061286  0.74851286  0.75012628  1
  Al  Al32  1  0.08973256  0.08786515  0.09005974  1
  Al  Al33  1  0.07145542  0.08562558  0.59590995  1
  Al  Al34  1  0.08447566  0.57878952  0.07983258  1
  Al  Al35  1  0.08161917  0.59977294  0.57925492  1
  Al  Al36  1  0.56875687  0.08496531  0.07436999  1
  Al  Al37  1  0.57841696  0.09440904  0.58848839  1
  Al  Al38  1  0.57677040  0.56958173  0.07875553  1
  Al  Al39  1  0.58644553  0.59562390  0.59005986  1
  Al  Al40  1  0.40381089  0.41274673  0.08535517  1
  Al  Al41  1  0.42427127  0.42311449  0.58093522  1
  Al  Al42  1  0.39547818  0.92251016  0.07859760  1
  Al  Al43  1  0.42529325  0.91783291  0.58710944  1
  Al  Al44  1  0.91447876  0.40779012  0.07905133  1
  Al  Al45  1  0.90845888  0.40810178  0.57785330  1
  Al  Al46  1  0.92613189  0.92430217  0.07545099  1
  Al  Al47  1  0.92128423  0.91180245  0.58934859  1
  Al  Al48  1  0.41821454  0.07920572  0.41214192  1
  Al  Al49  1  0.41199876  0.08751725  0.92323944  1
  Al  Al50  1  0.41614809  0.57927500  0.42012054  1
  Al  Al51  1  0.42273973  0.59404091  0.90785882  1
  Al  Al52  1  0.91404360  0.09855054  0.42416737  1
  Al  Al53  1  0.92184497  0.09119667  0.91365832  1
  Al  Al54  1  0.92443536  0.57903613  0.41960629  1
  Al  Al55  1  0.91910990  0.58730118  0.91043610  1
  Al  Al56  1  0.07090624  0.41857781  0.40853608  1
  Al  Al57  1  0.07680018  0.40983768  0.92439215  1
  Al  Al58  1  0.08229154  0.91483443  0.40493291  1
  Al  Al59  1  0.08301809  0.91276143  0.91019425  1
  Al  Al60  1  0.58366157  0.41845330  0.42135698  1
  Al  Al61  1  0.58977976  0.42286314  0.91527329  1
  Al  Al62  1  0.58912251  0.90042509  0.43046425  1
  Al  Al63  1  0.57241170  0.91430216  0.90485244  1
  Al  Al64  1  0.07592658  0.07811458  0.40967293  1
  Al  Al65  1  0.08449680  0.08735132  0.91507623  1
  Al  Al66  1  0.08690544  0.59169119  0.42044631  1
  Al  Al67  1  0.07588238  0.59410754  0.91418795  1
  Al  Al68  1  0.57454539  0.08731913  0.42800139  1
  Al  Al69  1  0.57923849  0.07685176  0.91671436  1
  Al  Al70  1  0.59216438  0.58679692  0.42768790  1
  Al  Al71  1  0.58281945  0.58439201  0.89638887  1
  Al  Al72  1  0.41858928  0.41995971  0.41704823  1
  Al  Al73  1  0.41546899  0.41387532  0.92589342  1
  Al  Al74  1  0.41899566  0.92509246  0.41893866  1
  Al  Al75  1  0.41230377  0.90176940  0.91725567  1
  Al  Al76  1  0.91236717  0.40114408  0.41645291  1
  Al  Al77  1  0.91307721  0.40948658  0.91813687  1
  Al  Al78  1  0.92581650  0.90769794  0.41653931  1
  Al  Al79  1  0.92378680  0.90908111  0.90763590  1
  Al  Al80  1  0.08664658  0.41349482  0.08407246  1
  Al  Al81  1  0.06888621  0.42403282  0.57638189  1
  Al  Al82  1  0.09232718  0.92414581  0.08949322  1
  Al  Al83  1  0.07764435  0.91164490  0.59219473  1
  Al  Al84  1  0.58537279  0.41326493  0.08022913  1
  Al  Al85  1  0.58465265  0.41897673  0.58339824  1
  Al  Al86  1  0.57013138  0.92799583  0.06776312  1
  Al  Al87  1  0.58658802  0.90188277  0.58503616  1
  Al  Al88  1  0.40072447  0.08690452  0.08589102  1
  Al  Al89  1  0.42209229  0.08777827  0.59033554  1
  Al  Al90  1  0.40829130  0.57555877  0.08421344  1
  Al  Al91  1  0.42429745  0.58896280  0.59070448  1
  Al  Al92  1  0.92569251  0.08969512  0.08179143  1
  Al  Al93  1  0.91478213  0.10080332  0.58651341  1
  Al  Al94  1  0.92150694  0.57630702  0.07520598  1
  Al  Al95  1  0.92208415  0.58514362  0.58895205  1
  Al  Al96  1  0.24947576  0.13144566  0.13650700  1
  Al  Al97  1  0.24943494  0.12540341  0.64135196  1
  Al  Al98  1  0.24856150  0.63196392  0.12935404  1
  Al  Al99  1  0.24936798  0.64124191  0.63444803  1
  Al  Al100  1  0.75405089  0.14048221  0.13827394  1
  Al  Al101  1  0.75854486  0.13400332  0.63650027  1
  Al  Al102  1  0.75345335  0.63481909  0.13714010  1
  Al  Al103  1  0.74584089  0.63417493  0.63629448  1
  Al  Al104  1  0.24986794  0.36711751  0.13018775  1
  Al  Al105  1  0.24644222  0.36105958  0.63776688  1
  Al  Al106  1  0.24915006  0.86993676  0.13268778  1
  Al  Al107  1  0.25339111  0.86961396  0.63963232  1
  Al  Al108  1  0.75544689  0.36399464  0.13608183  1
  Al  Al109  1  0.75253045  0.36414337  0.63633529  1
  Al  Al110  1  0.75002884  0.86383650  0.13865024  1
  Al  Al111  1  0.74599467  0.86274684  0.63822964  1
  Al  Al112  1  0.24594748  0.13746503  0.36196149  1
  Al  Al113  1  0.25425966  0.13360044  0.86561264  1
  Al  Al114  1  0.24942440  0.63275753  0.36824927  1
  Al  Al115  1  0.25152124  0.64070656  0.87143940  1
  Al  Al116  1  0.75939959  0.13988175  0.36486809  1
  Al  Al117  1  0.75442278  0.13524671  0.86139829  1
  Al  Al118  1  0.74850575  0.62961094  0.36620821  1
  Al  Al119  1  0.74857724  0.62999599  0.85863741  1
  Al  Al120  1  0.25044052  0.37196063  0.35876033  1
  Al  Al121  1  0.25197100  0.35923109  0.87256086  1
  Al  Al122  1  0.24927098  0.86493628  0.36310691  1
  Al  Al123  1  0.25262651  0.86271282  0.87232441  1
  Al  Al124  1  0.75425370  0.36858682  0.36446389  1
  Al  Al125  1  0.75293858  0.36772949  0.86342440  1
  Al  Al126  1  0.74632816  0.86301781  0.36595927  1
  Al  Al127  1  0.75441985  0.86189097  0.85923631  1
  Al  Al128  1  0.13499525  0.25021177  0.13326069  1
  Al  Al129  1  0.13524829  0.24065289  0.63565210  1
  Al  Al130  1  0.13899022  0.75346550  0.12672861  1
  Al  Al131  1  0.13436877  0.75282687  0.63672057  1
  Al  Al132  1  0.63589179  0.25485765  0.13496297  1
  Al  Al133  1  0.63788210  0.24830390  0.63699469  1
  Al  Al134  1  0.63460164  0.74428051  0.13915060  1
  Al  Al135  1  0.63254933  0.74623077  0.63732814  1
  Al  Al136  1  0.12837867  0.25357950  0.35932705  1
  Al  Al137  1  0.13506588  0.24638583  0.86703905  1
  Al  Al138  1  0.13735584  0.74894922  0.36193156  1
  Al  Al139  1  0.13405849  0.75428440  0.86941729  1
  Al  Al140  1  0.63756358  0.25202699  0.36558593  1
  Al  Al141  1  0.63506817  0.25100492  0.86338313  1
  Al  Al142  1  0.63641688  0.74630942  0.37111734  1
  Al  Al143  1  0.63048259  0.74650449  0.86249454  1
  Al  Al144  1  0.36013645  0.25225465  0.12829959  1
  Al  Al145  1  0.36372195  0.24469364  0.63723310  1
  Al  Al146  1  0.35877216  0.75028412  0.12536643  1
  Al  Al147  1  0.36671041  0.74668759  0.63669704  1
  Al  Al148  1  0.86979226  0.25124974  0.13537049  1
  Al  Al149  1  0.86604167  0.24875129  0.63404893  1
  Al  Al150  1  0.86575196  0.75168094  0.13624628  1
  Al  Al151  1  0.86617207  0.75292499  0.63629594  1
  Al  Al152  1  0.36182170  0.25339717  0.36104131  1
  Al  Al153  1  0.36861182  0.24783581  0.86778520  1
  Al  Al154  1  0.36539730  0.74476518  0.36088196  1
  Al  Al155  1  0.36850265  0.75115683  0.86741397  1
  Al  Al156  1  0.87163014  0.25334879  0.36352582  1
  Al  Al157  1  0.86451579  0.25049262  0.86453431  1
  Al  Al158  1  0.86482081  0.75056054  0.36714208  1
  Al  Al159  1  0.86993153  0.75008139  0.86109671  1
  Al  Al160  1  0.12925570  0.13697793  0.24457174  1
  Al  Al161  1  0.13106331  0.13452810  0.75465399  1
  Al  Al162  1  0.13879101  0.63021084  0.24826563  1
  Al  Al163  1  0.13456826  0.63775416  0.75544113  1
  Al  Al164  1  0.63760165  0.13722466  0.25197584  1
  Al  Al165  1  0.63143747  0.13673546  0.74924510  1
  Al  Al166  1  0.63427291  0.63397047  0.25533892  1
  Al  Al167  1  0.63155020  0.63340299  0.74905370  1
  Al  Al168  1  0.36333002  0.13706247  0.24429929  1
  Al  Al169  1  0.36948508  0.13110552  0.75215677  1
  Al  Al170  1  0.36069039  0.62860993  0.24609433  1
  Al  Al171  1  0.36586774  0.63762722  0.75346980  1
  Al  Al172  1  0.87518050  0.14018565  0.24985968  1
  Al  Al173  1  0.87154932  0.13548899  0.75049543  1
  Al  Al174  1  0.86358022  0.62866808  0.25407754  1
  Al  Al175  1  0.86758914  0.63417860  0.75228584  1
  Al  Al176  1  0.13622275  0.37264623  0.24688717  1
  Al  Al177  1  0.13601699  0.36140864  0.75357004  1
  Al  Al178  1  0.13273196  0.86158072  0.24578733  1
  Al  Al179  1  0.13055575  0.86199761  0.75141815  1
  Al  Al180  1  0.63207804  0.36426070  0.25267217  1
  Al  Al181  1  0.63818323  0.37127847  0.75098446  1
  Al  Al182  1  0.63554217  0.86028228  0.25395491  1
  Al  Al183  1  0.63181667  0.86262397  0.75327145  1
  Al  Al184  1  0.36660190  0.36827539  0.24428418  1
  Al  Al185  1  0.36210248  0.36314554  0.75191069  1
  Al  Al186  1  0.36157890  0.86470286  0.24635156  1
  Al  Al187  1  0.36616247  0.86791534  0.75507554  1
  Al  Al188  1  0.86781160  0.36988966  0.25322895  1
  Al  Al189  1  0.86606324  0.36592714  0.75085243  1
  Al  Al190  1  0.86989483  0.86264748  0.25248369  1
  Al  Al191  1  0.86831010  0.86788880  0.74834884  1
  Al  Al192  1  0.32553881  0.33019824  0.50199056  1
  Al  Al193  1  0.00016795  0.31319114  0.82613435  1
  Al  Al194  1  0.82894737  0.00237628  0.17211048  1
  Al  Al195  1  0.67011828  0.00060022  0.33415031  1
  Al  Al196  1  0.00083019  0.67994417  0.17365070  1
  Al  Al197  1  0.82280315  0.49721957  0.67776722  1
  Al  Al198  1  0.32783903  0.50070059  0.67501565  1
  Al  Al199  1  0.67126673  0.83055943  -0.00431650  1
  Al  Al200  1  0.67902050  0.49834818  0.18050973  1
  Al  Al201  1  0.81583276  0.67358781  0.50074561  1
  Al  Al202  1  0.49643439  0.82619054  0.16845472  1
  Al  Al203  1  0.32843683  0.17403185  0.49661105  1
  Al  Al204  1  0.18600481  0.17672514  0.00051343  1
  Al  Al205  1  0.67066402  0.00238128  0.16924205  1
  Al  Al206  1  0.32423492  0.00145632  0.31398162  1
  Al  Al207  1  0.68694276  0.32806762  0.50079546  1
  Al  Al208  1  0.49821977  0.17968181  0.17109909  1
  Al  Al209  1  0.17295357  0.49780523  0.83035040  1
  Al  Al210  1  0.83354989  0.00047549  0.32974528  1
  Al  Al211  1  0.67264718  0.17205341  -0.00106420  1
  Al  Al212  1  0.17334184  -0.00010762  0.31050382  1
  Al  Al213  1  0.17278077  0.50261543  0.66662766  1
  Al  Al214  1  0.32896279  0.81958144  0.49979677  1
  Al  Al215  1  0.16727656  0.81798490  0.49875354  1
  Al  Al216  1  0.82625779  0.18691692  0.00077580  1
  Al  Al217  1  0.82890697  0.82793668  0.00010678  1
  Al  Al218  1  0.49865501  0.80966697  0.69097887  1
  Al  Al219  1  0.81188777  0.82695591  0.50072081  1
  Al  Al220  1  0.16789829  0.16683852  0.50165571  1
  Al  Al221  1  0.50053084  0.32462181  0.82853068  1
  Al  Al222  1  0.67609301  0.00085938  0.66828469  1
  Al  Al223  1  0.82799448  0.67498370  -0.00217949  1
  Al  Al224  1  0.00051632  0.68354218  0.32808932  1
  Al  Al225  1  0.67119301  0.66588776  -0.00185154  1
  Al  Al226  1  0.16887070  0.32648459  0.49719251  1
  Al  Al227  1  0.32689740  0.50016353  0.82971095  1
  Al  Al228  1  0.49960993  0.17787244  0.32397305  1
  Al  Al229  1  0.00105888  0.31613588  0.18599079  1
  Al  Al230  1  0.17939405  -0.00147337  0.82281047  1
  Al  Al231  1  0.68077087  -0.00011174  0.82561003  1
  Al  Al232  1  0.00041735  0.68695050  0.68619911  1
  Al  Al233  1  0.68829944  0.32425240  -0.00137234  1
  Al  Al234  1  0.50043466  0.31747637  0.67263719  1
  Al  Al235  1  0.68936334  0.17183571  0.50092970  1
  Al  Al236  1  0.00116870  0.31069133  0.66946756  1
  Al  Al237  1  0.49704308  0.66691579  0.17634447  1
  Al  Al238  1  0.49866086  0.82074085  0.33096406  1
  Au  Au239  1  0.33516869  0.49908160  0.32210987  1
  Au  Au240  1  0.00154201  0.17810379  0.32781052  1
  Au  Au241  1  0.83995051  0.49743212  0.33136064  1
  Au  Au242  1  0.33969544  0.17062237  0.50087747  1
  Au  Au243  1  0.82530906  0.65960416  0.50013717  1
  Au  Au244  1  0.33109780  0.83659491  0.50116496  1
  Au  Au245  1  0.65976444  0.00029255  0.67329702  1
  Au  Au246  1  0.83216113  0.00104521  0.83821011  1
  Au  Au247  1  -0.00308616  0.66371258  0.17538939  1
  Au  Au248  1  0.67481694  0.64966280  -0.00415080  1
  Au  Au249  1  0.50039008  0.81895031  0.67655835  1
  Au  Au250  1  0.16280449  0.50378794  0.33013934  1
  Au  Au251  1  0.16039314  -0.00227567  0.67602435  1
  Au  Au252  1  0.15187131  0.82359983  0.49841495  1
  Au  Au253  1  0.82783651  0.49877567  0.83520189  1
  Au  Au254  1  0.32815655  -0.00304726  0.84293123  1
  Au  Au255  1  0.32722958  0.66160859  0.50379437  1
  Au  Au256  1  0.65510411  -0.00180271  0.34100644  1
  Au  Au257  1  0.17953866  0.49956310  0.16260441  1
  Au  Au258  1  0.33547578  0.00067453  0.67058996  1
  Au  Au259  1  0.17339395  0.50828087  0.65145358  1
  Au  Au260  1  0.17385975  0.83993586  0.00059115  1
  Au  Au261  1  0.00038752  0.32703225  0.67531125  1
  Au  Au262  1  0.49042596  0.83804834  0.15674742  1
  Au  Au263  1  0.17629811  0.32349482  -0.00016033  1
  Au  Au264  1  0.67229252  0.00847719  0.15418982  1
  Au  Au265  1  0.66520302  0.50183865  0.67480962  1
  Au  Au266  1  0.50285610  0.66730107  0.34051906  1
  Au  Au267  1  0.66512242  0.50031574  0.32986672  1
  Au  Au268  1  0.84993505  0.00108003  0.32559183  1
  Au  Au269  1  0.00053798  0.32784094  0.17364890  1
  Au  Au270  1  0.16891456  0.49818228  0.84597447  1
  Au  Au271  1  0.16647858  0.67301460  -0.00095622  1
  Au  Au272  1  0.50140728  0.66312858  0.16516304  1
  Au  Au273  1  0.84362449  0.00389638  0.67079922  1
  Au  Au274  1  0.49652409  0.83277187  0.33361412  1
  Au  Au275  1  -0.00019361  0.84206336  0.17491817  1
  Au  Au276  1  0.50039979  0.16119653  0.82548261  1
  Au  Au277  1  0.49951851  0.33697128  0.82544679  1
  Au  Au278  1  0.82388363  0.83927242  0.50227629  1
  Au  Au279  1  0.16880988  0.34170407  0.49154678  1
  Au  Au280  1  0.50078770  0.32447970  0.33981724  1
  Au  Au281  1  0.67583897  0.84632937  -0.00772179  1
  Au  Au282  1  0.82606447  0.49845786  0.15768678  1
  Au  Au283  1  0.49705271  0.32891504  0.16246700  1
  Au  Au284  1  0.16616291  0.15457381  0.50390161  1
  Au  Au285  1  0.33650158  0.67242298  -0.00222383  1
  Au  Au286  1  0.67357152  0.17854182  0.50106023  1
  Au  Au287  1  0.83143914  0.49954699  0.66904715  1
