# generated using pymatgen
data_Ca24Ti8Al207Au49
_symmetry_space_group_name_H-M   'P 1'
_cell_length_a   17.32085810
_cell_length_b   17.32161183
_cell_length_c   17.32180307
_cell_angle_alpha   90.00505856
_cell_angle_beta   89.99949427
_cell_angle_gamma   90.00180365
_symmetry_Int_Tables_number   1
_chemical_formula_structural   Ca24Ti8Al207Au49
_chemical_formula_sum   'Ca24 Ti8 Al207 Au49'
_cell_volume   5196.97707146
_cell_formula_units_Z   1
loop_
 _symmetry_equiv_pos_site_id
 _symmetry_equiv_pos_as_xyz
  1  'x, y, z'
loop_
 _atom_site_type_symbol
 _atom_site_label
 _atom_site_symmetry_multiplicity
 _atom_site_fract_x
 _atom_site_fract_y
 _atom_site_fract_z
 _atom_site_occupancy
  Ca  Ca0  1  0.25349405  -0.00323137  0.00123398  1
  Ca  Ca1  1  0.25303856  -0.00011940  0.49563816  1
  Ca  Ca2  1  0.24876388  0.50134693  0.00868049  1
  Ca  Ca3  1  0.25146482  0.50084222  0.49472489  1
  Ca  Ca4  1  0.74377357  -0.00252991  -0.00001961  1
  Ca  Ca5  1  0.74919065  0.00051108  0.50248457  1
  Ca  Ca6  1  0.74615600  0.50157104  0.00095450  1
  Ca  Ca7  1  0.74607924  0.50200954  0.50052512  1
  Ca  Ca8  1  -0.00228853  0.25315501  0.00886202  1
  Ca  Ca9  1  -0.00366871  0.24785317  0.49521902  1
  Ca  Ca10  1  0.00000890  0.74742714  0.00169326  1
  Ca  Ca11  1  -0.00468192  0.74872077  0.50007257  1
  Ca  Ca12  1  0.50301171  0.24846835  0.00135804  1
  Ca  Ca13  1  0.50288329  0.25171056  0.50289461  1
  Ca  Ca14  1  0.50229481  0.74859341  0.00366369  1
  Ca  Ca15  1  0.50513988  0.74869272  0.49715175  1
  Ca  Ca16  1  -0.00243641  -0.00139123  0.25004086  1
  Ca  Ca17  1  -0.00350466  -0.00470618  0.74501440  1
  Ca  Ca18  1  0.00205809  0.50058999  0.24937515  1
  Ca  Ca19  1  -0.00130126  0.50323465  0.75026521  1
  Ca  Ca20  1  0.50049790  -0.00325189  0.24787432  1
  Ca  Ca21  1  0.50534095  -0.00054025  0.74563893  1
  Ca  Ca22  1  0.50077944  0.50437564  0.25027103  1
  Ca  Ca23  1  0.50293363  0.50175969  0.74790911  1
  Ti  Ti24  1  0.25028854  0.25201974  0.25109748  1
  Ti  Ti25  1  0.25013140  0.25207614  0.74884570  1
  Ti  Ti26  1  0.25264110  0.74942668  0.24982925  1
  Ti  Ti27  1  0.25015358  0.74936457  0.75001973  1
  Ti  Ti28  1  0.74890016  0.24967893  0.24898212  1
  Ti  Ti29  1  0.74937733  0.24938248  0.74999398  1
  Ti  Ti30  1  0.74715094  0.74958119  0.25072929  1
  Ti  Ti31  1  0.74948814  0.75060879  0.74907246  1
  Al  Al32  1  0.07618049  0.08986570  0.09250538  1
  Al  Al33  1  0.07095991  0.08186367  0.57560776  1
  Al  Al34  1  0.09287789  0.58354594  0.08741410  1
  Al  Al35  1  0.07343069  0.58789806  0.58798220  1
  Al  Al36  1  0.59464181  0.07881630  0.07877859  1
  Al  Al37  1  0.58613562  0.08726609  0.58219867  1
  Al  Al38  1  0.59101372  0.58783464  0.08657488  1
  Al  Al39  1  0.58950014  0.59763207  0.57744716  1
  Al  Al40  1  0.40850919  0.42496544  0.09201156  1
  Al  Al41  1  0.42105211  0.42354434  0.57503599  1
  Al  Al42  1  0.42056513  0.90167669  0.08799329  1
  Al  Al43  1  0.42173373  0.91767126  0.57837604  1
  Al  Al44  1  0.92846314  0.41494072  0.09191284  1
  Al  Al45  1  0.90638765  0.42291585  0.57631143  1
  Al  Al46  1  0.91651281  0.92037349  0.07754631  1
  Al  Al47  1  0.90836109  0.91877213  0.58948544  1
  Al  Al48  1  0.41673859  0.07974035  0.42491748  1
  Al  Al49  1  0.43361063  0.08792014  0.91526583  1
  Al  Al50  1  0.42394011  0.58476395  0.40266373  1
  Al  Al51  1  0.41749157  0.58159839  0.92384782  1
  Al  Al52  1  0.91327407  0.09046943  0.42572825  1
  Al  Al53  1  0.91818719  0.07549129  0.92131553  1
  Al  Al54  1  0.92007679  0.58814157  0.41325584  1
  Al  Al55  1  0.91419886  0.58321729  0.90915409  1
  Al  Al56  1  0.08203181  0.42086744  0.40935048  1
  Al  Al57  1  0.07911306  0.42421601  0.92982905  1
  Al  Al58  1  0.07751636  0.90976697  0.41219536  1
  Al  Al59  1  0.07351668  0.90089256  0.91808211  1
  Al  Al60  1  0.58614852  0.42649692  0.40989831  1
  Al  Al61  1  0.58419824  0.42141953  0.91406283  1
  Al  Al62  1  0.59104618  0.90727224  0.41556991  1
  Al  Al63  1  0.58039639  0.92386245  0.92320841  1
  Al  Al64  1  0.07884966  0.08250746  0.41678668  1
  Al  Al65  1  0.07537887  0.08192285  0.92856682  1
  Al  Al66  1  0.07986091  0.58507691  0.40575220  1
  Al  Al67  1  0.08516387  0.59233846  0.92462949  1
  Al  Al68  1  0.59024570  0.08018951  0.42221269  1
  Al  Al69  1  0.59188109  0.09130859  0.91563606  1
  Al  Al70  1  0.58772297  0.59063293  0.41197189  1
  Al  Al71  1  0.59173666  0.58723656  0.92099124  1
  Al  Al72  1  0.41282480  0.42453667  0.40818831  1
  Al  Al73  1  0.42070216  0.41985869  0.91753207  1
  Al  Al74  1  0.42240946  0.91303701  0.41797347  1
  Al  Al75  1  0.41734540  0.90978829  0.92858764  1
  Al  Al76  1  0.91588452  0.41379454  0.41688458  1
  Al  Al77  1  0.91515154  0.42859285  0.91221949  1
  Al  Al78  1  0.91969386  0.90842949  0.41887142  1
  Al  Al79  1  0.91690634  0.90770603  0.91575618  1
  Al  Al80  1  0.08959843  0.41698541  0.09710984  1
  Al  Al81  1  0.08022747  0.42417203  0.57248733  1
  Al  Al82  1  0.08228263  0.91668176  0.08032960  1
  Al  Al83  1  0.07399446  0.91218768  0.57779664  1
  Al  Al84  1  0.58465057  0.42423779  0.08785083  1
  Al  Al85  1  0.58085116  0.42331305  0.57307849  1
  Al  Al86  1  0.58295256  0.91607630  0.09370975  1
  Al  Al87  1  0.59211783  0.90764913  0.57866411  1
  Al  Al88  1  0.42562398  0.07321165  0.07826072  1
  Al  Al89  1  0.41898086  0.08634428  0.58284562  1
  Al  Al90  1  0.40982000  0.58458175  0.09403378  1
  Al  Al91  1  0.43076242  0.58536434  0.58548849  1
  Al  Al92  1  0.91859265  0.08645525  0.09223645  1
  Al  Al93  1  0.90546414  0.08289572  0.58705380  1
  Al  Al94  1  0.92319551  0.57997288  0.08217305  1
  Al  Al95  1  0.91347166  0.58727244  0.58868093  1
  Al  Al96  1  0.24884898  0.13589028  0.13542487  1
  Al  Al97  1  0.25006219  0.13768205  0.63635192  1
  Al  Al98  1  0.25352028  0.63395579  0.13741767  1
  Al  Al99  1  0.24586192  0.64084174  0.63164328  1
  Al  Al100  1  0.74598916  0.13062626  0.13425445  1
  Al  Al101  1  0.75047760  0.12684468  0.63628821  1
  Al  Al102  1  0.74520988  0.63789049  0.13701477  1
  Al  Al103  1  0.74783974  0.63845390  0.63386810  1
  Al  Al104  1  0.24993384  0.36813142  0.13789089  1
  Al  Al105  1  0.24822499  0.36375899  0.62640672  1
  Al  Al106  1  0.25580109  0.86410080  0.13342202  1
  Al  Al107  1  0.24704728  0.85875402  0.63862960  1
  Al  Al108  1  0.74711995  0.36329487  0.13493896  1
  Al  Al109  1  0.75038143  0.36520350  0.63454357  1
  Al  Al110  1  0.74125535  0.86920575  0.13817555  1
  Al  Al111  1  0.74751735  0.86743823  0.63824480  1
  Al  Al112  1  0.24911392  0.13164436  0.36202141  1
  Al  Al113  1  0.24633612  0.13543586  0.86529064  1
  Al  Al114  1  0.25345266  0.62821728  0.36083807  1
  Al  Al115  1  0.24722636  0.63760756  0.86665077  1
  Al  Al116  1  0.75092202  0.13584727  0.36255684  1
  Al  Al117  1  0.74619118  0.13326465  0.86591199  1
  Al  Al118  1  0.73967474  0.63217829  0.36565961  1
  Al  Al119  1  0.75086555  0.63809472  0.86168713  1
  Al  Al120  1  0.24996183  0.37353168  0.36399647  1
  Al  Al121  1  0.24936831  0.36417065  0.86677685  1
  Al  Al122  1  0.25137473  0.86582316  0.36043436  1
  Al  Al123  1  0.25272010  0.86151182  0.86535114  1
  Al  Al124  1  0.74613566  0.36945635  0.36186533  1
  Al  Al125  1  0.74826090  0.36187507  0.86792298  1
  Al  Al126  1  0.74271605  0.86059930  0.36663851  1
  Al  Al127  1  0.74704558  0.86263122  0.86337619  1
  Al  Al128  1  0.13228250  0.25374546  0.14086896  1
  Al  Al129  1  0.13561735  0.25153982  0.62936889  1
  Al  Al130  1  0.13761428  0.74289078  0.13325832  1
  Al  Al131  1  0.12771798  0.75104994  0.63206318  1
  Al  Al132  1  0.63364889  0.24881759  0.13168072  1
  Al  Al133  1  0.63811836  0.24908534  0.63558280  1
  Al  Al134  1  0.63021779  0.75062034  0.13338354  1
  Al  Al135  1  0.63375742  0.74992831  0.62981639  1
  Al  Al136  1  0.13796519  0.25271809  0.36649014  1
  Al  Al137  1  0.13283283  0.24903507  0.86673695  1
  Al  Al138  1  0.13943121  0.74591867  0.36703314  1
  Al  Al139  1  0.13416890  0.74903291  0.86787794  1
  Al  Al140  1  0.63684078  0.25068587  0.36305017  1
  Al  Al141  1  0.63299447  0.24720966  0.87072697  1
  Al  Al142  1  0.62797171  0.74745950  0.36500018  1
  Al  Al143  1  0.63638718  0.74965736  0.87259987  1
  Al  Al144  1  0.37073784  0.25085163  0.14116114  1
  Al  Al145  1  0.36483629  0.25235800  0.63511024  1
  Al  Al146  1  0.37265101  0.75043656  0.13499132  1
  Al  Al147  1  0.37204979  0.74782841  0.63532146  1
  Al  Al148  1  0.86476064  0.24944276  0.13406414  1
  Al  Al149  1  0.86057816  0.24604556  0.63322372  1
  Al  Al150  1  0.86441940  0.74881140  0.13603445  1
  Al  Al151  1  0.86965167  0.75000896  0.63511324  1
  Al  Al152  1  0.36198111  0.25483917  0.36226595  1
  Al  Al153  1  0.36620457  0.24714982  0.86245741  1
  Al  Al154  1  0.37308201  0.74704189  0.36082782  1
  Al  Al155  1  0.36841796  0.74907987  0.86790574  1
  Al  Al156  1  0.86254772  0.24865781  0.36185007  1
  Al  Al157  1  0.86874563  0.24396041  0.86267460  1
  Al  Al158  1  0.85945686  0.74896641  0.36596966  1
  Al  Al159  1  0.86721275  0.75331485  0.86525513  1
  Al  Al160  1  0.13449021  0.13466327  0.24812012  1
  Al  Al161  1  0.13476501  0.13716299  0.75073713  1
  Al  Al162  1  0.13797957  0.62936183  0.25059785  1
  Al  Al163  1  0.13307600  0.63735735  0.74806823  1
  Al  Al164  1  0.63440635  0.13345017  0.24481650  1
  Al  Al165  1  0.63519435  0.13547190  0.75089378  1
  Al  Al166  1  0.62607866  0.63830404  0.25111990  1
  Al  Al167  1  0.63128023  0.63980176  0.74718445  1
  Al  Al168  1  0.36458938  0.12986889  0.24876839  1
  Al  Al169  1  0.36388221  0.13599380  0.75068180  1
  Al  Al170  1  0.36934810  0.63515484  0.24813244  1
  Al  Al171  1  0.36567315  0.63740306  0.75028821  1
  Al  Al172  1  0.86351171  0.13317156  0.24141842  1
  Al  Al173  1  0.86190823  0.13159889  0.74716898  1
  Al  Al174  1  0.86651990  0.63609994  0.25437980  1
  Al  Al175  1  0.86609433  0.63786687  0.74949348  1
  Al  Al176  1  0.13766102  0.37332605  0.24840317  1
  Al  Al177  1  0.13680609  0.36527343  0.75405570  1
  Al  Al178  1  0.13651254  0.86183011  0.24684962  1
  Al  Al179  1  0.12716550  0.85854886  0.75198684  1
  Al  Al180  1  0.63305856  0.36460761  0.24728315  1
  Al  Al181  1  0.63778378  0.36403378  0.75307557  1
  Al  Al182  1  0.62646159  0.86073090  0.25024973  1
  Al  Al183  1  0.62806732  0.85991133  0.74660556  1
  Al  Al184  1  0.36252366  0.37311725  0.24832407  1
  Al  Al185  1  0.36316498  0.36590876  0.75193618  1
  Al  Al186  1  0.37130748  0.86489447  0.25004734  1
  Al  Al187  1  0.37034374  0.86080540  0.74826580  1
  Al  Al188  1  0.86495018  0.36461618  0.24740478  1
  Al  Al189  1  0.86220666  0.36590937  0.75520448  1
  Al  Al190  1  0.86055515  0.86460637  0.24819226  1
  Al  Al191  1  0.86835137  0.86177232  0.74626378  1
  Al  Al192  1  0.82240030  0.50176956  0.32081802  1
  Al  Al193  1  0.32674490  -0.00225782  0.67292105  1
  Al  Al194  1  0.31577557  0.68378506  0.00155422  1
  Al  Al195  1  0.31874776  0.18188371  0.49902984  1
  Al  Al196  1  0.81610388  0.31260179  0.49730106  1
  Al  Al197  1  0.49917681  0.32874710  0.32125594  1
  Al  Al198  1  0.82461633  0.33026909  -0.00051832  1
  Al  Al199  1  0.00305219  0.67879076  0.18001401  1
  Al  Al200  1  0.32651472  0.66945640  0.49787347  1
  Al  Al201  1  0.67254652  -0.00166442  0.31659551  1
  Al  Al202  1  0.16826422  -0.00005785  0.67053656  1
  Al  Al203  1  0.82818902  -0.00044687  0.32460529  1
  Al  Al204  1  0.49987747  0.17589475  0.68497349  1
  Al  Al205  1  0.50015607  0.16977446  0.32603118  1
  Al  Al206  1  0.82229215  0.50141882  0.68772499  1
  Al  Al207  1  0.50133479  0.33008511  0.67066478  1
  Al  Al208  1  -0.00334584  0.33186077  0.67037556  1
  Al  Al209  1  0.68233471  0.50250366  0.19166239  1
  Al  Al210  1  0.16864091  -0.00491196  0.83231620  1
  Al  Al211  1  0.69130797  0.18257985  0.50007126  1
  Al  Al212  1  0.17781694  0.00277472  0.17615112  1
  Al  Al213  1  0.00017169  0.68579005  0.81656258  1
  Al  Al214  1  0.32034185  0.82421942  0.49959888  1
  Al  Al215  1  0.32786766  0.32870680  0.00232368  1
  Al  Al216  1  0.81796858  0.67380372  0.49923462  1
  Al  Al217  1  0.81357953  0.17006041  0.00084794  1
  Al  Al218  1  0.81463205  0.82624763  0.50267509  1
  Al  Al219  1  0.50086505  0.31552167  0.82334181  1
  Al  Al220  1  0.81532465  0.82423444  0.00185466  1
  Al  Al221  1  0.33307389  -0.00028669  0.83200069  1
  Al  Al222  1  0.00123211  0.32665927  0.31353413  1
  Al  Al223  1  0.50069551  0.67630999  0.82776239  1
  Al  Al224  1  0.82967173  -0.00354793  0.81368102  1
  Al  Al225  1  0.32183876  0.50156526  0.82685862  1
  Al  Al226  1  -0.00155225  0.17397247  0.67747551  1
  Al  Al227  1  0.32898793  0.50216582  0.67181648  1
  Al  Al228  1  0.81288040  0.66827259  0.00057676  1
  Al  Al229  1  -0.00307652  0.17068381  0.31092512  1
  Al  Al230  1  0.67308803  -0.00225174  0.81666613  1
  Al  Al231  1  -0.00084798  0.80430310  0.31719629  1
  Al  Al232  1  0.17115256  0.50012621  0.68065009  1
  Al  Al233  1  0.18674672  0.81568839  0.00044617  1
  Al  Al234  1  0.66956572  0.50170783  0.67095570  1
  Al  Al235  1  -0.00018951  0.32312939  0.83082722  1
  Al  Al236  1  0.32380227  0.16978931  -0.00046793  1
  Al  Al237  1  0.17358510  0.32422205  0.00358076  1
  Al  Al238  1  0.68888665  0.50169452  0.82280039  1
  Au  Au239  1  0.82521660  -0.00123820  0.34069396  1
  Au  Au240  1  0.50240399  0.83006527  0.83491879  1
  Au  Au241  1  0.17390195  0.00109408  0.65472577  1
  Au  Au242  1  0.17035970  0.16576368  0.50021017  1
  Au  Au243  1  0.50059676  0.82431886  0.65988534  1
  Au  Au244  1  0.00164172  0.67128921  0.82565396  1
  Au  Au245  1  0.66848760  0.33103750  0.49648238  1
  Au  Au246  1  0.17533291  0.50233466  0.66407867  1
  Au  Au247  1  0.82798163  -0.00711474  0.83025642  1
  Au  Au248  1  0.50738341  0.16418302  0.16177362  1
  Au  Au249  1  0.32431163  0.66931649  0.00217529  1
  Au  Au250  1  0.66556318  0.83200357  0.00377438  1
  Au  Au251  1  0.83021353  0.16527213  0.00117623  1
  Au  Au252  1  0.16924703  0.00031946  0.16734342  1
  Au  Au253  1  0.50057810  0.17428121  0.34188253  1
  Au  Au254  1  -0.00202332  0.33492120  0.83486437  1
  Au  Au255  1  0.17419076  0.50190208  0.32450220  1
  Au  Au256  1  0.81974028  0.50311984  0.33320179  1
  Au  Au257  1  0.65971674  0.32837329  0.00207373  1
  Au  Au258  1  0.33460324  -0.00528522  0.16491337  1
  Au  Au259  1  0.16468457  -0.00268290  0.33154288  1
  Au  Au260  1  0.00418454  0.66634725  0.18290703  1
  Au  Au261  1  0.17066061  0.82177492  0.00090360  1
  Au  Au262  1  0.17488608  0.50180520  0.84829877  1
  Au  Au263  1  0.16707338  0.33329767  0.49358141  1
  Au  Au264  1  0.34891184  -0.00047422  0.82631614  1
  Au  Au265  1  0.67034171  -0.00128065  0.66584209  1
  Au  Au266  1  0.34270038  0.66767456  0.49752073  1
  Au  Au267  1  0.33968964  0.17580194  -0.00104103  1
  Au  Au268  1  -0.00283601  0.82802464  0.67196241  1
  Au  Au269  1  -0.00492951  0.83709211  0.17301419  1
  Au  Au270  1  0.82969593  0.67054309  -0.00158565  1
  Au  Au271  1  0.17134136  0.83392012  0.49715749  1
  Au  Au272  1  0.50065413  0.32754430  0.82812553  1
  Au  Au273  1  -0.00060461  0.16209679  0.82734073  1
  Au  Au274  1  0.82791010  0.49912667  0.16605483  1
  Au  Au275  1  0.50139724  0.67114979  0.17104509  1
  Au  Au276  1  -0.00320102  0.17692112  0.32687994  1
  Au  Au277  1  0.82121074  -0.00258275  0.16202298  1
  Au  Au278  1  0.33426828  -0.00168287  0.33542839  1
  Au  Au279  1  0.15690488  0.17717680  0.00506285  1
  Au  Au280  1  0.50067860  0.82541139  0.32983977  1
  Au  Au281  1  0.49736527  0.34045225  0.17212259  1
  Au  Au282  1  0.15562879  0.66909790  0.49835002  1
  Au  Au283  1  0.49873481  0.66421759  0.82458835  1
  Au  Au284  1  -0.00567157  0.32649955  0.65419411  1
  Au  Au285  1  0.83276081  0.34410068  0.00176272  1
  Au  Au286  1  0.15228770  -0.00510411  0.83625768  1
  Au  Au287  1  0.33895701  0.33034326  0.49661272  1
