# generated using pymatgen
data_Ca24Ti8Al207Au49
_symmetry_space_group_name_H-M   'P 1'
_cell_length_a   17.32313982
_cell_length_b   17.32434167
_cell_length_c   17.32364340
_cell_angle_alpha   89.99876482
_cell_angle_beta   90.00210671
_cell_angle_gamma   90.00197310
_symmetry_Int_Tables_number   1
_chemical_formula_structural   Ca24Ti8Al207Au49
_chemical_formula_sum   'Ca24 Ti8 Al207 Au49'
_cell_volume   5199.03313866
_cell_formula_units_Z   1
loop_
 _symmetry_equiv_pos_site_id
 _symmetry_equiv_pos_as_xyz
  1  'x, y, z'
loop_
 _atom_site_type_symbol
 _atom_site_label
 _atom_site_symmetry_multiplicity
 _atom_site_fract_x
 _atom_site_fract_y
 _atom_site_fract_z
 _atom_site_occupancy
  Ca  Ca0  1  0.24869412  0.00324442  -0.00117065  1
  Ca  Ca1  1  0.25241250  0.00171455  0.49941442  1
  Ca  Ca2  1  0.25350885  0.49664419  0.00214226  1
  Ca  Ca3  1  0.25514004  0.50204721  0.49881389  1
  Ca  Ca4  1  0.75506986  -0.00438273  -0.00309344  1
  Ca  Ca5  1  0.75049860  0.00286946  0.50228904  1
  Ca  Ca6  1  0.74874553  0.50201235  0.00167270  1
  Ca  Ca7  1  0.74868794  0.49828845  0.49831127  1
  Ca  Ca8  1  0.00348993  0.25095981  -0.00090301  1
  Ca  Ca9  1  -0.00024666  0.25138536  0.50084013  1
  Ca  Ca10  1  0.00267841  0.75375568  -0.00354592  1
  Ca  Ca11  1  -0.00269023  0.75433169  0.50374226  1
  Ca  Ca12  1  0.49565641  0.25334412  0.00163426  1
  Ca  Ca13  1  0.49897889  0.24799405  0.49635981  1
  Ca  Ca14  1  0.49947781  0.74605640  -0.00512807  1
  Ca  Ca15  1  0.49768545  0.74750324  0.50451942  1
  Ca  Ca16  1  0.00277915  0.00049362  0.25517201  1
  Ca  Ca17  1  0.00023862  -0.00097093  0.74733024  1
  Ca  Ca18  1  -0.00109875  0.49739614  0.25464534  1
  Ca  Ca19  1  -0.00204788  0.50190288  0.74757122  1
  Ca  Ca20  1  0.49703117  0.00448436  0.25450362  1
  Ca  Ca21  1  0.49835020  -0.00329387  0.74413460  1
  Ca  Ca22  1  0.49876793  0.49940955  0.25434912  1
  Ca  Ca23  1  0.49551209  0.50127007  0.74549011  1
  Ti  Ti24  1  0.25197370  0.25126932  0.25076976  1
  Ti  Ti25  1  0.25036417  0.24903165  0.74982820  1
  Ti  Ti26  1  0.25149514  0.74852617  0.25066710  1
  Ti  Ti27  1  0.24871341  0.75048064  0.75019954  1
  Ti  Ti28  1  0.74911205  0.25075918  0.25132065  1
  Ti  Ti29  1  0.75002125  0.25115627  0.74702994  1
  Ti  Ti30  1  0.74912070  0.74930277  0.25160781  1
  Ti  Ti31  1  0.75037709  0.74942069  0.74876776  1
  Al  Al32  1  0.08908584  0.07824271  0.08025901  1
  Al  Al33  1  0.08504698  0.08292153  0.57922490  1
  Al  Al34  1  0.09363970  0.57326098  0.07787579  1
  Al  Al35  1  0.08195448  0.58159972  0.58040065  1
  Al  Al36  1  0.57301199  0.08372585  0.08398140  1
  Al  Al37  1  0.58549578  0.09128949  0.58015577  1
  Al  Al38  1  0.58381424  0.57722844  0.09630196  1
  Al  Al39  1  0.57428446  0.58658645  0.59036431  1
  Al  Al40  1  0.41357495  0.40945770  0.08207983  1
  Al  Al41  1  0.40995428  0.42386291  0.58627188  1
  Al  Al42  1  0.41581179  0.92040263  0.08216013  1
  Al  Al43  1  0.41679936  0.91219286  0.59025004  1
  Al  Al44  1  0.91476208  0.42519131  0.08661642  1
  Al  Al45  1  0.91308529  0.41683652  0.58781448  1
  Al  Al46  1  0.91122960  0.91302253  0.07189470  1
  Al  Al47  1  0.91014208  0.91624881  0.58864593  1
  Al  Al48  1  0.42282252  0.08431366  0.41037439  1
  Al  Al49  1  0.41147732  0.08215354  0.91877990  1
  Al  Al50  1  0.40930405  0.58099951  0.42027121  1
  Al  Al51  1  0.41095134  0.57965270  0.90647185  1
  Al  Al52  1  0.91281579  0.08780116  0.42493736  1
  Al  Al53  1  0.92166176  0.07526789  0.91526517  1
  Al  Al54  1  0.90833800  0.57397726  0.41579009  1
  Al  Al55  1  0.90922282  0.58190332  0.90933875  1
  Al  Al56  1  0.09241123  0.41381846  0.42325989  1
  Al  Al57  1  0.09006001  0.41302756  0.92058726  1
  Al  Al58  1  0.08575511  0.92406344  0.41410184  1
  Al  Al59  1  0.09151285  0.91641738  0.91512295  1
  Al  Al60  1  0.58232860  0.41085052  0.40815463  1
  Al  Al61  1  0.57689604  0.42740770  0.91788310  1
  Al  Al62  1  0.58189296  0.92279175  0.42229157  1
  Al  Al63  1  0.57822447  0.91527544  0.91429098  1
  Al  Al64  1  0.08971570  0.08207356  0.41595602  1
  Al  Al65  1  0.09162652  0.07720324  0.91307985  1
  Al  Al66  1  0.08851972  0.57744173  0.42218881  1
  Al  Al67  1  0.08447362  0.58090590  0.91799036  1
  Al  Al68  1  0.58723307  0.09480678  0.41681102  1
  Al  Al69  1  0.57883368  0.07460961  0.92090609  1
  Al  Al70  1  0.58383193  0.57259579  0.41567393  1
  Al  Al71  1  0.57717034  0.58231615  0.91063697  1
  Al  Al72  1  0.41571139  0.41626298  0.40980028  1
  Al  Al73  1  0.39977015  0.41823972  0.91701761  1
  Al  Al74  1  0.41361940  0.92227145  0.42045577  1
  Al  Al75  1  0.41741777  0.91752641  0.91229773  1
  Al  Al76  1  0.90860207  0.41879066  0.42065249  1
  Al  Al77  1  0.91349376  0.42522210  0.90635517  1
  Al  Al78  1  0.91337785  0.91362006  0.42729018  1
  Al  Al79  1  0.91295850  0.91373727  0.91474474  1
  Al  Al80  1  0.09735279  0.41446503  0.07965673  1
  Al  Al81  1  0.08575518  0.41150716  0.58140769  1
  Al  Al82  1  0.09483545  0.91816362  0.07610980  1
  Al  Al83  1  0.07696284  0.91910837  0.58390343  1
  Al  Al84  1  0.57672401  0.42255899  0.10116784  1
  Al  Al85  1  0.58280593  0.41926020  0.58013593  1
  Al  Al86  1  0.57831628  0.91774919  0.07875295  1
  Al  Al87  1  0.57980724  0.91073538  0.58847595  1
  Al  Al88  1  0.41376137  0.08698645  0.08388994  1
  Al  Al89  1  0.42274384  0.08054058  0.58784879  1
  Al  Al90  1  0.41972742  0.57907159  0.07990222  1
  Al  Al91  1  0.41075386  0.59062358  0.58961221  1
  Al  Al92  1  0.92515943  0.07569705  0.07807930  1
  Al  Al93  1  0.90522342  0.08021322  0.58556685  1
  Al  Al94  1  0.90707358  0.57759072  0.08073813  1
  Al  Al95  1  0.91096045  0.57721471  0.58948039  1
  Al  Al96  1  0.25269407  0.13635671  0.13568770  1
  Al  Al97  1  0.24868689  0.13555280  0.63509953  1
  Al  Al98  1  0.25054463  0.63356258  0.13412610  1
  Al  Al99  1  0.25489559  0.63267611  0.63163482  1
  Al  Al100  1  0.75158115  0.13723753  0.13404390  1
  Al  Al101  1  0.74937438  0.13759930  0.62912115  1
  Al  Al102  1  0.74918420  0.62842691  0.13442279  1
  Al  Al103  1  0.75158205  0.63086181  0.63585851  1
  Al  Al104  1  0.25402045  0.36393522  0.13155341  1
  Al  Al105  1  0.25101599  0.36449373  0.63445229  1
  Al  Al106  1  0.24758388  0.86576820  0.13410707  1
  Al  Al107  1  0.24858315  0.86373837  0.63619915  1
  Al  Al108  1  0.74753086  0.37235049  0.14072327  1
  Al  Al109  1  0.74906231  0.36927890  0.63394153  1
  Al  Al110  1  0.75438015  0.86481015  0.13354999  1
  Al  Al111  1  0.75194207  0.86356394  0.62811950  1
  Al  Al112  1  0.25074506  0.13838374  0.36450546  1
  Al  Al113  1  0.25154285  0.13149913  0.86338047  1
  Al  Al114  1  0.25303674  0.62954666  0.36861644  1
  Al  Al115  1  0.25059244  0.63433337  0.86243903  1
  Al  Al116  1  0.74853427  0.13823276  0.36968722  1
  Al  Al117  1  0.75220797  0.13613429  0.86019064  1
  Al  Al118  1  0.74988852  0.63299439  0.36691849  1
  Al  Al119  1  0.75439152  0.63267212  0.86219009  1
  Al  Al120  1  0.25123164  0.37128984  0.36393373  1
  Al  Al121  1  0.25252696  0.36479226  0.86790130  1
  Al  Al122  1  0.24944547  0.86598226  0.36500082  1
  Al  Al123  1  0.24798079  0.87064634  0.86299918  1
  Al  Al124  1  0.75026212  0.36565154  0.36580546  1
  Al  Al125  1  0.75590321  0.37072090  0.86022516  1
  Al  Al126  1  0.75132907  0.86465672  0.37221384  1
  Al  Al127  1  0.75326941  0.86240316  0.86272128  1
  Al  Al128  1  0.13768401  0.25304979  0.13459367  1
  Al  Al129  1  0.13597005  0.24947363  0.63568290  1
  Al  Al130  1  0.13866333  0.75004633  0.12883783  1
  Al  Al131  1  0.13658116  0.74625878  0.63518545  1
  Al  Al132  1  0.63391794  0.24738698  0.13771953  1
  Al  Al133  1  0.63093841  0.25108953  0.63384451  1
  Al  Al134  1  0.63858592  0.74992620  0.13296373  1
  Al  Al135  1  0.63726136  0.74923000  0.62979635  1
  Al  Al136  1  0.13521940  0.25430056  0.36545025  1
  Al  Al137  1  0.13519607  0.25157685  0.86464718  1
  Al  Al138  1  0.13906482  0.74714483  0.36458566  1
  Al  Al139  1  0.13543693  0.75190742  0.86905440  1
  Al  Al140  1  0.63098998  0.24772931  0.36499365  1
  Al  Al141  1  0.63786545  0.25021190  0.86382742  1
  Al  Al142  1  0.63787604  0.74997673  0.37073827  1
  Al  Al143  1  0.63646698  0.74793113  0.86414474  1
  Al  Al144  1  0.36592434  0.25262111  0.13570586  1
  Al  Al145  1  0.36988150  0.25219350  0.63612212  1
  Al  Al146  1  0.36261355  0.75008024  0.13586521  1
  Al  Al147  1  0.36980501  0.74728532  0.63936575  1
  Al  Al148  1  0.86507635  0.25190737  0.13839285  1
  Al  Al149  1  0.86314087  0.24693114  0.63478861  1
  Al  Al150  1  0.86297489  0.74959102  0.13630671  1
  Al  Al151  1  0.86413203  0.75100867  0.63398613  1
  Al  Al152  1  0.36851578  0.25440495  0.36383763  1
  Al  Al153  1  0.36335966  0.25280872  0.86518520  1
  Al  Al154  1  0.36409436  0.74636712  0.36596500  1
  Al  Al155  1  0.36409877  0.75021180  0.86122473  1
  Al  Al156  1  0.86438671  0.24939648  0.36305800  1
  Al  Al157  1  0.86675295  0.24966990  0.86062699  1
  Al  Al158  1  0.86142360  0.75211920  0.36570055  1
  Al  Al159  1  0.87167017  0.75228041  0.86238364  1
  Al  Al160  1  0.13732244  0.13745856  0.25093727  1
  Al  Al161  1  0.13626522  0.12945280  0.75090833  1
  Al  Al162  1  0.13897761  0.63328399  0.25152015  1
  Al  Al163  1  0.13057990  0.63699041  0.75008754  1
  Al  Al164  1  0.62946638  0.13688498  0.25374638  1
  Al  Al165  1  0.63400690  0.13863547  0.74340322  1
  Al  Al166  1  0.63509052  0.63498319  0.24888103  1
  Al  Al167  1  0.63323836  0.63450526  0.74417427  1
  Al  Al168  1  0.37138334  0.13925217  0.25265083  1
  Al  Al169  1  0.36652643  0.13596156  0.74852901  1
  Al  Al170  1  0.36238317  0.62730549  0.25170685  1
  Al  Al171  1  0.36296492  0.63100307  0.74713375  1
  Al  Al172  1  0.86149872  0.12914344  0.25333750  1
  Al  Al173  1  0.86756026  0.13284443  0.74373540  1
  Al  Al174  1  0.86150861  0.63001315  0.24908288  1
  Al  Al175  1  0.86882788  0.63698600  0.74897829  1
  Al  Al176  1  0.13598140  0.36572347  0.25290055  1
  Al  Al177  1  0.13582186  0.36296354  0.74979754  1
  Al  Al178  1  0.13747343  0.86296206  0.25099700  1
  Al  Al179  1  0.13548978  0.87021885  0.75366579  1
  Al  Al180  1  0.63288447  0.36342783  0.25355910  1
  Al  Al181  1  0.63412924  0.36845471  0.74716949  1
  Al  Al182  1  0.63567601  0.86221627  0.25317788  1
  Al  Al183  1  0.63717143  0.86171409  0.74451863  1
  Al  Al184  1  0.36347371  0.37131466  0.25101112  1
  Al  Al185  1  0.36215818  0.36969878  0.74920869  1
  Al  Al186  1  0.36456261  0.86445359  0.24962362  1
  Al  Al187  1  0.36506733  0.86479900  0.74854375  1
  Al  Al188  1  0.86524459  0.37063195  0.25150333  1
  Al  Al189  1  0.86463214  0.36752009  0.74610521  1
  Al  Al190  1  0.86136773  0.86904020  0.25320127  1
  Al  Al191  1  0.86421353  0.86586280  0.74627056  1
  Al  Al192  1  0.31697514  0.32688722  0.49871920  1
  Al  Al193  1  0.17082383  0.82149333  0.49869739  1
  Al  Al194  1  0.49817828  0.32088034  0.18944540  1
  Al  Al195  1  0.32521206  0.18524533  -0.00034050  1
  Al  Al196  1  0.68615024  0.49937553  0.31031699  1
  Al  Al197  1  0.17424538  0.18122482  -0.00103874  1
  Al  Al198  1  0.17800127  0.18713983  0.49910111  1
  Al  Al199  1  0.67480844  0.31496039  0.49858310  1
  Al  Al200  1  0.31335783  0.82838008  -0.00103560  1
  Al  Al201  1  0.00204696  0.32444323  0.17575052  1
  Al  Al202  1  0.82075431  0.68212522  0.50064780  1
  Al  Al203  1  0.67680496  0.50114794  0.81758285  1
  Al  Al204  1  0.00051191  0.82004410  0.68090817  1
  Al  Al205  1  0.18168430  0.00060732  0.18736298  1
  Al  Al206  1  0.67343036  -0.00116461  0.82596281  1
  Al  Al207  1  -0.00061045  0.82811896  0.32747010  1
  Al  Al208  1  0.49939064  0.67040783  0.32955923  1
  Al  Al209  1  0.67844973  0.16658261  -0.00174732  1
  Al  Al210  1  0.18583998  0.49836941  0.82055768  1
  Al  Al211  1  0.49656705  0.33035432  0.81938054  1
  Al  Al212  1  0.67633919  0.00081621  0.17071484  1
  Al  Al213  1  0.32053620  0.67176088  -0.00175901  1
  Al  Al214  1  0.82536515  -0.00036254  0.81467277  1
  Al  Al215  1  0.18552481  0.49791939  0.18232103  1
  Al  Al216  1  0.66966978  0.33006946  0.00423460  1
  Al  Al217  1  0.00543876  0.17552916  0.82249898  1
  Al  Al218  1  0.18476745  0.49994204  0.67420359  1
  Al  Al219  1  0.00210785  0.82961896  0.17202832  1
  Al  Al220  1  0.68413469  0.82288172  -0.00275486  1
  Al  Al221  1  0.49820413  0.67786152  0.17576302  1
  Al  Al222  1  0.82674648  0.31433279  0.50124767  1
  Al  Al223  1  0.50129929  0.82494063  0.81381486  1
  Al  Al224  1  0.00329237  0.66833803  0.16944719  1
  Al  Al225  1  0.68565889  0.00083500  0.67182863  1
  Al  Al226  1  0.82047042  0.68568132  -0.00179818  1
  Al  Al227  1  0.33118057  0.17026438  0.50080707  1
  Al  Al228  1  0.31293401  0.00215144  0.31964251  1
  Al  Al229  1  0.49788792  0.67389336  0.81293811  1
  Al  Al230  1  0.50161955  0.17220760  0.81922723  1
  Al  Al231  1  -0.00020461  0.17574203  0.32511091  1
  Al  Al232  1  0.31749879  0.00024044  0.68065803  1
  Al  Al233  1  0.67917075  0.00159360  0.32869089  1
  Al  Al234  1  0.83087418  0.32113743  -0.00141372  1
  Al  Al235  1  -0.00028953  0.32005753  0.67789302  1
  Al  Al236  1  -0.00361229  0.67185255  0.32957182  1
  Al  Al237  1  0.49953111  0.82930838  0.32273108  1
  Al  Al238  1  0.32791833  0.81598357  0.50233113  1
  Au  Au239  1  0.65662492  0.34080023  0.00911704  1
  Au  Au240  1  0.16757022  -0.00033096  0.67262186  1
  Au  Au241  1  0.67775776  0.49906590  0.83016838  1
  Au  Au242  1  0.17401417  0.83379216  0.49836364  1
  Au  Au243  1  0.18347876  0.49731436  0.83852665  1
  Au  Au244  1  0.49912484  0.82533927  0.16296407  1
  Au  Au245  1  0.67220426  0.32755661  0.49799403  1
  Au  Au246  1  0.65909823  0.66048493  0.00312166  1
  Au  Au247  1  0.49808604  0.32787841  0.65978319  1
  Au  Au248  1  0.66044139  0.00047353  0.17702369  1
  Au  Au249  1  0.00303349  0.15927013  0.17033610  1
  Au  Au250  1  0.32716177  0.33052433  0.49838963  1
  Au  Au251  1  0.83184431  0.15827455  -0.00098036  1
  Au  Au252  1  0.83477831  0.67664305  -0.00211920  1
  Au  Au253  1  0.81881567  0.49995573  0.18121534  1
  Au  Au254  1  0.66601206  0.16653582  0.00103816  1
  Au  Au255  1  0.17938244  0.66774311  0.50108966  1
  Au  Au256  1  0.00333117  0.65212648  0.16506271  1
  Au  Au257  1  0.50051526  0.82663494  0.33524396  1
  Au  Au258  1  0.00126469  0.66370225  0.82978739  1
  Au  Au259  1  0.67299020  0.83655844  0.50035832  1
  Au  Au260  1  -0.00000262  0.16625109  0.33324543  1
  Au  Au261  1  0.83593720  0.33737472  -0.00318602  1
  Au  Au262  1  0.50273668  0.15556101  0.82341178  1
  Au  Au263  1  0.00349126  0.83583091  0.83017365  1
  Au  Au264  1  0.00308238  0.33696249  0.16508184  1
  Au  Au265  1  0.49451630  0.33864611  0.83324622  1
  Au  Au266  1  -0.00254900  0.17093787  0.65759742  1
  Au  Au267  1  0.00128732  0.34088389  0.82606300  1
  Au  Au268  1  0.67510012  0.50282916  0.66509372  1
  Au  Au269  1  0.00281659  0.16712153  0.83145967  1
  Au  Au270  1  0.49796820  0.17493678  0.17606648  1
  Au  Au271  1  0.32425968  0.00018098  0.82936897  1
  Au  Au272  1  0.32989644  0.82720741  -0.00386117  1
  Au  Au273  1  -0.00149320  0.67123322  0.66322872  1
  Au  Au274  1  0.65651792  0.66900807  0.50038494  1
  Au  Au275  1  -0.00074601  0.67287499  0.34619853  1
  Au  Au276  1  0.32880341  0.00224229  0.17271531  1
  Au  Au277  1  0.33379748  0.49910898  0.17106249  1
  Au  Au278  1  0.17305241  0.50009282  0.66955292  1
  Au  Au279  1  0.83593276  -0.00151897  0.16699058  1
  Au  Au280  1  0.82870447  -0.00136797  0.34277063  1
  Au  Au281  1  -0.00193038  0.33523753  0.34252639  1
  Au  Au282  1  0.00225527  0.84530287  0.16801080  1
  Au  Au283  1  0.16990997  0.67339491  -0.00120168  1
  Au  Au284  1  0.66945292  0.00396043  0.67234805  1
  Au  Au285  1  0.17392787  0.49864260  0.33065142  1
  Au  Au286  1  0.67532523  0.83712362  -0.00333691  1
  Au  Au287  1  0.82951278  0.66789949  0.50090595  1
