# generated using pymatgen
data_Ca24Ti8Al207Au49
_symmetry_space_group_name_H-M   'P 1'
_cell_length_a   17.32396756
_cell_length_b   17.32401324
_cell_length_c   17.32411794
_cell_angle_alpha   89.99939072
_cell_angle_beta   89.99514007
_cell_angle_gamma   89.99699381
_symmetry_Int_Tables_number   1
_chemical_formula_structural   Ca24Ti8Al207Au49
_chemical_formula_sum   'Ca24 Ti8 Al207 Au49'
_cell_volume   5199.32539601
_cell_formula_units_Z   1
loop_
 _symmetry_equiv_pos_site_id
 _symmetry_equiv_pos_as_xyz
  1  'x, y, z'
loop_
 _atom_site_type_symbol
 _atom_site_label
 _atom_site_symmetry_multiplicity
 _atom_site_fract_x
 _atom_site_fract_y
 _atom_site_fract_z
 _atom_site_occupancy
  Ca  Ca0  1  0.25021816  0.00027008  -0.00035438  1
  Ca  Ca1  1  0.25196811  0.00177510  0.49989125  1
  Ca  Ca2  1  0.24741504  0.49618267  -0.00223485  1
  Ca  Ca3  1  0.25416708  0.49911846  0.49878766  1
  Ca  Ca4  1  0.75065845  0.00040732  0.00124306  1
  Ca  Ca5  1  0.75212470  -0.00459202  0.50137365  1
  Ca  Ca6  1  0.75121808  0.50264923  -0.00098795  1
  Ca  Ca7  1  0.75224457  0.50405085  0.50379062  1
  Ca  Ca8  1  0.00382835  0.24905102  0.00328885  1
  Ca  Ca9  1  0.00533236  0.24881729  0.49903550  1
  Ca  Ca10  1  0.00244298  0.74706315  -0.00358748  1
  Ca  Ca11  1  0.00009036  0.75134192  0.50534529  1
  Ca  Ca12  1  0.49657048  0.24814397  0.00106958  1
  Ca  Ca13  1  0.49386602  0.24772865  0.50011676  1
  Ca  Ca14  1  0.49630284  0.75295061  -0.00106318  1
  Ca  Ca15  1  0.50142595  0.75161881  0.49911268  1
  Ca  Ca16  1  0.00435618  0.00267072  0.24796263  1
  Ca  Ca17  1  0.00408604  -0.00418665  0.74823105  1
  Ca  Ca18  1  0.00241524  0.49706406  0.24610589  1
  Ca  Ca19  1  -0.00027345  0.50382902  0.74835889  1
  Ca  Ca20  1  0.49626888  0.00368161  0.25169985  1
  Ca  Ca21  1  0.49286413  0.00461627  0.75014364  1
  Ca  Ca22  1  0.49560164  0.49420323  0.25267838  1
  Ca  Ca23  1  0.49572302  0.49578940  0.74727345  1
  Ti  Ti24  1  0.24977485  0.24926736  0.24948396  1
  Ti  Ti25  1  0.25091147  0.24861312  0.75076202  1
  Ti  Ti26  1  0.25091208  0.75193697  0.24951520  1
  Ti  Ti27  1  0.24911003  0.75025363  0.75110447  1
  Ti  Ti28  1  0.75087176  0.24891356  0.25138087  1
  Ti  Ti29  1  0.74748687  0.25063499  0.74826552  1
  Ti  Ti30  1  0.74906724  0.75130645  0.25190606  1
  Ti  Ti31  1  0.75203070  0.74991849  0.74912383  1
  Al  Al32  1  0.08523198  0.08701471  0.09546939  1
  Al  Al33  1  0.09459383  0.07732157  0.58459197  1
  Al  Al34  1  0.08686217  0.57492516  0.08751043  1
  Al  Al35  1  0.08114652  0.58446185  0.58793767  1
  Al  Al36  1  0.58277086  0.08075285  0.09422079  1
  Al  Al37  1  0.57946459  0.07473538  0.59126754  1
  Al  Al38  1  0.57912303  0.57683230  0.07518963  1
  Al  Al39  1  0.59091626  0.57136503  0.58526152  1
  Al  Al40  1  0.40992275  0.39923202  0.08557004  1
  Al  Al41  1  0.41514225  0.40249807  0.58263484  1
  Al  Al42  1  0.41738335  0.92021695  0.08436111  1
  Al  Al43  1  0.41009721  0.92784175  0.58033444  1
  Al  Al44  1  0.92744701  0.42143109  0.08308590  1
  Al  Al45  1  0.91132313  0.42623277  0.58645514  1
  Al  Al46  1  0.91939482  0.93104911  0.08009954  1
  Al  Al47  1  0.91426141  0.90786671  0.59066875  1
  Al  Al48  1  0.40310883  0.08968540  0.41364025  1
  Al  Al49  1  0.40640536  0.08073536  0.91641521  1
  Al  Al50  1  0.41540066  0.59329569  0.42097411  1
  Al  Al51  1  0.41862540  0.58025208  0.91771554  1
  Al  Al52  1  0.92633435  0.07650422  0.41589131  1
  Al  Al53  1  0.92156892  0.07937159  0.92512469  1
  Al  Al54  1  0.91598629  0.58497641  0.42460951  1
  Al  Al55  1  0.91918160  0.58494407  0.91463605  1
  Al  Al56  1  0.08286182  0.41742172  0.41872684  1
  Al  Al57  1  0.08889002  0.40653168  0.92173207  1
  Al  Al58  1  0.08676006  0.92830702  0.41384327  1
  Al  Al59  1  0.08667477  0.91290230  0.90651987  1
  Al  Al60  1  0.57008141  0.41254069  0.41233741  1
  Al  Al61  1  0.57865373  0.42208921  0.91710937  1
  Al  Al62  1  0.58563206  0.91530122  0.41950368  1
  Al  Al63  1  0.57853638  0.92392750  0.91982743  1
  Al  Al64  1  0.09760641  0.08436606  0.40931916  1
  Al  Al65  1  0.08730440  0.07738363  0.91666916  1
  Al  Al66  1  0.08311403  0.58198952  0.42036491  1
  Al  Al67  1  0.08202841  0.58326299  0.91736166  1
  Al  Al68  1  0.57062510  0.07738920  0.41568824  1
  Al  Al69  1  0.57924151  0.08183298  0.91829759  1
  Al  Al70  1  0.57368567  0.58045632  0.42297015  1
  Al  Al71  1  0.58209199  0.58091232  0.91332218  1
  Al  Al72  1  0.41170996  0.39640633  0.41958416  1
  Al  Al73  1  0.40942651  0.40714844  0.92233636  1
  Al  Al74  1  0.40709862  0.92468650  0.41357470  1
  Al  Al75  1  0.40977361  0.92286823  0.91329614  1
  Al  Al76  1  0.92111674  0.42086476  0.42267458  1
  Al  Al77  1  0.92707302  0.42151324  0.91326703  1
  Al  Al78  1  0.91186964  0.91397409  0.42778766  1
  Al  Al79  1  0.92735729  0.91104615  0.90954269  1
  Al  Al80  1  0.09851099  0.41249128  0.08469564  1
  Al  Al81  1  0.08479390  0.42132221  0.58166745  1
  Al  Al82  1  0.09338312  0.92639729  0.08537880  1
  Al  Al83  1  0.08027504  0.91648022  0.59436874  1
  Al  Al84  1  0.57028499  0.41019199  0.09245308  1
  Al  Al85  1  0.57655366  0.41408068  0.59480140  1
  Al  Al86  1  0.58612934  0.92210178  0.09121790  1
  Al  Al87  1  0.59482136  0.91952355  0.58223905  1
  Al  Al88  1  0.41511754  0.08450527  0.08371336  1
  Al  Al89  1  0.40400650  0.08941639  0.58129898  1
  Al  Al90  1  0.41625646  0.57518617  0.07669187  1
  Al  Al91  1  0.41172006  0.58175667  0.57641100  1
  Al  Al92  1  0.92062775  0.09000899  0.09099764  1
  Al  Al93  1  0.92027620  0.07090927  0.58540690  1
  Al  Al94  1  0.92233272  0.58040090  0.07974235  1
  Al  Al95  1  0.91102782  0.58743898  0.58989025  1
  Al  Al96  1  0.24827644  0.12806450  0.13884764  1
  Al  Al97  1  0.25253060  0.13723816  0.63465619  1
  Al  Al98  1  0.24852235  0.63197923  0.13002063  1
  Al  Al99  1  0.25018990  0.63715163  0.63182122  1
  Al  Al100  1  0.74703710  0.13668575  0.13906667  1
  Al  Al101  1  0.74608451  0.13547167  0.63609850  1
  Al  Al102  1  0.74839458  0.63441830  0.13755921  1
  Al  Al103  1  0.75293761  0.63430869  0.63465069  1
  Al  Al104  1  0.24664905  0.36251204  0.13218179  1
  Al  Al105  1  0.25699227  0.36258629  0.63406953  1
  Al  Al106  1  0.25097591  0.87223333  0.13651835  1
  Al  Al107  1  0.24674613  0.86818368  0.63725170  1
  Al  Al108  1  0.75223891  0.36155697  0.13916731  1
  Al  Al109  1  0.74480835  0.36869286  0.63658974  1
  Al  Al110  1  0.74780806  0.86822365  0.13572012  1
  Al  Al111  1  0.75441645  0.86444743  0.63540472  1
  Al  Al112  1  0.25137154  0.13250698  0.36269577  1
  Al  Al113  1  0.24948205  0.12748440  0.86348909  1
  Al  Al114  1  0.25243569  0.63394856  0.37175084  1
  Al  Al115  1  0.24778863  0.63285568  0.87041941  1
  Al  Al116  1  0.75104286  0.12942797  0.36247106  1
  Al  Al117  1  0.74684131  0.13293821  0.86269937  1
  Al  Al118  1  0.74928517  0.63092902  0.36540374  1
  Al  Al119  1  0.75173298  0.63478901  0.86195132  1
  Al  Al120  1  0.25364834  0.36593311  0.36220940  1
  Al  Al121  1  0.25094606  0.36821116  0.86405378  1
  Al  Al122  1  0.24838717  0.87022440  0.36471990  1
  Al  Al123  1  0.24829666  0.87122245  0.86407260  1
  Al  Al124  1  0.74952252  0.36928973  0.36116252  1
  Al  Al125  1  0.74762350  0.36679493  0.86241054  1
  Al  Al126  1  0.75205940  0.87255628  0.36393896  1
  Al  Al127  1  0.75232751  0.86677130  0.86181259  1
  Al  Al128  1  0.13149117  0.24816671  0.13876016  1
  Al  Al129  1  0.13520383  0.24965788  0.63656319  1
  Al  Al130  1  0.13927295  0.75045087  0.13779025  1
  Al  Al131  1  0.13389203  0.75227689  0.63660030  1
  Al  Al132  1  0.63345160  0.25142872  0.13670106  1
  Al  Al133  1  0.62615677  0.25017882  0.63548258  1
  Al  Al134  1  0.63445603  0.75017786  0.13609788  1
  Al  Al135  1  0.63765456  0.75176626  0.63512425  1
  Al  Al136  1  0.13213686  0.25012432  0.36192786  1
  Al  Al137  1  0.13964270  0.24925915  0.86406093  1
  Al  Al138  1  0.13727091  0.74419539  0.36416792  1
  Al  Al139  1  0.13078173  0.75227873  0.86095522  1
  Al  Al140  1  0.63505607  0.25150600  0.36438165  1
  Al  Al141  1  0.63323676  0.24715051  0.86243146  1
  Al  Al142  1  0.63740145  0.75498433  0.36386505  1
  Al  Al143  1  0.63657659  0.75028608  0.86009525  1
  Al  Al144  1  0.36176113  0.25182984  0.13757624  1
  Al  Al145  1  0.36808993  0.24853855  0.63459018  1
  Al  Al146  1  0.36318475  0.74624889  0.13760564  1
  Al  Al147  1  0.36343367  0.75135787  0.63747688  1
  Al  Al148  1  0.87246144  0.24869338  0.13737613  1
  Al  Al149  1  0.86623730  0.24943121  0.63746720  1
  Al  Al150  1  0.86325859  0.74945776  0.13781241  1
  Al  Al151  1  0.86713841  0.75478772  0.63486627  1
  Al  Al152  1  0.36192817  0.24929999  0.36728257  1
  Al  Al153  1  0.36179431  0.25222829  0.86582854  1
  Al  Al154  1  0.36184362  0.75358952  0.36399847  1
  Al  Al155  1  0.36088773  0.74872104  0.86171240  1
  Al  Al156  1  0.87042149  0.24716848  0.36346791  1
  Al  Al157  1  0.86315908  0.24919894  0.86225093  1
  Al  Al158  1  0.86548570  0.75579334  0.36680941  1
  Al  Al159  1  0.87107738  0.75097198  0.86079057  1
  Al  Al160  1  0.13566340  0.13287377  0.25106897  1
  Al  Al161  1  0.13662463  0.12751139  0.74816106  1
  Al  Al162  1  0.13991290  0.63285444  0.24817795  1
  Al  Al163  1  0.13622619  0.63475127  0.75292173  1
  Al  Al164  1  0.63284056  0.13100396  0.25094285  1
  Al  Al165  1  0.62698706  0.13481072  0.74605559  1
  Al  Al166  1  0.63437753  0.63075166  0.25063768  1
  Al  Al167  1  0.63985540  0.62903286  0.74552476  1
  Al  Al168  1  0.36265372  0.12999301  0.25006896  1
  Al  Al169  1  0.36810269  0.13676355  0.75073354  1
  Al  Al170  1  0.36081865  0.63136660  0.25256372  1
  Al  Al171  1  0.35859635  0.62753480  0.75020392  1
  Al  Al172  1  0.87303695  0.13602125  0.24959931  1
  Al  Al173  1  0.86622212  0.13443018  0.75101561  1
  Al  Al174  1  0.86442731  0.63648805  0.25586265  1
  Al  Al175  1  0.86585731  0.63251524  0.74635035  1
  Al  Al176  1  0.13271828  0.36489138  0.24673074  1
  Al  Al177  1  0.13823924  0.36398579  0.74980309  1
  Al  Al178  1  0.13738066  0.87081335  0.25264862  1
  Al  Al179  1  0.13548143  0.86944378  0.74984600  1
  Al  Al180  1  0.62972849  0.36361953  0.25108214  1
  Al  Al181  1  0.62905439  0.36792273  0.74644310  1
  Al  Al182  1  0.63583072  0.87208245  0.25261130  1
  Al  Al183  1  0.63521667  0.86562673  0.74467015  1
  Al  Al184  1  0.36747643  0.36330213  0.25022011  1
  Al  Al185  1  0.36719746  0.36579611  0.74636716  1
  Al  Al186  1  0.36059027  0.87498251  0.25292203  1
  Al  Al187  1  0.36246194  0.86701155  0.75145876  1
  Al  Al188  1  0.87244710  0.36243160  0.25213701  1
  Al  Al189  1  0.86392501  0.36912674  0.74395386  1
  Al  Al190  1  0.86610762  0.86737382  0.25073001  1
  Al  Al191  1  0.87169879  0.86398486  0.74893566  1
  Al  Al192  1  0.00022093  0.68559043  0.68140406  1
  Al  Al193  1  0.17081982  0.82450895  0.49969298  1
  Al  Al194  1  0.49856994  0.82763199  0.18440077  1
  Al  Al195  1  0.50075651  0.83386187  0.67165650  1
  Al  Al196  1  0.82703493  0.33121435  -0.00098849  1
  Al  Al197  1  0.00275720  0.83183297  0.17223206  1
  Al  Al198  1  0.49711820  0.18355705  0.17501717  1
  Al  Al199  1  0.82024894  0.17355997  0.00145699  1
  Al  Al200  1  0.50151683  0.67111473  0.66841076  1
  Al  Al201  1  0.17973152  0.49936066  0.31584288  1
  Al  Al202  1  0.81349609  -0.00011574  0.68105472  1
  Al  Al203  1  0.17364004  0.82191626  -0.00073423  1
  Al  Al204  1  0.17329180  0.18562721  0.00182263  1
  Al  Al205  1  0.31625765  0.49564539  0.17550887  1
  Al  Al206  1  0.49950538  0.68429890  0.32498808  1
  Al  Al207  1  0.32667371  0.82406598  0.00047451  1
  Al  Al208  1  0.18079992  0.50038841  0.68013075  1
  Al  Al209  1  0.00146317  0.31833366  0.81842909  1
  Al  Al210  1  0.82811366  0.49955687  0.18108929  1
  Al  Al211  1  0.69117546  0.82311183  0.49960927  1
  Al  Al212  1  0.49732399  0.18428249  0.32670241  1
  Al  Al213  1  0.82192770  0.67246898  0.00038178  1
  Al  Al214  1  0.81681169  0.00354211  0.18135900  1
  Al  Al215  1  0.30860367  0.00226160  0.68779341  1
  Al  Al216  1  0.32558339  0.18457368  0.00171379  1
  Al  Al217  1  0.81906489  0.49938378  0.82149260  1
  Al  Al218  1  0.82616984  0.32743693  0.50097303  1
  Al  Al219  1  0.67114382  0.49701949  0.17864433  1
  Al  Al220  1  0.82697997  0.16891637  0.50008915  1
  Al  Al221  1  0.49905517  0.67554003  0.82487610  1
  Al  Al222  1  0.49818608  0.82875147  0.82761211  1
  Al  Al223  1  0.18980922  0.32983261  0.49948730  1
  Al  Al224  1  0.66839019  0.32931847  0.50142973  1
  Al  Al225  1  0.00126039  0.82392580  0.33067660  1
  Al  Al226  1  0.82280223  0.68902481  0.50074983  1
  Al  Al227  1  0.66460942  0.16859260  0.50051792  1
  Al  Al228  1  0.82701665  0.82974277  -0.00007988  1
  Al  Al229  1  0.00549752  0.17272620  0.67663445  1
  Al  Al230  1  0.00127715  0.67267553  0.17982664  1
  Al  Al231  1  0.67862763  0.00017279  0.81100199  1
  Al  Al232  1  0.32680197  0.81936171  0.50114004  1
  Al  Al233  1  0.18797674  0.17396382  0.49906205  1
  Al  Al234  1  0.67048215  0.67210436  0.49969886  1
  Al  Al235  1  0.67023654  0.82225594  0.00210875  1
  Al  Al236  1  0.66697622  0.32144101  0.00115618  1
  Al  Al237  1  0.49694542  0.32349711  0.82190088  1
  Al  Al238  1  0.49498468  0.66853021  0.16944098  1
  Au  Au239  1  0.49646603  0.17249718  0.66248604  1
  Au  Au240  1  0.00302862  0.82929000  0.15957861  1
  Au  Au241  1  0.00497815  0.16208629  0.32388988  1
  Au  Au242  1  0.17730230  -0.00107427  0.81986996  1
  Au  Au243  1  0.34058894  0.49819977  0.34166402  1
  Au  Au244  1  0.84432197  -0.00028759  0.82634724  1
  Au  Au245  1  0.50282552  0.67703007  0.17448437  1
  Au  Au246  1  0.83620933  0.49945354  0.33176325  1
  Au  Au247  1  0.17479503  0.16936202  0.00460663  1
  Au  Au248  1  0.32381149  0.49451811  0.16082487  1
  Au  Au249  1  -0.00123002  0.66410537  0.33044392  1
  Au  Au250  1  0.66356359  -0.00023360  0.81874416  1
  Au  Au251  1  0.67618625  0.16390495  0.49988074  1
  Au  Au252  1  0.67097721  0.49894723  0.16599296  1
  Au  Au253  1  0.66039850  0.82818973  -0.00285683  1
  Au  Au254  1  0.49557321  0.83498708  0.33538961  1
  Au  Au255  1  0.66322007  0.00212991  0.32367266  1
  Au  Au256  1  -0.00190981  0.34160264  0.67145167  1
  Au  Au257  1  0.00305918  0.16445173  0.66754462  1
  Au  Au258  1  0.17626667  0.66151973  0.50347078  1
  Au  Au259  1  0.33487106  0.67486609  -0.00260118  1
  Au  Au260  1  0.16399814  0.67099369  0.00409206  1
  Au  Au261  1  0.17373518  0.32411434  0.50055666  1
  Au  Au262  1  0.17433082  0.84001650  0.50219163  1
  Au  Au263  1  0.65967624  0.50115477  0.33421148  1
  Au  Au264  1  0.83324488  -0.00112564  0.32885311  1
  Au  Au265  1  0.67061903  0.66598060  -0.00388120  1
  Au  Au266  1  0.49345489  0.16792123  0.83449009  1
  Au  Au267  1  0.83974192  0.17127954  0.50028029  1
  Au  Au268  1  0.66856541  0.33388017  0.00258537  1
  Au  Au269  1  0.32659272  0.00076906  0.17150367  1
  Au  Au270  1  -0.00174633  0.32902071  0.33421527  1
  Au  Au271  1  0.83149759  0.49790964  0.82381929  1
  Au  Au272  1  0.66552060  0.50003114  0.81864881  1
  Au  Au273  1  0.16171994  0.49598684  0.82886924  1
  Au  Au274  1  0.50196541  0.33420234  0.82592552  1
  Au  Au275  1  0.67105544  0.15713708  0.00516803  1
  Au  Au276  1  0.16455626  0.49913150  0.32333907  1
  Au  Au277  1  0.00522735  0.32792938  0.16425740  1
  Au  Au278  1  0.32752552  0.49596805  0.65903358  1
  Au  Au279  1  0.00023678  0.67802463  0.82879938  1
  Au  Au280  1  0.49569127  0.84476858  0.66809958  1
  Au  Au281  1  0.83939055  0.32741940  -0.00105886  1
  Au  Au282  1  0.83943793  0.82661535  0.00045421  1
  Au  Au283  1  -0.00007967  0.17262684  0.84070345  1
  Au  Au284  1  0.50211621  0.65534131  0.67403403  1
  Au  Au285  1  0.33054973  0.49811733  0.83576870  1
  Au  Au286  1  0.67018763  0.34195370  0.50127819  1
  Au  Au287  1  0.00182430  0.83493581  0.33650651  1
