# generated using pymatgen
data_Ca24Ti8Al207Au49
_symmetry_space_group_name_H-M   'P 1'
_cell_length_a   17.32158593
_cell_length_b   17.32383311
_cell_length_c   17.32499655
_cell_angle_alpha   90.00054482
_cell_angle_beta   89.99428801
_cell_angle_gamma   89.99596959
_symmetry_Int_Tables_number   1
_chemical_formula_structural   Ca24Ti8Al207Au49
_chemical_formula_sum   'Ca24 Ti8 Al207 Au49'
_cell_volume   5198.82019778
_cell_formula_units_Z   1
loop_
 _symmetry_equiv_pos_site_id
 _symmetry_equiv_pos_as_xyz
  1  'x, y, z'
loop_
 _atom_site_type_symbol
 _atom_site_label
 _atom_site_symmetry_multiplicity
 _atom_site_fract_x
 _atom_site_fract_y
 _atom_site_fract_z
 _atom_site_occupancy
  Ca  Ca0  1  0.24641985  -0.00069204  -0.00078715  1
  Ca  Ca1  1  0.24547386  0.00169486  0.49895165  1
  Ca  Ca2  1  0.24713359  0.50163210  -0.00178044  1
  Ca  Ca3  1  0.25153530  0.49668811  0.50025598  1
  Ca  Ca4  1  0.75385049  0.00221750  0.00204845  1
  Ca  Ca5  1  0.75428056  -0.00068767  0.49506564  1
  Ca  Ca6  1  0.75238335  0.50100715  -0.00498404  1
  Ca  Ca7  1  0.74724154  0.50095722  0.50680882  1
  Ca  Ca8  1  0.00328651  0.25086460  -0.00041567  1
  Ca  Ca9  1  0.00685822  0.24877222  0.49946413  1
  Ca  Ca10  1  0.00456443  0.74567766  0.00041456  1
  Ca  Ca11  1  0.00431153  0.74766997  0.49963398  1
  Ca  Ca12  1  0.49246264  0.25403019  0.00076198  1
  Ca  Ca13  1  0.49503310  0.26068815  0.50371214  1
  Ca  Ca14  1  0.49431199  0.74961750  -0.00284517  1
  Ca  Ca15  1  0.49775426  0.74497351  0.50489501  1
  Ca  Ca16  1  0.00193483  -0.00037193  0.24784359  1
  Ca  Ca17  1  0.00480789  0.00543265  0.74878760  1
  Ca  Ca18  1  0.00611795  0.50079743  0.24638002  1
  Ca  Ca19  1  0.00023735  0.49900960  0.75603721  1
  Ca  Ca20  1  0.50246033  0.00223064  0.24828983  1
  Ca  Ca21  1  0.49335890  -0.00091405  0.75253678  1
  Ca  Ca22  1  0.49008090  0.50258427  0.25165746  1
  Ca  Ca23  1  0.49705321  0.50044049  0.74549580  1
  Ti  Ti24  1  0.24746863  0.25133853  0.24849445  1
  Ti  Ti25  1  0.25009265  0.25197949  0.75067468  1
  Ti  Ti26  1  0.24770544  0.74961413  0.25069980  1
  Ti  Ti27  1  0.25104786  0.74695872  0.74831647  1
  Ti  Ti28  1  0.75375752  0.24955811  0.24727495  1
  Ti  Ti29  1  0.75076205  0.25064135  0.75098941  1
  Ti  Ti30  1  0.75210265  0.75088594  0.24863765  1
  Ti  Ti31  1  0.74860789  0.74727758  0.74965493  1
  Al  Al32  1  0.08050505  0.09123025  0.08359702  1
  Al  Al33  1  0.09050498  0.09705969  0.58764241  1
  Al  Al34  1  0.09145827  0.59516869  0.08364128  1
  Al  Al35  1  0.08707148  0.57851167  0.58070793  1
  Al  Al36  1  0.58340088  0.07443098  0.08051301  1
  Al  Al37  1  0.57406514  0.07916708  0.58171502  1
  Al  Al38  1  0.58049601  0.57689329  0.07376192  1
  Al  Al39  1  0.57596900  0.58790955  0.59584602  1
  Al  Al40  1  0.39764787  0.41776712  0.08508401  1
  Al  Al41  1  0.40970119  0.42534304  0.57691843  1
  Al  Al42  1  0.40947100  0.91735136  0.07970922  1
  Al  Al43  1  0.41458144  0.91618289  0.58196777  1
  Al  Al44  1  0.92384738  0.41824051  0.07902056  1
  Al  Al45  1  0.91760223  0.42304450  0.59388907  1
  Al  Al46  1  0.92002995  0.92347650  0.09336359  1
  Al  Al47  1  0.92483166  0.91495801  0.57001421  1
  Al  Al48  1  0.41198490  0.08627372  0.42689678  1
  Al  Al49  1  0.40924701  0.09260021  0.91896323  1
  Al  Al50  1  0.40408008  0.57645281  0.42632859  1
  Al  Al51  1  0.40505816  0.58762758  0.92074867  1
  Al  Al52  1  0.92139815  0.08059867  0.40883851  1
  Al  Al53  1  0.92849520  0.09353274  0.91637372  1
  Al  Al54  1  0.92459827  0.58549875  0.41352023  1
  Al  Al55  1  0.91728528  0.57798412  0.91875941  1
  Al  Al56  1  0.09479151  0.41067948  0.42011913  1
  Al  Al57  1  0.09113626  0.41997035  0.91519510  1
  Al  Al58  1  0.07754366  0.91900908  0.41919065  1
  Al  Al59  1  0.09414143  0.91404770  0.92309594  1
  Al  Al60  1  0.57446679  0.41977577  0.41861709  1
  Al  Al61  1  0.58910787  0.42399540  0.91459944  1
  Al  Al62  1  0.58062586  0.91417143  0.41379365  1
  Al  Al63  1  0.57648565  0.91524272  0.92624527  1
  Al  Al64  1  0.08307013  0.09360062  0.42394887  1
  Al  Al65  1  0.08565304  0.09022463  0.91180798  1
  Al  Al66  1  0.08564363  0.58440443  0.41079019  1
  Al  Al67  1  0.09694979  0.58433872  0.91982744  1
  Al  Al68  1  0.58126460  0.07372403  0.42104487  1
  Al  Al69  1  0.57257787  0.08173644  0.92056757  1
  Al  Al70  1  0.57848107  0.57304682  0.42538258  1
  Al  Al71  1  0.58739891  0.57937555  0.90907865  1
  Al  Al72  1  0.40446213  0.41502730  0.41372364  1
  Al  Al73  1  0.40543439  0.41497267  0.92287493  1
  Al  Al74  1  0.42103683  0.91346242  0.42039061  1
  Al  Al75  1  0.41211866  0.91606947  0.92253166  1
  Al  Al76  1  0.92594906  0.42132889  0.41677335  1
  Al  Al77  1  0.91673189  0.41930061  0.90920567  1
  Al  Al78  1  0.91169951  0.91919002  0.41238145  1
  Al  Al79  1  0.93221666  0.92857269  0.92810370  1
  Al  Al80  1  0.08779055  0.41688877  0.07876184  1
  Al  Al81  1  0.09345777  0.40851706  0.58148255  1
  Al  Al82  1  0.08730691  0.90589896  0.08043042  1
  Al  Al83  1  0.08027525  0.92570539  0.58088725  1
  Al  Al84  1  0.57761418  0.41776265  0.07675834  1
  Al  Al85  1  0.58187910  0.42771591  0.58410689  1
  Al  Al86  1  0.58699126  0.91496559  0.08295476  1
  Al  Al87  1  0.57708490  0.91629670  0.57942818  1
  Al  Al88  1  0.40213959  0.08273523  0.07441104  1
  Al  Al89  1  0.40848072  0.08863250  0.58348229  1
  Al  Al90  1  0.39497087  0.58012207  0.08378955  1
  Al  Al91  1  0.41085232  0.58821014  0.58970035  1
  Al  Al92  1  0.91944759  0.08564883  0.09779213  1
  Al  Al93  1  0.93331060  0.09069506  0.58512118  1
  Al  Al94  1  0.92910858  0.58819004  0.08349033  1
  Al  Al95  1  0.91002669  0.57857047  0.59159541  1
  Al  Al96  1  0.24716047  0.13900372  0.12728120  1
  Al  Al97  1  0.24885341  0.13676215  0.63342638  1
  Al  Al98  1  0.24929156  0.63829671  0.12748258  1
  Al  Al99  1  0.25331588  0.63032751  0.62784202  1
  Al  Al100  1  0.75589907  0.13064531  0.13255337  1
  Al  Al101  1  0.75027869  0.13543161  0.64010226  1
  Al  Al102  1  0.74866753  0.63375830  0.13647668  1
  Al  Al103  1  0.74915630  0.63147006  0.63557071  1
  Al  Al104  1  0.25068357  0.36641047  0.13272349  1
  Al  Al105  1  0.25153635  0.36571670  0.63525755  1
  Al  Al106  1  0.24186649  0.86209112  0.13292636  1
  Al  Al107  1  0.25429551  0.86012672  0.62676268  1
  Al  Al108  1  0.75628466  0.36499692  0.13551183  1
  Al  Al109  1  0.74995915  0.36238964  0.63820080  1
  Al  Al110  1  0.75590677  0.86892596  0.13909108  1
  Al  Al111  1  0.74695009  0.86417273  0.63598107  1
  Al  Al112  1  0.24352951  0.13511848  0.36716011  1
  Al  Al113  1  0.25070145  0.13929700  0.87071258  1
  Al  Al114  1  0.25046829  0.63363699  0.36905694  1
  Al  Al115  1  0.24842546  0.62749289  0.86454137  1
  Al  Al116  1  0.75040978  0.13619935  0.36176984  1
  Al  Al117  1  0.75032313  0.13786261  0.86599272  1
  Al  Al118  1  0.75238246  0.63568850  0.36549069  1
  Al  Al119  1  0.74959078  0.63233254  0.86257181  1
  Al  Al120  1  0.25457835  0.36731385  0.36490243  1
  Al  Al121  1  0.25032569  0.37052918  0.86372954  1
  Al  Al122  1  0.24590499  0.86523581  0.36975091  1
  Al  Al123  1  0.25073164  0.86306064  0.86610273  1
  Al  Al124  1  0.75488842  0.36454953  0.36076741  1
  Al  Al125  1  0.75576568  0.36575735  0.86195140  1
  Al  Al126  1  0.74977613  0.86458963  0.36136983  1
  Al  Al127  1  0.74666607  0.86504767  0.86394964  1
  Al  Al128  1  0.13128566  0.24958635  0.13404417  1
  Al  Al129  1  0.13482085  0.24812299  0.63592735  1
  Al  Al130  1  0.13142278  0.74710747  0.13398137  1
  Al  Al131  1  0.13961244  0.74593688  0.63074868  1
  Al  Al132  1  0.63605147  0.24651213  0.13589802  1
  Al  Al133  1  0.62881258  0.25028119  0.63931806  1
  Al  Al134  1  0.63226271  0.75036202  0.13792276  1
  Al  Al135  1  0.63340404  0.74591439  0.63517975  1
  Al  Al136  1  0.13706656  0.25251367  0.36371259  1
  Al  Al137  1  0.13201883  0.24868447  0.86427488  1
  Al  Al138  1  0.13687605  0.74851288  0.37089225  1
  Al  Al139  1  0.14255179  0.74602704  0.87334360  1
  Al  Al140  1  0.63766175  0.25263979  0.35922422  1
  Al  Al141  1  0.63543578  0.25347474  0.86061612  1
  Al  Al142  1  0.63620326  0.74946465  0.36569734  1
  Al  Al143  1  0.63400653  0.74481193  0.86137775  1
  Al  Al144  1  0.36177533  0.25308136  0.13109082  1
  Al  Al145  1  0.36828998  0.25403975  0.63758452  1
  Al  Al146  1  0.36119997  0.74756608  0.13275463  1
  Al  Al147  1  0.36530185  0.74163430  0.63060172  1
  Al  Al148  1  0.87200964  0.24932469  0.13228204  1
  Al  Al149  1  0.86824921  0.24516458  0.63793525  1
  Al  Al150  1  0.87284112  0.74915855  0.13682618  1
  Al  Al151  1  0.86408237  0.74702005  0.63820116  1
  Al  Al152  1  0.36286524  0.25259868  0.36385781  1
  Al  Al153  1  0.36157758  0.25469018  0.86590286  1
  Al  Al154  1  0.35969059  0.74844455  0.36890579  1
  Al  Al155  1  0.35943002  0.74186028  0.86557204  1
  Al  Al156  1  0.86728746  0.24908122  0.36136176  1
  Al  Al157  1  0.87016351  0.24981501  0.86776780  1
  Al  Al158  1  0.86617821  0.74998662  0.36300789  1
  Al  Al159  1  0.86295954  0.74561188  0.86264703  1
  Al  Al160  1  0.13721073  0.13096314  0.24540620  1
  Al  Al161  1  0.13482964  0.13685819  0.75044384  1
  Al  Al162  1  0.14049394  0.63489812  0.24747196  1
  Al  Al163  1  0.13889047  0.63324868  0.75128770  1
  Al  Al164  1  0.63980746  0.12816830  0.24587385  1
  Al  Al165  1  0.63647668  0.13025972  0.74985405  1
  Al  Al166  1  0.63307574  0.63518396  0.24933830  1
  Al  Al167  1  0.62948033  0.63106662  0.74591610  1
  Al  Al168  1  0.35753780  0.13758489  0.24819085  1
  Al  Al169  1  0.35881666  0.13278135  0.74977306  1
  Al  Al170  1  0.35979861  0.63109931  0.24947397  1
  Al  Al171  1  0.36353925  0.62661506  0.74731803  1
  Al  Al172  1  0.86961767  0.13450730  0.24532899  1
  Al  Al173  1  0.87168605  0.13559547  0.75359099  1
  Al  Al174  1  0.86781157  0.63532781  0.24850876  1
  Al  Al175  1  0.86613695  0.63211225  0.75271887  1
  Al  Al176  1  0.13266368  0.36489510  0.24723426  1
  Al  Al177  1  0.13440025  0.36687275  0.75433225  1
  Al  Al178  1  0.13156843  0.86596006  0.25048796  1
  Al  Al179  1  0.14108593  0.86078147  0.74983662  1
  Al  Al180  1  0.63544967  0.36404403  0.24415524  1
  Al  Al181  1  0.63106055  0.36811936  0.74487858  1
  Al  Al182  1  0.63589338  0.86987622  0.24572062  1
  Al  Al183  1  0.63492224  0.86737624  0.74900474  1
  Al  Al184  1  0.36009553  0.36912217  0.24701812  1
  Al  Al185  1  0.36324414  0.37414775  0.74923729  1
  Al  Al186  1  0.35995911  0.86082106  0.24756532  1
  Al  Al187  1  0.35958662  0.86611717  0.74758323  1
  Al  Al188  1  0.87530700  0.36578013  0.24659684  1
  Al  Al189  1  0.87026790  0.36392666  0.75197799  1
  Al  Al190  1  0.87354872  0.86434328  0.24777548  1
  Al  Al191  1  0.86310495  0.86561539  0.75165820  1
  Al  Al192  1  0.18394984  0.50115294  0.17118364  1
  Al  Al193  1  0.00276149  0.67045998  0.67400491  1
  Al  Al194  1  0.31081983  0.19761143  0.50004736  1
  Al  Al195  1  0.18840238  0.32114911  -0.00203265  1
  Al  Al196  1  0.67764418  0.49854855  0.32139687  1
  Al  Al197  1  0.67949829  0.32711798  -0.00048340  1
  Al  Al198  1  0.49735422  0.17427222  0.81969914  1
  Al  Al199  1  0.50129855  0.17179367  0.32857621  1
  Al  Al200  1  0.31232928  0.81398932  -0.00024251  1
  Al  Al201  1  0.67271658  0.17856115  0.50001507  1
  Al  Al202  1  0.82763416  0.00007881  0.66698803  1
  Al  Al203  1  0.83022709  0.32427123  0.50032501  1
  Al  Al204  1  0.18487101  0.49906888  0.32388021  1
  Al  Al205  1  0.49779168  0.32955772  0.31943007  1
  Al  Al206  1  0.00305594  0.17964714  0.31420984  1
  Al  Al207  1  0.83168008  0.17120029  0.49872048  1
  Al  Al208  1  0.49768235  0.81040247  0.67456668  1
  Al  Al209  1  0.49874253  0.82155285  0.31918016  1
  Al  Al210  1  0.49478601  0.17587041  0.16768713  1
  Al  Al211  1  0.67486504  0.81421838  0.00001429  1
  Al  Al212  1  0.17895080  0.00082374  0.82597195  1
  Al  Al213  1  0.49493576  0.67247645  0.16717926  1
  Al  Al214  1  0.00173257  0.82528394  0.67298033  1
  Al  Al215  1  0.82327358  0.00199842  0.83244123  1
  Al  Al216  1  0.00366419  0.66975297  0.82938517  1
  Al  Al217  1  0.82072086  0.00046515  0.31039394  1
  Al  Al218  1  0.32461155  -0.00177869  0.32897310  1
  Al  Al219  1  0.49624284  0.67062638  0.81677544  1
  Al  Al220  1  0.31487640  -0.00021732  0.17293370  1
  Al  Al221  1  0.69043228  0.49867891  0.80795390  1
  Al  Al222  1  0.49714593  0.33002330  0.82731793  1
  Al  Al223  1  0.00210565  0.82148739  0.83197475  1
  Al  Al224  1  0.49510472  0.66779058  0.33257797  1
  Al  Al225  1  0.82720799  0.50426882  0.17461123  1
  Al  Al226  1  0.19519757  0.30761269  0.50041753  1
  Al  Al227  1  0.80960604  0.49773775  0.69424336  1
  Al  Al228  1  0.67163314  0.33034596  0.49943165  1
  Al  Al229  1  0.49647874  0.82618223  0.82874227  1
  Al  Al230  1  0.18621487  0.49895266  0.68490900  1
  Al  Al231  1  0.67622640  0.67290141  0.50408388  1
  Al  Al232  1  -0.00006784  0.31797739  0.67844182  1
  Al  Al233  1  0.82266562  0.67318558  0.00094808  1
  Al  Al234  1  0.17624684  -0.00073647  0.67377087  1
  Al  Al235  1  0.82059136  0.81900882  0.49998837  1
  Al  Al236  1  0.83532463  0.82593880  -0.00101314  1
  Al  Al237  1  0.00421601  0.68060955  0.30928281  1
  Al  Al238  1  0.67560951  0.17212965  -0.00124462  1
  Au  Au239  1  0.49353058  0.66714904  0.15250133  1
  Au  Au240  1  0.67239008  0.66478325  -0.00258081  1
  Au  Au241  1  0.32399841  0.49990573  0.83198130  1
  Au  Au242  1  0.66772424  0.66413368  0.50165724  1
  Au  Au243  1  0.16738462  0.83411405  0.50293408  1
  Au  Au244  1  0.00390808  0.32581323  0.83516314  1
  Au  Au245  1  0.32742972  0.00060170  0.83791951  1
  Au  Au246  1  0.66108841  -0.00141985  0.66958793  1
  Au  Au247  1  0.17546103  0.66370705  0.49839678  1
  Au  Au248  1  0.49623787  0.84315337  0.17239769  1
  Au  Au249  1  0.82821328  0.34011997  -0.00365734  1
  Au  Au250  1  0.67366172  0.83725963  0.49856429  1
  Au  Au251  1  0.49753217  0.82752020  0.67420114  1
  Au  Au252  1  0.84228516  0.67252369  0.50083667  1
  Au  Au253  1  0.17424779  0.49835033  0.67281247  1
  Au  Au254  1  0.66393387  0.17685447  -0.00335959  1
  Au  Au255  1  0.49118395  0.66827729  0.34782953  1
  Au  Au256  1  0.34099428  -0.00177236  0.32396158  1
  Au  Au257  1  0.17258082  0.17415354  -0.00124282  1
  Au  Au258  1  0.31443131  0.18076735  0.50062136  1
  Au  Au259  1  0.16057871  0.00498372  0.33492526  1
  Au  Au260  1  0.16663781  -0.00001619  0.16096241  1
  Au  Au261  1  0.00247531  0.32651109  0.66918747  1
  Au  Au262  1  0.67332401  -0.00146087  0.33034702  1
  Au  Au263  1  0.83829701  -0.00007319  0.65452276  1
  Au  Au264  1  0.49266274  0.34456203  0.16957610  1
  Au  Au265  1  0.00379019  0.32418080  0.16258727  1
  Au  Au266  1  0.50134671  0.33295311  0.83887928  1
  Au  Au267  1  0.83569946  0.50229845  0.16565583  1
  Au  Au268  1  0.33516851  0.82134771  0.49857283  1
  Au  Au269  1  0.49428672  0.33997722  0.66319567  1
  Au  Au270  1  0.49773737  0.16551076  0.67264840  1
  Au  Au271  1  0.82653148  0.83897645  0.00527275  1
  Au  Au272  1  0.00327209  0.82059046  0.16679176  1
  Au  Au273  1  0.00487412  0.32755422  0.33319242  1
  Au  Au274  1  0.49278536  0.16018457  0.16209272  1
  Au  Au275  1  0.65843634  -0.00356912  0.83623548  1
  Au  Au276  1  0.82959144  0.34005615  0.50482557  1
  Au  Au277  1  0.84012414  0.16860409  0.00511329  1
  Au  Au278  1  0.82703760  0.50216423  0.33886217  1
  Au  Au279  1  0.68252261  -0.00158051  0.16335360  1
  Au  Au280  1  0.50152971  0.17899837  0.34465205  1
  Au  Au281  1  0.49638726  0.66591180  0.82883420  1
  Au  Au282  1  0.00751232  0.83603294  0.82504742  1
  Au  Au283  1  0.83972701  0.00502641  0.83521563  1
  Au  Au284  1  -0.00120022  0.82587006  0.33520556  1
  Au  Au285  1  0.32381992  -0.00186191  0.66469517  1
  Au  Au286  1  0.66141391  0.49805446  0.17243043  1
  Au  Au287  1  0.67462178  0.16256436  0.50536603  1
