# generated using pymatgen
data_Ca24Ti8Al207Au49
_symmetry_space_group_name_H-M   'P 1'
_cell_length_a   17.31891024
_cell_length_b   17.31977459
_cell_length_c   17.32043619
_cell_angle_alpha   90.00354294
_cell_angle_beta   90.00068402
_cell_angle_gamma   89.99920304
_symmetry_Int_Tables_number   1
_chemical_formula_structural   Ca24Ti8Al207Au49
_chemical_formula_sum   'Ca24 Ti8 Al207 Au49'
_cell_volume   5195.43147269
_cell_formula_units_Z   1
loop_
 _symmetry_equiv_pos_site_id
 _symmetry_equiv_pos_as_xyz
  1  'x, y, z'
loop_
 _atom_site_type_symbol
 _atom_site_label
 _atom_site_symmetry_multiplicity
 _atom_site_fract_x
 _atom_site_fract_y
 _atom_site_fract_z
 _atom_site_occupancy
  Ca  Ca0  1  0.25424672  0.00638758  -0.00565048  1
  Ca  Ca1  1  0.25326564  0.00229053  0.50101173  1
  Ca  Ca2  1  0.24921186  0.49587494  0.00091818  1
  Ca  Ca3  1  0.25454738  0.49819156  0.49888966  1
  Ca  Ca4  1  0.75555206  0.00494498  -0.00128546  1
  Ca  Ca5  1  0.75472609  0.00533699  0.50068891  1
  Ca  Ca6  1  0.75340160  0.49770066  -0.00158454  1
  Ca  Ca7  1  0.74729917  0.49415334  0.50054010  1
  Ca  Ca8  1  -0.00315563  0.24994888  0.00109733  1
  Ca  Ca9  1  -0.00104092  0.25081369  0.49786599  1
  Ca  Ca10  1  -0.00201079  0.75061569  -0.00145747  1
  Ca  Ca11  1  0.00317403  0.74754634  0.50282811  1
  Ca  Ca12  1  0.49988628  0.25221933  0.00083727  1
  Ca  Ca13  1  0.49988664  0.25366360  0.49883062  1
  Ca  Ca14  1  0.49980222  0.74530956  -0.00481821  1
  Ca  Ca15  1  0.49986546  0.74580519  0.50427932  1
  Ca  Ca16  1  0.00069197  0.00432777  0.24701145  1
  Ca  Ca17  1  -0.00261642  0.00425006  0.75742802  1
  Ca  Ca18  1  0.00191926  0.49608130  0.25052120  1
  Ca  Ca19  1  0.00306952  0.49714052  0.75588170  1
  Ca  Ca20  1  0.49886396  0.00724328  0.24835616  1
  Ca  Ca21  1  0.50254972  0.00220831  0.75002920  1
  Ca  Ca22  1  0.49584667  0.49435187  0.25192233  1
  Ca  Ca23  1  0.49970987  0.49610246  0.74926459  1
  Ti  Ti24  1  0.25004799  0.25121319  0.24932947  1
  Ti  Ti25  1  0.25146369  0.25134032  0.75097025  1
  Ti  Ti26  1  0.25013374  0.74796529  0.25065571  1
  Ti  Ti27  1  0.24965485  0.74816528  0.74955320  1
  Ti  Ti28  1  0.74847900  0.24992321  0.24744897  1
  Ti  Ti29  1  0.74785129  0.25110276  0.75267720  1
  Ti  Ti30  1  0.74948267  0.74967914  0.24749577  1
  Ti  Ti31  1  0.75133985  0.74848111  0.75371545  1
  Al  Al32  1  0.08141865  0.09260240  0.07161840  1
  Al  Al33  1  0.08515822  0.09198644  0.57786163  1
  Al  Al34  1  0.10412965  0.58142177  0.07895649  1
  Al  Al35  1  0.09350082  0.57449773  0.59136293  1
  Al  Al36  1  0.57786956  0.09038235  0.08744278  1
  Al  Al37  1  0.57510161  0.08561263  0.58431069  1
  Al  Al38  1  0.57980686  0.57159777  0.07900750  1
  Al  Al39  1  0.58221220  0.57300153  0.59095719  1
  Al  Al40  1  0.40730386  0.41585131  0.09432820  1
  Al  Al41  1  0.42460164  0.41387490  0.58740429  1
  Al  Al42  1  0.41666644  0.92631708  0.07578539  1
  Al  Al43  1  0.40691739  0.91247796  0.58225730  1
  Al  Al44  1  0.91608467  0.40712471  0.07539827  1
  Al  Al45  1  0.90901942  0.41051858  0.57890429  1
  Al  Al46  1  0.90594811  0.92461144  0.07398436  1
  Al  Al47  1  0.92075933  0.92720030  0.58984510  1
  Al  Al48  1  0.41804064  0.09538328  0.41162287  1
  Al  Al49  1  0.41802398  0.10093292  0.92343374  1
  Al  Al50  1  0.41363116  0.57193747  0.41273796  1
  Al  Al51  1  0.40720135  0.58692571  0.92309475  1
  Al  Al52  1  0.92106603  0.09337607  0.41148839  1
  Al  Al53  1  0.91243669  0.09005257  0.91404526  1
  Al  Al54  1  0.91869748  0.56908114  0.41750878  1
  Al  Al55  1  0.91270391  0.57394123  0.91079213  1
  Al  Al56  1  0.08455924  0.41423611  0.41319487  1
  Al  Al57  1  0.08395157  0.41973283  0.91610043  1
  Al  Al58  1  0.08211448  0.91788770  0.42533272  1
  Al  Al59  1  0.07001069  0.90481468  0.91159255  1
  Al  Al60  1  0.58416612  0.40909698  0.41086750  1
  Al  Al61  1  0.58569650  0.41311319  0.91393307  1
  Al  Al62  1  0.57393110  0.93552138  0.41979119  1
  Al  Al63  1  0.58702476  0.92389325  0.91560282  1
  Al  Al64  1  0.08162020  0.09829677  0.41764102  1
  Al  Al65  1  0.07746298  0.09930476  0.91387388  1
  Al  Al66  1  0.08462121  0.57511326  0.41720626  1
  Al  Al67  1  0.09553711  0.58377758  0.91580980  1
  Al  Al68  1  0.57614934  0.09400693  0.40272771  1
  Al  Al69  1  0.57967780  0.08740881  0.91112565  1
  Al  Al70  1  0.58210675  0.56895380  0.41417754  1
  Al  Al71  1  0.58320621  0.57646216  0.91395249  1
  Al  Al72  1  0.42046218  0.41097635  0.40440103  1
  Al  Al73  1  0.41690052  0.41538062  0.91678961  1
  Al  Al74  1  0.40920382  0.91889393  0.42661339  1
  Al  Al75  1  0.42277799  0.91615684  0.92097759  1
  Al  Al76  1  0.90732254  0.40739740  0.41643466  1
  Al  Al77  1  0.91113910  0.41092512  0.91527103  1
  Al  Al78  1  0.92305347  0.92662377  0.41665169  1
  Al  Al79  1  0.90836429  0.91574758  0.91102418  1
  Al  Al80  1  0.08858831  0.41929995  0.08631118  1
  Al  Al81  1  0.09025303  0.41858875  0.58792870  1
  Al  Al82  1  0.07745455  0.92370782  0.06665977  1
  Al  Al83  1  0.08353521  0.91780275  0.58435434  1
  Al  Al84  1  0.58080453  0.41062488  0.08673035  1
  Al  Al85  1  0.58535242  0.41227342  0.58758989  1
  Al  Al86  1  0.58661321  0.92666001  0.07865083  1
  Al  Al87  1  0.57004061  0.92341917  0.58315370  1
  Al  Al88  1  0.41411921  0.09855907  0.08616761  1
  Al  Al89  1  0.41509494  0.08615378  0.58250409  1
  Al  Al90  1  0.39660663  0.57957475  0.08600504  1
  Al  Al91  1  0.42110713  0.57819557  0.58379574  1
  Al  Al92  1  0.90984273  0.08797154  0.08015018  1
  Al  Al93  1  0.91419492  0.08588434  0.58451314  1
  Al  Al94  1  0.92119132  0.57472894  0.07097921  1
  Al  Al95  1  0.91965920  0.57189102  0.58267213  1
  Al  Al96  1  0.25219159  0.14135012  0.13112775  1
  Al  Al97  1  0.24983145  0.13811809  0.63902684  1
  Al  Al98  1  0.24934892  0.62830153  0.13555378  1
  Al  Al99  1  0.24877019  0.62827088  0.63509103  1
  Al  Al100  1  0.75046131  0.13326535  0.13152660  1
  Al  Al101  1  0.75146877  0.14146818  0.64032358  1
  Al  Al102  1  0.75057107  0.63534932  0.12939242  1
  Al  Al103  1  0.74704590  0.63272792  0.63474490  1
  Al  Al104  1  0.25297265  0.36588955  0.13720124  1
  Al  Al105  1  0.24952797  0.36741071  0.63876900  1
  Al  Al106  1  0.24756555  0.86295712  0.13428540  1
  Al  Al107  1  0.24787118  0.86371780  0.63327358  1
  Al  Al108  1  0.74828355  0.36170953  0.13175374  1
  Al  Al109  1  0.74521430  0.36597222  0.64026662  1
  Al  Al110  1  0.75214460  0.87254329  0.13256457  1
  Al  Al111  1  0.75672899  0.86117183  0.64094127  1
  Al  Al112  1  0.24932864  0.14251367  0.36406878  1
  Al  Al113  1  0.25127854  0.13816505  0.86780740  1
  Al  Al114  1  0.25234680  0.63157076  0.36758250  1
  Al  Al115  1  0.24599863  0.63354225  0.86742230  1
  Al  Al116  1  0.74998068  0.13965829  0.36030656  1
  Al  Al117  1  0.75571376  0.13787269  0.86876596  1
  Al  Al118  1  0.74849164  0.63546064  0.36708471  1
  Al  Al119  1  0.75270607  0.63475186  0.87046675  1
  Al  Al120  1  0.25463504  0.36548892  0.36287999  1
  Al  Al121  1  0.24915725  0.36433068  0.86422183  1
  Al  Al122  1  0.24823983  0.86264215  0.37065248  1
  Al  Al123  1  0.24839298  0.86283759  0.86407441  1
  Al  Al124  1  0.74636974  0.36083295  0.36293419  1
  Al  Al125  1  0.75041198  0.36331665  0.87041281  1
  Al  Al126  1  0.75174326  0.86517549  0.36324419  1
  Al  Al127  1  0.75544506  0.86575805  0.86739708  1
  Al  Al128  1  0.13596403  0.24894471  0.13389653  1
  Al  Al129  1  0.13444291  0.24582855  0.63522371  1
  Al  Al130  1  0.13779046  0.74289919  0.13184679  1
  Al  Al131  1  0.13603630  0.74817221  0.63202976  1
  Al  Al132  1  0.62603349  0.25087592  0.13662754  1
  Al  Al133  1  0.62524872  0.25391140  0.63896076  1
  Al  Al134  1  0.63480784  0.74822777  0.13400312  1
  Al  Al135  1  0.63600438  0.74961901  0.63682178  1
  Al  Al136  1  0.12968677  0.25340642  0.36296165  1
  Al  Al137  1  0.13489991  0.24643286  0.86687394  1
  Al  Al138  1  0.13497947  0.74624373  0.36927130  1
  Al  Al139  1  0.13266458  0.74768487  0.86289337  1
  Al  Al140  1  0.62736221  0.25144939  0.36133060  1
  Al  Al141  1  0.62952833  0.24970415  0.86608632  1
  Al  Al142  1  0.63675630  0.74730695  0.36275263  1
  Al  Al143  1  0.63356478  0.74769203  0.86648759  1
  Al  Al144  1  0.37240011  0.24902545  0.13642299  1
  Al  Al145  1  0.36922236  0.25120188  0.63536595  1
  Al  Al146  1  0.36175808  0.74165981  0.13438544  1
  Al  Al147  1  0.36180373  0.75174341  0.63401560  1
  Al  Al148  1  0.86366216  0.24767807  0.13066348  1
  Al  Al149  1  0.86387676  0.25481775  0.63776792  1
  Al  Al150  1  0.86245593  0.75300563  0.12653732  1
  Al  Al151  1  0.86704323  0.74424628  0.63963457  1
  Al  Al152  1  0.37136369  0.25103800  0.36310919  1
  Al  Al153  1  0.37021100  0.25007523  0.86592413  1
  Al  Al154  1  0.36155466  0.75030575  0.36320594  1
  Al  Al155  1  0.36704281  0.74545059  0.86368594  1
  Al  Al156  1  0.86813606  0.25104393  0.36225153  1
  Al  Al157  1  0.86421026  0.25020397  0.87089204  1
  Al  Al158  1  0.86787720  0.75031606  0.36221736  1
  Al  Al159  1  0.86861547  0.75084217  0.86979005  1
  Al  Al160  1  0.13398792  0.13759710  0.25258902  1
  Al  Al161  1  0.13108878  0.13591557  0.75208654  1
  Al  Al162  1  0.13673899  0.63308132  0.25094609  1
  Al  Al163  1  0.13529160  0.63130913  0.75076987  1
  Al  Al164  1  0.63244533  0.13782316  0.24636515  1
  Al  Al165  1  0.62807496  0.13921121  0.75063653  1
  Al  Al166  1  0.63673213  0.62903352  0.24854901  1
  Al  Al167  1  0.63630002  0.63191273  0.75221298  1
  Al  Al168  1  0.36679857  0.13874416  0.24993655  1
  Al  Al169  1  0.37056266  0.14109403  0.74999041  1
  Al  Al170  1  0.36135650  0.62793948  0.24913626  1
  Al  Al171  1  0.36184270  0.63139205  0.75068216  1
  Al  Al172  1  0.86497774  0.13656278  0.24685585  1
  Al  Al173  1  0.87110118  0.14108861  0.75534352  1
  Al  Al174  1  0.86538533  0.63728283  0.24811944  1
  Al  Al175  1  0.86546839  0.63088788  0.75571940  1
  Al  Al176  1  0.13608942  0.36640666  0.24828293  1
  Al  Al177  1  0.13517157  0.36415722  0.75145879  1
  Al  Al178  1  0.13241907  0.85660126  0.25275804  1
  Al  Al179  1  0.13554048  0.86519658  0.75084068  1
  Al  Al180  1  0.63061641  0.36630295  0.24973693  1
  Al  Al181  1  0.62969017  0.36550399  0.75261807  1
  Al  Al182  1  0.63660941  0.86744867  0.24213356  1
  Al  Al183  1  0.63251294  0.86224566  0.75414550  1
  Al  Al184  1  0.37033559  0.36260189  0.25059303  1
  Al  Al185  1  0.37252057  0.36451853  0.75039797  1
  Al  Al186  1  0.36133131  0.86447133  0.24709776  1
  Al  Al187  1  0.36804423  0.86228706  0.75205380  1
  Al  Al188  1  0.86398011  0.36134479  0.25102012  1
  Al  Al189  1  0.86402565  0.36709564  0.75658605  1
  Al  Al190  1  0.86406472  0.86639375  0.24713158  1
  Al  Al191  1  0.86853975  0.86554336  0.75902829  1
  Al  Al192  1  0.33156106  0.32814233  0.49975892  1
  Al  Al193  1  -0.00277368  0.83151193  0.17035459  1
  Al  Al194  1  0.17289359  0.00174960  0.32915661  1
  Al  Al195  1  0.17277560  0.31873850  0.00019918  1
  Al  Al196  1  0.67163532  0.82893865  0.49955091  1
  Al  Al197  1  0.68031276  -0.00043519  0.66973562  1
  Al  Al198  1  0.67411947  0.66667342  0.50076619  1
  Al  Al199  1  0.00288680  0.66770635  0.17222418  1
  Al  Al200  1  0.00107887  0.67098699  0.82414350  1
  Al  Al201  1  0.82678767  0.18732279  0.49979192  1
  Al  Al202  1  0.81267515  0.49835425  0.32543727  1
  Al  Al203  1  0.82108750  0.49879592  0.17036884  1
  Al  Al204  1  0.49799251  0.82907196  0.17057561  1
  Al  Al205  1  -0.00070425  0.82175920  0.68646350  1
  Al  Al206  1  0.32130956  -0.00000573  0.67526590  1
  Al  Al207  1  0.67189255  0.17869712  0.50142152  1
  Al  Al208  1  0.32722202  0.81302674  -0.00045511  1
  Al  Al209  1  0.81396124  0.49930512  0.68472816  1
  Al  Al210  1  0.83393619  0.82190695  0.50270475  1
  Al  Al211  1  0.33197380  0.00461257  0.82957083  1
  Al  Al212  1  0.17566255  0.31075407  0.49940640  1
  Al  Al213  1  0.67364218  0.18126827  -0.00057859  1
  Al  Al214  1  0.82689300  0.00337894  0.69200273  1
  Al  Al215  1  0.68484246  0.82186163  -0.00048394  1
  Al  Al216  1  -0.00022672  0.17187165  0.17692272  1
  Al  Al217  1  0.49836088  0.83152613  0.33016895  1
  Al  Al218  1  0.82545653  0.00350150  0.31903047  1
  Al  Al219  1  0.68444862  0.32719710  0.50130292  1
  Al  Al220  1  0.19012850  0.49900628  0.31101663  1
  Al  Al221  1  0.68992558  0.49838726  0.81391660  1
  Al  Al222  1  0.49706777  0.67072185  0.16870621  1
  Al  Al223  1  0.31971818  0.49930004  0.82261796  1
  Al  Al224  1  0.31502694  0.17603559  0.50068213  1
  Al  Al225  1  0.32570590  0.67909933  0.50000346  1
  Al  Al226  1  0.49959540  0.67658235  0.68233835  1
  Al  Al227  1  0.17165858  0.00335580  0.16372264  1
  Al  Al228  1  0.16341076  0.00167555  0.82648449  1
  Al  Al229  1  0.49944437  0.67023230  0.32622236  1
  Al  Al230  1  0.17102163  0.81550343  -0.00246297  1
  Al  Al231  1  0.00064198  0.31643492  0.82952241  1
  Al  Al232  1  0.67276683  0.00171202  0.31861680  1
  Al  Al233  1  0.32522678  0.31687898  0.00117304  1
  Al  Al234  1  0.00060977  0.32416998  0.17766614  1
  Al  Al235  1  0.32762505  0.00330577  0.17321800  1
  Al  Al236  1  0.00079064  0.32148010  0.67268432  1
  Al  Al237  1  0.32800121  0.00109983  0.32666916  1
  Al  Al238  1  0.68850994  0.00337144  0.82625372  1
  Au  Au239  1  0.31633748  0.50099085  0.83471063  1
  Au  Au240  1  -0.00500453  0.84633993  0.16388494  1
  Au  Au241  1  0.66308078  0.66059524  0.50058179  1
  Au  Au242  1  0.50409197  0.83302801  0.83152567  1
  Au  Au243  1  0.00247170  0.66065851  0.66682575  1
  Au  Au244  1  -0.00007892  0.83784121  0.68067285  1
  Au  Au245  1  0.67725851  0.49785726  0.82494447  1
  Au  Au246  1  0.83683902  0.49417719  0.17199068  1
  Au  Au247  1  0.83706132  0.66125466  0.49832359  1
  Au  Au248  1  0.49934100  0.32573943  0.82931978  1
  Au  Au249  1  -0.00059183  0.33385671  0.67548674  1
  Au  Au250  1  0.83486906  0.00369532  0.32979963  1
  Au  Au251  1  0.83797859  0.83859418  0.50407859  1
  Au  Au252  1  0.49668005  0.66273099  0.83093885  1
  Au  Au253  1  0.15979219  -0.00188585  0.84253553  1
  Au  Au254  1  -0.00028977  0.67298869  0.83688127  1
  Au  Au255  1  0.16503594  0.66616483  0.50204607  1
  Au  Au256  1  0.32559154  0.49568246  0.66576936  1
  Au  Au257  1  0.49681175  0.17539013  0.67233412  1
  Au  Au258  1  0.49547082  0.82552773  0.34595638  1
  Au  Au259  1  0.83611910  0.67163788  -0.00266856  1
  Au  Au260  1  0.67755377  0.83708856  -0.00136862  1
  Au  Au261  1  -0.00253675  0.32658547  0.32821573  1
  Au  Au262  1  0.66219734  0.49712078  0.17953905  1
  Au  Au263  1  0.17336977  0.00682994  0.34448905  1
  Au  Au264  1  0.82480752  0.49681686  0.67208102  1
  Au  Au265  1  0.67769413  0.33358755  0.00179478  1
  Au  Au266  1  0.66846075  0.66161343  0.00124590  1
  Au  Au267  1  0.17768364  0.49889182  0.32329847  1
  Au  Au268  1  0.67584462  0.16876050  -0.00194978  1
  Au  Au269  1  0.66557519  0.00028780  0.67851503  1
  Au  Au270  1  0.67271082  0.16356708  0.49510847  1
  Au  Au271  1  0.66547304  0.84510534  0.49643385  1
  Au  Au272  1  0.49453642  0.82472477  0.66339683  1
  Au  Au273  1  0.17358023  0.00615844  0.65853581  1
  Au  Au274  1  0.34792563  0.00977484  0.82822425  1
  Au  Au275  1  0.49641656  0.65832966  0.17169208  1
  Au  Au276  1  0.49788489  0.32572713  0.17461654  1
  Au  Au277  1  0.49752024  0.83493278  0.15938238  1
  Au  Au278  1  0.17681827  0.00516242  0.14784649  1
  Au  Au279  1  0.00303503  0.83018243  0.33655929  1
  Au  Au280  1  0.17739591  0.32755998  0.50188833  1
  Au  Au281  1  0.32110567  0.82932113  -0.00065181  1
  Au  Au282  1  -0.00040071  0.16552606  0.67441509  1
  Au  Au283  1  0.17661469  0.83290724  0.50194164  1
  Au  Au284  1  0.00560284  0.65366121  0.16440541  1
  Au  Au285  1  -0.00236892  0.66466286  0.33765471  1
  Au  Au286  1  0.67073121  0.00614583  0.17047239  1
  Au  Au287  1  0.34111409  0.67253636  0.49838154  1
