# generated using pymatgen
data_Ca24Ti8Al207Au49
_symmetry_space_group_name_H-M   'P 1'
_cell_length_a   17.32174849
_cell_length_b   17.32166469
_cell_length_c   17.32424661
_cell_angle_alpha   90.00148558
_cell_angle_beta   89.99817270
_cell_angle_gamma   90.00181555
_symmetry_Int_Tables_number   1
_chemical_formula_structural   Ca24Ti8Al207Au49
_chemical_formula_sum   'Ca24 Ti8 Al207 Au49'
_cell_volume   5197.99326265
_cell_formula_units_Z   1
loop_
 _symmetry_equiv_pos_site_id
 _symmetry_equiv_pos_as_xyz
  1  'x, y, z'
loop_
 _atom_site_type_symbol
 _atom_site_label
 _atom_site_symmetry_multiplicity
 _atom_site_fract_x
 _atom_site_fract_y
 _atom_site_fract_z
 _atom_site_occupancy
  Ca  Ca0  1  0.25558456  -0.00304417  0.00477371  1
  Ca  Ca1  1  0.25489661  -0.00060392  0.49361031  1
  Ca  Ca2  1  0.25175982  0.50405793  0.00401317  1
  Ca  Ca3  1  0.24958572  0.49803915  0.49322733  1
  Ca  Ca4  1  0.74580172  -0.00093219  0.00377340  1
  Ca  Ca5  1  0.75032810  -0.00019966  0.49721100  1
  Ca  Ca6  1  0.74535575  0.49845830  -0.00074936  1
  Ca  Ca7  1  0.74958365  0.49934874  0.50295043  1
  Ca  Ca8  1  -0.00287163  0.25091178  0.00276295  1
  Ca  Ca9  1  0.00362158  0.25426848  0.49679446  1
  Ca  Ca10  1  -0.00295179  0.74493742  0.00375571  1
  Ca  Ca11  1  -0.00461267  0.74633578  0.49965306  1
  Ca  Ca12  1  0.50338805  0.25330988  -0.00128981  1
  Ca  Ca13  1  0.49911318  0.25744839  0.50226333  1
  Ca  Ca14  1  0.50296755  0.74913944  0.00167534  1
  Ca  Ca15  1  0.50125553  0.74835049  0.50116464  1
  Ca  Ca16  1  -0.00105768  -0.00230274  0.24842862  1
  Ca  Ca17  1  0.00055022  0.00307054  0.74819089  1
  Ca  Ca18  1  0.00070154  0.50211407  0.24919981  1
  Ca  Ca19  1  -0.00745056  0.49973457  0.74736627  1
  Ca  Ca20  1  0.50287718  -0.00256288  0.24639753  1
  Ca  Ca21  1  0.49820348  0.00484254  0.75465002  1
  Ca  Ca22  1  0.49651594  0.50034291  0.24951307  1
  Ca  Ca23  1  0.50322918  0.49670130  0.75158012  1
  Ti  Ti24  1  0.25088235  0.25143759  0.24793854  1
  Ti  Ti25  1  0.25067368  0.25269196  0.74951792  1
  Ti  Ti26  1  0.25018804  0.74918465  0.24876471  1
  Ti  Ti27  1  0.25198022  0.74721295  0.75141850  1
  Ti  Ti28  1  0.74997524  0.25237572  0.24996510  1
  Ti  Ti29  1  0.75041418  0.25162386  0.74956795  1
  Ti  Ti30  1  0.74951276  0.74764682  0.24854531  1
  Ti  Ti31  1  0.74994957  0.74761854  0.75126280  1
  Al  Al32  1  0.08354984  0.08215411  0.08395811  1
  Al  Al33  1  0.08824191  0.09364514  0.57324356  1
  Al  Al34  1  0.08925397  0.58981917  0.09577200  1
  Al  Al35  1  0.07482434  0.56968922  0.57382247  1
  Al  Al36  1  0.59221778  0.07757571  0.08169910  1
  Al  Al37  1  0.57610333  0.08715395  0.57919869  1
  Al  Al38  1  0.58187706  0.58286458  0.07826585  1
  Al  Al39  1  0.59230563  0.57985921  0.59103656  1
  Al  Al40  1  0.41806195  0.42392739  0.08610031  1
  Al  Al41  1  0.42369479  0.41001069  0.57938358  1
  Al  Al42  1  0.41399235  0.91698297  0.08908829  1
  Al  Al43  1  0.41929731  0.92033778  0.57856014  1
  Al  Al44  1  0.91567700  0.41180167  0.07447718  1
  Al  Al45  1  0.90519348  0.41607116  0.58694087  1
  Al  Al46  1  0.90772307  0.91299859  0.08356422  1
  Al  Al47  1  0.90903457  0.90900060  0.57575252  1
  Al  Al48  1  0.41579807  0.07897254  0.41849187  1
  Al  Al49  1  0.42337618  0.08486773  0.91789991  1
  Al  Al50  1  0.40899949  0.57482813  0.41336431  1
  Al  Al51  1  0.42013249  0.59525648  0.92067986  1
  Al  Al52  1  0.92357364  0.08427234  0.41877023  1
  Al  Al53  1  0.91410270  0.08392712  0.92353548  1
  Al  Al54  1  0.91773476  0.59206336  0.41978460  1
  Al  Al55  1  0.89896057  0.57899772  0.92107576  1
  Al  Al56  1  0.09704709  0.41320915  0.41118179  1
  Al  Al57  1  0.07287644  0.42724016  0.92648246  1
  Al  Al58  1  0.08160538  0.91926401  0.41720326  1
  Al  Al59  1  0.08071761  0.91576846  0.92917424  1
  Al  Al60  1  0.57419387  0.41373139  0.41512564  1
  Al  Al61  1  0.59127361  0.40752901  0.91377485  1
  Al  Al62  1  0.58320960  0.91049791  0.40703735  1
  Al  Al63  1  0.58898289  0.90941184  0.92461498  1
  Al  Al64  1  0.08804209  0.09287002  0.41793564  1
  Al  Al65  1  0.07850007  0.08265801  0.92675374  1
  Al  Al66  1  0.08164739  0.57544190  0.40219241  1
  Al  Al67  1  0.09040259  0.58742344  0.93468628  1
  Al  Al68  1  0.58477595  0.07492940  0.41508001  1
  Al  Al69  1  0.58392064  0.08800315  0.92050159  1
  Al  Al70  1  0.58317292  0.58036440  0.42294569  1
  Al  Al71  1  0.58399294  0.58746288  0.91224306  1
  Al  Al72  1  0.40984925  0.41339962  0.40586826  1
  Al  Al73  1  0.42968370  0.41253053  0.91274477  1
  Al  Al74  1  0.42184679  0.91029553  0.40821981  1
  Al  Al75  1  0.42309472  0.91786131  0.92271528  1
  Al  Al76  1  0.91929339  0.41475637  0.42646452  1
  Al  Al77  1  0.89840278  0.41893881  0.91475374  1
  Al  Al78  1  0.91105329  0.90869304  0.42066020  1
  Al  Al79  1  0.90969935  0.91141410  0.92659710  1
  Al  Al80  1  0.08646041  0.42800995  0.09241130  1
  Al  Al81  1  0.08281336  0.40776111  0.57253218  1
  Al  Al82  1  0.08531840  0.91467529  0.08441891  1
  Al  Al83  1  0.07826724  0.92048631  0.57161185  1
  Al  Al84  1  0.58950317  0.41334592  0.07779364  1
  Al  Al85  1  0.58511580  0.41735045  0.59468153  1
  Al  Al86  1  0.59469019  0.91354970  0.08746597  1
  Al  Al87  1  0.57754546  0.91908869  0.57221758  1
  Al  Al88  1  0.41226961  0.07567861  0.08650506  1
  Al  Al89  1  0.41912113  0.08582974  0.58232443  1
  Al  Al90  1  0.40898869  0.58951599  0.08278765  1
  Al  Al91  1  0.42734495  0.58155032  0.57520145  1
  Al  Al92  1  0.91075446  0.08243580  0.08444625  1
  Al  Al93  1  0.92288540  0.08460142  0.57740959  1
  Al  Al94  1  0.92528736  0.58913106  0.08127358  1
  Al  Al95  1  0.89683163  0.57943321  0.58192479  1
  Al  Al96  1  0.25395578  0.13297377  0.13604126  1
  Al  Al97  1  0.24689474  0.14003993  0.63753455  1
  Al  Al98  1  0.24921306  0.62919570  0.13592181  1
  Al  Al99  1  0.24970592  0.63173954  0.63624739  1
  Al  Al100  1  0.75014255  0.13870449  0.13314227  1
  Al  Al101  1  0.74921318  0.13627913  0.63096606  1
  Al  Al102  1  0.74855621  0.63808201  0.12629116  1
  Al  Al103  1  0.75036690  0.63189977  0.63346351  1
  Al  Al104  1  0.25071866  0.37485495  0.13949082  1
  Al  Al105  1  0.24726654  0.36664933  0.63412185  1
  Al  Al106  1  0.25317523  0.86687005  0.13748377  1
  Al  Al107  1  0.25352232  0.86118014  0.63626694  1
  Al  Al108  1  0.74961121  0.36475111  0.13250631  1
  Al  Al109  1  0.75198620  0.36939816  0.63337274  1
  Al  Al110  1  0.74592284  0.86369387  0.13545240  1
  Al  Al111  1  0.75155427  0.86549176  0.63181285  1
  Al  Al112  1  0.24876476  0.13675144  0.36326004  1
  Al  Al113  1  0.25265605  0.13952599  0.86369722  1
  Al  Al114  1  0.24891952  0.63134037  0.36032094  1
  Al  Al115  1  0.24922518  0.63433073  0.87051041  1
  Al  Al116  1  0.74920802  0.14009368  0.36931365  1
  Al  Al117  1  0.75277841  0.13680025  0.86448164  1
  Al  Al118  1  0.75190727  0.63134336  0.36843010  1
  Al  Al119  1  0.75165642  0.63140690  0.87307223  1
  Al  Al120  1  0.24908652  0.36996028  0.36091903  1
  Al  Al121  1  0.25058676  0.36705460  0.86486566  1
  Al  Al122  1  0.25492929  0.86798342  0.36089687  1
  Al  Al123  1  0.25113379  0.85945022  0.86394582  1
  Al  Al124  1  0.75287606  0.37021912  0.36702697  1
  Al  Al125  1  0.75168328  0.36844522  0.86663364  1
  Al  Al126  1  0.75234193  0.86131262  0.36613207  1
  Al  Al127  1  0.74987434  0.86246183  0.86718863  1
  Al  Al128  1  0.13063325  0.25367411  0.13926642  1
  Al  Al129  1  0.13572017  0.25311897  0.63073696  1
  Al  Al130  1  0.13343694  0.74131279  0.13535385  1
  Al  Al131  1  0.13348230  0.74954379  0.63743728  1
  Al  Al132  1  0.63280235  0.25476386  0.13438444  1
  Al  Al133  1  0.63431531  0.25629431  0.63439925  1
  Al  Al134  1  0.63622372  0.75179545  0.12667607  1
  Al  Al135  1  0.63776724  0.74638525  0.63213110  1
  Al  Al136  1  0.13813800  0.25373268  0.36578941  1
  Al  Al137  1  0.13396806  0.24905531  0.86522176  1
  Al  Al138  1  0.13648127  0.75025898  0.35933060  1
  Al  Al139  1  0.13455863  0.74563348  0.86618104  1
  Al  Al140  1  0.63507928  0.25488602  0.36558971  1
  Al  Al141  1  0.63717943  0.25789683  0.86536506  1
  Al  Al142  1  0.63442563  0.75142559  0.36418357  1
  Al  Al143  1  0.63888809  0.74559475  0.87080758  1
  Al  Al144  1  0.36402724  0.25530092  0.13323679  1
  Al  Al145  1  0.36503802  0.25455590  0.63409264  1
  Al  Al146  1  0.36297656  0.74537181  0.13683018  1
  Al  Al147  1  0.36608296  0.74809980  0.63703225  1
  Al  Al148  1  0.86684137  0.25429712  0.13072331  1
  Al  Al149  1  0.86206139  0.25296194  0.62924833  1
  Al  Al150  1  0.86538255  0.74475529  0.13369343  1
  Al  Al151  1  0.86188184  0.74737159  0.63287241  1
  Al  Al152  1  0.36505502  0.25483206  0.36207151  1
  Al  Al153  1  0.36547469  0.25432239  0.86904498  1
  Al  Al154  1  0.36314097  0.75232043  0.36102611  1
  Al  Al155  1  0.36708340  0.74223279  0.87033095  1
  Al  Al156  1  0.86451090  0.25259826  0.36854175  1
  Al  Al157  1  0.86179676  0.25339268  0.87184526  1
  Al  Al158  1  0.86327198  0.74734621  0.36696319  1
  Al  Al159  1  0.86378182  0.74547853  0.86698455  1
  Al  Al160  1  0.13656233  0.13351186  0.24644016  1
  Al  Al161  1  0.12911937  0.14127284  0.74834910  1
  Al  Al162  1  0.13681241  0.62912889  0.24815794  1
  Al  Al163  1  0.13871425  0.62880824  0.74997064  1
  Al  Al164  1  0.63694864  0.13569707  0.24680586  1
  Al  Al165  1  0.63727602  0.13946979  0.75109287  1
  Al  Al166  1  0.63723387  0.63590961  0.25282812  1
  Al  Al167  1  0.63980170  0.63341787  0.75112504  1
  Al  Al168  1  0.36535633  0.13153156  0.24900376  1
  Al  Al169  1  0.36470647  0.14017764  0.74992917  1
  Al  Al170  1  0.36218731  0.62682687  0.25053276  1
  Al  Al171  1  0.36769968  0.63437956  0.75306169  1
  Al  Al172  1  0.86390104  0.14228030  0.24631246  1
  Al  Al173  1  0.86993608  0.14313751  0.74969189  1
  Al  Al174  1  0.86331206  0.63385839  0.25034871  1
  Al  Al175  1  0.86007140  0.62889262  0.74955180  1
  Al  Al176  1  0.13633540  0.37019914  0.24997528  1
  Al  Al177  1  0.13562150  0.36771508  0.75046129  1
  Al  Al178  1  0.13514653  0.86711820  0.24599085  1
  Al  Al179  1  0.13312864  0.85932276  0.74948902  1
  Al  Al180  1  0.63266439  0.36485331  0.25068500  1
  Al  Al181  1  0.63648375  0.36751367  0.74783879  1
  Al  Al182  1  0.63143380  0.86011659  0.24614792  1
  Al  Al183  1  0.63989448  0.86126434  0.75237797  1
  Al  Al184  1  0.36763614  0.37081689  0.25097917  1
  Al  Al185  1  0.37002757  0.36496233  0.74882070  1
  Al  Al186  1  0.37066614  0.86493613  0.24713750  1
  Al  Al187  1  0.36497560  0.86181049  0.75343817  1
  Al  Al188  1  0.86365199  0.36705222  0.24983564  1
  Al  Al189  1  0.86033944  0.36884423  0.74887399  1
  Al  Al190  1  0.86453654  0.86041443  0.24787869  1
  Al  Al191  1  0.86536541  0.85995169  0.75123326  1
  Al  Al192  1  0.50283971  0.67189783  0.68369907  1
  Al  Al193  1  0.49793902  0.68234758  0.33166305  1
  Al  Al194  1  0.80729886  0.80829208  0.00234727  1
  Al  Al195  1  0.00063041  0.67794546  0.31117212  1
  Al  Al196  1  -0.00015884  0.82898372  0.82474903  1
  Al  Al197  1  0.67360453  -0.00258702  0.31025742  1
  Al  Al198  1  -0.00231511  0.32360802  0.67243458  1
  Al  Al199  1  0.32937570  0.00116077  0.67472578  1
  Al  Al200  1  0.49946154  0.18612377  0.67505021  1
  Al  Al201  1  0.17941667  0.17666570  0.00238095  1
  Al  Al202  1  0.32603058  0.49898440  0.66655441  1
  Al  Al203  1  0.67582021  -0.00012122  0.83015128  1
  Al  Al204  1  0.50109023  0.68084396  0.17513640  1
  Al  Al205  1  0.50159000  0.81028973  0.82838023  1
  Al  Al206  1  0.83153314  0.00194828  0.68124390  1
  Al  Al207  1  0.30906389  0.17224278  0.49998624  1
  Al  Al208  1  0.16838578  0.67468275  0.49882339  1
  Al  Al209  1  0.68024147  0.18653860  -0.00086793  1
  Al  Al210  1  0.17727696  0.00386966  0.32350359  1
  Al  Al211  1  -0.00427272  0.67338778  0.66838597  1
  Al  Al212  1  0.32606383  0.67965904  0.49840356  1
  Al  Al213  1  0.18272871  0.82477483  0.49801700  1
  Al  Al214  1  0.50094606  0.17684025  0.16653391  1
  Al  Al215  1  0.66919850  0.00014977  0.67231388  1
  Al  Al216  1  0.67418428  0.32548269  0.50019991  1
  Al  Al217  1  0.00133264  0.17726824  0.32134285  1
  Al  Al218  1  0.31515028  0.32718696  0.49745780  1
  Al  Al219  1  0.32861231  0.81765490  0.00160289  1
  Al  Al220  1  0.68568603  0.49958251  0.81643462  1
  Al  Al221  1  0.82820351  0.00434459  0.31947099  1
  Al  Al222  1  0.17906660  0.33393162  0.00262323  1
  Al  Al223  1  0.32522698  0.50176117  0.82790904  1
  Al  Al224  1  0.32980317  0.00007845  0.82720118  1
  Al  Al225  1  0.67280347  0.50138871  0.17771314  1
  Al  Al226  1  0.00046611  0.32973098  0.32324772  1
  Al  Al227  1  0.17257230  -0.00017421  0.66796030  1
  Al  Al228  1  0.50194461  0.18680586  0.82654004  1
  Al  Al229  1  0.67546814  0.81922668  0.49922105  1
  Al  Al230  1  -0.00204207  0.66714171  0.83184661  1
  Al  Al231  1  0.81013873  -0.00050020  0.17314303  1
  Al  Al232  1  0.17293147  -0.00001161  0.83253522  1
  Al  Al233  1  0.50056936  0.18319349  0.32698750  1
  Al  Al234  1  0.17532553  0.81102011  0.00259758  1
  Al  Al235  1  -0.00031507  0.81363785  0.17816590  1
  Al  Al236  1  0.50150235  0.82647951  0.67323928  1
  Al  Al237  1  0.82711999  0.50249645  0.17283001  1
  Al  Al238  1  -0.00268962  0.32575252  0.82980601  1
  Au  Au239  1  0.32785384  0.15996006  0.00031923  1
  Au  Au240  1  0.17099064  0.65941921  0.49234696  1
  Au  Au241  1  0.82973013  0.50360986  0.15698956  1
  Au  Au242  1  0.32537755  0.50260190  0.17250501  1
  Au  Au243  1  0.50226335  0.17700288  0.34286169  1
  Au  Au244  1  0.17846847  0.00092508  0.65203135  1
  Au  Au245  1  0.33845351  0.50219610  0.83942587  1
  Au  Au246  1  -0.00713312  0.34138855  0.82875115  1
  Au  Au247  1  0.33779156  0.50127355  0.66364403  1
  Au  Au248  1  -0.00106489  0.82321870  0.16471259  1
  Au  Au249  1  0.32582610  0.17421088  0.50263779  1
  Au  Au250  1  0.50236678  0.33998240  0.17400626  1
  Au  Au251  1  0.82506969  -0.00019961  0.33553622  1
  Au  Au252  1  -0.00631141  0.65968082  0.65985307  1
  Au  Au253  1  0.65966780  0.49725457  0.32676768  1
  Au  Au254  1  0.16274040  0.32940147  0.00279567  1
  Au  Au255  1  0.50208735  0.83243947  0.17049230  1
  Au  Au256  1  0.34281503  0.33080175  -0.00034210  1
  Au  Au257  1  0.82423323  -0.00191230  0.84458889  1
  Au  Au258  1  0.17885213  -0.00020262  0.84836846  1
  Au  Au259  1  -0.00056209  0.16239255  0.83223612  1
  Au  Au260  1  -0.00060684  0.82200072  0.34262233  1
  Au  Au261  1  0.83283903  0.00218964  0.66428313  1
  Au  Au262  1  0.67410381  0.67562705  -0.00006630  1
  Au  Au263  1  0.32274741  0.82887440  -0.00067699  1
  Au  Au264  1  0.83945158  0.17965879  0.49805758  1
  Au  Au265  1  0.83295535  0.50005069  0.34339250  1
  Au  Au266  1  0.67613250  0.33803393  0.50143108  1
  Au  Au267  1  0.16180073  0.49263135  0.66545652  1
  Au  Au268  1  0.33470280  0.83079510  0.49926773  1
  Au  Au269  1  0.18011570  -0.00018892  0.16025848  1
  Au  Au270  1  0.00293909  0.17533180  0.66164690  1
  Au  Au271  1  0.49456787  0.66598974  0.32972369  1
  Au  Au272  1  0.82769435  0.17946715  0.00213216  1
  Au  Au273  1  0.67993260  0.66452622  0.50178044  1
  Au  Au274  1  0.50494869  0.82691935  0.82718681  1
  Au  Au275  1  0.00084082  0.83399818  0.83629908  1
  Au  Au276  1  0.16284217  0.50349700  0.83600538  1
  Au  Au277  1  -0.00424273  0.66136696  0.84809256  1
  Au  Au278  1  0.50193034  0.16474018  0.16936451  1
  Au  Au279  1  0.65653640  -0.00032961  0.67498926  1
  Au  Au280  1  0.34151606  -0.00280643  0.31860740  1
  Au  Au281  1  0.16846778  0.00166070  0.33207529  1
  Au  Au282  1  -0.00131209  0.16212598  0.17307103  1
  Au  Au283  1  0.67626492  0.83177379  0.50111194  1
  Au  Au284  1  0.67126343  0.49919222  0.82482912  1
  Au  Au285  1  -0.00032466  0.33822109  0.17319764  1
  Au  Au286  1  0.67246186  0.16264865  0.49937666  1
  Au  Au287  1  0.00076920  0.83484714  0.66133772  1
