# generated using pymatgen
data_Ca24Ti8Al207Au49
_symmetry_space_group_name_H-M   'P 1'
_cell_length_a   17.32383035
_cell_length_b   17.32440377
_cell_length_c   17.32531328
_cell_angle_alpha   90.00044472
_cell_angle_beta   90.00197776
_cell_angle_gamma   90.00039113
_symmetry_Int_Tables_number   1
_chemical_formula_structural   Ca24Ti8Al207Au49
_chemical_formula_sum   'Ca24 Ti8 Al207 Au49'
_cell_volume   5199.76019904
_cell_formula_units_Z   1
loop_
 _symmetry_equiv_pos_site_id
 _symmetry_equiv_pos_as_xyz
  1  'x, y, z'
loop_
 _atom_site_type_symbol
 _atom_site_label
 _atom_site_symmetry_multiplicity
 _atom_site_fract_x
 _atom_site_fract_y
 _atom_site_fract_z
 _atom_site_occupancy
  Ca  Ca0  1  0.25055068  -0.00027339  -0.00007677  1
  Ca  Ca1  1  0.24809905  -0.00024550  0.50365239  1
  Ca  Ca2  1  0.25087758  0.50558227  -0.00311616  1
  Ca  Ca3  1  0.24693933  0.50251155  0.50044255  1
  Ca  Ca4  1  0.74812233  0.00154181  0.00089428  1
  Ca  Ca5  1  0.75179714  0.00079300  0.50135048  1
  Ca  Ca6  1  0.75040412  0.50229737  -0.00036390  1
  Ca  Ca7  1  0.75246247  0.50156068  0.49926560  1
  Ca  Ca8  1  -0.00550605  0.24992675  -0.00191648  1
  Ca  Ca9  1  -0.00000074  0.24956801  0.49792652  1
  Ca  Ca10  1  -0.00165321  0.74766545  -0.00006872  1
  Ca  Ca11  1  0.00014686  0.74750663  0.49999571  1
  Ca  Ca12  1  0.50601841  0.24662515  0.00433985  1
  Ca  Ca13  1  0.49909133  0.25074782  0.49580867  1
  Ca  Ca14  1  0.50091260  0.74195620  -0.00207632  1
  Ca  Ca15  1  0.49755502  0.74645412  0.50215977  1
  Ca  Ca16  1  -0.00294291  -0.00343077  0.25467722  1
  Ca  Ca17  1  0.00095796  -0.00311456  0.74606873  1
  Ca  Ca18  1  -0.00556988  0.50324027  0.25973124  1
  Ca  Ca19  1  -0.00175807  0.50317085  0.74805734  1
  Ca  Ca20  1  0.50079312  0.00778272  0.24827145  1
  Ca  Ca21  1  0.50170726  -0.00303302  0.74988721  1
  Ca  Ca22  1  0.50715785  0.49764654  0.25037548  1
  Ca  Ca23  1  0.49988735  0.50325099  0.75210343  1
  Ti  Ti24  1  0.25166123  0.25057908  0.25304152  1
  Ti  Ti25  1  0.24844595  0.25277675  0.74691763  1
  Ti  Ti26  1  0.24921592  0.74880489  0.25082934  1
  Ti  Ti27  1  0.24808880  0.74827456  0.74979598  1
  Ti  Ti28  1  0.74987286  0.25035392  0.24888834  1
  Ti  Ti29  1  0.74998761  0.25112462  0.75081709  1
  Ti  Ti30  1  0.75108938  0.74825828  0.24965429  1
  Ti  Ti31  1  0.75120945  0.74961287  0.74962262  1
  Al  Al32  1  0.08215882  0.08058381  0.07584203  1
  Al  Al33  1  0.08615546  0.08483667  0.58132668  1
  Al  Al34  1  0.08937443  0.58766438  0.07936691  1
  Al  Al35  1  0.08748851  0.59274383  0.57835984  1
  Al  Al36  1  0.59261168  0.09145894  0.09122198  1
  Al  Al37  1  0.58654403  0.07972616  0.57616447  1
  Al  Al38  1  0.59868098  0.58028711  0.08239464  1
  Al  Al39  1  0.59201098  0.58521727  0.57609971  1
  Al  Al40  1  0.42331779  0.41946084  0.08267185  1
  Al  Al41  1  0.40592957  0.42036595  0.57782595  1
  Al  Al42  1  0.41665882  0.92223976  0.07747911  1
  Al  Al43  1  0.41426961  0.91296197  0.57913780  1
  Al  Al44  1  0.90562596  0.41849932  0.07703897  1
  Al  Al45  1  0.90641146  0.41771496  0.57731889  1
  Al  Al46  1  0.91244927  0.91695196  0.08026866  1
  Al  Al47  1  0.92298451  0.90751357  0.58732187  1
  Al  Al48  1  0.41686735  0.09795546  0.41280823  1
  Al  Al49  1  0.42548195  0.07665954  0.92492188  1
  Al  Al50  1  0.41263506  0.58575042  0.42494083  1
  Al  Al51  1  0.40347174  0.58689020  0.91424950  1
  Al  Al52  1  0.91558228  0.07960447  0.41892770  1
  Al  Al53  1  0.91251175  0.08153084  0.91906611  1
  Al  Al54  1  0.90699522  0.58665546  0.41555754  1
  Al  Al55  1  0.90469822  0.58368099  0.91559494  1
  Al  Al56  1  0.08368158  0.41633742  0.42251590  1
  Al  Al57  1  0.08264677  0.42574823  0.91907034  1
  Al  Al58  1  0.08764097  0.90684310  0.42551433  1
  Al  Al59  1  0.08129490  0.91404988  0.91674035  1
  Al  Al60  1  0.59747610  0.41543589  0.41055844  1
  Al  Al61  1  0.59092394  0.42273530  0.92139184  1
  Al  Al62  1  0.58501680  0.92252093  0.42417314  1
  Al  Al63  1  0.58175760  0.92001647  0.92081842  1
  Al  Al64  1  0.08681385  0.08815006  0.42512243  1
  Al  Al65  1  0.08305256  0.08195650  0.91794458  1
  Al  Al66  1  0.08294232  0.59883012  0.41703274  1
  Al  Al67  1  0.09074915  0.58931163  0.92034551  1
  Al  Al68  1  0.57871075  0.09300825  0.40981313  1
  Al  Al69  1  0.58979917  0.08545807  0.92730556  1
  Al  Al70  1  0.60069606  0.57995449  0.41439881  1
  Al  Al71  1  0.59455651  0.58407344  0.91957965  1
  Al  Al72  1  0.41838981  0.41115464  0.42131734  1
  Al  Al73  1  0.41168592  0.42715034  0.91423147  1
  Al  Al74  1  0.41220411  0.91699071  0.42352433  1
  Al  Al75  1  0.41870849  0.91479421  0.91778753  1
  Al  Al76  1  0.90029887  0.41805193  0.41555244  1
  Al  Al77  1  0.90248239  0.42132073  0.91409999  1
  Al  Al78  1  0.91890922  0.91770600  0.41807310  1
  Al  Al79  1  0.91460167  0.91606247  0.91815627  1
  Al  Al80  1  0.08089668  0.42470360  0.08000818  1
  Al  Al81  1  0.08651552  0.41727492  0.57916474  1
  Al  Al82  1  0.08180553  0.91575550  0.07723051  1
  Al  Al83  1  0.08592425  0.90406914  0.58601101  1
  Al  Al84  1  0.59145877  0.41779291  0.09008001  1
  Al  Al85  1  0.59345129  0.41671125  0.57263794  1
  Al  Al86  1  0.59202933  0.92774486  0.08510087  1
  Al  Al87  1  0.58370309  0.91449007  0.58079657  1
  Al  Al88  1  0.43000458  0.09158075  0.08881002  1
  Al  Al89  1  0.41222749  0.08416445  0.57193059  1
  Al  Al90  1  0.41287712  0.58537055  0.07537368  1
  Al  Al91  1  0.40598055  0.58226012  0.58214185  1
  Al  Al92  1  0.91017169  0.08143895  0.08060383  1
  Al  Al93  1  0.91968536  0.08300072  0.58091764  1
  Al  Al94  1  0.90796988  0.58538820  0.07935908  1
  Al  Al95  1  0.91037936  0.58672357  0.58019734  1
  Al  Al96  1  0.25486109  0.13614088  0.13720185  1
  Al  Al97  1  0.24494716  0.13520559  0.63251677  1
  Al  Al98  1  0.24828550  0.63935201  0.12967120  1
  Al  Al99  1  0.24555187  0.63718842  0.62825508  1
  Al  Al100  1  0.74606714  0.13197278  0.13073517  1
  Al  Al101  1  0.75144417  0.13137395  0.62926416  1
  Al  Al102  1  0.74838237  0.63077157  0.13296552  1
  Al  Al103  1  0.75215681  0.63553541  0.62876294  1
  Al  Al104  1  0.25193724  0.35912294  0.13622613  1
  Al  Al105  1  0.24790056  0.36536762  0.62683117  1
  Al  Al106  1  0.24940669  0.86206307  0.13401033  1
  Al  Al107  1  0.24515220  0.86307872  0.63337759  1
  Al  Al108  1  0.74704903  0.36630165  0.13091046  1
  Al  Al109  1  0.74934210  0.36550345  0.63052288  1
  Al  Al110  1  0.75122275  0.86832952  0.13618242  1
  Al  Al111  1  0.75333878  0.86996090  0.63534436  1
  Al  Al112  1  0.25001180  0.13290973  0.36666545  1
  Al  Al113  1  0.25044079  0.13454289  0.86366155  1
  Al  Al114  1  0.24637625  0.63328726  0.36919583  1
  Al  Al115  1  0.25153633  0.63142081  0.86592082  1
  Al  Al116  1  0.74802853  0.13726000  0.37114910  1
  Al  Al117  1  0.74957509  0.13609508  0.87158600  1
  Al  Al118  1  0.75304555  0.63264963  0.36730720  1
  Al  Al119  1  0.75236149  0.63514297  0.87008035  1
  Al  Al120  1  0.25239984  0.36618967  0.37117865  1
  Al  Al121  1  0.24863155  0.37189037  0.86299884  1
  Al  Al122  1  0.24583368  0.86304614  0.36701743  1
  Al  Al123  1  0.24582300  0.86364744  0.86586448  1
  Al  Al124  1  0.74812284  0.36771271  0.36674137  1
  Al  Al125  1  0.75237225  0.36519532  0.87349475  1
  Al  Al126  1  0.75183103  0.86300647  0.36357908  1
  Al  Al127  1  0.74963262  0.86480818  0.86473674  1
  Al  Al128  1  0.13366707  0.25103394  0.13798042  1
  Al  Al129  1  0.13594738  0.25176394  0.62667608  1
  Al  Al130  1  0.13319613  0.74747602  0.13128031  1
  Al  Al131  1  0.13564724  0.75090045  0.62866664  1
  Al  Al132  1  0.63501260  0.25039887  0.13136839  1
  Al  Al133  1  0.63731774  0.25009481  0.62758362  1
  Al  Al134  1  0.63573473  0.74316602  0.13323309  1
  Al  Al135  1  0.63825087  0.74505304  0.63454734  1
  Al  Al136  1  0.13820851  0.24998635  0.37267365  1
  Al  Al137  1  0.13349862  0.25324610  0.86110511  1
  Al  Al138  1  0.13304024  0.74826137  0.36989712  1
  Al  Al139  1  0.13512985  0.74448772  0.86941489  1
  Al  Al140  1  0.63609775  0.25020022  0.36635994  1
  Al  Al141  1  0.63820117  0.25267829  0.87302842  1
  Al  Al142  1  0.63786291  0.74409314  0.36434487  1
  Al  Al143  1  0.63833504  0.74685665  0.86785773  1
  Al  Al144  1  0.37407381  0.24967828  0.14013345  1
  Al  Al145  1  0.36460801  0.25442928  0.63246393  1
  Al  Al146  1  0.36750008  0.74425527  0.13352979  1
  Al  Al147  1  0.35976732  0.74518118  0.63327543  1
  Al  Al148  1  0.86109841  0.24974680  0.12865311  1
  Al  Al149  1  0.85911228  0.25153752  0.62838421  1
  Al  Al150  1  0.86337819  0.74423856  0.13635545  1
  Al  Al151  1  0.86443157  0.74801502  0.63360290  1
  Al  Al152  1  0.36916683  0.24830361  0.36469544  1
  Al  Al153  1  0.36223143  0.25271627  0.86251888  1
  Al  Al154  1  0.36308896  0.74500299  0.36729828  1
  Al  Al155  1  0.36344956  0.74532300  0.86702780  1
  Al  Al156  1  0.85958802  0.25348441  0.37156900  1
  Al  Al157  1  0.86337851  0.25068280  0.87119355  1
  Al  Al158  1  0.87024052  0.74556828  0.36728933  1
  Al  Al159  1  0.86647157  0.74773705  0.86517843  1
  Al  Al160  1  0.13785613  0.13729230  0.25170457  1
  Al  Al161  1  0.13554256  0.13783569  0.75062908  1
  Al  Al162  1  0.13331075  0.63549627  0.25497864  1
  Al  Al163  1  0.13739007  0.63036849  0.74940489  1
  Al  Al164  1  0.63465619  0.13785017  0.24669220  1
  Al  Al165  1  0.63960268  0.13931254  0.74757508  1
  Al  Al166  1  0.63933948  0.62718855  0.25146324  1
  Al  Al167  1  0.64140616  0.63325200  0.75035293  1
  Al  Al168  1  0.36752754  0.13445618  0.25248261  1
  Al  Al169  1  0.36087811  0.13950623  0.74696157  1
  Al  Al170  1  0.36343394  0.63259410  0.25282949  1
  Al  Al171  1  0.36101761  0.63267044  0.75187358  1
  Al  Al172  1  0.85881402  0.13824218  0.24732268  1
  Al  Al173  1  0.86127198  0.13873985  0.74938083  1
  Al  Al174  1  0.86407064  0.62913651  0.25488764  1
  Al  Al175  1  0.86269330  0.63330689  0.75230158  1
  Al  Al176  1  0.13717850  0.36548280  0.25623402  1
  Al  Al177  1  0.13430509  0.37173707  0.74820434  1
  Al  Al178  1  0.12826497  0.85824541  0.25176420  1
  Al  Al179  1  0.12716891  0.85745800  0.74795097  1
  Al  Al180  1  0.63759187  0.36656822  0.25022943  1
  Al  Al181  1  0.63865264  0.36268095  0.75056602  1
  Al  Al182  1  0.63748451  0.86395384  0.24570346  1
  Al  Al183  1  0.63721366  0.86150580  0.74788398  1
  Al  Al184  1  0.36791289  0.36811263  0.25532865  1
  Al  Al185  1  0.36438279  0.36710844  0.75115149  1
  Al  Al186  1  0.36177435  0.86740581  0.24978544  1
  Al  Al187  1  0.36099604  0.86056147  0.75108416  1
  Al  Al188  1  0.85924533  0.36712485  0.25329971  1
  Al  Al189  1  0.86187871  0.36544034  0.75370693  1
  Al  Al190  1  0.86882645  0.85943403  0.25034419  1
  Al  Al191  1  0.86961283  0.86131997  0.74752956  1
  Al  Al192  1  0.49839779  0.82615766  0.67395628  1
  Al  Al193  1  0.33122717  0.17303263  0.00053817  1
  Al  Al194  1  0.50279015  0.17274793  0.82905079  1
  Al  Al195  1  0.67141657  0.00181589  0.82136090  1
  Al  Al196  1  0.17659515  0.18066314  -0.00028455  1
  Al  Al197  1  0.82437298  -0.00077754  0.82051878  1
  Al  Al198  1  -0.00438684  0.32841190  0.17151138  1
  Al  Al199  1  0.32577317  -0.00086829  0.67032014  1
  Al  Al200  1  0.50171268  0.67058621  0.82947159  1
  Al  Al201  1  0.50190597  0.82711534  0.16870178  1
  Al  Al202  1  0.82519377  -0.00036342  0.31670322  1
  Al  Al203  1  0.49989363  0.32761347  0.66239047  1
  Al  Al204  1  -0.00427156  0.32390149  0.66932495  1
  Al  Al205  1  0.17109399  -0.00215433  0.67871096  1
  Al  Al206  1  0.81775275  0.49958246  0.18119670  1
  Al  Al207  1  0.30980490  0.19095502  0.49947338  1
  Al  Al208  1  0.31633964  0.49981154  0.68344062  1
  Al  Al209  1  0.50069762  0.33051755  0.82867063  1
  Al  Al210  1  0.67555312  0.81766068  0.00176833  1
  Al  Al211  1  -0.00005893  0.67611301  0.82672599  1
  Al  Al212  1  0.69082800  0.49915836  0.81754419  1
  Al  Al213  1  0.32386931  0.50299539  0.17557201  1
  Al  Al214  1  0.50252790  0.67020064  0.32693869  1
  Al  Al215  1  -0.00291828  0.32790572  0.33010190  1
  Al  Al216  1  0.67373028  0.81261989  0.49985619  1
  Al  Al217  1  0.17758232  -0.00136155  0.33072830  1
  Al  Al218  1  0.50273063  0.32396730  0.32080205  1
  Al  Al219  1  0.50112240  0.82473775  0.82633388  1
  Al  Al220  1  0.32094039  0.81613157  0.00327792  1
  Al  Al221  1  -0.00127828  0.17426101  0.32962176  1
  Al  Al222  1  0.00011104  0.17495799  0.67786914  1
  Al  Al223  1  0.00022731  0.68402612  0.67131063  1
  Al  Al224  1  0.49936152  0.67235370  0.67705643  1
  Al  Al225  1  0.82489382  0.81606986  0.49900379  1
  Al  Al226  1  0.50317628  0.82699960  0.32865211  1
  Al  Al227  1  0.82029625  0.50026422  0.68338812  1
  Al  Al228  1  -0.00177929  0.17497924  0.17246081  1
  Al  Al229  1  0.82686628  0.81275020  0.00049292  1
  Al  Al230  1  0.49983062  0.17382330  0.66989640  1
  Al  Al231  1  0.32269080  0.00085415  0.82738094  1
  Al  Al232  1  -0.00080950  0.67486457  0.18183781  1
  Al  Al233  1  0.31232312  0.81395416  0.50033551  1
  Al  Al234  1  -0.00233398  0.33170196  0.82520675  1
  Al  Al235  1  0.17690240  0.00065749  0.17385093  1
  Al  Al236  1  0.31988074  0.32939220  -0.00110607  1
  Al  Al237  1  0.17825646  0.50051202  0.17732133  1
  Al  Al238  1  0.66957078  0.00228586  0.31350453  1
  Au  Au239  1  -0.00244861  0.83763158  0.17039843  1
  Au  Au240  1  0.33851407  0.00736428  0.16658823  1
  Au  Au241  1  -0.00409071  0.33264116  0.65896536  1
  Au  Au242  1  0.81996459  0.50060744  0.16853286  1
  Au  Au243  1  0.32985525  0.82485829  0.00039724  1
  Au  Au244  1  -0.00429256  0.34095197  0.17444562  1
  Au  Au245  1  0.16416933  0.32825890  -0.00068411  1
  Au  Au246  1  0.18014793  0.32221770  0.49800995  1
  Au  Au247  1  0.33201833  0.32583578  0.00025644  1
  Au  Au248  1  0.66694345  -0.00274810  0.67143729  1
  Au  Au249  1  0.50527673  0.66317501  0.15921916  1
  Au  Au250  1  -0.00271327  0.83538393  0.82341918  1
  Au  Au251  1  0.50152798  0.83968255  0.17065188  1
  Au  Au252  1  0.82837960  0.82831600  0.49886341  1
  Au  Au253  1  0.17860104  0.50249356  0.83440712  1
  Au  Au254  1  0.83414330  0.17511297  0.49952307  1
  Au  Au255  1  0.84046038  -0.00081371  0.67259111  1
  Au  Au256  1  0.33248448  0.50090860  0.16703662  1
  Au  Au257  1  0.50146517  0.32056398  0.33300982  1
  Au  Au258  1  0.82365744  -0.00128162  0.16692239  1
  Au  Au259  1  0.49914561  0.16119513  0.67284401  1
  Au  Au260  1  0.82517282  0.17358309  -0.00032022  1
  Au  Au261  1  0.16577814  -0.00209674  0.33475965  1
  Au  Au262  1  0.16992281  0.50046211  0.16827943  1
  Au  Au263  1  0.17017426  0.50373053  0.66478236  1
  Au  Au264  1  0.16596667  -0.00395580  0.16983681  1
  Au  Au265  1  -0.00251167  0.15865044  0.82680053  1
  Au  Au266  1  0.49738440  0.83075404  0.33900815  1
  Au  Au267  1  0.33030505  0.49763009  0.34227831  1
  Au  Au268  1  -0.00117731  0.66475860  0.16840636  1
  Au  Au269  1  0.66420657  0.17853145  0.49780121  1
  Au  Au270  1  0.50323486  0.33098405  0.84122957  1
  Au  Au271  1  0.33528349  0.00277079  0.33564423  1
  Au  Au272  1  0.00152593  0.82305650  0.33895312  1
  Au  Au273  1  -0.00333289  0.33014702  0.83768858  1
  Au  Au274  1  0.67131182  0.00098976  0.33038272  1
  Au  Au275  1  0.49969200  0.34009080  0.66477967  1
  Au  Au276  1  0.67349587  0.49968483  0.66752069  1
  Au  Au277  1  0.50270686  0.66109941  0.33169472  1
  Au  Au278  1  0.16461222  0.81813953  -0.00060561  1
  Au  Au279  1  -0.00225469  0.66398662  0.82891657  1
  Au  Au280  1  0.50472582  0.32430991  0.16755474  1
  Au  Au281  1  0.67224517  0.83009116  0.00118237  1
  Au  Au282  1  0.49801524  0.66928305  0.66136128  1
  Au  Au283  1  0.15982254  0.50389201  0.33374618  1
  Au  Au284  1  0.16745369  -0.00216285  0.82905320  1
  Au  Au285  1  0.33455094  0.00289906  0.82353770  1
  Au  Au286  1  0.67663962  0.33136476  0.00202476  1
  Au  Au287  1  -0.00045572  0.16258182  0.17530499  1
