# generated using pymatgen
data_Ca24Ti8Al207Au49
_symmetry_space_group_name_H-M   'P 1'
_cell_length_a   17.31922172
_cell_length_b   17.31555128
_cell_length_c   17.31734299
_cell_angle_alpha   90.00190246
_cell_angle_beta   89.99598642
_cell_angle_gamma   89.99364742
_symmetry_Int_Tables_number   1
_chemical_formula_structural   Ca24Ti8Al207Au49
_chemical_formula_sum   'Ca24 Ti8 Al207 Au49'
_cell_volume   5193.33035558
_cell_formula_units_Z   1
loop_
 _symmetry_equiv_pos_site_id
 _symmetry_equiv_pos_as_xyz
  1  'x, y, z'
loop_
 _atom_site_type_symbol
 _atom_site_label
 _atom_site_symmetry_multiplicity
 _atom_site_fract_x
 _atom_site_fract_y
 _atom_site_fract_z
 _atom_site_occupancy
  Ca  Ca0  1  0.25007002  0.00127404  -0.00163906  1
  Ca  Ca1  1  0.24735718  0.00152308  0.50056489  1
  Ca  Ca2  1  0.24704714  0.49748547  0.00069125  1
  Ca  Ca3  1  0.24362052  0.50029276  0.49964472  1
  Ca  Ca4  1  0.74893985  0.00312222  -0.00223505  1
  Ca  Ca5  1  0.75398447  0.00687545  0.50627218  1
  Ca  Ca6  1  0.75201871  0.49755092  -0.00501473  1
  Ca  Ca7  1  0.75403850  0.49768988  0.50235196  1
  Ca  Ca8  1  0.00350829  0.25086249  -0.00254058  1
  Ca  Ca9  1  -0.00433620  0.25200972  0.50166175  1
  Ca  Ca10  1  0.00528136  0.74559250  -0.00087007  1
  Ca  Ca11  1  0.00238011  0.74632045  0.50148586  1
  Ca  Ca12  1  0.49724414  0.25018622  -0.00545074  1
  Ca  Ca13  1  0.50429730  0.24724863  0.50705921  1
  Ca  Ca14  1  0.49958685  0.75001991  0.00230158  1
  Ca  Ca15  1  0.49892428  0.75080916  0.49567196  1
  Ca  Ca16  1  0.00180518  0.00010869  0.25036653  1
  Ca  Ca17  1  -0.00032550  0.00164075  0.74829729  1
  Ca  Ca18  1  -0.00471636  0.50009050  0.25544699  1
  Ca  Ca19  1  -0.00223238  0.49429071  0.75012800  1
  Ca  Ca20  1  0.49563686  -0.00276903  0.24790017  1
  Ca  Ca21  1  0.50045154  0.00504014  0.74903146  1
  Ca  Ca22  1  0.49993985  0.50249094  0.24932454  1
  Ca  Ca23  1  0.50403652  0.49268789  0.75456421  1
  Ti  Ti24  1  0.25065288  0.25002931  0.24863344  1
  Ti  Ti25  1  0.24964592  0.24889441  0.75087458  1
  Ti  Ti26  1  0.25190129  0.75121863  0.24909801  1
  Ti  Ti27  1  0.25235852  0.75296617  0.75031438  1
  Ti  Ti28  1  0.75045426  0.25087835  0.25069266  1
  Ti  Ti29  1  0.74980576  0.25064929  0.74994064  1
  Ti  Ti30  1  0.74833081  0.74797683  0.25086289  1
  Ti  Ti31  1  0.74725105  0.74988669  0.74837387  1
  Al  Al32  1  0.09471957  0.08949362  0.07540841  1
  Al  Al33  1  0.08116168  0.07767057  0.59331956  1
  Al  Al34  1  0.07400169  0.58905813  0.08344118  1
  Al  Al35  1  0.07092159  0.58887071  0.58259684  1
  Al  Al36  1  0.57773432  0.08014211  0.07135831  1
  Al  Al37  1  0.58649008  0.09634004  0.59000090  1
  Al  Al38  1  0.57282963  0.58577291  0.08927519  1
  Al  Al39  1  0.58109096  0.58443820  0.59332857  1
  Al  Al40  1  0.41672325  0.41947857  0.07283314  1
  Al  Al41  1  0.42956577  0.41200357  0.58504261  1
  Al  Al42  1  0.41146559  0.91541619  0.09698099  1
  Al  Al43  1  0.41282123  0.92260512  0.58612025  1
  Al  Al44  1  0.91058666  0.42012697  0.09240301  1
  Al  Al45  1  0.91823907  0.41031253  0.58125641  1
  Al  Al46  1  0.92162666  0.91371272  0.07602461  1
  Al  Al47  1  0.91957555  0.92584751  0.59265778  1
  Al  Al48  1  0.41886752  0.07274697  0.42207355  1
  Al  Al49  1  0.41630003  0.09509127  0.91369958  1
  Al  Al50  1  0.42096347  0.58747237  0.41060347  1
  Al  Al51  1  0.41580918  0.59031897  0.92450841  1
  Al  Al52  1  0.91556282  0.09508063  0.42794783  1
  Al  Al53  1  0.92179197  0.08937849  0.90521348  1
  Al  Al54  1  0.90813039  0.58656437  0.41179830  1
  Al  Al55  1  0.92311972  0.57410992  0.91417077  1
  Al  Al56  1  0.08329140  0.41567399  0.42146445  1
  Al  Al57  1  0.08352548  0.40255024  0.91387466  1
  Al  Al58  1  0.09280904  0.91212219  0.42633146  1
  Al  Al59  1  0.08148257  0.92768951  0.92013751  1
  Al  Al60  1  0.59163132  0.41320739  0.42929932  1
  Al  Al61  1  0.59101905  0.40590109  0.90612435  1
  Al  Al62  1  0.57025435  0.92218422  0.40903513  1
  Al  Al63  1  0.57975216  0.92573590  0.92100635  1
  Al  Al64  1  0.07437318  0.07573713  0.41904726  1
  Al  Al65  1  0.08546410  0.09786949  0.91226382  1
  Al  Al66  1  0.07494126  0.58087412  0.41872879  1
  Al  Al67  1  0.08072151  0.58166007  0.92005758  1
  Al  Al68  1  0.58793316  0.08704395  0.42797547  1
  Al  Al69  1  0.57833237  0.09464482  0.90630658  1
  Al  Al70  1  0.57806303  0.58420961  0.41074048  1
  Al  Al71  1  0.58719345  0.56977299  0.90989918  1
  Al  Al72  1  0.41979608  0.42347600  0.42260889  1
  Al  Al73  1  0.42645631  0.40549789  0.91207485  1
  Al  Al74  1  0.41457339  0.91112950  0.40822568  1
  Al  Al75  1  0.41705159  0.92355409  0.92235458  1
  Al  Al76  1  0.90930458  0.41972741  0.41448816  1
  Al  Al77  1  0.91975739  0.40930078  0.91137178  1
  Al  Al78  1  0.92902673  0.92310726  0.42763708  1
  Al  Al79  1  0.91180098  0.92664651  0.91734059  1
  Al  Al80  1  0.08194925  0.40976500  0.07552959  1
  Al  Al81  1  0.07918961  0.40185486  0.58185721  1
  Al  Al82  1  0.08400014  0.92200515  0.08450622  1
  Al  Al83  1  0.09300538  0.91263648  0.58868844  1
  Al  Al84  1  0.59013077  0.41285938  0.06721570  1
  Al  Al85  1  0.58959487  0.40420370  0.58928612  1
  Al  Al86  1  0.57145276  0.90853735  0.08630220  1
  Al  Al87  1  0.57734018  0.92895738  0.58533636  1
  Al  Al88  1  0.40501665  0.07611885  0.07720452  1
  Al  Al89  1  0.41944463  0.08638632  0.59437737  1
  Al  Al90  1  0.41520349  0.60229995  0.08646817  1
  Al  Al91  1  0.42591690  0.58980224  0.58462074  1
  Al  Al92  1  0.92876386  0.07684811  0.06975889  1
  Al  Al93  1  0.90986733  0.08920072  0.59021854  1
  Al  Al94  1  0.91429367  0.58165595  0.10387337  1
  Al  Al95  1  0.91158742  0.59093165  0.57732698  1
  Al  Al96  1  0.24843404  0.13079238  0.13485976  1
  Al  Al97  1  0.24577029  0.13758448  0.63727109  1
  Al  Al98  1  0.25435944  0.63382771  0.13477154  1
  Al  Al99  1  0.25292825  0.63821386  0.63793079  1
  Al  Al100  1  0.75105852  0.13679750  0.13142224  1
  Al  Al101  1  0.75124510  0.13180050  0.63904092  1
  Al  Al102  1  0.75042931  0.63294303  0.13694430  1
  Al  Al103  1  0.75041103  0.63338864  0.63481106  1
  Al  Al104  1  0.24961212  0.36500872  0.12788784  1
  Al  Al105  1  0.24877113  0.36393993  0.63725701  1
  Al  Al106  1  0.25519751  0.87433950  0.13808624  1
  Al  Al107  1  0.24786894  0.86513637  0.62910583  1
  Al  Al108  1  0.75344429  0.36433598  0.13294738  1
  Al  Al109  1  0.74782459  0.36497139  0.62870915  1
  Al  Al110  1  0.75053279  0.86376220  0.13889965  1
  Al  Al111  1  0.75036748  0.86978261  0.63490412  1
  Al  Al112  1  0.24975157  0.13609867  0.36358213  1
  Al  Al113  1  0.24677377  0.13016421  0.86327367  1
  Al  Al114  1  0.25155279  0.63750032  0.36153748  1
  Al  Al115  1  0.25398338  0.63595919  0.86084068  1
  Al  Al116  1  0.75169314  0.13915680  0.36596528  1
  Al  Al117  1  0.74437175  0.13818771  0.86735892  1
  Al  Al118  1  0.75712758  0.63358053  0.36740435  1
  Al  Al119  1  0.74407202  0.62603869  0.86025732  1
  Al  Al120  1  0.25194873  0.36431600  0.36584248  1
  Al  Al121  1  0.24788597  0.35967874  0.87048914  1
  Al  Al122  1  0.25315580  0.86353954  0.36594957  1
  Al  Al123  1  0.25171964  0.87392583  0.86256875  1
  Al  Al124  1  0.75217430  0.36261808  0.37287436  1
  Al  Al125  1  0.74901519  0.36584205  0.86746564  1
  Al  Al126  1  0.74851551  0.86244263  0.36174902  1
  Al  Al127  1  0.74539996  0.86528329  0.86163115  1
  Al  Al128  1  0.13766599  0.24926161  0.13010287  1
  Al  Al129  1  0.13122651  0.25387474  0.63288865  1
  Al  Al130  1  0.13777940  0.74737016  0.13413818  1
  Al  Al131  1  0.13705296  0.75326704  0.63488958  1
  Al  Al132  1  0.63647970  0.25198553  0.12902952  1
  Al  Al133  1  0.63520963  0.24886421  0.63893964  1
  Al  Al134  1  0.63691958  0.74918856  0.13148085  1
  Al  Al135  1  0.62881172  0.74616155  0.63700782  1
  Al  Al136  1  0.13580602  0.25520978  0.36757972  1
  Al  Al137  1  0.13493225  0.24687344  0.86745450  1
  Al  Al138  1  0.13781007  0.75343451  0.36391423  1
  Al  Al139  1  0.13832938  0.75158779  0.85991535  1
  Al  Al140  1  0.63487915  0.25209724  0.36827185  1
  Al  Al141  1  0.63125353  0.25262966  0.86386235  1
  Al  Al142  1  0.62861552  0.74389826  0.36232937  1
  Al  Al143  1  0.63424155  0.74695036  0.86353421  1
  Al  Al144  1  0.36625915  0.25149995  0.13293468  1
  Al  Al145  1  0.36665235  0.24639326  0.63733121  1
  Al  Al146  1  0.36380175  0.75141086  0.13170728  1
  Al  Al147  1  0.36855105  0.75462634  0.63466598  1
  Al  Al148  1  0.86577077  0.25318714  0.13258404  1
  Al  Al149  1  0.86084760  0.24953836  0.62809220  1
  Al  Al150  1  0.86582232  0.74455344  0.13875276  1
  Al  Al151  1  0.86403868  0.74624418  0.63673853  1
  Al  Al152  1  0.36730457  0.25114743  0.36202126  1
  Al  Al153  1  0.36697029  0.24850913  0.86520637  1
  Al  Al154  1  0.37324488  0.75036053  0.36092875  1
  Al  Al155  1  0.36532680  0.75164105  0.87041800  1
  Al  Al156  1  0.86442263  0.25322213  0.37061653  1
  Al  Al157  1  0.86423680  0.25070122  0.86465466  1
  Al  Al158  1  0.86474765  0.74948613  0.36643095  1
  Al  Al159  1  0.85803208  0.74733332  0.86134162  1
  Al  Al160  1  0.13591342  0.13752857  0.24894883  1
  Al  Al161  1  0.13183898  0.13453334  0.75063228  1
  Al  Al162  1  0.13473409  0.63630324  0.24793562  1
  Al  Al163  1  0.13571516  0.63778340  0.74623204  1
  Al  Al164  1  0.63357041  0.14068837  0.24779835  1
  Al  Al165  1  0.63191512  0.13500564  0.75052721  1
  Al  Al166  1  0.63538084  0.63021214  0.25228254  1
  Al  Al167  1  0.63177792  0.63113923  0.74830798  1
  Al  Al168  1  0.36617191  0.13563396  0.24536694  1
  Al  Al169  1  0.36875356  0.13705629  0.75261642  1
  Al  Al170  1  0.36652403  0.63154060  0.25054994  1
  Al  Al171  1  0.37229824  0.63836380  0.74870423  1
  Al  Al172  1  0.86344853  0.13639182  0.24850499  1
  Al  Al173  1  0.86537869  0.13724225  0.74970274  1
  Al  Al174  1  0.86458458  0.63170950  0.25180868  1
  Al  Al175  1  0.86448294  0.63292852  0.74941312  1
  Al  Al176  1  0.13807931  0.36317199  0.24908902  1
  Al  Al177  1  0.13451577  0.36079945  0.75086666  1
  Al  Al178  1  0.13517566  0.86542452  0.24471320  1
  Al  Al179  1  0.14035047  0.87503194  0.74600667  1
  Al  Al180  1  0.63664184  0.36350046  0.25223971  1
  Al  Al181  1  0.63667936  0.36793622  0.75257811  1
  Al  Al182  1  0.62885460  0.86042377  0.24878827  1
  Al  Al183  1  0.63307156  0.87166491  0.74433194  1
  Al  Al184  1  0.36353512  0.37019892  0.24622048  1
  Al  Al185  1  0.36507967  0.36234244  0.75300913  1
  Al  Al186  1  0.37285230  0.86183515  0.24715487  1
  Al  Al187  1  0.36617632  0.86660944  0.74879460  1
  Al  Al188  1  0.86183947  0.36706575  0.25340628  1
  Al  Al189  1  0.86280205  0.36290486  0.74721180  1
  Al  Al190  1  0.86708967  0.86426361  0.24936632  1
  Al  Al191  1  0.86255017  0.86616590  0.74593528  1
  Al  Al192  1  0.00082948  0.83110716  0.82601495  1
  Al  Al193  1  0.17119751  0.49849431  0.82690518  1
  Al  Al194  1  0.32471902  -0.00008971  0.31435686  1
  Al  Al195  1  0.16999662  0.49922467  0.67013995  1
  Al  Al196  1  0.16691177  0.18002561  0.49981108  1
  Al  Al197  1  0.68186389  0.49661191  0.17026014  1
  Al  Al198  1  0.00087350  0.67282124  0.81442409  1
  Al  Al199  1  0.32587368  0.17228444  0.50052920  1
  Al  Al200  1  0.31686205  0.33120390  0.50268964  1
  Al  Al201  1  0.49890712  0.17422074  0.32834299  1
  Al  Al202  1  0.83074894  0.66738728  -0.00001612  1
  Al  Al203  1  0.50065901  0.69745110  0.19531293  1
  Al  Al204  1  0.82609471  0.17861936  0.00105853  1
  Al  Al205  1  0.81899493  0.82398943  -0.00088711  1
  Al  Al206  1  0.69240331  0.19148080  0.50303160  1
  Al  Al207  1  0.67357019  -0.00022523  0.17150619  1
  Al  Al208  1  0.18309245  0.67093893  -0.00198183  1
  Al  Al209  1  -0.00063797  0.30642106  0.80837803  1
  Al  Al210  1  0.31182299  0.00195860  0.68080054  1
  Al  Al211  1  0.67058968  0.67548396  -0.00208007  1
  Al  Al212  1  0.00040129  0.81253621  0.17910746  1
  Al  Al213  1  0.66788503  0.83197279  0.49794806  1
  Al  Al214  1  0.50081170  0.82016397  0.82025427  1
  Al  Al215  1  0.32596698  0.68333772  0.49933485  1
  Al  Al216  1  -0.00212368  0.19140977  0.68583187  1
  Al  Al217  1  -0.00000756  0.67907806  0.31663948  1
  Al  Al218  1  0.00103039  0.81609371  0.67414728  1
  Al  Al219  1  0.17823738  0.50065473  0.32659270  1
  Al  Al220  1  0.32730331  0.50125524  0.83104897  1
  Al  Al221  1  0.68979669  0.49812257  0.32928466  1
  Al  Al222  1  0.68146137  0.67011844  0.49912710  1
  Al  Al223  1  0.18411640  0.82662520  -0.00000770  1
  Al  Al224  1  -0.00008761  0.32505727  0.18146656  1
  Al  Al225  1  -0.00061935  0.18183219  0.32444866  1
  Al  Al226  1  0.17130599  0.67970386  0.49929767  1
  Al  Al227  1  0.00124494  0.17116798  0.16942769  1
  Al  Al228  1  0.67439803  0.00270078  0.32720882  1
  Al  Al229  1  0.83031549  0.81823835  0.50360953  1
  Al  Al230  1  0.17086410  0.49991550  0.16853105  1
  Al  Al231  1  0.17268296  -0.00048520  0.32224731  1
  Al  Al232  1  0.83366740  0.00166275  0.32872546  1
  Al  Al233  1  0.81904900  0.00246511  0.81338220  1
  Al  Al234  1  0.50281983  0.32524484  0.17522212  1
  Al  Al235  1  0.33166619  0.50151028  0.67316047  1
  Al  Al236  1  0.82609770  0.50107043  0.67521804  1
  Al  Al237  1  0.31065633  0.17937633  -0.00062133  1
  Al  Al238  1  0.50140621  0.31071964  0.68969376  1
  Au  Au239  1  0.82319950  0.32272567  0.50073124  1
  Au  Au240  1  0.66471464  0.66432394  -0.00187049  1
  Au  Au241  1  0.66523117  0.66538539  0.50079642  1
  Au  Au242  1  0.15833628  0.49990278  0.17143768  1
  Au  Au243  1  0.33316718  0.32566781  0.50274940  1
  Au  Au244  1  0.84405199  0.82710379  0.50768944  1
  Au  Au245  1  0.67110504  0.83924137  0.00072715  1
  Au  Au246  1  0.32564802  0.32581735  -0.00268751  1
  Au  Au247  1  0.84765938  0.67186143  0.00213809  1
  Au  Au248  1  0.50178646  0.81813086  0.31819420  1
  Au  Au249  1  0.50351497  0.33610762  0.16230619  1
  Au  Au250  1  0.67250157  0.00373308  0.83400908  1
  Au  Au251  1  0.83991039  0.00042219  0.16175673  1
  Au  Au252  1  0.65715154  -0.00323742  0.17448056  1
  Au  Au253  1  0.33520361  0.00409829  0.82734584  1
  Au  Au254  1  0.67566799  0.00422394  0.66805818  1
  Au  Au255  1  0.66778978  0.84877115  0.49325298  1
  Au  Au256  1  0.50015109  0.83262881  0.83165469  1
  Au  Au257  1  0.82626394  0.49720456  0.83145245  1
  Au  Au258  1  0.15425204  0.49802084  0.66700268  1
  Au  Au259  1  0.82801169  0.00392139  0.34462556  1
  Au  Au260  1  0.83479358  0.16994641  -0.00118225  1
  Au  Au261  1  0.66256661  0.49757950  0.67779436  1
  Au  Au262  1  0.67734447  0.49813418  0.15441051  1
  Au  Au263  1  0.50163674  0.65742113  0.82420257  1
  Au  Au264  1  0.17515379  0.00296677  0.17176225  1
  Au  Au265  1  0.49981668  0.82498623  0.65847486  1
  Au  Au266  1  0.16772340  0.82548069  -0.00434017  1
  Au  Au267  1  0.34315825  0.49706850  0.66982308  1
  Au  Au268  1  0.16595110  0.16320877  0.50004351  1
  Au  Au269  1  0.16237267  0.00507062  0.82307562  1
  Au  Au270  1  -0.00233662  0.17595179  0.67928145  1
  Au  Au271  1  0.32912451  0.66712904  0.49956325  1
  Au  Au272  1  0.50356763  0.33132770  0.34249868  1
  Au  Au273  1  0.82809634  0.33538534  0.00136345  1
  Au  Au274  1  0.32981061  0.50013747  0.33260768  1
  Au  Au275  1  0.49307754  0.15917851  0.16343899  1
  Au  Au276  1  0.83637695  0.49662593  0.66994612  1
  Au  Au277  1  -0.00028678  0.33263614  0.33199734  1
  Au  Au278  1  0.66077488  0.18033369  -0.00299278  1
  Au  Au279  1  0.32201495  0.84260765  0.49964810  1
  Au  Au280  1  0.33480333  0.50344605  0.16156674  1
  Au  Au281  1  -0.00003283  0.82076871  0.16429147  1
  Au  Au282  1  0.67430393  0.49688003  0.33599290  1
  Au  Au283  1  0.33090170  0.49641490  0.84202144  1
  Au  Au284  1  -0.00981532  0.82287050  0.83554973  1
  Au  Au285  1  0.00587282  0.82687545  0.34116339  1
  Au  Au286  1  0.50031572  0.16509473  0.33688391  1
  Au  Au287  1  0.34077718  0.82582981  0.00361052  1
