# generated using pymatgen
data_Ca24Ti8Al207Au49
_symmetry_space_group_name_H-M   'P 1'
_cell_length_a   17.32228845
_cell_length_b   17.32163720
_cell_length_c   17.32233993
_cell_angle_alpha   90.00134120
_cell_angle_beta   90.00281163
_cell_angle_gamma   89.99670357
_symmetry_Int_Tables_number   1
_chemical_formula_structural   Ca24Ti8Al207Au49
_chemical_formula_sum   'Ca24 Ti8 Al207 Au49'
_cell_volume   5197.57493828
_cell_formula_units_Z   1
loop_
 _symmetry_equiv_pos_site_id
 _symmetry_equiv_pos_as_xyz
  1  'x, y, z'
loop_
 _atom_site_type_symbol
 _atom_site_label
 _atom_site_symmetry_multiplicity
 _atom_site_fract_x
 _atom_site_fract_y
 _atom_site_fract_z
 _atom_site_occupancy
  Ca  Ca0  1  0.24833520  0.00126006  -0.00068785  1
  Ca  Ca1  1  0.24971215  -0.00193682  0.50367833  1
  Ca  Ca2  1  0.24862993  0.50060111  -0.00222022  1
  Ca  Ca3  1  0.25403130  0.50155089  0.49983304  1
  Ca  Ca4  1  0.74567239  -0.00212086  -0.00592418  1
  Ca  Ca5  1  0.75052824  -0.00085621  0.50495320  1
  Ca  Ca6  1  0.74915156  0.50156100  0.00342374  1
  Ca  Ca7  1  0.75258050  0.50127211  0.49745668  1
  Ca  Ca8  1  0.00173453  0.25357494  0.00027739  1
  Ca  Ca9  1  -0.00169807  0.24962081  0.49661132  1
  Ca  Ca10  1  -0.00123531  0.74468754  -0.00536814  1
  Ca  Ca11  1  -0.00157197  0.75224127  0.50893046  1
  Ca  Ca12  1  0.50085008  0.25371842  0.00049963  1
  Ca  Ca13  1  0.50065700  0.25313999  0.49964636  1
  Ca  Ca14  1  0.50038447  0.74996855  0.00050027  1
  Ca  Ca15  1  0.50044521  0.74988927  0.49807467  1
  Ca  Ca16  1  0.00211369  0.00571500  0.24580859  1
  Ca  Ca17  1  0.00270326  0.00076349  0.75240259  1
  Ca  Ca18  1  -0.00001332  0.49625853  0.24497483  1
  Ca  Ca19  1  -0.00119127  0.49913010  0.75800221  1
  Ca  Ca20  1  0.50289958  0.00037623  0.24452772  1
  Ca  Ca21  1  0.50106031  -0.00175772  0.75654017  1
  Ca  Ca22  1  0.50150363  0.49963406  0.24085747  1
  Ca  Ca23  1  0.50001046  0.49735622  0.75633342  1
  Ti  Ti24  1  0.25112641  0.25169886  0.24837339  1
  Ti  Ti25  1  0.25172322  0.24989118  0.75231095  1
  Ti  Ti26  1  0.24951830  0.74745390  0.24600249  1
  Ti  Ti27  1  0.24969083  0.74987121  0.75334291  1
  Ti  Ti28  1  0.74734690  0.25106713  0.24747505  1
  Ti  Ti29  1  0.74904482  0.24957205  0.75221261  1
  Ti  Ti30  1  0.74926808  0.74907778  0.25057962  1
  Ti  Ti31  1  0.74976485  0.74972654  0.74981039  1
  Al  Al32  1  0.08696848  0.08298284  0.08635514  1
  Al  Al33  1  0.07981513  0.08065778  0.59413154  1
  Al  Al34  1  0.08976239  0.58089094  0.07578505  1
  Al  Al35  1  0.07828984  0.59017306  0.59064464  1
  Al  Al36  1  0.57957341  0.08701766  0.07911632  1
  Al  Al37  1  0.57665177  0.08249758  0.59449739  1
  Al  Al38  1  0.59377720  0.58460074  0.08832065  1
  Al  Al39  1  0.58154174  0.58057422  0.57997877  1
  Al  Al40  1  0.41960877  0.40984129  0.08338373  1
  Al  Al41  1  0.41699506  0.41847145  0.58326480  1
  Al  Al42  1  0.41109894  0.91011171  0.07815415  1
  Al  Al43  1  0.41931759  0.92072039  0.58356963  1
  Al  Al44  1  0.90863667  0.42007802  0.08484570  1
  Al  Al45  1  0.91898177  0.41725359  0.58219062  1
  Al  Al46  1  0.90908382  0.91258748  0.06997139  1
  Al  Al47  1  0.92202434  0.90862356  0.59117042  1
  Al  Al48  1  0.42120376  0.08403327  0.42203578  1
  Al  Al49  1  0.41750995  0.08145411  0.91887701  1
  Al  Al50  1  0.42181492  0.58535643  0.41620438  1
  Al  Al51  1  0.41086196  0.58454145  0.92308876  1
  Al  Al52  1  0.91779923  0.09167416  0.41364409  1
  Al  Al53  1  0.91445980  0.08104990  0.91124642  1
  Al  Al54  1  0.91606005  0.57391024  0.42270311  1
  Al  Al55  1  0.90709235  0.58606844  0.91412545  1
  Al  Al56  1  0.07701322  0.40968200  0.40558897  1
  Al  Al57  1  0.08700264  0.42179572  0.91472794  1
  Al  Al58  1  0.08244430  0.92333149  0.42821385  1
  Al  Al59  1  0.08907706  0.91832913  0.91357887  1
  Al  Al60  1  0.58193745  0.41585624  0.41433676  1
  Al  Al61  1  0.58990898  0.41335869  0.92635321  1
  Al  Al62  1  0.58822751  0.90989671  0.42337352  1
  Al  Al63  1  0.58879358  0.91092135  0.91054571  1
  Al  Al64  1  0.07348820  0.08617178  0.40990103  1
  Al  Al65  1  0.08657922  0.08155548  0.91235229  1
  Al  Al66  1  0.08062863  0.57181281  0.42034965  1
  Al  Al67  1  0.08748645  0.58481004  0.91416939  1
  Al  Al68  1  0.57849626  0.07849982  0.41772818  1
  Al  Al69  1  0.58822519  0.07683864  0.91258511  1
  Al  Al70  1  0.58336464  0.58401847  0.41368812  1
  Al  Al71  1  0.59138338  0.58910649  0.92611791  1
  Al  Al72  1  0.42203123  0.41436782  0.41601371  1
  Al  Al73  1  0.41023029  0.41194484  0.92295854  1
  Al  Al74  1  0.42395064  0.91984063  0.42243210  1
  Al  Al75  1  0.41585142  0.90914551  0.91504434  1
  Al  Al76  1  0.91830799  0.40952453  0.40578250  1
  Al  Al77  1  0.91065852  0.42247847  0.91633288  1
  Al  Al78  1  0.91727036  0.92145975  0.42938387  1
  Al  Al79  1  0.90875907  0.91584488  0.91303704  1
  Al  Al80  1  0.08845431  0.41938946  0.08447643  1
  Al  Al81  1  0.07684289  0.42098506  0.58334296  1
  Al  Al82  1  0.09434731  0.92127218  0.08140608  1
  Al  Al83  1  0.08454653  0.91377389  0.59333635  1
  Al  Al84  1  0.59319106  0.41564665  0.08810891  1
  Al  Al85  1  0.58102208  0.41690207  0.57980602  1
  Al  Al86  1  0.58181435  0.91206766  0.07454749  1
  Al  Al87  1  0.59165204  0.91574566  0.58238731  1
  Al  Al88  1  0.41480566  0.08412904  0.08223933  1
  Al  Al89  1  0.42024431  0.08762903  0.59360733  1
  Al  Al90  1  0.42110766  0.59139573  0.08323175  1
  Al  Al91  1  0.41847546  0.57827642  0.58028959  1
  Al  Al92  1  0.92400308  0.08371564  0.07756401  1
  Al  Al93  1  0.92121539  0.08906291  0.58455013  1
  Al  Al94  1  0.90221252  0.58318853  0.07747529  1
  Al  Al95  1  0.92038945  0.59043341  0.59129700  1
  Al  Al96  1  0.25012838  0.13801647  0.13439974  1
  Al  Al97  1  0.25339536  0.13695734  0.63856502  1
  Al  Al98  1  0.24562806  0.63041183  0.13058430  1
  Al  Al99  1  0.24996595  0.63684161  0.63700682  1
  Al  Al100  1  0.74404273  0.13536123  0.13343718  1
  Al  Al101  1  0.75152527  0.13318446  0.64135241  1
  Al  Al102  1  0.74786131  0.63573726  0.12869447  1
  Al  Al103  1  0.75025400  0.63787961  0.62818427  1
  Al  Al104  1  0.25052724  0.36599017  0.12820367  1
  Al  Al105  1  0.25011543  0.36194833  0.63873784  1
  Al  Al106  1  0.25161028  0.85925440  0.12438773  1
  Al  Al107  1  0.25101692  0.86394668  0.64010797  1
  Al  Al108  1  0.74548651  0.36846918  0.13287696  1
  Al  Al109  1  0.75117493  0.36072802  0.63815679  1
  Al  Al110  1  0.75025387  0.86223047  0.13207107  1
  Al  Al111  1  0.74865234  0.86420537  0.63188772  1
  Al  Al112  1  0.24943554  0.13724452  0.36503498  1
  Al  Al113  1  0.24879022  0.13308322  0.86350938  1
  Al  Al114  1  0.24960505  0.62910184  0.36428810  1
  Al  Al115  1  0.24665758  0.63027366  0.86669796  1
  Al  Al116  1  0.74857108  0.13789274  0.36121156  1
  Al  Al117  1  0.74492650  0.13476712  0.86599573  1
  Al  Al118  1  0.74602754  0.63313602  0.36923889  1
  Al  Al119  1  0.75303385  0.63407738  0.87011532  1
  Al  Al120  1  0.25018640  0.36977144  0.36036653  1
  Al  Al121  1  0.25224183  0.36683760  0.86803075  1
  Al  Al122  1  0.25104110  0.86389113  0.36370071  1
  Al  Al123  1  0.24830682  0.86478086  0.87094679  1
  Al  Al124  1  0.75037093  0.36510079  0.36246694  1
  Al  Al125  1  0.74696773  0.36927803  0.86476002  1
  Al  Al126  1  0.74649835  0.86416631  0.37260736  1
  Al  Al127  1  0.75076189  0.86243681  0.86636080  1
  Al  Al128  1  0.13609639  0.25471239  0.13402852  1
  Al  Al129  1  0.13495107  0.24709288  0.63606737  1
  Al  Al130  1  0.13459386  0.74799263  0.12506207  1
  Al  Al131  1  0.13188388  0.74944857  0.63943865  1
  Al  Al132  1  0.63074554  0.25346628  0.13044465  1
  Al  Al133  1  0.62929637  0.24937019  0.64033404  1
  Al  Al134  1  0.63259811  0.74344423  0.13066350  1
  Al  Al135  1  0.63597769  0.75267879  0.63224653  1
  Al  Al136  1  0.13115459  0.25291721  0.36160728  1
  Al  Al137  1  0.13669968  0.25171335  0.86622911  1
  Al  Al138  1  0.13728515  0.74823918  0.35958886  1
  Al  Al139  1  0.13571026  0.74944410  0.87337443  1
  Al  Al140  1  0.63465419  0.25153074  0.36174477  1
  Al  Al141  1  0.63244776  0.25133203  0.86920553  1
  Al  Al142  1  0.63611083  0.74774695  0.36727166  1
  Al  Al143  1  0.63748842  0.74805324  0.86807687  1
  Al  Al144  1  0.36861153  0.25339659  0.13363570  1
  Al  Al145  1  0.37104476  0.24920638  0.63966227  1
  Al  Al146  1  0.36555694  0.74791189  0.13160210  1
  Al  Al147  1  0.36506281  0.75317283  0.63905069  1
  Al  Al148  1  0.86194700  0.25194034  0.13585131  1
  Al  Al149  1  0.86601224  0.24892321  0.63754936  1
  Al  Al150  1  0.86187208  0.74675262  0.12760884  1
  Al  Al151  1  0.86588716  0.74948031  0.63351377  1
  Al  Al152  1  0.36508325  0.24959142  0.36271738  1
  Al  Al153  1  0.37059889  0.25178692  0.86499497  1
  Al  Al154  1  0.36404446  0.74788374  0.36059431  1
  Al  Al155  1  0.36317332  0.75217291  0.86881606  1
  Al  Al156  1  0.86737489  0.25425788  0.36053128  1
  Al  Al157  1  0.86311428  0.24766594  0.86462740  1
  Al  Al158  1  0.86175440  0.75050585  0.37197891  1
  Al  Al159  1  0.86364695  0.75029300  0.86926431  1
  Al  Al160  1  0.13781173  0.13643889  0.24752461  1
  Al  Al161  1  0.13071292  0.13749260  0.75315707  1
  Al  Al162  1  0.13793492  0.62810705  0.24650098  1
  Al  Al163  1  0.13558520  0.63567331  0.75418275  1
  Al  Al164  1  0.62956849  0.13495463  0.24694579  1
  Al  Al165  1  0.62994459  0.13508269  0.75271225  1
  Al  Al166  1  0.63615081  0.63067775  0.24205210  1
  Al  Al167  1  0.63880809  0.63404183  0.75513846  1
  Al  Al168  1  0.37067749  0.13794462  0.24500394  1
  Al  Al169  1  0.37239642  0.13452719  0.75403259  1
  Al  Al170  1  0.36479212  0.63276697  0.24357254  1
  Al  Al171  1  0.36263088  0.63488040  0.75767636  1
  Al  Al172  1  0.86496062  0.13743779  0.25081419  1
  Al  Al173  1  0.87243624  0.13700443  0.75004883  1
  Al  Al174  1  0.85937242  0.62979365  0.24320406  1
  Al  Al175  1  0.86194901  0.63518604  0.75243544  1
  Al  Al176  1  0.13826178  0.36921852  0.24733984  1
  Al  Al177  1  0.13545689  0.36469557  0.75493841  1
  Al  Al178  1  0.13936795  0.86594901  0.24080956  1
  Al  Al179  1  0.13522648  0.86310167  0.75302305  1
  Al  Al180  1  0.63276404  0.36975703  0.24168407  1
  Al  Al181  1  0.62865078  0.36502002  0.75384365  1
  Al  Al182  1  0.63812534  0.86580706  0.24718819  1
  Al  Al183  1  0.63443532  0.86613329  0.75763428  1
  Al  Al184  1  0.36633578  0.36622373  0.24508257  1
  Al  Al185  1  0.37130419  0.36399307  0.75456096  1
  Al  Al186  1  0.36210723  0.86297658  0.24385455  1
  Al  Al187  1  0.37005212  0.86416916  0.75749183  1
  Al  Al188  1  0.85964304  0.37018496  0.24627277  1
  Al  Al189  1  0.86380582  0.36777151  0.75554091  1
  Al  Al190  1  0.86265163  0.86159407  0.25057214  1
  Al  Al191  1  0.86368493  0.86316017  0.74630383  1
  Al  Al192  1  0.82295003  0.50099203  0.67689491  1
  Al  Al193  1  0.67869045  0.49882341  0.67808817  1
  Al  Al194  1  0.17930992  0.00085752  0.69140514  1
  Al  Al195  1  0.50169738  0.82643542  0.32745422  1
  Al  Al196  1  -0.00140165  0.32169922  0.83018434  1
  Al  Al197  1  0.67613490  0.17041122  0.50233089  1
  Al  Al198  1  0.81474040  0.32644383  -0.00084298  1
  Al  Al199  1  0.68040386  0.00085441  0.68360355  1
  Al  Al200  1  0.68158083  0.32661464  0.49994971  1
  Al  Al201  1  0.50070214  0.32175431  0.31244131  1
  Al  Al202  1  0.17008011  0.32545068  0.49931915  1
  Al  Al203  1  0.82641347  0.18219269  0.49972013  1
  Al  Al204  1  0.82222361  0.00234523  0.32733498  1
  Al  Al205  1  0.32826396  0.68164650  0.50065080  1
  Al  Al206  1  0.50284480  0.82879633  0.68087788  1
  Al  Al207  1  0.17146646  0.67498287  0.49970246  1
  Al  Al208  1  -0.00289325  0.66920234  0.16836238  1
  Al  Al209  1  0.82289811  -0.00219642  0.17039832  1
  Al  Al210  1  -0.00164391  0.82784281  0.81874531  1
  Al  Al211  1  0.17532666  0.16514240  0.50017583  1
  Al  Al212  1  0.32649632  0.32172686  0.50023137  1
  Al  Al213  1  0.16965261  0.49930478  0.68977948  1
  Al  Al214  1  0.32479629  0.49962133  0.68439272  1
  Al  Al215  1  -0.00110996  0.67248840  0.81721602  1
  Al  Al216  1  0.31029018  0.68800083  0.00008055  1
  Al  Al217  1  -0.00030164  0.83042942  0.16991819  1
  Al  Al218  1  0.32616708  0.18442954  -0.00139722  1
  Al  Al219  1  -0.00123369  0.82686222  0.33161717  1
  Al  Al220  1  0.18080627  0.82584680  0.50275033  1
  Al  Al221  1  0.00088371  0.17626751  0.18325316  1
  Al  Al222  1  0.32743332  0.00101336  0.32542743  1
  Al  Al223  1  0.80776467  0.00024292  0.81666607  1
  Al  Al224  1  0.31821335  -0.00372461  0.82447064  1
  Al  Al225  1  0.31353292  -0.00126539  0.16872521  1
  Al  Al226  1  0.50035493  0.81412072  0.17383211  1
  Al  Al227  1  0.00030154  0.31704778  0.67656650  1
  Al  Al228  1  -0.00038540  0.33029071  0.18785457  1
  Al  Al229  1  0.32551486  0.49922886  0.17260688  1
  Al  Al230  1  0.68240028  0.49925409  0.32026838  1
  Al  Al231  1  0.49954513  0.68591659  0.83032540  1
  Al  Al232  1  0.49953771  0.67197097  0.67586527  1
  Al  Al233  1  0.68522551  0.81382415  -0.00051770  1
  Al  Al234  1  0.17445080  0.00031186  0.32164707  1
  Al  Al235  1  -0.00283372  0.67304280  0.32928855  1
  Al  Al236  1  0.17373258  0.18042452  -0.00012580  1
  Al  Al237  1  0.82314095  0.17973207  0.00031291  1
  Al  Al238  1  0.50118311  0.67490856  0.30979944  1
  Au  Au239  1  0.50310372  0.82581422  0.66798844  1
  Au  Au240  1  0.33201048  0.49984709  0.33655857  1
  Au  Au241  1  0.50045357  0.82614392  0.16924006  1
  Au  Au242  1  0.33998702  0.17349199  0.50482294  1
  Au  Au243  1  0.83272778  0.66748065  0.50056197  1
  Au  Au244  1  0.16295730  0.16807428  0.49982258  1
  Au  Au245  1  0.32351166  0.00148821  0.83451049  1
  Au  Au246  1  0.49955827  0.32507754  0.66322291  1
  Au  Au247  1  0.66052103  0.67738121  0.50081376  1
  Au  Au248  1  0.66698851  -0.00289260  0.33467589  1
  Au  Au249  1  0.16180834  -0.00008557  0.31935399  1
  Au  Au250  1  -0.00366957  0.83337005  0.15837511  1
  Au  Au251  1  0.33965105  0.00109325  0.32177314  1
  Au  Au252  1  0.17302845  0.33785784  0.49798679  1
  Au  Au253  1  0.83522019  0.50071449  0.68035925  1
  Au  Au254  1  -0.00022022  0.82498935  0.83126360  1
  Au  Au255  1  0.83310027  0.17297477  -0.00039526  1
  Au  Au256  1  -0.00272699  0.66066480  0.32690986  1
  Au  Au257  1  0.67011585  0.49878021  0.32352167  1
  Au  Au258  1  0.66695996  -0.00116910  0.15992570  1
  Au  Au259  1  0.67624824  0.50095937  0.84340852  1
  Au  Au260  1  0.32690221  0.49779719  0.83568852  1
  Au  Au261  1  0.17794831  0.82626156  -0.00135503  1
  Au  Au262  1  0.00286747  0.83835600  0.33442141  1
  Au  Au263  1  0.50110643  0.17548562  0.33173227  1
  Au  Au264  1  0.32555301  0.00115888  0.66795503  1
  Au  Au265  1  0.33218749  0.83163584  0.49821233  1
  Au  Au266  1  0.50111270  0.66994677  0.83487870  1
  Au  Au267  1  0.82440442  0.83459196  0.50484987  1
  Au  Au268  1  0.83587310  0.49973731  0.31866343  1
  Au  Au269  1  0.16351841  0.66648102  0.50542977  1
  Au  Au270  1  0.17602427  0.33299666  -0.00301288  1
  Au  Au271  1  0.83334373  0.33230162  0.49837915  1
  Au  Au272  1  0.49854536  0.17890175  0.16470724  1
  Au  Au273  1  0.83300273  -0.00240011  0.33146498  1
  Au  Au274  1  0.00203112  0.16976798  0.82544272  1
  Au  Au275  1  0.66918384  0.49959021  0.67023118  1
  Au  Au276  1  0.16835773  0.49976993  0.67291089  1
  Au  Au277  1  0.16183494  0.49766044  0.32071025  1
  Au  Au278  1  0.50218246  0.16244318  0.82757048  1
  Au  Au279  1  0.00117860  0.65823793  0.16433690  1
  Au  Au280  1  0.66598376  0.17462170  -0.00292263  1
  Au  Au281  1  0.83390290  0.00206961  0.16641983  1
  Au  Au282  1  0.84390810  0.00205177  0.67374488  1
  Au  Au283  1  -0.00242534  0.32906727  0.17114409  1
  Au  Au284  1  0.66003563  0.17319422  0.50687017  1
  Au  Au285  1  0.50188931  0.33277857  0.83827419  1
  Au  Au286  1  0.66773371  0.00277810  0.68331784  1
  Au  Au287  1  0.32393946  0.50048359  0.16005184  1
