# generated using pymatgen
data_Ca24Ti8Al207Au49
_symmetry_space_group_name_H-M   'P 1'
_cell_length_a   17.32170380
_cell_length_b   17.32298381
_cell_length_c   17.32426169
_cell_angle_alpha   89.99784488
_cell_angle_beta   90.00619213
_cell_angle_gamma   90.00000312
_symmetry_Int_Tables_number   1
_chemical_formula_structural   Ca24Ti8Al207Au49
_chemical_formula_sum   'Ca24 Ti8 Al207 Au49'
_cell_volume   5198.38019948
_cell_formula_units_Z   1
loop_
 _symmetry_equiv_pos_site_id
 _symmetry_equiv_pos_as_xyz
  1  'x, y, z'
loop_
 _atom_site_type_symbol
 _atom_site_label
 _atom_site_symmetry_multiplicity
 _atom_site_fract_x
 _atom_site_fract_y
 _atom_site_fract_z
 _atom_site_occupancy
  Ca  Ca0  1  0.24923290  0.00141390  -0.00083316  1
  Ca  Ca1  1  0.25005473  0.00165622  0.49981059  1
  Ca  Ca2  1  0.24776493  0.49785189  0.00395678  1
  Ca  Ca3  1  0.24818926  0.49770498  0.49834952  1
  Ca  Ca4  1  0.75173790  -0.00063808  -0.00139999  1
  Ca  Ca5  1  0.75276086  0.00154932  0.50152076  1
  Ca  Ca6  1  0.75358709  0.49869763  -0.00270933  1
  Ca  Ca7  1  0.75596450  0.49960189  0.49919630  1
  Ca  Ca8  1  0.00354994  0.25436095  -0.00296918  1
  Ca  Ca9  1  0.00280067  0.25434754  0.50146670  1
  Ca  Ca10  1  0.00218438  0.74793312  -0.00093784  1
  Ca  Ca11  1  0.00183306  0.75033265  0.50050087  1
  Ca  Ca12  1  0.49739375  0.25122157  0.00086133  1
  Ca  Ca13  1  0.49754777  0.24932411  0.49737288  1
  Ca  Ca14  1  0.49887527  0.75184946  0.00107555  1
  Ca  Ca15  1  0.49850673  0.75217204  0.49667224  1
  Ca  Ca16  1  0.00407830  -0.00275103  0.25062485  1
  Ca  Ca17  1  -0.00362625  -0.00072583  0.74701815  1
  Ca  Ca18  1  0.00396295  0.50195000  0.25338681  1
  Ca  Ca19  1  0.00375902  0.49905971  0.75102065  1
  Ca  Ca20  1  0.50078881  0.00087694  0.24971327  1
  Ca  Ca21  1  0.50336616  0.00010581  0.74616102  1
  Ca  Ca22  1  0.49559411  0.49827360  0.25340450  1
  Ca  Ca23  1  0.49807346  0.49859600  0.75364764  1
  Ti  Ti24  1  0.24993668  0.25007031  0.25020618  1
  Ti  Ti25  1  0.24866068  0.25197666  0.74980645  1
  Ti  Ti26  1  0.25147826  0.74948059  0.24948915  1
  Ti  Ti27  1  0.25004475  0.74830443  0.75052882  1
  Ti  Ti28  1  0.75129727  0.25022098  0.25117453  1
  Ti  Ti29  1  0.75253814  0.25158601  0.74958629  1
  Ti  Ti30  1  0.74796475  0.75052438  0.24881095  1
  Ti  Ti31  1  0.75013045  0.74917654  0.75121329  1
  Al  Al32  1  0.09486043  0.08145181  0.08170007  1
  Al  Al33  1  0.08056561  0.09012340  0.57624557  1
  Al  Al34  1  0.08231867  0.57952905  0.08273389  1
  Al  Al35  1  0.08918290  0.58003525  0.58846178  1
  Al  Al36  1  0.58108573  0.08592886  0.07769763  1
  Al  Al37  1  0.58718335  0.08067053  0.58559828  1
  Al  Al38  1  0.57951626  0.58591890  0.07987350  1
  Al  Al39  1  0.58482364  0.57500386  0.58228278  1
  Al  Al40  1  0.41337903  0.40907219  0.08142699  1
  Al  Al41  1  0.40545142  0.41301962  0.57143489  1
  Al  Al42  1  0.41973060  0.90943181  0.08772800  1
  Al  Al43  1  0.41469378  0.92076705  0.57833356  1
  Al  Al44  1  0.91818619  0.41720632  0.07996042  1
  Al  Al45  1  0.92010096  0.41867483  0.58093718  1
  Al  Al46  1  0.92019429  0.92005423  0.07598731  1
  Al  Al47  1  0.91202282  0.91689248  0.58751712  1
  Al  Al48  1  0.41689357  0.09952621  0.41826952  1
  Al  Al49  1  0.41167982  0.08559738  0.92261620  1
  Al  Al50  1  0.40537365  0.58052838  0.41826874  1
  Al  Al51  1  0.40502287  0.58321377  0.92439386  1
  Al  Al52  1  0.90577821  0.08302424  0.41855249  1
  Al  Al53  1  0.91653481  0.09125955  0.91474164  1
  Al  Al54  1  0.91697430  0.57961562  0.41191801  1
  Al  Al55  1  0.91069376  0.57832805  0.91668016  1
  Al  Al56  1  0.09426169  0.41609298  0.41957139  1
  Al  Al57  1  0.09605848  0.41443752  0.91488139  1
  Al  Al58  1  0.07731141  0.92279808  0.41660210  1
  Al  Al59  1  0.07571760  0.91417559  0.92263000  1
  Al  Al60  1  0.57480149  0.40834073  0.41162514  1
  Al  Al61  1  0.58636972  0.41973099  0.91945967  1
  Al  Al62  1  0.58234378  0.91987697  0.41702984  1
  Al  Al63  1  0.59416232  0.91510137  0.92318272  1
  Al  Al64  1  0.09080500  0.08399625  0.41994743  1
  Al  Al65  1  0.07977429  0.09449690  0.92360538  1
  Al  Al66  1  0.08881660  0.57960711  0.41702386  1
  Al  Al67  1  0.08987709  0.57555356  0.91381002  1
  Al  Al68  1  0.57953001  0.08872479  0.41462664  1
  Al  Al69  1  0.58902665  0.07857569  0.92021070  1
  Al  Al70  1  0.57978154  0.57913931  0.41924035  1
  Al  Al71  1  0.58906663  0.58100018  0.91990492  1
  Al  Al72  1  0.41006749  0.40660140  0.41091970  1
  Al  Al73  1  0.40286131  0.41621860  0.92502513  1
  Al  Al74  1  0.42027738  0.91127491  0.42173989  1
  Al  Al75  1  0.41735037  0.91879398  0.92528491  1
  Al  Al76  1  0.91461266  0.42013844  0.41536152  1
  Al  Al77  1  0.90988918  0.41824470  0.91161780  1
  Al  Al78  1  0.91271994  0.92087115  0.41441508  1
  Al  Al79  1  0.91756329  0.91479914  0.91359292  1
  Al  Al80  1  0.09067875  0.41362909  0.07908266  1
  Al  Al81  1  0.09772875  0.41661828  0.58380139  1
  Al  Al82  1  0.09127138  0.92214385  0.08640720  1
  Al  Al83  1  0.07011282  0.91202568  0.58615037  1
  Al  Al84  1  0.57697596  0.41427666  0.08121326  1
  Al  Al85  1  0.58348538  0.42334971  0.57966983  1
  Al  Al86  1  0.58127058  0.90193934  0.08272345  1
  Al  Al87  1  0.58997462  0.92392736  0.58852834  1
  Al  Al88  1  0.41406927  0.08808321  0.08032301  1
  Al  Al89  1  0.41250769  0.08642134  0.57717813  1
  Al  Al90  1  0.41363238  0.59013452  0.08052635  1
  Al  Al91  1  0.40704224  0.58322642  0.57599955  1
  Al  Al92  1  0.91131010  0.08542673  0.07134368  1
  Al  Al93  1  0.90706883  0.08455927  0.58079346  1
  Al  Al94  1  0.91900551  0.58385695  0.07848968  1
  Al  Al95  1  0.92168547  0.58119395  0.58322553  1
  Al  Al96  1  0.24915569  0.13802031  0.12672452  1
  Al  Al97  1  0.25304624  0.13758754  0.63352911  1
  Al  Al98  1  0.25212659  0.63508118  0.13523695  1
  Al  Al99  1  0.24847596  0.63134803  0.63584336  1
  Al  Al100  1  0.75458830  0.13485268  0.13550791  1
  Al  Al101  1  0.75159837  0.13840524  0.62963065  1
  Al  Al102  1  0.74787656  0.63484236  0.13572694  1
  Al  Al103  1  0.75435547  0.63580195  0.63416651  1
  Al  Al104  1  0.25109841  0.36503484  0.13709180  1
  Al  Al105  1  0.24540646  0.36626867  0.63172029  1
  Al  Al106  1  0.25029800  0.86281920  0.13452777  1
  Al  Al107  1  0.25353064  0.86365569  0.63725450  1
  Al  Al108  1  0.75081826  0.36439785  0.13186856  1
  Al  Al109  1  0.75533991  0.36435433  0.63229254  1
  Al  Al110  1  0.75050785  0.86326719  0.12826235  1
  Al  Al111  1  0.74682256  0.86477164  0.63625061  1
  Al  Al112  1  0.25207678  0.13923173  0.36710875  1
  Al  Al113  1  0.24812118  0.13893441  0.87179892  1
  Al  Al114  1  0.25331613  0.63535930  0.36636450  1
  Al  Al115  1  0.24741915  0.62985354  0.86391125  1
  Al  Al116  1  0.74750603  0.13385292  0.37084169  1
  Al  Al117  1  0.75428759  0.13543073  0.86527477  1
  Al  Al118  1  0.74915849  0.63423427  0.36494266  1
  Al  Al119  1  0.75015758  0.62995701  0.86471970  1
  Al  Al120  1  0.24826084  0.36101774  0.37480642  1
  Al  Al121  1  0.24583902  0.37101887  0.86319716  1
  Al  Al122  1  0.25173274  0.86269429  0.36241324  1
  Al  Al123  1  0.25489968  0.86716322  0.86312180  1
  Al  Al124  1  0.75555837  0.36691003  0.36681235  1
  Al  Al125  1  0.75311354  0.36887374  0.86776485  1
  Al  Al126  1  0.74691603  0.87033013  0.36194631  1
  Al  Al127  1  0.75010189  0.86333901  0.87113024  1
  Al  Al128  1  0.13721311  0.25027118  0.13478306  1
  Al  Al129  1  0.13129383  0.25455851  0.63401523  1
  Al  Al130  1  0.13625569  0.74746295  0.13510955  1
  Al  Al131  1  0.13671842  0.75023402  0.63608596  1
  Al  Al132  1  0.63561642  0.25046492  0.13533206  1
  Al  Al133  1  0.63703140  0.24981214  0.63447858  1
  Al  Al134  1  0.63185940  0.75334666  0.12874818  1
  Al  Al135  1  0.63303478  0.74952627  0.63486540  1
  Al  Al136  1  0.13231021  0.25385320  0.36788438  1
  Al  Al137  1  0.13508250  0.25309294  0.86453135  1
  Al  Al138  1  0.13608187  0.74746061  0.36479901  1
  Al  Al139  1  0.13725256  0.74796875  0.86348288  1
  Al  Al140  1  0.63685175  0.25046376  0.36705285  1
  Al  Al141  1  0.63792289  0.24987247  0.86374627  1
  Al  Al142  1  0.63257528  0.75141005  0.36636360  1
  Al  Al143  1  0.63763383  0.75130007  0.87085000  1
  Al  Al144  1  0.36282904  0.25232144  0.12704208  1
  Al  Al145  1  0.36072073  0.25337144  0.63103207  1
  Al  Al146  1  0.36540687  0.75099481  0.12993662  1
  Al  Al147  1  0.36478215  0.74615560  0.63655492  1
  Al  Al148  1  0.86459428  0.25026895  0.13289189  1
  Al  Al149  1  0.86972106  0.25021356  0.63250587  1
  Al  Al150  1  0.86449147  0.75121994  0.13699621  1
  Al  Al151  1  0.86757253  0.75216472  0.63792366  1
  Al  Al152  1  0.36170743  0.25260005  0.37303415  1
  Al  Al153  1  0.35948616  0.25620304  0.87284930  1
  Al  Al154  1  0.36926830  0.74860687  0.36334434  1
  Al  Al155  1  0.36024612  0.74672881  0.87282019  1
  Al  Al156  1  0.86271289  0.24755806  0.37284325  1
  Al  Al157  1  0.86440420  0.25415363  0.86979427  1
  Al  Al158  1  0.86241655  0.74772147  0.36362344  1
  Al  Al159  1  0.86439340  0.75041675  0.86411926  1
  Al  Al160  1  0.13697282  0.13633418  0.24900143  1
  Al  Al161  1  0.13595253  0.13811000  0.74692050  1
  Al  Al162  1  0.13842229  0.63363634  0.25426225  1
  Al  Al163  1  0.13662671  0.62931939  0.74945310  1
  Al  Al164  1  0.63849604  0.13452287  0.25287063  1
  Al  Al165  1  0.64031016  0.13164790  0.74577580  1
  Al  Al166  1  0.63228085  0.63458905  0.24805666  1
  Al  Al167  1  0.63449434  0.63544010  0.75333635  1
  Al  Al168  1  0.36212758  0.13814073  0.24882672  1
  Al  Al169  1  0.36121264  0.14101369  0.75493392  1
  Al  Al170  1  0.36616123  0.63490729  0.24868504  1
  Al  Al171  1  0.36303597  0.63056977  0.75108475  1
  Al  Al172  1  0.86225776  0.13266764  0.26010363  1
  Al  Al173  1  0.86438533  0.13832956  0.74780525  1
  Al  Al174  1  0.86304001  0.63141082  0.25346346  1
  Al  Al175  1  0.86497565  0.62760174  0.74982066  1
  Al  Al176  1  0.13917376  0.36594184  0.25664919  1
  Al  Al177  1  0.13296162  0.36790694  0.74898080  1
  Al  Al178  1  0.13638930  0.86357996  0.24826774  1
  Al  Al179  1  0.13646546  0.86629509  0.74785532  1
  Al  Al180  1  0.63252747  0.36362267  0.25451612  1
  Al  Al181  1  0.63501361  0.36465979  0.75440559  1
  Al  Al182  1  0.62945032  0.86218607  0.24846090  1
  Al  Al183  1  0.63285513  0.86502049  0.75067659  1
  Al  Al184  1  0.36440303  0.36137717  0.25593080  1
  Al  Al185  1  0.36163043  0.36623805  0.75082616  1
  Al  Al186  1  0.37100649  0.86586885  0.24991678  1
  Al  Al187  1  0.37118412  0.85894662  0.75250388  1
  Al  Al188  1  0.86481705  0.36549087  0.25276465  1
  Al  Al189  1  0.86988805  0.36616517  0.74973167  1
  Al  Al190  1  0.86173513  0.86557856  0.25332497  1
  Al  Al191  1  0.86270332  0.86526998  0.74923095  1
  Al  Al192  1  0.30947560  0.00032886  0.17088354  1
  Al  Al193  1  0.67838204  0.67697514  0.50409298  1
  Al  Al194  1  0.16960212  0.82929902  0.49949807  1
  Al  Al195  1  0.49740034  0.67909908  0.83156280  1
  Al  Al196  1  -0.00012222  0.18408090  0.81897499  1
  Al  Al197  1  0.49982812  0.67549626  0.66979687  1
  Al  Al198  1  0.32730196  0.00168979  0.68035588  1
  Al  Al199  1  0.18002960  0.82461015  -0.00153640  1
  Al  Al200  1  -0.00001702  0.67523892  0.18006227  1
  Al  Al201  1  0.49900038  0.32998479  0.67366234  1
  Al  Al202  1  0.50077580  0.17903864  0.82957073  1
  Al  Al203  1  0.68407935  0.49920582  0.68256239  1
  Al  Al204  1  -0.00410600  0.17447014  0.32945725  1
  Al  Al205  1  0.17477084  0.00309067  0.83306649  1
  Al  Al206  1  0.17595571  0.49955305  0.18588761  1
  Al  Al207  1  0.68151511  -0.00166653  0.81566203  1
  Al  Al208  1  -0.00095639  0.81878305  0.32496923  1
  Al  Al209  1  0.00197264  0.68431667  0.67875069  1
  Al  Al210  1  0.32157774  0.81060217  0.50030857  1
  Al  Al211  1  0.32117250  0.49730761  0.67627352  1
  Al  Al212  1  0.67053514  -0.00397391  0.17717275  1
  Al  Al213  1  0.80920675  0.00136045  0.67943634  1
  Al  Al214  1  0.00091090  0.82164957  0.81168179  1
  Al  Al215  1  0.18688985  0.67494543  0.50108665  1
  Al  Al216  1  0.16924758  -0.00081896  0.67145934  1
  Al  Al217  1  0.33013904  0.00183705  0.32956549  1
  Al  Al218  1  0.32849230  0.49909083  0.17169098  1
  Al  Al219  1  0.83193643  0.00095254  0.18214300  1
  Al  Al220  1  -0.00004694  0.66932065  0.83233690  1
  Al  Al221  1  0.49879308  0.19446942  0.31808984  1
  Al  Al222  1  0.30975025  0.49691665  0.32385786  1
  Al  Al223  1  0.82226173  0.82125147  0.49911772  1
  Al  Al224  1  0.17473312  -0.00047471  0.31442749  1
  Al  Al225  1  0.68694557  0.17866747  0.00014888  1
  Al  Al226  1  0.82487624  0.50016322  0.17652678  1
  Al  Al227  1  0.18161068  0.67019561  -0.00017507  1
  Al  Al228  1  0.49805541  0.17316706  0.67275810  1
  Al  Al229  1  0.00111957  0.82887555  0.17051320  1
  Al  Al230  1  0.49915476  0.68093696  0.18076675  1
  Al  Al231  1  0.81971388  0.68134617  -0.00003483  1
  Al  Al232  1  0.67818375  0.32318642  0.50269945  1
  Al  Al233  1  0.00211195  0.32793333  0.17930656  1
  Al  Al234  1  0.18691531  0.18915086  0.50051706  1
  Al  Al235  1  0.68293533  0.49929787  0.32182413  1
  Al  Al236  1  0.19392625  0.30990536  -0.00005682  1
  Al  Al237  1  0.49842925  0.32086182  0.18707427  1
  Al  Al238  1  0.00103124  0.16951279  0.16856988  1
  Au  Au239  1  0.00256732  0.34159392  0.32896901  1
  Au  Au240  1  0.66958133  0.33200966  0.50050323  1
  Au  Au241  1  0.49830218  0.32592317  0.17540730  1
  Au  Au242  1  0.00116632  0.16389977  0.33335146  1
  Au  Au243  1  0.00153245  0.17502775  0.15709050  1
  Au  Au244  1  0.17145841  -0.00154362  0.65896547  1
  Au  Au245  1  0.32799197  0.00201523  0.34215511  1
  Au  Au246  1  0.31688277  0.49997860  0.83789477  1
  Au  Au247  1  0.50392918  0.83802774  0.83748888  1
  Au  Au248  1  0.49898473  0.83927492  0.66624943  1
  Au  Au249  1  0.83549025  0.32469272  0.49947844  1
  Au  Au250  1  0.67670428  -0.00134497  0.82748220  1
  Au  Au251  1  0.49598879  0.32876115  0.65742842  1
  Au  Au252  1  0.67202390  0.67520786  0.00069872  1
  Au  Au253  1  0.83726000  0.00250514  0.82616976  1
  Au  Au254  1  0.67030967  0.49704949  0.33313018  1
  Au  Au255  1  0.31926082  0.18185716  -0.00070883  1
  Au  Au256  1  0.83511374  0.32345193  0.00109973  1
  Au  Au257  1  0.49905748  0.67927806  0.16832941  1
  Au  Au258  1  -0.00437993  0.16323510  0.67054584  1
  Au  Au259  1  0.50070040  0.16590765  0.17354945  1
  Au  Au260  1  0.66995982  0.49882278  0.15864057  1
  Au  Au261  1  0.66973613  0.66812495  0.50173673  1
  Au  Au262  1  0.00351791  0.66645979  0.32976071  1
  Au  Au263  1  0.67420534  0.84070650  0.50121368  1
  Au  Au264  1  0.83204366  0.49806174  0.67372696  1
  Au  Au265  1  0.83887128  0.00119635  0.17170843  1
  Au  Au266  1  0.82911612  0.83007656  -0.00051897  1
  Au  Au267  1  0.83620662  0.67021122  0.49754422  1
  Au  Au268  1  0.34020391  -0.00130922  0.82728174  1
  Au  Au269  1  0.49537345  0.66273826  0.83766284  1
  Au  Au270  1  0.32544281  0.00008122  0.16540352  1
  Au  Au271  1  0.15930232  0.00411334  0.83646353  1
  Au  Au272  1  0.32977268  0.82321485  0.00085637  1
  Au  Au273  1  0.67678786  0.49854248  0.83005813  1
  Au  Au274  1  0.50094303  0.83660998  0.32292075  1
  Au  Au275  1  0.66639955  0.32374911  -0.00059340  1
  Au  Au276  1  0.66751590  -0.00492825  0.16071856  1
  Au  Au277  1  0.00193840  0.33356955  0.83406080  1
  Au  Au278  1  0.83755663  0.50250680  0.17709552  1
  Au  Au279  1  0.49996269  0.66454395  0.66375639  1
  Au  Au280  1  0.67549387  0.00335193  0.33797448  1
  Au  Au281  1  0.49532852  0.66607078  0.33616474  1
  Au  Au282  1  0.31957432  0.49537906  0.66380597  1
  Au  Au283  1  0.67394823  0.16622953  0.50212119  1
  Au  Au284  1  0.50471695  0.16265584  0.82873519  1
  Au  Au285  1  0.00569768  0.33557633  0.66569449  1
  Au  Au286  1  0.49354716  0.34063722  0.83926627  1
  Au  Au287  1  0.00186213  0.67239091  0.67401907  1
