# generated using pymatgen
data_Ca24Ti8Al207Au49
_symmetry_space_group_name_H-M   'P 1'
_cell_length_a   17.32015180
_cell_length_b   17.32343563
_cell_length_c   17.32138604
_cell_angle_alpha   90.00139905
_cell_angle_beta   90.00068989
_cell_angle_gamma   89.99983855
_symmetry_Int_Tables_number   1
_chemical_formula_structural   Ca24Ti8Al207Au49
_chemical_formula_sum   'Ca24 Ti8 Al207 Au49'
_cell_volume   5197.18721370
_cell_formula_units_Z   1
loop_
 _symmetry_equiv_pos_site_id
 _symmetry_equiv_pos_as_xyz
  1  'x, y, z'
loop_
 _atom_site_type_symbol
 _atom_site_label
 _atom_site_symmetry_multiplicity
 _atom_site_fract_x
 _atom_site_fract_y
 _atom_site_fract_z
 _atom_site_occupancy
  Ca  Ca0  1  0.24851040  -0.00150006  0.00318750  1
  Ca  Ca1  1  0.25261830  -0.00034692  0.49744760  1
  Ca  Ca2  1  0.24553665  0.50174920  -0.00327212  1
  Ca  Ca3  1  0.24915062  0.49964823  0.50240922  1
  Ca  Ca4  1  0.75488398  -0.00008927  -0.00070905  1
  Ca  Ca5  1  0.75064708  0.00389344  0.49897105  1
  Ca  Ca6  1  0.75170875  0.49991221  0.00245255  1
  Ca  Ca7  1  0.75313998  0.50121069  0.49979037  1
  Ca  Ca8  1  -0.00274282  0.25072602  -0.00668505  1
  Ca  Ca9  1  0.00338059  0.25125066  0.50398468  1
  Ca  Ca10  1  -0.00177823  0.74739222  -0.00436301  1
  Ca  Ca11  1  0.00387574  0.74742217  0.50238106  1
  Ca  Ca12  1  0.50177344  0.25165601  -0.00046066  1
  Ca  Ca13  1  0.49833759  0.25040457  0.49847882  1
  Ca  Ca14  1  0.49971879  0.74995117  -0.00461226  1
  Ca  Ca15  1  0.49488811  0.74966663  0.50213198  1
  Ca  Ca16  1  0.00427587  0.00067760  0.24509526  1
  Ca  Ca17  1  -0.00288110  0.00485137  0.75165832  1
  Ca  Ca18  1  -0.00048604  0.49545971  0.24805620  1
  Ca  Ca19  1  0.00455383  0.49499322  0.74862598  1
  Ca  Ca20  1  0.49772515  -0.00174264  0.25333496  1
  Ca  Ca21  1  0.49929400  -0.00161235  0.74794593  1
  Ca  Ca22  1  0.49895549  0.50087606  0.25152183  1
  Ca  Ca23  1  0.49806695  0.49997870  0.74899441  1
  Ti  Ti24  1  0.25016653  0.25120456  0.25160135  1
  Ti  Ti25  1  0.25211412  0.25201960  0.74988146  1
  Ti  Ti26  1  0.25004778  0.74848917  0.25092656  1
  Ti  Ti27  1  0.25023838  0.74758005  0.74999184  1
  Ti  Ti28  1  0.75067258  0.25080137  0.24978899  1
  Ti  Ti29  1  0.74953978  0.25067302  0.75020220  1
  Ti  Ti30  1  0.74931723  0.74972475  0.24828045  1
  Ti  Ti31  1  0.75105017  0.74831981  0.75165653  1
  Al  Al32  1  0.08236054  0.07376905  0.08500430  1
  Al  Al33  1  0.08079141  0.10111841  0.58759652  1
  Al  Al34  1  0.07880722  0.57765662  0.08006525  1
  Al  Al35  1  0.09608031  0.57984425  0.59010570  1
  Al  Al36  1  0.58354492  0.07914597  0.09095006  1
  Al  Al37  1  0.57170810  0.08551157  0.58922210  1
  Al  Al38  1  0.58726054  0.58320066  0.08427948  1
  Al  Al39  1  0.57199374  0.57975669  0.58686981  1
  Al  Al40  1  0.41214821  0.42073331  0.09207924  1
  Al  Al41  1  0.41407115  0.41680610  0.58014473  1
  Al  Al42  1  0.40618955  0.92139682  0.08104646  1
  Al  Al43  1  0.41086648  0.91882979  0.58996510  1
  Al  Al44  1  0.91067216  0.42266364  0.08308856  1
  Al  Al45  1  0.92188730  0.40224356  0.58541474  1
  Al  Al46  1  0.92483267  0.92442821  0.07585923  1
  Al  Al47  1  0.91447614  0.93129836  0.59466997  1
  Al  Al48  1  0.41190854  0.07858322  0.41605637  1
  Al  Al49  1  0.41855209  0.07504412  0.91084520  1
  Al  Al50  1  0.40258264  0.58373557  0.41620545  1
  Al  Al51  1  0.42193504  0.58526636  0.90799164  1
  Al  Al52  1  0.91399432  0.08493867  0.42296055  1
  Al  Al53  1  0.90821083  0.09073085  0.90578478  1
  Al  Al54  1  0.91578255  0.56473305  0.41147900  1
  Al  Al55  1  0.92291388  0.58222924  0.90985275  1
  Al  Al56  1  0.09323776  0.41330858  0.42885886  1
  Al  Al57  1  0.09076836  0.41257752  0.90732915  1
  Al  Al58  1  0.09368018  0.92645072  0.41553901  1
  Al  Al59  1  0.08440621  0.91112416  0.92403469  1
  Al  Al60  1  0.58643128  0.42035478  0.41045339  1
  Al  Al61  1  0.57926431  0.42377839  0.91639135  1
  Al  Al62  1  0.58339192  0.91795801  0.41235407  1
  Al  Al63  1  0.57543420  0.90983964  0.90827916  1
  Al  Al64  1  0.09783650  0.08692604  0.42454242  1
  Al  Al65  1  0.06916779  0.08727413  0.91363437  1
  Al  Al66  1  0.09146897  0.57885600  0.42633167  1
  Al  Al67  1  0.08526259  0.57962404  0.90190670  1
  Al  Al68  1  0.58464742  0.07461587  0.41070930  1
  Al  Al69  1  0.57856858  0.08147584  0.91602554  1
  Al  Al70  1  0.58172409  0.57606156  0.40795617  1
  Al  Al71  1  0.58176171  0.59287631  0.91438532  1
  Al  Al72  1  0.40709461  0.42084743  0.41472809  1
  Al  Al73  1  0.41632682  0.42105009  0.91602342  1
  Al  Al74  1  0.41406899  0.91918867  0.41573413  1
  Al  Al75  1  0.41407221  0.91000166  0.90835302  1
  Al  Al76  1  0.90135121  0.41010749  0.42237613  1
  Al  Al77  1  0.92438720  0.41783843  0.91139291  1
  Al  Al78  1  0.91896491  0.92983702  0.41981798  1
  Al  Al79  1  0.91312623  0.92574784  0.90967857  1
  Al  Al80  1  0.09103694  0.41432944  0.07116403  1
  Al  Al81  1  0.08811217  0.40588346  0.59177986  1
  Al  Al82  1  0.09929972  0.91530160  0.08444636  1
  Al  Al83  1  0.07998547  0.92030803  0.57901028  1
  Al  Al84  1  0.58092603  0.42617287  0.09130547  1
  Al  Al85  1  0.57845631  0.41795806  0.58245748  1
  Al  Al86  1  0.59019372  0.92349053  0.08359826  1
  Al  Al87  1  0.57219088  0.91659789  0.58122017  1
  Al  Al88  1  0.41719844  0.07579627  0.09335896  1
  Al  Al89  1  0.41056682  0.08410057  0.59416738  1
  Al  Al90  1  0.41477225  0.57695067  0.09044005  1
  Al  Al91  1  0.40869654  0.58937333  0.58051803  1
  Al  Al92  1  0.91738985  0.08851245  0.06944401  1
  Al  Al93  1  0.91631462  0.09371943  0.59839461  1
  Al  Al94  1  0.91583048  0.57999407  0.08821406  1
  Al  Al95  1  0.92871883  0.57213776  0.58619959  1
  Al  Al96  1  0.24716670  0.13484644  0.13395679  1
  Al  Al97  1  0.24768797  0.14069682  0.63594811  1
  Al  Al98  1  0.25296939  0.62637890  0.13623276  1
  Al  Al99  1  0.24858996  0.62763556  0.63982845  1
  Al  Al100  1  0.75381075  0.13716876  0.13481858  1
  Al  Al101  1  0.75600746  0.13535630  0.64080296  1
  Al  Al102  1  0.75390859  0.63281515  0.13510108  1
  Al  Al103  1  0.74929876  0.62660339  0.64344716  1
  Al  Al104  1  0.25004466  0.37218252  0.13930056  1
  Al  Al105  1  0.24558854  0.36990919  0.63669535  1
  Al  Al106  1  0.24745374  0.86705894  0.13539368  1
  Al  Al107  1  0.25370662  0.86522656  0.63735828  1
  Al  Al108  1  0.75448056  0.36711653  0.13500319  1
  Al  Al109  1  0.75371067  0.36538338  0.63665364  1
  Al  Al110  1  0.74843668  0.86411312  0.13129735  1
  Al  Al111  1  0.75266720  0.86339854  0.64147806  1
  Al  Al112  1  0.24742967  0.13790946  0.36812274  1
  Al  Al113  1  0.25254729  0.13783895  0.85951243  1
  Al  Al114  1  0.25157437  0.62611253  0.36510211  1
  Al  Al115  1  0.24580566  0.62751736  0.86065266  1
  Al  Al116  1  0.74849601  0.13775081  0.36490295  1
  Al  Al117  1  0.75628325  0.13533612  0.86398319  1
  Al  Al118  1  0.74831271  0.63267147  0.36484110  1
  Al  Al119  1  0.75049038  0.63657269  0.86250413  1
  Al  Al120  1  0.24899932  0.36819268  0.36564905  1
  Al  Al121  1  0.24653307  0.37130284  0.86194180  1
  Al  Al122  1  0.25334545  0.86676648  0.36659993  1
  Al  Al123  1  0.24718398  0.86192074  0.86353616  1
  Al  Al124  1  0.75159863  0.36445213  0.36470422  1
  Al  Al125  1  0.75011476  0.36210787  0.86380831  1
  Al  Al126  1  0.74675818  0.86911524  0.36388953  1
  Al  Al127  1  0.75280223  0.86222305  0.86332516  1
  Al  Al128  1  0.13941695  0.25664181  0.13572160  1
  Al  Al129  1  0.13327227  0.25266613  0.63588419  1
  Al  Al130  1  0.13890938  0.75165969  0.13433232  1
  Al  Al131  1  0.13377468  0.74738712  0.63626874  1
  Al  Al132  1  0.63583713  0.25065662  0.13802925  1
  Al  Al133  1  0.63077240  0.25100389  0.63750002  1
  Al  Al134  1  0.63586088  0.74826970  0.13724967  1
  Al  Al135  1  0.63591499  0.74831554  0.63944830  1
  Al  Al136  1  0.13413159  0.25226380  0.36769445  1
  Al  Al137  1  0.13691923  0.25312271  0.86352593  1
  Al  Al138  1  0.13906557  0.75042156  0.36290102  1
  Al  Al139  1  0.13046686  0.74708463  0.86117406  1
  Al  Al140  1  0.62737846  0.25232481  0.36253703  1
  Al  Al141  1  0.63000102  0.24758076  0.86246552  1
  Al  Al142  1  0.63634793  0.74933845  0.36210264  1
  Al  Al143  1  0.63239273  0.75031684  0.86277965  1
  Al  Al144  1  0.36199757  0.25123666  0.13832951  1
  Al  Al145  1  0.36858336  0.25165462  0.63585758  1
  Al  Al146  1  0.35981707  0.74942582  0.13910024  1
  Al  Al147  1  0.36329439  0.74232867  0.63363266  1
  Al  Al148  1  0.86349414  0.25180816  0.12713356  1
  Al  Al149  1  0.87231162  0.25148259  0.63856441  1
  Al  Al150  1  0.86459963  0.75129827  0.13249263  1
  Al  Al151  1  0.86692844  0.74441734  0.63950948  1
  Al  Al152  1  0.36879914  0.25276611  0.36479453  1
  Al  Al153  1  0.37165222  0.25144697  0.86076420  1
  Al  Al154  1  0.36103316  0.74216014  0.36890435  1
  Al  Al155  1  0.36574585  0.74686224  0.86292742  1
  Al  Al156  1  0.86797839  0.25374727  0.36631174  1
  Al  Al157  1  0.86668534  0.24861518  0.86649847  1
  Al  Al158  1  0.86124200  0.75061079  0.36170505  1
  Al  Al159  1  0.87104266  0.74845670  0.86385768  1
  Al  Al160  1  0.13625580  0.13783529  0.25083803  1
  Al  Al161  1  0.12851825  0.13809034  0.74897506  1
  Al  Al162  1  0.13986618  0.62673956  0.24925336  1
  Al  Al163  1  0.13273888  0.63145440  0.75002305  1
  Al  Al164  1  0.63532493  0.13479948  0.25265813  1
  Al  Al165  1  0.63204303  0.13307496  0.74968457  1
  Al  Al166  1  0.63481427  0.63273031  0.25299022  1
  Al  Al167  1  0.62767724  0.63386025  0.75224900  1
  Al  Al168  1  0.36200274  0.13371009  0.25586299  1
  Al  Al169  1  0.36953057  0.13552442  0.74501502  1
  Al  Al170  1  0.36281087  0.62942430  0.25340725  1
  Al  Al171  1  0.36741298  0.62941404  0.75042386  1
  Al  Al172  1  0.86581419  0.13783263  0.25409015  1
  Al  Al173  1  0.87188493  0.13966567  0.75143680  1
  Al  Al174  1  0.86417822  0.63245402  0.24683632  1
  Al  Al175  1  0.87253358  0.63283761  0.75092140  1
  Al  Al176  1  0.13653000  0.37296764  0.25464299  1
  Al  Al177  1  0.13345046  0.36642607  0.74756920  1
  Al  Al178  1  0.13591054  0.86742371  0.24673893  1
  Al  Al179  1  0.13313285  0.86395248  0.75156328  1
  Al  Al180  1  0.63668755  0.36809267  0.25345176  1
  Al  Al181  1  0.63193982  0.36943047  0.74848453  1
  Al  Al182  1  0.63374061  0.86631192  0.25223435  1
  Al  Al183  1  0.63162602  0.86494900  0.75289758  1
  Al  Al184  1  0.36224541  0.37068412  0.25345492  1
  Al  Al185  1  0.36566399  0.37149640  0.74830359  1
  Al  Al186  1  0.36179662  0.86551814  0.25329703  1
  Al  Al187  1  0.36539700  0.86114499  0.75156933  1
  Al  Al188  1  0.86754927  0.36373868  0.24911639  1
  Al  Al189  1  0.86957113  0.36224662  0.74696376  1
  Al  Al190  1  0.86348100  0.86921886  0.24871909  1
  Al  Al191  1  0.86569841  0.86863934  0.75258219  1
  Al  Al192  1  -0.00056097  0.17347143  0.17290359  1
  Al  Al193  1  0.00390996  0.17134132  0.33429918  1
  Al  Al194  1  0.80988533  0.49777339  0.30958633  1
  Al  Al195  1  0.33128851  0.17202243  0.00106047  1
  Al  Al196  1  0.31370734  0.82616308  -0.00102653  1
  Al  Al197  1  0.67117905  0.17273505  0.50329951  1
  Al  Al198  1  0.68537219  0.32900560  0.50005412  1
  Al  Al199  1  0.49883469  0.17483431  0.17889262  1
  Al  Al200  1  0.19214874  0.00214543  0.31109101  1
  Al  Al201  1  0.82598780  0.18642999  0.50337645  1
  Al  Al202  1  0.31090080  0.33110637  0.00153422  1
  Al  Al203  1  0.68140607  0.68018779  0.00036720  1
  Al  Al204  1  0.00225322  0.66874973  0.33088568  1
  Al  Al205  1  0.00109810  0.31437822  0.81371720  1
  Al  Al206  1  0.16870317  0.18392625  0.00000855  1
  Al  Al207  1  0.16970450  0.00211064  0.82725755  1
  Al  Al208  1  0.68902882  -0.00001043  0.82681718  1
  Al  Al209  1  0.00170176  0.33143063  0.17407815  1
  Al  Al210  1  0.82174881  0.49819897  0.81931115  1
  Al  Al211  1  0.17143065  0.68421953  -0.00202620  1
  Al  Al212  1  0.32187498  0.81949800  0.49865451  1
  Al  Al213  1  0.31804858  0.17651005  0.50083321  1
  Al  Al214  1  0.83166800  0.66921150  0.50041465  1
  Al  Al215  1  0.32875117  0.67180802  0.00073264  1
  Al  Al216  1  0.18665736  0.00216948  0.66929446  1
  Al  Al217  1  0.49819998  0.81901020  0.68410885  1
  Al  Al218  1  0.32474289  -0.00127108  0.81034130  1
  Al  Al219  1  0.68422020  0.17119674  -0.00024533  1
  Al  Al220  1  0.19255861  0.67918347  0.50135582  1
  Al  Al221  1  0.67056014  0.67060463  0.50239516  1
  Al  Al222  1  0.30967660  0.00046188  0.19089644  1
  Al  Al223  1  0.49830116  0.82490105  0.17426799  1
  Al  Al224  1  0.68853074  0.50073427  0.18933187  1
  Al  Al225  1  0.68550542  0.00055643  0.19215322  1
  Al  Al226  1  0.31161317  0.32653082  0.50091662  1
  Al  Al227  1  0.81830192  0.00229556  0.31676932  1
  Al  Al228  1  0.67759502  0.32910039  0.00286037  1
  Al  Al229  1  0.49761524  0.81736362  0.32801656  1
  Al  Al230  1  0.49920080  0.32756991  0.17977612  1
  Al  Al231  1  0.67224082  0.82692211  0.50148681  1
  Al  Al232  1  0.83094444  0.83094193  0.50368383  1
  Al  Al233  1  0.82349473  0.82380348  0.00036396  1
  Al  Al234  1  0.00013997  0.83073632  0.32081117  1
  Al  Al235  1  0.00003549  0.82603702  0.67932257  1
  Al  Al236  1  0.68428249  -0.00163585  0.67050793  1
  Al  Al237  1  0.49929557  0.67301006  0.18006646  1
  Al  Al238  1  0.00176292  0.67899805  0.17384068  1
  Au  Au239  1  0.83213744  0.83270149  -0.00196334  1
  Au  Au240  1  0.83873095  0.32906659  -0.00583427  1
  Au  Au241  1  0.67083852  -0.00176051  0.66100147  1
  Au  Au242  1  0.83825623  0.49229981  0.67053756  1
  Au  Au243  1  0.32890008  0.16754689  0.50122643  1
  Au  Au244  1  0.49594943  0.67149973  0.67731888  1
  Au  Au245  1  0.49389998  0.66451363  0.33127468  1
  Au  Au246  1  0.17147527  0.00585151  0.66217029  1
  Au  Au247  1  0.81831745  0.00038458  0.32938589  1
  Au  Au248  1  0.49736013  0.83802129  0.16459852  1
  Au  Au249  1  0.17177435  0.00284062  0.83983382  1
  Au  Au250  1  0.33550860  0.16110578  -0.00349218  1
  Au  Au251  1  0.00056596  0.82808143  0.83536114  1
  Au  Au252  1  0.00322448  0.65308707  0.32479098  1
  Au  Au253  1  0.15515474  0.17466055  0.00155958  1
  Au  Au254  1  0.67958522  0.34432554  0.49916783  1
  Au  Au255  1  0.16555853  0.82427842  0.50001058  1
  Au  Au256  1  0.49581542  0.33896727  0.32905882  1
  Au  Au257  1  0.00524779  0.66196245  0.67698452  1
  Au  Au258  1  0.32461267  0.50184416  0.83088881  1
  Au  Au259  1  0.67244280  0.15925154  0.00194296  1
  Au  Au260  1  0.67301611  0.50487161  0.83716194  1
  Au  Au261  1  0.17414821  0.49954938  0.16311654  1
  Au  Au262  1  0.00122418  0.33619982  0.34534304  1
  Au  Au263  1  0.33124397  0.82738695  0.50126056  1
  Au  Au264  1  0.49796602  0.32362022  0.66229560  1
  Au  Au265  1  0.67193478  0.15709082  0.49975063  1
  Au  Au266  1  0.84620322  0.66226381  0.49943758  1
  Au  Au267  1  0.32634429  0.33697890  0.00218441  1
  Au  Au268  1  0.00112170  0.84239094  0.33294283  1
  Au  Au269  1  0.32331826  0.49930027  0.66365898  1
  Au  Au270  1  0.34136251  0.67352759  0.00123322  1
  Au  Au271  1  0.66644272  0.50008290  0.67012400  1
  Au  Au272  1  0.67419273  -0.00213420  0.83500462  1
  Au  Au273  1  0.49898613  0.16011672  0.32701858  1
  Au  Au274  1  0.83105402  0.00531729  0.16093967  1
  Au  Au275  1  0.66470583  0.33897542  0.00372486  1
  Au  Au276  1  0.65940400  0.82705093  -0.00291975  1
  Au  Au277  1  0.00512666  0.82787495  0.15424569  1
  Au  Au278  1  0.17766061  0.49729969  0.33655457  1
  Au  Au279  1  0.65517405  0.67056161  0.49727926  1
  Au  Au280  1  0.00166279  0.32691702  0.15773137  1
  Au  Au281  1  0.49865118  0.16339167  0.82073572  1
  Au  Au282  1  -0.00494689  0.83657420  0.67507421  1
  Au  Au283  1  0.00319832  0.16494803  0.32308781  1
  Au  Au284  1  0.15961608  0.67318311  -0.00428201  1
  Au  Au285  1  0.50059898  0.33244994  0.83014022  1
  Au  Au286  1  0.83091855  0.65831790  -0.00252776  1
  Au  Au287  1  0.82432722  0.84694266  0.50547655  1
