# generated using pymatgen
data_Ca24Ti8Al207Au49
_symmetry_space_group_name_H-M   'P 1'
_cell_length_a   17.32199460
_cell_length_b   17.32270611
_cell_length_c   17.32255342
_cell_angle_alpha   90.00099569
_cell_angle_beta   90.00197928
_cell_angle_gamma   90.00279542
_symmetry_Int_Tables_number   1
_chemical_formula_structural   Ca24Ti8Al207Au49
_chemical_formula_sum   'Ca24 Ti8 Al207 Au49'
_cell_volume   5197.87157126
_cell_formula_units_Z   1
loop_
 _symmetry_equiv_pos_site_id
 _symmetry_equiv_pos_as_xyz
  1  'x, y, z'
loop_
 _atom_site_type_symbol
 _atom_site_label
 _atom_site_symmetry_multiplicity
 _atom_site_fract_x
 _atom_site_fract_y
 _atom_site_fract_z
 _atom_site_occupancy
  Ca  Ca0  1  0.24817495  -0.00029143  0.00264798  1
  Ca  Ca1  1  0.24842304  -0.00258922  0.49613082  1
  Ca  Ca2  1  0.25242583  0.49723729  -0.00160662  1
  Ca  Ca3  1  0.25071198  0.50112062  0.49973579  1
  Ca  Ca4  1  0.75349165  -0.00000112  -0.00253141  1
  Ca  Ca5  1  0.75291921  -0.00244443  0.50569408  1
  Ca  Ca6  1  0.75064657  0.50029561  0.00018734  1
  Ca  Ca7  1  0.75076230  0.49994481  0.50034622  1
  Ca  Ca8  1  -0.00689958  0.25227574  -0.00112677  1
  Ca  Ca9  1  -0.00546426  0.25063924  0.50041115  1
  Ca  Ca10  1  0.00203939  0.74932126  0.00075661  1
  Ca  Ca11  1  -0.00569963  0.75130107  0.49980579  1
  Ca  Ca12  1  0.50229682  0.25267161  -0.00151230  1
  Ca  Ca13  1  0.50596066  0.25417161  0.50267434  1
  Ca  Ca14  1  0.49808520  0.74761383  -0.00701249  1
  Ca  Ca15  1  0.50335962  0.74613184  0.50324973  1
  Ca  Ca16  1  0.00395386  0.00116963  0.25201593  1
  Ca  Ca17  1  -0.00595808  0.00189097  0.74528354  1
  Ca  Ca18  1  -0.00381229  0.49981285  0.25393062  1
  Ca  Ca19  1  -0.00270567  0.50020580  0.74930970  1
  Ca  Ca20  1  0.49859110  0.00083518  0.25219367  1
  Ca  Ca21  1  0.50358475  -0.00288471  0.74847592  1
  Ca  Ca22  1  0.50375451  0.49869110  0.25153304  1
  Ca  Ca23  1  0.50495724  0.50135868  0.74655790  1
  Ti  Ti24  1  0.25021272  0.25031273  0.24919634  1
  Ti  Ti25  1  0.24708716  0.25180064  0.74991634  1
  Ti  Ti26  1  0.24927195  0.75028415  0.25069087  1
  Ti  Ti27  1  0.24991760  0.75087811  0.75045774  1
  Ti  Ti28  1  0.75022317  0.24970185  0.25165142  1
  Ti  Ti29  1  0.75138005  0.25137056  0.74860340  1
  Ti  Ti30  1  0.75013694  0.74892359  0.25391429  1
  Ti  Ti31  1  0.74973233  0.74937306  0.74873057  1
  Al  Al32  1  0.07922214  0.08216751  0.08959527  1
  Al  Al33  1  0.07307876  0.07848031  0.57790388  1
  Al  Al34  1  0.08636219  0.58634460  0.07669561  1
  Al  Al35  1  0.09019718  0.57636824  0.58774956  1
  Al  Al36  1  0.58552268  0.08407329  0.07896732  1
  Al  Al37  1  0.59312474  0.08842755  0.58504085  1
  Al  Al38  1  0.58367314  0.58168621  0.08119860  1
  Al  Al39  1  0.59076416  0.58276030  0.58872209  1
  Al  Al40  1  0.41084584  0.40880934  0.08079445  1
  Al  Al41  1  0.42416132  0.42575184  0.58092214  1
  Al  Al42  1  0.41212404  0.92489747  0.08094205  1
  Al  Al43  1  0.42489909  0.90534694  0.58590938  1
  Al  Al44  1  0.90707546  0.40996592  0.07665727  1
  Al  Al45  1  0.91827541  0.41195317  0.58714896  1
  Al  Al46  1  0.92559632  0.92582248  0.07754969  1
  Al  Al47  1  0.90731757  0.90804277  0.59160965  1
  Al  Al48  1  0.41397538  0.07382591  0.41177504  1
  Al  Al49  1  0.41802612  0.07923205  0.92166949  1
  Al  Al50  1  0.40934894  0.58731699  0.42296751  1
  Al  Al51  1  0.42298010  0.58551719  0.91676657  1
  Al  Al52  1  0.91588940  0.07909360  0.42048153  1
  Al  Al53  1  0.90268375  0.08917205  0.91350707  1
  Al  Al54  1  0.90459826  0.58555044  0.41385894  1
  Al  Al55  1  0.91066418  0.56898650  0.91370085  1
  Al  Al56  1  0.06936218  0.42064053  0.42162321  1
  Al  Al57  1  0.07928479  0.41752431  0.91519783  1
  Al  Al58  1  0.08442245  0.92076938  0.41165281  1
  Al  Al59  1  0.07821231  0.91657237  0.91805669  1
  Al  Al60  1  0.59171409  0.41065387  0.42210137  1
  Al  Al61  1  0.58677889  0.41881865  0.91747855  1
  Al  Al62  1  0.58481435  0.92139900  0.42978165  1
  Al  Al63  1  0.58311236  0.91555886  0.90000635  1
  Al  Al64  1  0.08715601  0.07841951  0.41195171  1
  Al  Al65  1  0.07588054  0.08022098  0.91826902  1
  Al  Al66  1  0.07438016  0.58249315  0.42456918  1
  Al  Al67  1  0.09150846  0.58347725  0.92191887  1
  Al  Al68  1  0.59130635  0.08808295  0.42854931  1
  Al  Al69  1  0.58826582  0.07725540  0.91696296  1
  Al  Al70  1  0.58823613  0.58002128  0.42318805  1
  Al  Al71  1  0.58561471  0.58510920  0.91149358  1
  Al  Al72  1  0.42751066  0.42569443  0.41782807  1
  Al  Al73  1  0.41707069  0.40660927  0.92360295  1
  Al  Al74  1  0.40671143  0.91918017  0.42294392  1
  Al  Al75  1  0.42454804  0.91440703  0.90560393  1
  Al  Al76  1  0.91027849  0.42106695  0.41030386  1
  Al  Al77  1  0.90217200  0.41041265  0.91383025  1
  Al  Al78  1  0.90753905  0.91501226  0.42758094  1
  Al  Al79  1  0.91104525  0.92603826  0.90510791  1
  Al  Al80  1  0.07688104  0.41765386  0.07883316  1
  Al  Al81  1  0.08178740  0.41577207  0.59725931  1
  Al  Al82  1  0.09165591  0.92254134  0.08849977  1
  Al  Al83  1  0.07057763  0.90957251  0.58837730  1
  Al  Al84  1  0.58603640  0.41961383  0.07889338  1
  Al  Al85  1  0.59880346  0.41709800  0.58513850  1
  Al  Al86  1  0.58288190  0.92229608  0.07142321  1
  Al  Al87  1  0.58624855  0.91091941  0.59211414  1
  Al  Al88  1  0.40758168  0.08176516  0.08323325  1
  Al  Al89  1  0.42974497  0.07363773  0.57624344  1
  Al  Al90  1  0.42167907  0.58051440  0.08032803  1
  Al  Al91  1  0.41579305  0.59443642  0.58252922  1
  Al  Al92  1  0.91619970  0.09510399  0.07682436  1
  Al  Al93  1  0.90892544  0.07689380  0.58956613  1
  Al  Al94  1  0.92312319  0.57312459  0.07640358  1
  Al  Al95  1  0.90638447  0.58528475  0.57579287  1
  Al  Al96  1  0.24855302  0.13495020  0.13642059  1
  Al  Al97  1  0.24680897  0.13421602  0.63844552  1
  Al  Al98  1  0.24624110  0.63468092  0.13382041  1
  Al  Al99  1  0.25028390  0.63782462  0.63081185  1
  Al  Al100  1  0.75432871  0.13307621  0.13137378  1
  Al  Al101  1  0.75023791  0.13376926  0.63143325  1
  Al  Al102  1  0.75039072  0.63544205  0.13629872  1
  Al  Al103  1  0.75209532  0.63425657  0.63554658  1
  Al  Al104  1  0.25185707  0.36472692  0.12825315  1
  Al  Al105  1  0.24409515  0.37019051  0.63578782  1
  Al  Al106  1  0.24958504  0.86410639  0.12891823  1
  Al  Al107  1  0.24830602  0.86713453  0.63903561  1
  Al  Al108  1  0.75196262  0.36498755  0.13619531  1
  Al  Al109  1  0.75041923  0.36563704  0.62652651  1
  Al  Al110  1  0.75128182  0.86622385  0.13768415  1
  Al  Al111  1  0.75224953  0.86921461  0.63310037  1
  Al  Al112  1  0.25391058  0.13502536  0.36360566  1
  Al  Al113  1  0.24599218  0.13784421  0.86398317  1
  Al  Al114  1  0.24969991  0.63623785  0.36915676  1
  Al  Al115  1  0.24632372  0.63669971  0.86574531  1
  Al  Al116  1  0.74802114  0.13679409  0.37213174  1
  Al  Al117  1  0.75571975  0.13452592  0.86461207  1
  Al  Al118  1  0.75288998  0.62663107  0.36752882  1
  Al  Al119  1  0.74825935  0.63110653  0.86320854  1
  Al  Al120  1  0.25102926  0.36409710  0.36613059  1
  Al  Al121  1  0.24836394  0.36605232  0.86779372  1
  Al  Al122  1  0.25181688  0.86448875  0.36723212  1
  Al  Al123  1  0.24755096  0.86225122  0.86662805  1
  Al  Al124  1  0.75011419  0.36807975  0.37037700  1
  Al  Al125  1  0.75341435  0.37252481  0.86077198  1
  Al  Al126  1  0.75035852  0.86182937  0.37682526  1
  Al  Al127  1  0.75147760  0.86608877  0.86002000  1
  Al  Al128  1  0.13485774  0.25176371  0.13493822  1
  Al  Al129  1  0.12763832  0.25221655  0.63736058  1
  Al  Al130  1  0.13712283  0.75181233  0.12930911  1
  Al  Al131  1  0.13281029  0.75322645  0.63593013  1
  Al  Al132  1  0.63289328  0.24879001  0.13507850  1
  Al  Al133  1  0.63942839  0.25252858  0.63236635  1
  Al  Al134  1  0.63836476  0.75159310  0.13759640  1
  Al  Al135  1  0.63743501  0.75228631  0.63514041  1
  Al  Al136  1  0.13707893  0.24913045  0.36494338  1
  Al  Al137  1  0.13048884  0.25536354  0.86434465  1
  Al  Al138  1  0.13533310  0.75160360  0.36783042  1
  Al  Al139  1  0.13328153  0.75108197  0.86687968  1
  Al  Al140  1  0.63820497  0.25151021  0.37070193  1
  Al  Al141  1  0.64144968  0.25187556  0.86130215  1
  Al  Al142  1  0.63437895  0.74897125  0.36849952  1
  Al  Al143  1  0.63227245  0.74986921  0.85643734  1
  Al  Al144  1  0.36903476  0.24955995  0.13608699  1
  Al  Al145  1  0.36169542  0.25503605  0.63444714  1
  Al  Al146  1  0.36241602  0.75176472  0.13351521  1
  Al  Al147  1  0.36669557  0.74918908  0.63895023  1
  Al  Al148  1  0.86279863  0.25213665  0.13288600  1
  Al  Al149  1  0.86425241  0.24972210  0.63016789  1
  Al  Al150  1  0.86407218  0.75019030  0.13872731  1
  Al  Al151  1  0.86316901  0.75180602  0.63350405  1
  Al  Al152  1  0.36498582  0.25373983  0.36514540  1
  Al  Al153  1  0.36390827  0.25234668  0.86351214  1
  Al  Al154  1  0.36599485  0.74456438  0.36708884  1
  Al  Al155  1  0.37050403  0.75169389  0.86312294  1
  Al  Al156  1  0.86056582  0.25062029  0.37429692  1
  Al  Al157  1  0.86403605  0.25144735  0.86748644  1
  Al  Al158  1  0.86010604  0.74859058  0.37296084  1
  Al  Al159  1  0.86545917  0.75456996  0.85931420  1
  Al  Al160  1  0.13544319  0.13492739  0.25149189  1
  Al  Al161  1  0.13168105  0.12991374  0.74996324  1
  Al  Al162  1  0.13605536  0.63829443  0.25123377  1
  Al  Al163  1  0.13420322  0.63461534  0.74323137  1
  Al  Al164  1  0.63778283  0.13551585  0.24925571  1
  Al  Al165  1  0.63870801  0.13607028  0.74637014  1
  Al  Al166  1  0.63681016  0.63608334  0.25691039  1
  Al  Al167  1  0.63793686  0.62766475  0.74838685  1
  Al  Al168  1  0.36588664  0.13398830  0.24965932  1
  Al  Al169  1  0.36367257  0.13639481  0.74876842  1
  Al  Al170  1  0.36249249  0.63719231  0.24943037  1
  Al  Al171  1  0.36392941  0.63341546  0.75216413  1
  Al  Al172  1  0.86282651  0.13853346  0.25279853  1
  Al  Al173  1  0.86401037  0.13361568  0.74650623  1
  Al  Al174  1  0.86363781  0.63439909  0.25511074  1
  Al  Al175  1  0.86470214  0.63262690  0.75252728  1
  Al  Al176  1  0.13616793  0.36393278  0.24806502  1
  Al  Al177  1  0.12866181  0.36733571  0.74829607  1
  Al  Al178  1  0.13676666  0.86439601  0.24774484  1
  Al  Al179  1  0.13147933  0.86697294  0.75207506  1
  Al  Al180  1  0.63952186  0.36347886  0.25317530  1
  Al  Al181  1  0.64168544  0.37303052  0.74623120  1
  Al  Al182  1  0.63985496  0.86900057  0.25918258  1
  Al  Al183  1  0.63457024  0.86637249  0.74602526  1
  Al  Al184  1  0.36508653  0.36395555  0.24387028  1
  Al  Al185  1  0.36322593  0.36729187  0.75009915  1
  Al  Al186  1  0.36205203  0.86617429  0.25488266  1
  Al  Al187  1  0.37022193  0.86406754  0.74886189  1
  Al  Al188  1  0.86215264  0.36463295  0.25380645  1
  Al  Al189  1  0.86697801  0.36357969  0.74693652  1
  Al  Al190  1  0.86480241  0.86300196  0.25429579  1
  Al  Al191  1  0.86668254  0.86595166  0.74479023  1
  Al  Al192  1  0.50388797  0.32510046  0.82522970  1
  Al  Al193  1  0.68799443  0.00148673  0.81707584  1
  Al  Al194  1  0.50175810  0.17066980  0.32374485  1
  Al  Al195  1  0.18045059  0.50096563  0.81188858  1
  Al  Al196  1  0.68672349  0.17727674  -0.00219261  1
  Al  Al197  1  0.49828548  0.82550006  0.33346411  1
  Al  Al198  1  -0.00070127  0.67055832  0.17267022  1
  Al  Al199  1  0.50165913  0.32720542  0.32039350  1
  Al  Al200  1  0.32617085  0.18514006  -0.00101173  1
  Al  Al201  1  0.32354675  0.50398499  0.67497397  1
  Al  Al202  1  0.17279838  0.17325228  0.50146968  1
  Al  Al203  1  0.33187850  0.17437075  0.50135845  1
  Al  Al204  1  0.82075995  -0.00076584  0.32029008  1
  Al  Al205  1  0.67569140  0.50100639  0.18252950  1
  Al  Al206  1  0.00171595  0.82754950  0.17852242  1
  Al  Al207  1  0.19154616  -0.00056835  0.30917379  1
  Al  Al208  1  0.50029933  0.17641086  0.67260150  1
  Al  Al209  1  0.50305758  0.68365344  0.67991574  1
  Al  Al210  1  0.32678645  -0.00177065  0.67157376  1
  Al  Al211  1  0.30562322  -0.00235780  0.19037795  1
  Al  Al212  1  0.17222196  0.82328446  0.50159489  1
  Al  Al213  1  0.50349484  0.32971258  0.67251728  1
  Al  Al214  1  -0.00593609  0.17909930  0.81975369  1
  Al  Al215  1  0.50128438  0.17080263  0.82678276  1
  Al  Al216  1  0.16947165  0.17883577  0.00113166  1
  Al  Al217  1  0.32722884  0.81202169  0.50340933  1
  Al  Al218  1  -0.00164916  0.31743600  0.31816143  1
  Al  Al219  1  0.17152091  0.32952487  0.50211730  1
  Al  Al220  1  0.67694059  -0.00284013  0.17825028  1
  Al  Al221  1  0.50131698  0.67316919  0.18041822  1
  Al  Al222  1  0.32488411  0.49977984  0.32229233  1
  Al  Al223  1  0.68769799  0.67828530  0.50114515  1
  Al  Al224  1  0.82198584  0.82789761  0.00074524  1
  Al  Al225  1  -0.00075417  0.18254961  0.18376008  1
  Al  Al226  1  0.31752591  0.67946405  -0.00068207  1
  Al  Al227  1  0.82836234  0.67067643  -0.00136766  1
  Al  Al228  1  0.81585079  0.49858165  0.68189049  1
  Al  Al229  1  0.31981858  0.00042182  0.82754774  1
  Al  Al230  1  0.17648278  0.50018851  0.17195385  1
  Al  Al231  1  0.50043427  0.83012565  0.17010755  1
  Al  Al232  1  -0.00158272  0.67928772  0.32798061  1
  Al  Al233  1  -0.00274771  0.68002195  0.66998763  1
  Al  Al234  1  0.16915906  0.50022691  0.32937849  1
  Al  Al235  1  0.68921489  0.32840800  -0.00135407  1
  Al  Al236  1  0.82877019  0.50087801  0.17949538  1
  Al  Al237  1  -0.00051255  0.67550298  0.82975066  1
  Al  Al238  1  0.67444248  0.67869904  -0.00103082  1
  Au  Au239  1  -0.00078503  0.16786112  0.33377426  1
  Au  Au240  1  0.16265075  0.82636616  -0.00042097  1
  Au  Au241  1  -0.00239698  0.66872513  0.84515369  1
  Au  Au242  1  0.83829310  0.82739960  -0.00367119  1
  Au  Au243  1  0.50182731  0.67712953  0.82636228  1
  Au  Au244  1  -0.00571704  0.33074260  0.16720519  1
  Au  Au245  1  0.67513887  0.82534152  0.50483339  1
  Au  Au246  1  0.15962343  0.33258709  0.49859314  1
  Au  Au247  1  0.67443721  0.17370108  -0.00235734  1
  Au  Au248  1  -0.00248926  0.84224255  0.81851246  1
  Au  Au249  1  0.17306644  0.16690741  0.00291034  1
  Au  Au250  1  0.33593574  0.33876404  0.49735096  1
  Au  Au251  1  0.16406751  0.50174185  0.17444082  1
  Au  Au252  1  0.65836039  0.82570935  -0.01149551  1
  Au  Au253  1  0.49732897  0.16828254  0.15989840  1
  Au  Au254  1  -0.00258610  0.17582866  0.66245802  1
  Au  Au255  1  0.66767791  -0.00090002  0.16979466  1
  Au  Au256  1  0.67726834  0.00057127  0.67047978  1
  Au  Au257  1  0.49809169  0.84211690  0.33707201  1
  Au  Au258  1  0.17154086  -0.00072032  0.83794492  1
  Au  Au259  1  0.67430672  0.49953901  0.82788509  1
  Au  Au260  1  -0.00236294  0.17015658  0.82755630  1
  Au  Au261  1  0.33184409  0.83913996  -0.00803582  1
  Au  Au262  1  0.32543826  0.15864435  0.50111492  1
  Au  Au263  1  0.34289001  0.49469213  0.83375338  1
  Au  Au264  1  0.33890084  -0.00385510  0.66884053  1
  Au  Au265  1  0.32330741  0.66353641  0.00106294  1
  Au  Au266  1  0.49974471  0.82297696  0.15438881  1
  Au  Au267  1  -0.00579617  0.33579365  0.82454054  1
  Au  Au268  1  0.34032616  0.50000020  0.17360248  1
  Au  Au269  1  0.00312183  0.82501371  0.16613866  1
  Au  Au270  1  0.17038362  0.83545914  0.49979471  1
  Au  Au271  1  0.49979888  0.65740178  0.33162547  1
  Au  Au272  1  0.82786060  0.33473728  0.49830352  1
  Au  Au273  1  -0.00798851  0.82981896  0.34125886  1
  Au  Au274  1  0.83075369  0.49894361  0.67367214  1
  Au  Au275  1  0.67603524  0.49737882  0.33324677  1
  Au  Au276  1  0.50490582  0.33720446  0.16917028  1
  Au  Au277  1  0.16188201  -0.00042153  0.66622480  1
  Au  Au278  1  0.32381131  0.50641346  0.66237407  1
  Au  Au279  1  0.17661226  0.66037871  0.49971567  1
  Au  Au280  1  0.67539589  0.00197872  0.34294067  1
  Au  Au281  1  0.17314788  0.33400761  -0.00123598  1
  Au  Au282  1  0.84166874  0.00611026  0.17113251  1
  Au  Au283  1  -0.00185100  0.67243105  0.65489586  1
  Au  Au284  1  0.50472529  0.17264553  0.34030289  1
  Au  Au285  1  0.32067328  0.00012584  0.18219897  1
  Au  Au286  1  0.82177862  0.16156503  0.50205793  1
  Au  Au287  1  0.16750511  0.50143800  0.82307343  1
