# generated using pymatgen
data_Ca24Ti8Al207Au49
_symmetry_space_group_name_H-M   'P 1'
_cell_length_a   17.32479007
_cell_length_b   17.32359397
_cell_length_c   17.32288616
_cell_angle_alpha   89.99682679
_cell_angle_beta   89.99913142
_cell_angle_gamma   89.99919990
_symmetry_Int_Tables_number   1
_chemical_formula_structural   Ca24Ti8Al207Au49
_chemical_formula_sum   'Ca24 Ti8 Al207 Au49'
_cell_volume   5199.07673838
_cell_formula_units_Z   1
loop_
 _symmetry_equiv_pos_site_id
 _symmetry_equiv_pos_as_xyz
  1  'x, y, z'
loop_
 _atom_site_type_symbol
 _atom_site_label
 _atom_site_symmetry_multiplicity
 _atom_site_fract_x
 _atom_site_fract_y
 _atom_site_fract_z
 _atom_site_occupancy
  Ca  Ca0  1  0.25286032  0.00068495  0.00186777  1
  Ca  Ca1  1  0.25123939  -0.00157090  0.49596445  1
  Ca  Ca2  1  0.25197327  0.50295298  -0.00231359  1
  Ca  Ca3  1  0.24270753  0.50487078  0.50037854  1
  Ca  Ca4  1  0.75189233  -0.00448642  0.00288051  1
  Ca  Ca5  1  0.75002320  0.00347611  0.50027548  1
  Ca  Ca6  1  0.75080080  0.50603125  0.00321931  1
  Ca  Ca7  1  0.75320422  0.49674197  0.49695252  1
  Ca  Ca8  1  0.00135529  0.25179263  -0.00024343  1
  Ca  Ca9  1  -0.00210925  0.25443014  0.49773032  1
  Ca  Ca10  1  -0.00167454  0.74730342  0.00143335  1
  Ca  Ca11  1  0.00416817  0.74590708  0.49817763  1
  Ca  Ca12  1  0.49712922  0.25029519  0.00204820  1
  Ca  Ca13  1  0.50139563  0.25082032  0.49845822  1
  Ca  Ca14  1  0.50079707  0.74888575  0.00233478  1
  Ca  Ca15  1  0.49329173  0.75183239  0.49857002  1
  Ca  Ca16  1  0.00372642  0.00221823  0.24911242  1
  Ca  Ca17  1  -0.00178793  -0.00199847  0.75302011  1
  Ca  Ca18  1  0.00141113  0.50096894  0.25025235  1
  Ca  Ca19  1  0.00436996  0.50328577  0.75363381  1
  Ca  Ca20  1  0.49269118  -0.00232663  0.24735674  1
  Ca  Ca21  1  0.49708155  -0.00186639  0.75355111  1
  Ca  Ca22  1  0.49937459  0.50161599  0.24485511  1
  Ca  Ca23  1  0.49645266  0.50329258  0.75567629  1
  Ti  Ti24  1  0.24935753  0.25027172  0.24977044  1
  Ti  Ti25  1  0.24932398  0.24976633  0.75117112  1
  Ti  Ti26  1  0.24989860  0.75025925  0.24957769  1
  Ti  Ti27  1  0.25004645  0.75064006  0.75047115  1
  Ti  Ti28  1  0.75169835  0.25210160  0.25035758  1
  Ti  Ti29  1  0.75105974  0.24921034  0.74990798  1
  Ti  Ti30  1  0.74915277  0.74866965  0.24819829  1
  Ti  Ti31  1  0.75046684  0.75043945  0.75332777  1
  Al  Al32  1  0.08222885  0.08474203  0.09227563  1
  Al  Al33  1  0.07609601  0.08041461  0.57972299  1
  Al  Al34  1  0.07700032  0.57816153  0.08276728  1
  Al  Al35  1  0.08786141  0.59197891  0.57946487  1
  Al  Al36  1  0.57566139  0.07519757  0.08077644  1
  Al  Al37  1  0.58302940  0.08187649  0.58079316  1
  Al  Al38  1  0.58621870  0.58859556  0.09451999  1
  Al  Al39  1  0.57263695  0.57509739  0.58190907  1
  Al  Al40  1  0.41275239  0.41400997  0.07584527  1
  Al  Al41  1  0.41735317  0.42246757  0.58268413  1
  Al  Al42  1  0.40487936  0.91309470  0.08765256  1
  Al  Al43  1  0.41210068  0.90456947  0.57589926  1
  Al  Al44  1  0.92139099  0.42452906  0.09223755  1
  Al  Al45  1  0.92276619  0.41928835  0.57754128  1
  Al  Al46  1  0.91137419  0.90976098  0.07865890  1
  Al  Al47  1  0.92385824  0.91929163  0.58177138  1
  Al  Al48  1  0.41338685  0.07155538  0.40662950  1
  Al  Al49  1  0.42080129  0.08841400  0.91537667  1
  Al  Al50  1  0.40999155  0.59354588  0.41882295  1
  Al  Al51  1  0.41140517  0.58090192  0.91543408  1
  Al  Al52  1  0.92044612  0.09274841  0.41182396  1
  Al  Al53  1  0.92369303  0.08379489  0.91230569  1
  Al  Al54  1  0.92381766  0.57628594  0.39984697  1
  Al  Al55  1  0.91598913  0.59793166  0.91796833  1
  Al  Al56  1  0.08044044  0.40989661  0.41572007  1
  Al  Al57  1  0.08832657  0.41767066  0.91534997  1
  Al  Al58  1  0.08691458  0.91503931  0.41151290  1
  Al  Al59  1  0.07752850  0.91133329  0.91825652  1
  Al  Al60  1  0.58370705  0.41997271  0.41462122  1
  Al  Al61  1  0.57517290  0.42624228  0.92045279  1
  Al  Al62  1  0.57320807  0.92073173  0.41823049  1
  Al  Al63  1  0.58092043  0.91709521  0.91962033  1
  Al  Al64  1  0.08157852  0.08731396  0.40075948  1
  Al  Al65  1  0.07841955  0.08626702  0.91454764  1
  Al  Al66  1  0.08231082  0.58903871  0.41780505  1
  Al  Al67  1  0.07807698  0.58452299  0.91014684  1
  Al  Al68  1  0.57741623  0.08115055  0.41870705  1
  Al  Al69  1  0.57635388  0.08792545  0.90922066  1
  Al  Al70  1  0.57856647  0.57911588  0.40928666  1
  Al  Al71  1  0.58078243  0.58460817  0.92287644  1
  Al  Al72  1  0.42036994  0.42071258  0.41925950  1
  Al  Al73  1  0.40205007  0.41705844  0.91525962  1
  Al  Al74  1  0.40235352  0.91197523  0.41337199  1
  Al  Al75  1  0.41406319  0.91148455  0.92555561  1
  Al  Al76  1  0.91918847  0.41402705  0.40118368  1
  Al  Al77  1  0.93016760  0.42497624  0.91554349  1
  Al  Al78  1  0.92661729  0.91940200  0.41376957  1
  Al  Al79  1  0.91563812  0.90186043  0.91880594  1
  Al  Al80  1  0.08341944  0.41596023  0.08367642  1
  Al  Al81  1  0.08565542  0.41270153  0.57520523  1
  Al  Al82  1  0.08454490  0.91927172  0.08371082  1
  Al  Al83  1  0.08535390  0.91312690  0.57960620  1
  Al  Al84  1  0.58319793  0.42943329  0.08877069  1
  Al  Al85  1  0.57827582  0.41840828  0.58117352  1
  Al  Al86  1  0.58067785  0.91516045  0.08138281  1
  Al  Al87  1  0.57247752  0.91860635  0.58283017  1
  Al  Al88  1  0.41083055  0.07582717  0.08822036  1
  Al  Al89  1  0.42260185  0.07448449  0.57983730  1
  Al  Al90  1  0.42327305  0.58854526  0.08238184  1
  Al  Al91  1  0.40557458  0.59016804  0.57843906  1
  Al  Al92  1  0.92543198  0.08038413  0.08890077  1
  Al  Al93  1  0.91856861  0.08942546  0.57757509  1
  Al  Al94  1  0.90857465  0.59144888  0.08241560  1
  Al  Al95  1  0.93070846  0.57899748  0.58646426  1
  Al  Al96  1  0.25296130  0.12688731  0.13763332  1
  Al  Al97  1  0.25436394  0.13314842  0.63710556  1
  Al  Al98  1  0.25259762  0.63922069  0.13781388  1
  Al  Al99  1  0.25095381  0.63647199  0.63130062  1
  Al  Al100  1  0.75161482  0.13613897  0.13592211  1
  Al  Al101  1  0.74999667  0.13194120  0.63687780  1
  Al  Al102  1  0.74965124  0.63327959  0.13502792  1
  Al  Al103  1  0.74920647  0.63339497  0.63764927  1
  Al  Al104  1  0.25212253  0.36369223  0.13579057  1
  Al  Al105  1  0.24978684  0.36523525  0.62992896  1
  Al  Al106  1  0.25445619  0.87027144  0.13706001  1
  Al  Al107  1  0.25272263  0.86548161  0.63166164  1
  Al  Al108  1  0.75169055  0.37344086  0.13894970  1
  Al  Al109  1  0.74940768  0.36427386  0.62930686  1
  Al  Al110  1  0.75084069  0.85941669  0.13150277  1
  Al  Al111  1  0.75017837  0.86889182  0.63762332  1
  Al  Al112  1  0.24969640  0.13432163  0.36377288  1
  Al  Al113  1  0.25236527  0.12950245  0.86563879  1
  Al  Al114  1  0.25180942  0.63833095  0.36591469  1
  Al  Al115  1  0.25385430  0.63667400  0.86634484  1
  Al  Al116  1  0.75331804  0.13453131  0.36251462  1
  Al  Al117  1  0.75150669  0.13431402  0.86736763  1
  Al  Al118  1  0.75268939  0.63367210  0.36026973  1
  Al  Al119  1  0.75063978  0.63796362  0.87316240  1
  Al  Al120  1  0.24536290  0.36262187  0.37243614  1
  Al  Al121  1  0.25356888  0.36375160  0.86759659  1
  Al  Al122  1  0.25525576  0.86415433  0.36481335  1
  Al  Al123  1  0.25054958  0.87059778  0.86482089  1
  Al  Al124  1  0.75480961  0.36636924  0.36823514  1
  Al  Al125  1  0.74720600  0.36231537  0.86409845  1
  Al  Al126  1  0.75227669  0.86634994  0.36222689  1
  Al  Al127  1  0.75358465  0.86403392  0.87318657  1
  Al  Al128  1  0.13451833  0.24706685  0.13870579  1
  Al  Al129  1  0.13642038  0.25117267  0.63415884  1
  Al  Al130  1  0.12926429  0.75165409  0.13766800  1
  Al  Al131  1  0.13688875  0.74773474  0.63151757  1
  Al  Al132  1  0.63886994  0.25011325  0.13480392  1
  Al  Al133  1  0.63661594  0.24773426  0.63104919  1
  Al  Al134  1  0.63248789  0.74741572  0.13045048  1
  Al  Al135  1  0.63577393  0.75297448  0.63556085  1
  Al  Al136  1  0.13073636  0.25037151  0.36222828  1
  Al  Al137  1  0.13161055  0.24996195  0.86301670  1
  Al  Al138  1  0.13623753  0.74540821  0.36648065  1
  Al  Al139  1  0.13564818  0.74848859  0.86528931  1
  Al  Al140  1  0.63913305  0.25281949  0.36850979  1
  Al  Al141  1  0.63472805  0.24705855  0.86823923  1
  Al  Al142  1  0.62987503  0.74517569  0.36134749  1
  Al  Al143  1  0.63809443  0.75195605  0.87510715  1
  Al  Al144  1  0.36095917  0.24842961  0.13171087  1
  Al  Al145  1  0.36310603  0.25145038  0.63668106  1
  Al  Al146  1  0.36801548  0.75406670  0.13590326  1
  Al  Al147  1  0.36267651  0.74969469  0.63300777  1
  Al  Al148  1  0.86825808  0.24666029  0.13973946  1
  Al  Al149  1  0.86546099  0.25096266  0.63598498  1
  Al  Al150  1  0.86809459  0.74692068  0.13386181  1
  Al  Al151  1  0.86358057  0.75404023  0.63552399  1
  Al  Al152  1  0.36217016  0.25226770  0.36360345  1
  Al  Al153  1  0.36278295  0.24752993  0.86977416  1
  Al  Al154  1  0.36775469  0.75043133  0.36417743  1
  Al  Al155  1  0.36382470  0.75592379  0.86667073  1
  Al  Al156  1  0.87155926  0.25494939  0.36078125  1
  Al  Al157  1  0.87386642  0.24461241  0.86203737  1
  Al  Al158  1  0.86693087  0.74587906  0.36075097  1
  Al  Al159  1  0.86518336  0.74764470  0.87042075  1
  Al  Al160  1  0.13308756  0.13502438  0.25023554  1
  Al  Al161  1  0.13606097  0.13334204  0.75260733  1
  Al  Al162  1  0.13073520  0.63667291  0.25025292  1
  Al  Al163  1  0.13802543  0.63578188  0.75167083  1
  Al  Al164  1  0.63624548  0.13672255  0.25203046  1
  Al  Al165  1  0.63471269  0.13450506  0.75247980  1
  Al  Al166  1  0.63029266  0.63335747  0.24555671  1
  Al  Al167  1  0.63659126  0.63928542  0.75252372  1
  Al  Al168  1  0.36329830  0.13376446  0.24996296  1
  Al  Al169  1  0.36528983  0.13215206  0.75509088  1
  Al  Al170  1  0.37034895  0.63774040  0.24785921  1
  Al  Al171  1  0.36279135  0.63667638  0.75273573  1
  Al  Al172  1  0.87222942  0.13797835  0.25383667  1
  Al  Al173  1  0.86374068  0.12977554  0.75006388  1
  Al  Al174  1  0.86800028  0.63091395  0.24513536  1
  Al  Al175  1  0.86665186  0.63754896  0.75458227  1
  Al  Al176  1  0.13421662  0.36530711  0.25250854  1
  Al  Al177  1  0.13861971  0.36519096  0.75303003  1
  Al  Al178  1  0.13837568  0.86527999  0.24888591  1
  Al  Al179  1  0.13641240  0.86398595  0.74887445  1
  Al  Al180  1  0.63647215  0.36633989  0.24922777  1
  Al  Al181  1  0.63526703  0.36198350  0.74955956  1
  Al  Al182  1  0.62852473  0.85935675  0.24727205  1
  Al  Al183  1  0.63636912  0.86280442  0.75597836  1
  Al  Al184  1  0.36111001  0.36742573  0.25108006  1
  Al  Al185  1  0.36129927  0.36599151  0.75420997  1
  Al  Al186  1  0.36902074  0.86559893  0.24965419  1
  Al  Al187  1  0.36191777  0.86948977  0.75127553  1
  Al  Al188  1  0.86790344  0.37320208  0.25101769  1
  Al  Al189  1  0.86471589  0.36413275  0.75237076  1
  Al  Al190  1  0.86554912  0.86094861  0.24749191  1
  Al  Al191  1  0.86299273  0.86764522  0.75268204  1
  Al  Al192  1  0.82906214  0.32848507  -0.00178184  1
  Al  Al193  1  0.66967682  0.32889186  0.00343884  1
  Al  Al194  1  0.82658408  0.16703918  0.00214317  1
  Al  Al195  1  0.83327307  0.66844117  0.49732042  1
  Al  Al196  1  0.00178876  0.68137992  0.68768830  1
  Al  Al197  1  0.82226055  0.00021153  0.32228775  1
  Al  Al198  1  0.17712111  0.17336510  0.00045946  1
  Al  Al199  1  0.00303881  0.81405720  0.31841767  1
  Al  Al200  1  0.00015769  0.17473098  0.68370593  1
  Al  Al201  1  0.32693510  0.68547593  0.00133311  1
  Al  Al202  1  0.49875364  0.16767132  0.68638381  1
  Al  Al203  1  0.67343335  -0.00223237  0.17763690  1
  Al  Al204  1  0.50016314  0.67980683  0.82693567  1
  Al  Al205  1  0.33091676  0.17889478  0.49854288  1
  Al  Al206  1  0.18559291  -0.00118848  0.31973933  1
  Al  Al207  1  0.82137364  0.18370436  0.49841081  1
  Al  Al208  1  0.82366942  0.50046403  0.67414682  1
  Al  Al209  1  0.16898559  0.50109059  0.32902467  1
  Al  Al210  1  0.49871243  0.17439669  0.32643961  1
  Al  Al211  1  0.18810127  0.81343253  0.49817487  1
  Al  Al212  1  0.49843749  0.67291626  0.67211372  1
  Al  Al213  1  0.49937545  0.17354657  0.17376735  1
  Al  Al214  1  0.82236801  0.83223408  0.49771285  1
  Al  Al215  1  0.82795844  0.50239987  0.83128672  1
  Al  Al216  1  0.00226439  0.32787544  0.67912215  1
  Al  Al217  1  0.50045569  0.32657041  0.32451084  1
  Al  Al218  1  0.67890606  0.00285353  0.82410194  1
  Al  Al219  1  0.49949452  0.31715582  0.83363460  1
  Al  Al220  1  0.49850450  0.32539939  0.67612834  1
  Al  Al221  1  0.49868586  0.32771329  0.17179359  1
  Al  Al222  1  0.82752975  -0.00084858  0.17529004  1
  Al  Al223  1  0.18996313  0.82558210  0.00172268  1
  Al  Al224  1  0.67450541  0.50181299  0.82343668  1
  Al  Al225  1  0.18411139  0.32915873  0.00125497  1
  Al  Al226  1  0.49809531  0.82421375  0.68288908  1
  Al  Al227  1  0.18003014  0.50078018  0.17453596  1
  Al  Al228  1  -0.00042296  0.80860174  0.81846326  1
  Al  Al229  1  0.17191682  0.66923829  0.00155347  1
  Al  Al230  1  0.16867513  0.49998269  0.67136350  1
  Al  Al231  1  0.66939412  0.67795336  0.50072200  1
  Al  Al232  1  0.17663956  0.00341669  0.67577776  1
  Al  Al233  1  -0.00004055  0.31447072  0.18795777  1
  Al  Al234  1  0.32509815  0.50206829  0.32196366  1
  Al  Al235  1  0.16828001  0.18161696  0.49771470  1
  Al  Al236  1  0.32397768  0.50117752  0.68570981  1
  Al  Al237  1  0.18791986  0.50105883  0.82536915  1
  Al  Al238  1  0.68796400  0.50038563  0.31197445  1
  Au  Au239  1  0.17331905  0.82299484  -0.00016877  1
  Au  Au240  1  0.83558974  0.00356925  0.66381209  1
  Au  Au241  1  0.33935301  0.17418739  0.00228232  1
  Au  Au242  1  0.33367630  0.16214629  0.49588935  1
  Au  Au243  1  0.49898263  0.17297669  0.66995644  1
  Au  Au244  1  0.84391244  0.65515878  0.49358796  1
  Au  Au245  1  0.17627617  0.82531997  0.49495673  1
  Au  Au246  1  0.49830675  0.82575987  0.16290429  1
  Au  Au247  1  0.17598729  0.00039941  0.17333065  1
  Au  Au248  1  0.00091725  0.66635980  0.17473881  1
  Au  Au249  1  0.16115492  0.17909993  0.00072538  1
  Au  Au250  1  0.00313888  0.32509839  0.17475004  1
  Au  Au251  1  0.49810998  0.66540197  0.32288432  1
  Au  Au252  1  0.49599856  0.83075724  0.33265575  1
  Au  Au253  1  0.00024746  0.82754879  0.67215006  1
  Au  Au254  1  0.83561391  -0.00466208  0.83622855  1
  Au  Au255  1  0.67540118  0.66447831  0.00368259  1
  Au  Au256  1  -0.00233451  0.83520703  0.17211569  1
  Au  Au257  1  0.83882441  0.33181921  0.49500112  1
  Au  Au258  1  0.83421324  0.00032314  0.32707100  1
  Au  Au259  1  0.16797380  0.00150456  0.66693103  1
  Au  Au260  1  0.67028722  0.00011236  0.83272090  1
  Au  Au261  1  0.83897778  0.16984267  0.00306973  1
  Au  Au262  1  0.49577537  0.33358407  0.83151465  1
  Au  Au263  1  0.65802076  -0.00068619  0.32391986  1
  Au  Au264  1  0.65925009  0.49836146  0.67621429  1
  Au  Au265  1  0.32891034  0.50290117  0.15761666  1
  Au  Au266  1  0.83609115  0.50052870  0.67761576  1
  Au  Au267  1  0.83419895  0.34586279  -0.00296603  1
  Au  Au268  1  0.66506306  0.33174486  0.50111141  1
  Au  Au269  1  0.65829266  0.66521897  0.50108572  1
  Au  Au270  1  0.32887718  0.50108726  0.67376983  1
  Au  Au271  1  0.16024000  -0.00173304  0.83085043  1
  Au  Au272  1  0.66125355  0.16490753  0.00160938  1
  Au  Au273  1  0.66664508  0.34058907  0.00589141  1
  Au  Au274  1  0.32634280  0.33874247  0.50071610  1
  Au  Au275  1  0.67747267  0.83293703  0.00242196  1
  Au  Au276  1  0.66570417  -0.00388546  0.66897996  1
  Au  Au277  1  0.67553075  0.49865860  0.32370023  1
  Au  Au278  1  0.66745846  0.84078884  0.50011193  1
  Au  Au279  1  0.83451582  0.82870748  0.49649702  1
  Au  Au280  1  0.32261178  0.50084285  0.33442146  1
  Au  Au281  1  0.15300766  0.17571555  0.49638749  1
  Au  Au282  1  0.00271675  0.32614990  0.82850050  1
  Au  Au283  1  0.82478523  0.50357698  0.17264604  1
  Au  Au284  1  0.33181321  -0.00518593  0.66336738  1
  Au  Au285  1  0.49791910  0.82817407  0.83410869  1
  Au  Au286  1  0.33400096  -0.00033793  0.83852325  1
  Au  Au287  1  0.67405251  0.16349104  0.49658916  1
