# generated using pymatgen
data_Ca24Ti8Al207Au49
_symmetry_space_group_name_H-M   'P 1'
_cell_length_a   17.32462782
_cell_length_b   17.32517727
_cell_length_c   17.32507494
_cell_angle_alpha   89.99911853
_cell_angle_beta   89.99981330
_cell_angle_gamma   90.00065812
_symmetry_Int_Tables_number   1
_chemical_formula_structural   Ca24Ti8Al207Au49
_chemical_formula_sum   'Ca24 Ti8 Al207 Au49'
_cell_volume   5200.16019204
_cell_formula_units_Z   1
loop_
 _symmetry_equiv_pos_site_id
 _symmetry_equiv_pos_as_xyz
  1  'x, y, z'
loop_
 _atom_site_type_symbol
 _atom_site_label
 _atom_site_symmetry_multiplicity
 _atom_site_fract_x
 _atom_site_fract_y
 _atom_site_fract_z
 _atom_site_occupancy
  Ca  Ca0  1  0.24928623  0.00232977  0.00174477  1
  Ca  Ca1  1  0.24832539  0.00000973  0.49769738  1
  Ca  Ca2  1  0.25272724  0.49682746  0.00081796  1
  Ca  Ca3  1  0.24727557  0.49794003  0.49921021  1
  Ca  Ca4  1  0.75216359  -0.00104169  -0.00422797  1
  Ca  Ca5  1  0.75070037  0.00376690  0.50100012  1
  Ca  Ca6  1  0.74898640  0.50183318  -0.00074776  1
  Ca  Ca7  1  0.75260620  0.49658042  0.50125558  1
  Ca  Ca8  1  0.00590167  0.24881855  0.00092992  1
  Ca  Ca9  1  -0.00183853  0.25289098  0.49726271  1
  Ca  Ca10  1  0.00077551  0.75487668  -0.00210701  1
  Ca  Ca11  1  0.00451685  0.74880979  0.50254834  1
  Ca  Ca12  1  0.49577466  0.24956409  0.00111139  1
  Ca  Ca13  1  0.50083370  0.25155711  0.49774063  1
  Ca  Ca14  1  0.49657753  0.75008178  0.00077837  1
  Ca  Ca15  1  0.49779568  0.74958784  0.49937966  1
  Ca  Ca16  1  0.00053610  0.00006410  0.25420007  1
  Ca  Ca17  1  -0.00036711  -0.00243474  0.75257578  1
  Ca  Ca18  1  0.00186428  0.49964302  0.25505289  1
  Ca  Ca19  1  0.00143087  0.50142069  0.74331483  1
  Ca  Ca20  1  0.49922278  0.00040650  0.25048720  1
  Ca  Ca21  1  0.50006545  0.00007909  0.75334430  1
  Ca  Ca22  1  0.49886383  0.49870376  0.25042301  1
  Ca  Ca23  1  0.49879643  0.49968401  0.74953923  1
  Ti  Ti24  1  0.25041998  0.25093182  0.25034280  1
  Ti  Ti25  1  0.24875614  0.25055881  0.75110261  1
  Ti  Ti26  1  0.25008518  0.74889054  0.25052557  1
  Ti  Ti27  1  0.24943747  0.74957382  0.74999876  1
  Ti  Ti28  1  0.74858201  0.25091557  0.25111848  1
  Ti  Ti29  1  0.74992297  0.25063421  0.74856497  1
  Ti  Ti30  1  0.75047074  0.74885702  0.25036413  1
  Ti  Ti31  1  0.75102949  0.74938892  0.75023269  1
  Al  Al32  1  0.08755748  0.08930102  0.07616239  1
  Al  Al33  1  0.08006041  0.08268029  0.58147574  1
  Al  Al34  1  0.08321658  0.57755315  0.08230541  1
  Al  Al35  1  0.08541596  0.59067496  0.58346609  1
  Al  Al36  1  0.58451750  0.07927454  0.09314166  1
  Al  Al37  1  0.58383594  0.08240917  0.57753927  1
  Al  Al38  1  0.57590641  0.57853544  0.08709974  1
  Al  Al39  1  0.58078249  0.57805614  0.58736492  1
  Al  Al40  1  0.41784436  0.41347130  0.08402606  1
  Al  Al41  1  0.40851047  0.41549602  0.58572146  1
  Al  Al42  1  0.40987766  0.91362018  0.08128890  1
  Al  Al43  1  0.41795041  0.91333384  0.57521719  1
  Al  Al44  1  0.91718433  0.42469079  0.09299307  1
  Al  Al45  1  0.90890793  0.41751918  0.58112189  1
  Al  Al46  1  0.91524786  0.90929748  0.07637812  1
  Al  Al47  1  0.92329506  0.91535023  0.58634036  1
  Al  Al48  1  0.41738817  0.08207624  0.40590941  1
  Al  Al49  1  0.41564785  0.08730117  0.92320050  1
  Al  Al50  1  0.41587974  0.58109973  0.41681092  1
  Al  Al51  1  0.41368839  0.59246155  0.91496047  1
  Al  Al52  1  0.91819197  0.09606463  0.41816603  1
  Al  Al53  1  0.91664128  0.07224295  0.91233321  1
  Al  Al54  1  0.91974967  0.57664827  0.41460662  1
  Al  Al55  1  0.91901604  0.58267036  0.91154288  1
  Al  Al56  1  0.08795042  0.41367858  0.41392491  1
  Al  Al57  1  0.08881918  0.41381650  0.92213505  1
  Al  Al58  1  0.08651307  0.90476812  0.41733228  1
  Al  Al59  1  0.08012916  0.91956753  0.90750229  1
  Al  Al60  1  0.58410983  0.41457089  0.41708338  1
  Al  Al61  1  0.57716271  0.41756669  0.90901915  1
  Al  Al62  1  0.57884348  0.92344007  0.41203460  1
  Al  Al63  1  0.58235625  0.92035339  0.91217663  1
  Al  Al64  1  0.07932093  0.08811606  0.41422306  1
  Al  Al65  1  0.09221392  0.08199546  0.91481015  1
  Al  Al66  1  0.09320253  0.58488921  0.41900974  1
  Al  Al67  1  0.07971366  0.58249787  0.91574683  1
  Al  Al68  1  0.58070234  0.08778526  0.40949419  1
  Al  Al69  1  0.58467620  0.07878475  0.91204867  1
  Al  Al70  1  0.57988000  0.57876733  0.41491659  1
  Al  Al71  1  0.57379301  0.58159577  0.90750843  1
  Al  Al72  1  0.41270815  0.41342230  0.41967087  1
  Al  Al73  1  0.41767186  0.41237435  0.91320596  1
  Al  Al74  1  0.41067567  0.91925930  0.41192140  1
  Al  Al75  1  0.41158689  0.90738464  0.92289008  1
  Al  Al76  1  0.91368060  0.41053437  0.41591185  1
  Al  Al77  1  0.92197088  0.42512150  0.91275756  1
  Al  Al78  1  0.92632334  0.91222210  0.41476289  1
  Al  Al79  1  0.91419787  0.91225536  0.91260526  1
  Al  Al80  1  0.09025498  0.41226398  0.08063349  1
  Al  Al81  1  0.08728011  0.41758783  0.57652951  1
  Al  Al82  1  0.07698934  0.91781113  0.08090474  1
  Al  Al83  1  0.08549927  0.90503567  0.58264077  1
  Al  Al84  1  0.57817667  0.41779296  0.08794656  1
  Al  Al85  1  0.58406341  0.41551266  0.58469542  1
  Al  Al86  1  0.58443645  0.92316204  0.08899877  1
  Al  Al87  1  0.58030102  0.92010323  0.58442025  1
  Al  Al88  1  0.41366213  0.08514957  0.08336628  1
  Al  Al89  1  0.42031114  0.08171348  0.57536212  1
  Al  Al90  1  0.41308007  0.59091546  0.07866970  1
  Al  Al91  1  0.41090038  0.57780523  0.58840380  1
  Al  Al92  1  0.92349950  0.07783892  0.08216632  1
  Al  Al93  1  0.91292469  0.08794901  0.58036136  1
  Al  Al94  1  0.91221280  0.57801183  0.08959435  1
  Al  Al95  1  0.92082470  0.58107222  0.59033114  1
  Al  Al96  1  0.24809642  0.13759214  0.13657281  1
  Al  Al97  1  0.24633680  0.13521924  0.63332079  1
  Al  Al98  1  0.25156658  0.63079600  0.13596387  1
  Al  Al99  1  0.24879426  0.63533615  0.63585691  1
  Al  Al100  1  0.74749136  0.13424453  0.13748703  1
  Al  Al101  1  0.75122164  0.13735336  0.62811576  1
  Al  Al102  1  0.75204509  0.62989353  0.13621084  1
  Al  Al103  1  0.75075435  0.62834936  0.63854403  1
  Al  Al104  1  0.24949280  0.36720680  0.13239794  1
  Al  Al105  1  0.25151632  0.36642362  0.63510187  1
  Al  Al106  1  0.25333010  0.86367106  0.13446193  1
  Al  Al107  1  0.24403445  0.86391252  0.63433062  1
  Al  Al108  1  0.74864991  0.37045945  0.13823813  1
  Al  Al109  1  0.75010407  0.36810548  0.63136574  1
  Al  Al110  1  0.74939981  0.86356734  0.13580582  1
  Al  Al111  1  0.75239791  0.86468294  0.63819863  1
  Al  Al112  1  0.25257995  0.13059401  0.36366712  1
  Al  Al113  1  0.24427382  0.13479406  0.86727637  1
  Al  Al114  1  0.24532945  0.63018409  0.36604842  1
  Al  Al115  1  0.25330507  0.63792995  0.86423538  1
  Al  Al116  1  0.74930596  0.14008146  0.36914839  1
  Al  Al117  1  0.75044452  0.13572935  0.86454628  1
  Al  Al118  1  0.75105200  0.63579939  0.36660379  1
  Al  Al119  1  0.75190133  0.63693096  0.86274717  1
  Al  Al120  1  0.24744726  0.36883093  0.36453819  1
  Al  Al121  1  0.25160772  0.36352018  0.87100849  1
  Al  Al122  1  0.24619849  0.86698628  0.36458926  1
  Al  Al123  1  0.25033090  0.86290766  0.86384138  1
  Al  Al124  1  0.75041063  0.36106192  0.37157014  1
  Al  Al125  1  0.74838250  0.36506595  0.86264058  1
  Al  Al126  1  0.74985057  0.86236168  0.36157615  1
  Al  Al127  1  0.75499150  0.86426648  0.86620808  1
  Al  Al128  1  0.13520638  0.25144301  0.13474924  1
  Al  Al129  1  0.13610218  0.25485285  0.63330108  1
  Al  Al130  1  0.13765382  0.75062247  0.13663702  1
  Al  Al131  1  0.13460697  0.74789738  0.63356140  1
  Al  Al132  1  0.63565989  0.24954792  0.13499474  1
  Al  Al133  1  0.63838177  0.25170789  0.62793135  1
  Al  Al134  1  0.63646576  0.74828626  0.13572427  1
  Al  Al135  1  0.63483036  0.74627077  0.63649084  1
  Al  Al136  1  0.13680739  0.25313303  0.36719712  1
  Al  Al137  1  0.13675485  0.24984119  0.86884245  1
  Al  Al138  1  0.13457051  0.74788417  0.36639150  1
  Al  Al139  1  0.13209693  0.75358242  0.86350619  1
  Al  Al140  1  0.63099847  0.24952095  0.36737757  1
  Al  Al141  1  0.63132527  0.25132643  0.86336029  1
  Al  Al142  1  0.63553053  0.74747899  0.36247966  1
  Al  Al143  1  0.63114503  0.74893426  0.86335048  1
  Al  Al144  1  0.36382602  0.25041981  0.13532293  1
  Al  Al145  1  0.36267924  0.25040119  0.63459548  1
  Al  Al146  1  0.36305335  0.74899893  0.13367115  1
  Al  Al147  1  0.36487753  0.74926241  0.63622077  1
  Al  Al148  1  0.86442237  0.24741378  0.13644541  1
  Al  Al149  1  0.86243001  0.25266197  0.63129115  1
  Al  Al150  1  0.86273662  0.75346818  0.13419396  1
  Al  Al151  1  0.86599250  0.74723911  0.63700691  1
  Al  Al152  1  0.36873356  0.25021638  0.36153683  1
  Al  Al153  1  0.36701496  0.25177138  0.86479482  1
  Al  Al154  1  0.36152546  0.74849118  0.36366917  1
  Al  Al155  1  0.36686224  0.74961400  0.86579364  1
  Al  Al156  1  0.86488225  0.25119471  0.36765212  1
  Al  Al157  1  0.86436370  0.24958989  0.86123063  1
  Al  Al158  1  0.87037459  0.74822446  0.36416141  1
  Al  Al159  1  0.86748023  0.75468695  0.86581508  1
  Al  Al160  1  0.13462793  0.13639315  0.25598893  1
  Al  Al161  1  0.13660012  0.13159913  0.75077176  1
  Al  Al162  1  0.13697653  0.62901736  0.25287113  1
  Al  Al163  1  0.13351833  0.63585439  0.74658281  1
  Al  Al164  1  0.63076414  0.13775956  0.25061421  1
  Al  Al165  1  0.63659648  0.13642545  0.75024786  1
  Al  Al166  1  0.63709699  0.62886790  0.24964382  1
  Al  Al167  1  0.63040236  0.63526701  0.74894658  1
  Al  Al168  1  0.36905650  0.13670974  0.25056957  1
  Al  Al169  1  0.36300973  0.13589109  0.75467416  1
  Al  Al170  1  0.36111236  0.62968950  0.25195170  1
  Al  Al171  1  0.36773261  0.63633415  0.75055373  1
  Al  Al172  1  0.86704977  0.13774231  0.25546013  1
  Al  Al173  1  0.86381347  0.13404196  0.74860650  1
  Al  Al174  1  0.86564376  0.63449547  0.25016450  1
  Al  Al175  1  0.86816252  0.63562244  0.74782217  1
  Al  Al176  1  0.13741190  0.36933316  0.24979226  1
  Al  Al177  1  0.13512051  0.36460015  0.74950760  1
  Al  Al178  1  0.13379821  0.86424573  0.25598150  1
  Al  Al179  1  0.13553467  0.86738281  0.74971163  1
  Al  Al180  1  0.63564342  0.36827403  0.25366721  1
  Al  Al181  1  0.63561155  0.36410353  0.74728172  1
  Al  Al182  1  0.63532796  0.86562321  0.24799720  1
  Al  Al183  1  0.63456201  0.86373899  0.75235231  1
  Al  Al184  1  0.36224231  0.37020165  0.25166696  1
  Al  Al185  1  0.36233807  0.36581208  0.75007178  1
  Al  Al186  1  0.36277184  0.86477138  0.25259014  1
  Al  Al187  1  0.36624952  0.86306814  0.75207044  1
  Al  Al188  1  0.86446832  0.36356359  0.25010668  1
  Al  Al189  1  0.86673269  0.36664803  0.74348393  1
  Al  Al190  1  0.86680244  0.86436184  0.25134736  1
  Al  Al191  1  0.86800678  0.86791092  0.75476494  1
  Al  Al192  1  0.49811716  0.67602776  0.18124872  1
  Al  Al193  1  0.31347521  0.82637186  0.49859229  1
  Al  Al194  1  0.32772268  0.00079142  0.18343111  1
  Al  Al195  1  0.00223636  0.32533148  0.82156900  1
  Al  Al196  1  0.49987926  0.17447799  0.68212804  1
  Al  Al197  1  0.82528214  0.50088173  0.81453839  1
  Al  Al198  1  0.68247346  0.82991264  -0.00041945  1
  Al  Al199  1  0.82904075  0.82568529  0.50047558  1
  Al  Al200  1  0.66686674  0.32091739  -0.00143189  1
  Al  Al201  1  0.49728401  0.82056329  0.67836218  1
  Al  Al202  1  0.17327584  0.50058430  0.82547137  1
  Al  Al203  1  0.67362821  0.50092220  0.81916714  1
  Al  Al204  1  0.00034672  0.82820287  0.18218082  1
  Al  Al205  1  0.00128938  0.16923355  0.82655425  1
  Al  Al206  1  0.67125412  0.82424661  0.49934190  1
  Al  Al207  1  0.49924960  0.82025890  0.32494969  1
  Al  Al208  1  0.31107670  0.31812550  0.49896846  1
  Al  Al209  1  0.31605477  0.00013137  0.82878269  1
  Al  Al210  1  -0.00021496  0.68869609  0.81216316  1
  Al  Al211  1  0.00100200  0.31583452  0.32184680  1
  Al  Al212  1  0.18267259  0.50036737  0.67186461  1
  Al  Al213  1  0.18513976  0.67484671  -0.00025995  1
  Al  Al214  1  0.82509283  0.66873069  0.50214448  1
  Al  Al215  1  0.49874020  0.82840957  0.17169021  1
  Al  Al216  1  -0.00042162  0.67451906  0.18216550  1
  Al  Al217  1  0.17899388  0.17892717  0.49930096  1
  Al  Al218  1  0.00039920  0.81165735  0.68698175  1
  Al  Al219  1  0.31861245  -0.00088314  0.67290958  1
  Al  Al220  1  0.68970189  -0.00085306  0.81843987  1
  Al  Al221  1  0.82714265  0.32756728  0.00163162  1
  Al  Al222  1  0.49859506  0.32924812  0.68266386  1
  Al  Al223  1  0.00165877  0.17978078  0.18505661  1
  Al  Al224  1  -0.00057053  0.18052935  0.67385698  1
  Al  Al225  1  0.18421337  0.82682407  -0.00066151  1
  Al  Al226  1  0.31068274  0.67236354  0.49972103  1
  Al  Al227  1  0.32665907  0.50102268  0.81755556  1
  Al  Al228  1  0.31297054  0.18138802  0.00045522  1
  Al  Al229  1  0.67031915  0.67049144  -0.00144568  1
  Al  Al230  1  0.82914729  0.68446518  0.00068972  1
  Al  Al231  1  0.82091233  -0.00023345  0.67603546  1
  Al  Al232  1  0.82924144  0.00102667  0.32848295  1
  Al  Al233  1  0.67415426  0.00203731  0.31395607  1
  Al  Al234  1  0.81486026  -0.00098022  0.17277177  1
  Al  Al235  1  0.82327045  0.16898855  -0.00140009  1
  Al  Al236  1  0.82120406  0.49794460  0.31646914  1
  Al  Al237  1  0.17264030  -0.00086760  0.18019963  1
  Al  Al238  1  0.49937999  0.31688307  0.18478047  1
  Au  Au239  1  0.15745487  -0.00152356  0.67310170  1
  Au  Au240  1  0.17078757  -0.00129143  0.34036876  1
  Au  Au241  1  0.66819331  0.15827523  0.00229967  1
  Au  Au242  1  0.49947030  0.82928276  0.66956388  1
  Au  Au243  1  0.00110788  0.67542529  0.16533424  1
  Au  Au244  1  0.49814290  0.82399235  0.83595779  1
  Au  Au245  1  0.67466868  0.16493829  0.49634634  1
  Au  Au246  1  0.16655554  0.18159668  0.50065971  1
  Au  Au247  1  0.67502736  0.50011981  0.16641028  1
  Au  Au248  1  0.82352169  -0.00492169  0.15841738  1
  Au  Au249  1  0.33413261  0.50179877  0.16625592  1
  Au  Au250  1  0.33790335  0.17215696  0.49242673  1
  Au  Au251  1  0.49869882  0.32729107  0.33230121  1
  Au  Au252  1  0.00205393  0.16518944  0.17611473  1
  Au  Au253  1  0.49992628  0.67049249  0.32925128  1
  Au  Au254  1  0.83540929  0.34300568  0.00229968  1
  Au  Au255  1  0.17048935  0.83704392  -0.00350522  1
  Au  Au256  1  0.17500506  0.00146551  0.16426115  1
  Au  Au257  1  0.67681960  0.49822674  0.67149820  1
  Au  Au258  1  0.33097233  0.50105258  0.82748619  1
  Au  Au259  1  0.67490791  0.33187483  0.50092647  1
  Au  Au260  1  0.00165211  0.67485368  0.82215216  1
  Au  Au261  1  0.83777549  0.67129775  0.50165237  1
  Au  Au262  1  0.66120408  0.33214963  -0.00131208  1
  Au  Au263  1  0.49949178  0.16826056  0.17356654  1
  Au  Au264  1  0.67365607  0.84068570  0.49533195  1
  Au  Au265  1  0.32492878  0.00013995  0.84325304  1
  Au  Au266  1  0.49961834  0.17691915  0.84041077  1
  Au  Au267  1  0.83517836  0.16545192  -0.00272574  1
  Au  Au268  1  0.67487340  0.49883184  0.33297683  1
  Au  Au269  1  0.00357199  0.32902025  0.83367096  1
  Au  Au270  1  0.67535436  0.84461372  0.00109887  1
  Au  Au271  1  0.66454620  0.66236333  0.50119620  1
  Au  Au272  1  0.33164503  -0.00138261  0.66168931  1
  Au  Au273  1  0.32398478  0.49819179  0.33468581  1
  Au  Au274  1  0.17877405  0.65901692  -0.00118137  1
  Au  Au275  1  0.65669860  0.66284817  -0.00270269  1
  Au  Au276  1  0.16703043  0.49788897  0.17519151  1
  Au  Au277  1  0.83683006  0.66918527  0.00017970  1
  Au  Au278  1  0.66511008  0.00193853  0.67436598  1
  Au  Au279  1  0.82678779  0.00160296  0.34533451  1
  Au  Au280  1  0.50038264  0.17683210  0.66530441  1
  Au  Au281  1  0.00180827  0.33962605  0.17442191  1
  Au  Au282  1  0.00452458  0.67390363  0.34067825  1
  Au  Au283  1  0.49788176  0.66283198  0.67627792  1
  Au  Au284  1  0.32760571  0.32775468  0.00038238  1
  Au  Au285  1  0.32732847  0.67359610  0.50280070  1
  Au  Au286  1  -0.00100082  0.33004970  0.65742516  1
  Au  Au287  1  0.83304910  -0.00158927  0.67914931  1
