# generated using pymatgen
data_Ca24Ti8Al207Au49
_symmetry_space_group_name_H-M   'P 1'
_cell_length_a   17.32168034
_cell_length_b   17.32178330
_cell_length_c   17.32081341
_cell_angle_alpha   90.00111633
_cell_angle_beta   89.99890751
_cell_angle_gamma   89.99848564
_symmetry_Int_Tables_number   1
_chemical_formula_structural   Ca24Ti8Al207Au49
_chemical_formula_sum   'Ca24 Ti8 Al207 Au49'
_cell_volume   5196.97830458
_cell_formula_units_Z   1
loop_
 _symmetry_equiv_pos_site_id
 _symmetry_equiv_pos_as_xyz
  1  'x, y, z'
loop_
 _atom_site_type_symbol
 _atom_site_label
 _atom_site_symmetry_multiplicity
 _atom_site_fract_x
 _atom_site_fract_y
 _atom_site_fract_z
 _atom_site_occupancy
  Ca  Ca0  1  0.24741457  -0.00683616  0.00167569  1
  Ca  Ca1  1  0.24759289  0.00397162  0.49620843  1
  Ca  Ca2  1  0.24880975  0.50348030  0.00010488  1
  Ca  Ca3  1  0.24998877  0.49826812  0.50156925  1
  Ca  Ca4  1  0.74556947  0.00027769  0.00152678  1
  Ca  Ca5  1  0.74492562  -0.00151682  0.49854024  1
  Ca  Ca6  1  0.74259881  0.50097850  -0.00188676  1
  Ca  Ca7  1  0.74317333  0.50222110  0.50218922  1
  Ca  Ca8  1  0.00251695  0.24785593  0.00390976  1
  Ca  Ca9  1  0.00334577  0.24626835  0.49623480  1
  Ca  Ca10  1  0.00366014  0.75157776  0.00190341  1
  Ca  Ca11  1  -0.00257633  0.75069744  0.49858358  1
  Ca  Ca12  1  0.50042288  0.24924026  0.00020335  1
  Ca  Ca13  1  0.49836746  0.24824842  0.49919886  1
  Ca  Ca14  1  0.49940510  0.74816843  -0.00139814  1
  Ca  Ca15  1  0.50054659  0.75010004  0.49954972  1
  Ca  Ca16  1  0.00444826  0.00138026  0.25153333  1
  Ca  Ca17  1  -0.00076402  0.00099539  0.74651108  1
  Ca  Ca18  1  0.00043592  0.49983482  0.24817289  1
  Ca  Ca19  1  0.00135859  0.49838075  0.74502200  1
  Ca  Ca20  1  0.49692471  -0.00062125  0.25314530  1
  Ca  Ca21  1  0.50221160  0.00040654  0.74909918  1
  Ca  Ca22  1  0.50119371  0.49916678  0.25149873  1
  Ca  Ca23  1  0.50061764  0.49963180  0.75237780  1
  Ti  Ti24  1  0.25005167  0.24844092  0.25048952  1
  Ti  Ti25  1  0.24985311  0.24877227  0.74798806  1
  Ti  Ti26  1  0.25039024  0.75089751  0.25044509  1
  Ti  Ti27  1  0.25212568  0.75021568  0.74981148  1
  Ti  Ti28  1  0.74876941  0.24868135  0.24975249  1
  Ti  Ti29  1  0.74924672  0.24967779  0.74952690  1
  Ti  Ti30  1  0.74999215  0.75068496  0.25097098  1
  Ti  Ti31  1  0.74620883  0.74847669  0.75013633  1
  Al  Al32  1  0.08558375  0.07668692  0.09887825  1
  Al  Al33  1  0.08297244  0.08560650  0.58075296  1
  Al  Al34  1  0.08402638  0.59135088  0.08887670  1
  Al  Al35  1  0.08094101  0.58445974  0.59063063  1
  Al  Al36  1  0.57946110  0.08288435  0.08443476  1
  Al  Al37  1  0.59403879  0.08599517  0.58368545  1
  Al  Al38  1  0.58939820  0.58782360  0.07806077  1
  Al  Al39  1  0.58439785  0.58046485  0.58135600  1
  Al  Al40  1  0.42512347  0.41343242  0.09624695  1
  Al  Al41  1  0.41123191  0.41932179  0.58541644  1
  Al  Al42  1  0.40912134  0.90599911  0.08636177  1
  Al  Al43  1  0.42305402  0.92475230  0.57825425  1
  Al  Al44  1  0.92483726  0.40860816  0.08219871  1
  Al  Al45  1  0.92244243  0.42524931  0.58089239  1
  Al  Al46  1  0.93393994  0.91672433  0.09593967  1
  Al  Al47  1  0.91828728  0.91379562  0.58206482  1
  Al  Al48  1  0.41459169  0.08967450  0.41562760  1
  Al  Al49  1  0.42391747  0.07096411  0.91620515  1
  Al  Al50  1  0.42390727  0.57671294  0.41651629  1
  Al  Al51  1  0.42264499  0.59110563  0.90971358  1
  Al  Al52  1  0.92922320  0.08516788  0.41156900  1
  Al  Al53  1  0.91756097  0.08417116  0.91758058  1
  Al  Al54  1  0.92210073  0.58348953  0.41711048  1
  Al  Al55  1  0.91860316  0.57622266  0.91610580  1
  Al  Al56  1  0.08548034  0.40317239  0.42035469  1
  Al  Al57  1  0.08102896  0.42298087  0.91900952  1
  Al  Al58  1  0.08831327  0.92075905  0.40613236  1
  Al  Al59  1  0.09859273  0.91200870  0.92459620  1
  Al  Al60  1  0.58459000  0.41458856  0.40135574  1
  Al  Al61  1  0.58553509  0.42915398  0.91253598  1
  Al  Al62  1  0.58009697  0.91407023  0.41297200  1
  Al  Al63  1  0.58403235  0.92107455  0.90675503  1
  Al  Al64  1  0.09020271  0.08502869  0.40313380  1
  Al  Al65  1  0.08690128  0.07221231  0.91237411  1
  Al  Al66  1  0.07828821  0.58660454  0.42015718  1
  Al  Al67  1  0.08623337  0.58237035  0.92364991  1
  Al  Al68  1  0.58295493  0.08971838  0.42058334  1
  Al  Al69  1  0.58663152  0.07837829  0.90782183  1
  Al  Al70  1  0.58838434  0.57890254  0.41151184  1
  Al  Al71  1  0.58777389  0.59223148  0.91277765  1
  Al  Al72  1  0.42253218  0.41080821  0.41144822  1
  Al  Al73  1  0.42254774  0.42976880  0.91569066  1
  Al  Al74  1  0.42056555  0.91882223  0.40759941  1
  Al  Al75  1  0.40825072  0.90804994  0.92301524  1
  Al  Al76  1  0.92447559  0.41729219  0.41290933  1
  Al  Al77  1  0.91479256  0.41794691  0.91855317  1
  Al  Al78  1  0.92424435  0.91456439  0.41928550  1
  Al  Al79  1  0.92381164  0.92960707  0.92028547  1
  Al  Al80  1  0.07952568  0.41867332  0.09232074  1
  Al  Al81  1  0.09156578  0.41629133  0.57888755  1
  Al  Al82  1  0.09407038  0.91007049  0.09068741  1
  Al  Al83  1  0.07931564  0.91661371  0.58084096  1
  Al  Al84  1  0.58062729  0.41725819  0.09338642  1
  Al  Al85  1  0.58348544  0.42151300  0.58439701  1
  Al  Al86  1  0.57127554  0.91133044  0.09069255  1
  Al  Al87  1  0.58987568  0.92375835  0.58696473  1
  Al  Al88  1  0.42199624  0.07569914  0.08904021  1
  Al  Al89  1  0.41683030  0.08757822  0.57503994  1
  Al  Al90  1  0.41807741  0.58208929  0.08211134  1
  Al  Al91  1  0.41369476  0.57653930  0.58954663  1
  Al  Al92  1  0.92614166  0.08744649  0.08877821  1
  Al  Al93  1  0.92224292  0.08019156  0.58470006  1
  Al  Al94  1  0.92598431  0.58982570  0.08755735  1
  Al  Al95  1  0.92191005  0.58967238  0.59054036  1
  Al  Al96  1  0.24206515  0.12980609  0.13730233  1
  Al  Al97  1  0.24856649  0.13542576  0.62550559  1
  Al  Al98  1  0.25179631  0.64078493  0.13685359  1
  Al  Al99  1  0.25301565  0.63629764  0.63141988  1
  Al  Al100  1  0.74940538  0.13744709  0.13038935  1
  Al  Al101  1  0.74625239  0.12880959  0.63482476  1
  Al  Al102  1  0.74683490  0.63829098  0.13742060  1
  Al  Al103  1  0.74800526  0.63610307  0.63732321  1
  Al  Al104  1  0.25129303  0.36228226  0.13687192  1
  Al  Al105  1  0.25083288  0.36453963  0.63203966  1
  Al  Al106  1  0.24734538  0.86401470  0.13261278  1
  Al  Al107  1  0.25048157  0.86726030  0.63564222  1
  Al  Al108  1  0.74570927  0.36059991  0.13826448  1
  Al  Al109  1  0.74774667  0.36505801  0.63348992  1
  Al  Al110  1  0.74883598  0.86801410  0.13838083  1
  Al  Al111  1  0.74475392  0.86919955  0.63930661  1
  Al  Al112  1  0.24997870  0.13496508  0.36883689  1
  Al  Al113  1  0.24821193  0.12621330  0.86543019  1
  Al  Al114  1  0.25077236  0.63850023  0.36839643  1
  Al  Al115  1  0.25338702  0.63613538  0.86390947  1
  Al  Al116  1  0.74478652  0.13724622  0.36526806  1
  Al  Al117  1  0.74610660  0.13444414  0.86897619  1
  Al  Al118  1  0.74615285  0.63748888  0.36307506  1
  Al  Al119  1  0.74400079  0.62907077  0.86435704  1
  Al  Al120  1  0.24742947  0.36099372  0.36492327  1
  Al  Al121  1  0.24977298  0.36365367  0.86571840  1
  Al  Al122  1  0.24861417  0.87104408  0.35960040  1
  Al  Al123  1  0.25246011  0.86510224  0.86774385  1
  Al  Al124  1  0.74486814  0.36509296  0.36351836  1
  Al  Al125  1  0.74813814  0.36844882  0.86375712  1
  Al  Al126  1  0.74651602  0.86348993  0.36156675  1
  Al  Al127  1  0.74194701  0.86441453  0.86323392  1
  Al  Al128  1  0.13651842  0.24887635  0.13275370  1
  Al  Al129  1  0.13887350  0.25091661  0.62656902  1
  Al  Al130  1  0.13149367  0.75489424  0.13591811  1
  Al  Al131  1  0.13729392  0.74831498  0.63684141  1
  Al  Al132  1  0.62587286  0.25280052  0.13664216  1
  Al  Al133  1  0.63801215  0.24791223  0.62952230  1
  Al  Al134  1  0.63475115  0.75255426  0.13650926  1
  Al  Al135  1  0.63232553  0.75209004  0.63767504  1
  Al  Al136  1  0.13556994  0.24695118  0.36879380  1
  Al  Al137  1  0.13733611  0.24780275  0.87064433  1
  Al  Al138  1  0.13533749  0.74838624  0.36303261  1
  Al  Al139  1  0.13726486  0.75243688  0.86704809  1
  Al  Al140  1  0.63380824  0.25167173  0.36884199  1
  Al  Al141  1  0.63553486  0.24781365  0.86368356  1
  Al  Al142  1  0.62786935  0.75296845  0.36241515  1
  Al  Al143  1  0.62768518  0.74587537  0.86464937  1
  Al  Al144  1  0.36940083  0.24895766  0.13576220  1
  Al  Al145  1  0.36344746  0.24761028  0.63298560  1
  Al  Al146  1  0.36938034  0.75754097  0.13488085  1
  Al  Al147  1  0.36801538  0.74807767  0.63724392  1
  Al  Al148  1  0.86624355  0.24947489  0.13773232  1
  Al  Al149  1  0.86251311  0.24920763  0.63499286  1
  Al  Al150  1  0.86757530  0.74810716  0.13561634  1
  Al  Al151  1  0.86221920  0.74882100  0.63809517  1
  Al  Al152  1  0.36455985  0.24932435  0.36652829  1
  Al  Al153  1  0.36120381  0.24787075  0.86233768  1
  Al  Al154  1  0.36928999  0.75125349  0.36296777  1
  Al  Al155  1  0.36868409  0.75279484  0.86193901  1
  Al  Al156  1  0.86467963  0.24887111  0.36562128  1
  Al  Al157  1  0.86425028  0.24713123  0.86259805  1
  Al  Al158  1  0.86506660  0.74929827  0.36431144  1
  Al  Al159  1  0.85758862  0.74661936  0.86444927  1
  Al  Al160  1  0.13542855  0.13341608  0.25453346  1
  Al  Al161  1  0.13785308  0.13389012  0.75117552  1
  Al  Al162  1  0.12705097  0.64086645  0.24521873  1
  Al  Al163  1  0.13746478  0.63620460  0.74826913  1
  Al  Al164  1  0.63346152  0.13660351  0.24614515  1
  Al  Al165  1  0.63679949  0.13118477  0.74751955  1
  Al  Al166  1  0.63151856  0.63444060  0.25279120  1
  Al  Al167  1  0.62923589  0.63238095  0.75677972  1
  Al  Al168  1  0.36499453  0.13419528  0.25024963  1
  Al  Al169  1  0.36107303  0.12915938  0.74917426  1
  Al  Al170  1  0.36581151  0.63667042  0.24900151  1
  Al  Al171  1  0.36639573  0.63185358  0.75164768  1
  Al  Al172  1  0.86519464  0.13497200  0.25224344  1
  Al  Al173  1  0.86191259  0.13161601  0.74894381  1
  Al  Al174  1  0.86948705  0.63612229  0.25061459  1
  Al  Al175  1  0.86214893  0.62975976  0.75125993  1
  Al  Al176  1  0.13260641  0.36188455  0.24676541  1
  Al  Al177  1  0.13347333  0.36245548  0.74820935  1
  Al  Al178  1  0.13539745  0.86880776  0.24748887  1
  Al  Al179  1  0.14097102  0.86703438  0.75403136  1
  Al  Al180  1  0.62991334  0.36297194  0.25263914  1
  Al  Al181  1  0.63480607  0.36310125  0.74994232  1
  Al  Al182  1  0.62865792  0.86358251  0.24963772  1
  Al  Al183  1  0.62876137  0.86417859  0.75220209  1
  Al  Al184  1  0.36738277  0.36157372  0.25097956  1
  Al  Al185  1  0.36102728  0.37046810  0.74831963  1
  Al  Al186  1  0.36769278  0.86515019  0.25008596  1
  Al  Al187  1  0.36780148  0.87026840  0.75254674  1
  Al  Al188  1  0.86611338  0.36465615  0.25039169  1
  Al  Al189  1  0.86351032  0.37075301  0.75074881  1
  Al  Al190  1  0.86776401  0.86358228  0.24733806  1
  Al  Al191  1  0.86227200  0.86527003  0.74878093  1
  Al  Al192  1  0.81177288  -0.00182067  0.81982511  1
  Al  Al193  1  0.17608151  -0.00181310  0.67725209  1
  Al  Al194  1  0.32241001  0.16645487  0.00038405  1
  Al  Al195  1  0.49855659  0.32648327  0.67358575  1
  Al  Al196  1  0.32889374  0.69045060  -0.00017731  1
  Al  Al197  1  0.16686130  0.50091635  0.32498228  1
  Al  Al198  1  0.00160432  0.82939032  0.82829633  1
  Al  Al199  1  0.00157468  0.32263354  0.82151089  1
  Al  Al200  1  0.00060092  0.81366325  0.67358638  1
  Al  Al201  1  0.32059016  0.31750428  0.49881992  1
  Al  Al202  1  0.00099465  0.18164224  0.67956360  1
  Al  Al203  1  0.00153257  0.82068437  0.31403417  1
  Al  Al204  1  0.67466056  0.50054026  0.18495588  1
  Al  Al205  1  0.81393550  0.66983716  0.00032719  1
  Al  Al206  1  0.68043818  0.50047149  0.68728476  1
  Al  Al207  1  0.50309597  0.67947363  0.17637498  1
  Al  Al208  1  0.31443745  -0.00247947  0.17737003  1
  Al  Al209  1  0.82668445  0.32082414  0.00039364  1
  Al  Al210  1  0.17468546  0.68649793  0.00189459  1
  Al  Al211  1  0.00048333  0.67223546  0.81583425  1
  Al  Al212  1  0.81680455  0.16639945  0.49983086  1
  Al  Al213  1  0.50040373  0.18567626  0.32132053  1
  Al  Al214  1  0.81165401  0.50119092  0.32760269  1
  Al  Al215  1  0.32584778  0.33079069  0.00000780  1
  Al  Al216  1  0.49882037  0.32711867  0.82689370  1
  Al  Al217  1  0.50089990  0.17300098  0.67118291  1
  Al  Al218  1  -0.00010715  0.30858342  0.31012336  1
  Al  Al219  1  0.18197486  0.50271190  0.17411219  1
  Al  Al220  1  0.81713477  0.82463875  0.50062289  1
  Al  Al221  1  0.32708985  0.49843764  0.32051581  1
  Al  Al222  1  0.32984163  0.82131640  0.49865621  1
  Al  Al223  1  0.67038444  0.32524888  -0.00040849  1
  Al  Al224  1  0.81744862  0.32830353  0.49871468  1
  Al  Al225  1  0.00234671  0.18974632  0.19316727  1
  Al  Al226  1  0.67189694  0.00164438  0.32310207  1
  Al  Al227  1  0.83086820  0.83300190  0.00271137  1
  Al  Al228  1  0.67466287  0.68157311  0.49949111  1
  Al  Al229  1  0.50009496  0.67499994  0.67660563  1
  Al  Al230  1  0.82818642  0.67173855  0.50093014  1
  Al  Al231  1  0.82771664  -0.00086183  0.33152805  1
  Al  Al232  1  0.17332219  0.82394806  0.49800486  1
  Al  Al233  1  0.82368904  0.00072665  0.17553235  1
  Al  Al234  1  0.82910493  0.49951872  0.17197487  1
  Al  Al235  1  0.66821771  0.81709486  -0.00049124  1
  Al  Al236  1  0.49872533  0.17339782  0.82365103  1
  Al  Al237  1  0.18367361  0.49993683  0.67334797  1
  Al  Al238  1  0.18126599  0.50032655  0.82537138  1
  Au  Au239  1  0.00436097  0.15908790  0.82552364  1
  Au  Au240  1  0.00366340  0.65749801  0.82350275  1
  Au  Au241  1  0.82457036  -0.00306584  0.66237592  1
  Au  Au242  1  0.16849732  0.17055664  0.49620628  1
  Au  Au243  1  0.33124317  0.50181187  0.82194875  1
  Au  Au244  1  0.65964040  0.83172841  -0.00059805  1
  Au  Au245  1  0.65975760  -0.00324434  0.17459274  1
  Au  Au246  1  0.50006680  0.67549316  0.33369170  1
  Au  Au247  1  0.32616986  -0.00216663  0.17239939  1
  Au  Au248  1  0.33156483  0.00511977  0.66502819  1
  Au  Au249  1  0.32889243  0.83730503  0.49442329  1
  Au  Au250  1  0.66775291  0.83189869  0.49930517  1
  Au  Au251  1  0.81629858  0.00033738  0.83632105  1
  Au  Au252  1  0.83346131  0.33559623  0.50032201  1
  Au  Au253  1  0.50101388  0.67124302  0.16716321  1
  Au  Au254  1  0.82818874  0.49423853  0.15591871  1
  Au  Au255  1  0.82782658  0.50317511  0.66665193  1
  Au  Au256  1  0.66812440  0.16192230  -0.00185251  1
  Au  Au257  1  0.32482084  -0.00430225  0.83573082  1
  Au  Au258  1  0.49827526  0.66259798  0.67780784  1
  Au  Au259  1  0.83300582  0.16222716  0.49749219  1
  Au  Au260  1  0.17533966  0.49727033  0.33931719  1
  Au  Au261  1  0.49896723  0.17687896  0.17346758  1
  Au  Au262  1  0.16038210  0.16009943  0.00289987  1
  Au  Au263  1  0.66475114  0.33783936  0.00005146  1
  Au  Au264  1  0.50097090  0.83845353  0.66990319  1
  Au  Au265  1  0.82258515  0.50339070  0.34057166  1
  Au  Au266  1  0.33256723  0.49873830  0.17145413  1
  Au  Au267  1  0.33040905  0.65572030  0.49839928  1
  Au  Au268  1  0.33763272  0.16086373  -0.00139976  1
  Au  Au269  1  0.15941740  0.67485131  0.50461638  1
  Au  Au270  1  -0.00019479  0.33097138  0.83086910  1
  Au  Au271  1  0.82949262  0.66308069  -0.00066277  1
  Au  Au272  1  0.00555373  0.84548927  0.82424365  1
  Au  Au273  1  0.00390817  0.32684839  0.65700816  1
  Au  Au274  1  0.84050443  0.17405790  0.00322495  1
  Au  Au275  1  0.84734789  0.83410463  0.00761964  1
  Au  Au276  1  0.32535976  0.00469786  0.33172511  1
  Au  Au277  1  0.00160292  0.31896025  0.32393002  1
  Au  Au278  1  0.16690695  0.00028629  0.66894054  1
  Au  Au279  1  -0.00126311  0.67279919  0.32257380  1
  Au  Au280  1  0.65584403  0.32831154  0.49795509  1
  Au  Au281  1  0.33896102  0.34029275  -0.00018203  1
  Au  Au282  1  0.49736692  0.82683507  0.83579119  1
  Au  Au283  1  0.32705434  0.67384118  -0.00314823  1
  Au  Au284  1  0.32844418  0.33228714  0.49839812  1
  Au  Au285  1  0.81865648  0.49779619  0.83415236  1
  Au  Au286  1  0.16074712  0.33440529  0.00445450  1
  Au  Au287  1  0.83562406  0.00288653  0.17165637  1
