# generated using pymatgen
data_Ca24Ti8Al207Au49
_symmetry_space_group_name_H-M   'P 1'
_cell_length_a   17.31956446
_cell_length_b   17.31984399
_cell_length_c   17.32100389
_cell_angle_alpha   89.99963997
_cell_angle_beta   89.99712991
_cell_angle_gamma   89.99640163
_symmetry_Int_Tables_number   1
_chemical_formula_structural   Ca24Ti8Al207Au49
_chemical_formula_sum   'Ca24 Ti8 Al207 Au49'
_cell_volume   5195.81883555
_cell_formula_units_Z   1
loop_
 _symmetry_equiv_pos_site_id
 _symmetry_equiv_pos_as_xyz
  1  'x, y, z'
loop_
 _atom_site_type_symbol
 _atom_site_label
 _atom_site_symmetry_multiplicity
 _atom_site_fract_x
 _atom_site_fract_y
 _atom_site_fract_z
 _atom_site_occupancy
  Ca  Ca0  1  0.24981542  -0.00192869  0.00534522  1
  Ca  Ca1  1  0.25229285  -0.00140106  0.49481182  1
  Ca  Ca2  1  0.24635539  0.50226209  -0.00000753  1
  Ca  Ca3  1  0.24985141  0.49951520  0.49956210  1
  Ca  Ca4  1  0.74904445  0.00245562  0.00063155  1
  Ca  Ca5  1  0.74602431  -0.00400855  0.49975564  1
  Ca  Ca6  1  0.74794227  0.49908863  -0.00037027  1
  Ca  Ca7  1  0.74723294  0.50291744  0.50120347  1
  Ca  Ca8  1  -0.00390545  0.25455513  0.00443103  1
  Ca  Ca9  1  0.00249796  0.25116684  0.49789549  1
  Ca  Ca10  1  -0.00065393  0.74987014  0.00235351  1
  Ca  Ca11  1  0.00184343  0.75536426  0.49367773  1
  Ca  Ca12  1  0.50476272  0.24852081  -0.00481046  1
  Ca  Ca13  1  0.49712793  0.25021949  0.50569893  1
  Ca  Ca14  1  0.50115855  0.75150664  0.00298442  1
  Ca  Ca15  1  0.49658760  0.75636063  0.49276494  1
  Ca  Ca16  1  0.00265111  -0.00045823  0.25359036  1
  Ca  Ca17  1  -0.00033992  -0.00008017  0.75172343  1
  Ca  Ca18  1  0.00219191  0.49759505  0.24859670  1
  Ca  Ca19  1  0.00116230  0.49720521  0.75606425  1
  Ca  Ca20  1  0.49853983  -0.00284941  0.25317073  1
  Ca  Ca21  1  0.50013749  0.00389656  0.74647719  1
  Ca  Ca22  1  0.50181946  0.50078305  0.25024391  1
  Ca  Ca23  1  0.49791462  0.49409693  0.74680019  1
  Ti  Ti24  1  0.24926293  0.25041051  0.24981339  1
  Ti  Ti25  1  0.25029569  0.25222153  0.74901316  1
  Ti  Ti26  1  0.24898058  0.74993097  0.24953640  1
  Ti  Ti27  1  0.24946075  0.74788391  0.75087350  1
  Ti  Ti28  1  0.74942049  0.24839113  0.24758139  1
  Ti  Ti29  1  0.74905514  0.24848272  0.75206985  1
  Ti  Ti30  1  0.75216164  0.74988802  0.24934218  1
  Ti  Ti31  1  0.74942830  0.75283397  0.75156710  1
  Al  Al32  1  0.08103667  0.07954014  0.08633204  1
  Al  Al33  1  0.08266246  0.08328188  0.57290709  1
  Al  Al34  1  0.08187364  0.57958824  0.08232327  1
  Al  Al35  1  0.08604193  0.58034550  0.58288593  1
  Al  Al36  1  0.59730418  0.08090897  0.07710506  1
  Al  Al37  1  0.57843606  0.09071396  0.58945849  1
  Al  Al38  1  0.57687780  0.57566629  0.07362142  1
  Al  Al39  1  0.58045588  0.57384915  0.58159279  1
  Al  Al40  1  0.41067036  0.42283410  0.08398732  1
  Al  Al41  1  0.40826326  0.41133053  0.59061077  1
  Al  Al42  1  0.41395738  0.91928024  0.08567037  1
  Al  Al43  1  0.41559551  0.92150790  0.56509039  1
  Al  Al44  1  0.91972617  0.41275655  0.09104633  1
  Al  Al45  1  0.92236227  0.42065543  0.57585127  1
  Al  Al46  1  0.91105287  0.92069109  0.09369688  1
  Al  Al47  1  0.91080011  0.91850074  0.57686667  1
  Al  Al48  1  0.40380609  0.07737027  0.41927980  1
  Al  Al49  1  0.42782461  0.08101667  0.91380802  1
  Al  Al50  1  0.42030434  0.58097956  0.42235010  1
  Al  Al51  1  0.40821912  0.57571084  0.91756956  1
  Al  Al52  1  0.92001862  0.07285527  0.41658496  1
  Al  Al53  1  0.91145309  0.08247782  0.91259086  1
  Al  Al54  1  0.91446372  0.58279816  0.40062491  1
  Al  Al55  1  0.92109963  0.58237636  0.90696103  1
  Al  Al56  1  0.08085073  0.40960956  0.41764456  1
  Al  Al57  1  0.09058980  0.41584269  0.92443926  1
  Al  Al58  1  0.09365827  0.91112667  0.40616900  1
  Al  Al59  1  0.07930988  0.91758348  0.92311051  1
  Al  Al60  1  0.59551239  0.41726292  0.42532794  1
  Al  Al61  1  0.59511593  0.41222190  0.91246563  1
  Al  Al62  1  0.58235006  0.90845804  0.41154230  1
  Al  Al63  1  0.59672916  0.92447157  0.92063384  1
  Al  Al64  1  0.09638895  0.07616582  0.41017695  1
  Al  Al65  1  0.07520442  0.08105049  0.92023712  1
  Al  Al66  1  0.07455578  0.59118492  0.41001631  1
  Al  Al67  1  0.08137911  0.58570029  0.91391451  1
  Al  Al68  1  0.58181687  0.07541755  0.42812381  1
  Al  Al69  1  0.59304406  0.08834237  0.91266565  1
  Al  Al70  1  0.58399810  0.57909031  0.41585538  1
  Al  Al71  1  0.59006331  0.57322688  0.91200153  1
  Al  Al72  1  0.40710316  0.41442618  0.42954893  1
  Al  Al73  1  0.41179247  0.41953675  0.91109955  1
  Al  Al74  1  0.40702173  0.91339332  0.40626641  1
  Al  Al75  1  0.41705207  0.92337399  0.92270898  1
  Al  Al76  1  0.91732883  0.41981801  0.40468022  1
  Al  Al77  1  0.91363780  0.42118957  0.91979175  1
  Al  Al78  1  0.91815000  0.90883803  0.41125676  1
  Al  Al79  1  0.91052014  0.92442703  0.91128201  1
  Al  Al80  1  0.08507734  0.40710385  0.08683485  1
  Al  Al81  1  0.09035821  0.41594187  0.57781548  1
  Al  Al82  1  0.08243765  0.91650077  0.08902673  1
  Al  Al83  1  0.08758180  0.91725091  0.56849742  1
  Al  Al84  1  0.58771594  0.41249185  0.06991051  1
  Al  Al85  1  0.58580492  0.41013034  0.58607202  1
  Al  Al86  1  0.59564373  0.91746588  0.08390591  1
  Al  Al87  1  0.58996784  0.91992261  0.57288386  1
  Al  Al88  1  0.41781902  0.07563486  0.08633303  1
  Al  Al89  1  0.41597392  0.09622206  0.58172226  1
  Al  Al90  1  0.40575887  0.57767389  0.08273227  1
  Al  Al91  1  0.40700342  0.57591885  0.58709496  1
  Al  Al92  1  0.90876042  0.08034884  0.08878983  1
  Al  Al93  1  0.92096793  0.07457014  0.58421768  1
  Al  Al94  1  0.92103976  0.57734133  0.08718329  1
  Al  Al95  1  0.92471183  0.57802276  0.57850331  1
  Al  Al96  1  0.24580317  0.13467217  0.13589089  1
  Al  Al97  1  0.25287740  0.13773373  0.62509556  1
  Al  Al98  1  0.24824595  0.63026286  0.13781324  1
  Al  Al99  1  0.25047191  0.62757610  0.63801176  1
  Al  Al100  1  0.74669383  0.13376921  0.13113951  1
  Al  Al101  1  0.74827695  0.12592084  0.63918518  1
  Al  Al102  1  0.75134773  0.63679366  0.13652275  1
  Al  Al103  1  0.75174101  0.63686169  0.63563735  1
  Al  Al104  1  0.24755068  0.36682038  0.13019095  1
  Al  Al105  1  0.25506448  0.36981731  0.63344143  1
  Al  Al106  1  0.24638409  0.86389999  0.13492498  1
  Al  Al107  1  0.25077911  0.86380818  0.63476968  1
  Al  Al108  1  0.74936685  0.36419883  0.13031241  1
  Al  Al109  1  0.74557263  0.36270419  0.63384071  1
  Al  Al110  1  0.74958202  0.86712202  0.13654443  1
  Al  Al111  1  0.74886811  0.87317286  0.63850445  1
  Al  Al112  1  0.25082509  0.13492917  0.36807555  1
  Al  Al113  1  0.24797980  0.13811776  0.86304082  1
  Al  Al114  1  0.25062086  0.63561202  0.36726627  1
  Al  Al115  1  0.24895804  0.62971240  0.86473676  1
  Al  Al116  1  0.75079472  0.13406371  0.36246780  1
  Al  Al117  1  0.74567793  0.13129303  0.86796705  1
  Al  Al118  1  0.75355872  0.63691976  0.36330567  1
  Al  Al119  1  0.74352150  0.63516192  0.86581054  1
  Al  Al120  1  0.25145657  0.36660559  0.36394180  1
  Al  Al121  1  0.25304553  0.37150081  0.86625095  1
  Al  Al122  1  0.25089583  0.86998233  0.36074701  1
  Al  Al123  1  0.24543609  0.86253600  0.86999160  1
  Al  Al124  1  0.74940105  0.36402378  0.36193257  1
  Al  Al125  1  0.74568099  0.36333598  0.87219847  1
  Al  Al126  1  0.75110750  0.86627111  0.36378733  1
  Al  Al127  1  0.75029900  0.86926448  0.86796884  1
  Al  Al128  1  0.13286141  0.25642345  0.13395301  1
  Al  Al129  1  0.13946070  0.25200944  0.63509493  1
  Al  Al130  1  0.12717028  0.75132567  0.14216548  1
  Al  Al131  1  0.13434170  0.74637735  0.63619112  1
  Al  Al132  1  0.63402114  0.24827904  0.13036068  1
  Al  Al133  1  0.63493149  0.24686089  0.63894501  1
  Al  Al134  1  0.63693945  0.75230155  0.13019214  1
  Al  Al135  1  0.63786028  0.75753154  0.63914846  1
  Al  Al136  1  0.13676531  0.24794825  0.36381281  1
  Al  Al137  1  0.13754791  0.25938565  0.86634337  1
  Al  Al138  1  0.13293323  0.75150071  0.36063470  1
  Al  Al139  1  0.13305846  0.74578252  0.86333471  1
  Al  Al140  1  0.63615606  0.24893021  0.36417841  1
  Al  Al141  1  0.63599662  0.24725999  0.86843990  1
  Al  Al142  1  0.63516400  0.75467451  0.36415128  1
  Al  Al143  1  0.63809114  0.75629417  0.87233957  1
  Al  Al144  1  0.36520245  0.25026993  0.13505203  1
  Al  Al145  1  0.36264732  0.25113378  0.63027758  1
  Al  Al146  1  0.36539506  0.75375865  0.13784161  1
  Al  Al147  1  0.36082492  0.74976424  0.63556030  1
  Al  Al148  1  0.86367429  0.25247907  0.13402375  1
  Al  Al149  1  0.86141933  0.24892365  0.64016468  1
  Al  Al150  1  0.87152476  0.75243445  0.13674534  1
  Al  Al151  1  0.86559569  0.75445203  0.63841408  1
  Al  Al152  1  0.36254858  0.24983804  0.36940837  1
  Al  Al153  1  0.36397868  0.25404348  0.86461156  1
  Al  Al154  1  0.36424723  0.75583437  0.36861896  1
  Al  Al155  1  0.36425075  0.75208946  0.86358695  1
  Al  Al156  1  0.86619070  0.24969791  0.36098516  1
  Al  Al157  1  0.86143051  0.24922765  0.86636495  1
  Al  Al158  1  0.86896343  0.75157013  0.36246698  1
  Al  Al159  1  0.86341152  0.74992149  0.86553514  1
  Al  Al160  1  0.13564410  0.13007234  0.25243433  1
  Al  Al161  1  0.13660619  0.13724191  0.74972332  1
  Al  Al162  1  0.13256182  0.63137997  0.25104121  1
  Al  Al163  1  0.13498978  0.62732847  0.75247947  1
  Al  Al164  1  0.63312004  0.13150559  0.24537106  1
  Al  Al165  1  0.63655894  0.12966321  0.75089135  1
  Al  Al166  1  0.63378309  0.63917820  0.24986923  1
  Al  Al167  1  0.63494502  0.63956197  0.75157268  1
  Al  Al168  1  0.36448132  0.13589737  0.25441201  1
  Al  Al169  1  0.36485062  0.13802621  0.74392145  1
  Al  Al170  1  0.36554608  0.63632459  0.24876584  1
  Al  Al171  1  0.36258897  0.63146626  0.75111422  1
  Al  Al172  1  0.86254565  0.12864793  0.24515236  1
  Al  Al173  1  0.86180452  0.12981248  0.75383688  1
  Al  Al174  1  0.87283707  0.63564682  0.25128002  1
  Al  Al175  1  0.86461236  0.63553398  0.75339162  1
  Al  Al176  1  0.13834352  0.37045830  0.24734384  1
  Al  Al177  1  0.14150954  0.37521636  0.75041431  1
  Al  Al178  1  0.13259552  0.87044898  0.25223682  1
  Al  Al179  1  0.13377584  0.86270263  0.75018843  1
  Al  Al180  1  0.63705695  0.36207242  0.24669688  1
  Al  Al181  1  0.63636682  0.36345192  0.75333232  1
  Al  Al182  1  0.63743520  0.86725412  0.24873736  1
  Al  Al183  1  0.63812888  0.87633647  0.75725099  1
  Al  Al184  1  0.36182927  0.36777903  0.24273622  1
  Al  Al185  1  0.36356466  0.36847347  0.74889444  1
  Al  Al186  1  0.36778544  0.86571474  0.25493914  1
  Al  Al187  1  0.36375597  0.86545654  0.75355496  1
  Al  Al188  1  0.86425609  0.36462830  0.24990245  1
  Al  Al189  1  0.86253200  0.36481619  0.75514529  1
  Al  Al190  1  0.86679512  0.86707125  0.24979985  1
  Al  Al191  1  0.86288951  0.87111175  0.75365976  1
  Al  Al192  1  0.19306361  0.81783775  0.49719970  1
  Al  Al193  1  0.66890559  0.50022025  0.17074951  1
  Al  Al194  1  -0.00068643  0.18627503  0.18130518  1
  Al  Al195  1  0.82782442  0.49895494  0.67240777  1
  Al  Al196  1  0.82837703  0.17156979  0.50220898  1
  Al  Al197  1  0.67475325  0.50046595  0.68748293  1
  Al  Al198  1  0.32238249  0.50061892  0.31769129  1
  Al  Al199  1  0.50046992  0.33525549  0.33166514  1
  Al  Al200  1  0.49775028  0.66887330  0.82876010  1
  Al  Al201  1  0.50028749  0.32777658  0.82763541  1
  Al  Al202  1  0.32405455  0.67842054  0.00081562  1
  Al  Al203  1  0.82288924  0.49933536  0.18843435  1
  Al  Al204  1  -0.00075505  0.67525044  0.68563822  1
  Al  Al205  1  0.49872133  0.68655562  0.32243537  1
  Al  Al206  1  0.81218644  0.82654718  0.50017191  1
  Al  Al207  1  0.82957418  0.67191572  0.49833282  1
  Al  Al208  1  0.49750575  0.83217580  0.66660728  1
  Al  Al209  1  -0.00051021  0.17973230  0.82574628  1
  Al  Al210  1  0.82086331  0.83069692  0.00317415  1
  Al  Al211  1  0.31852735  -0.00050618  0.18911564  1
  Al  Al212  1  0.50092505  0.32328919  0.16490650  1
  Al  Al213  1  0.82191926  0.66975482  -0.00142072  1
  Al  Al214  1  0.33119123  0.00007400  0.66861135  1
  Al  Al215  1  0.49849788  0.16649710  0.32861438  1
  Al  Al216  1  0.81647668  0.33041583  0.49669417  1
  Al  Al217  1  0.67586145  -0.00102520  0.32281047  1
  Al  Al218  1  0.32180627  0.00204849  0.82431727  1
  Al  Al219  1  -0.00170406  0.81715448  0.82127254  1
  Al  Al220  1  0.50083761  0.17625833  0.81145341  1
  Al  Al221  1  0.67246168  0.18431964  0.50192861  1
  Al  Al222  1  0.17092596  0.17820968  -0.00087708  1
  Al  Al223  1  0.50304801  0.82446228  0.18098931  1
  Al  Al224  1  -0.00010126  0.17128044  0.67285135  1
  Al  Al225  1  0.66708235  0.69063327  0.50223757  1
  Al  Al226  1  0.81136520  0.50016852  0.82409415  1
  Al  Al227  1  0.17383465  0.00066747  0.67890618  1
  Al  Al228  1  0.82112538  0.17852342  -0.00027692  1
  Al  Al229  1  0.33033373  0.17888229  -0.00098903  1
  Al  Al230  1  0.68651341  0.50098813  0.32267758  1
  Al  Al231  1  0.00227837  0.31900695  0.31068884  1
  Al  Al232  1  0.18850702  0.31863870  0.49887004  1
  Al  Al233  1  0.00083711  0.32886701  0.67810944  1
  Al  Al234  1  0.49885777  0.67217164  0.67088920  1
  Al  Al235  1  0.17183141  0.67799871  0.00194205  1
  Al  Al236  1  0.50744372  0.82975823  0.82897682  1
  Al  Al237  1  0.49906129  0.31196461  0.67623419  1
  Al  Al238  1  0.31932983  0.67772415  0.50101875  1
  Au  Au239  1  0.81815197  0.16631324  -0.00178005  1
  Au  Au240  1  0.49690143  0.65842491  0.16398553  1
  Au  Au241  1  0.66012707  0.67300216  -0.00000111  1
  Au  Au242  1  0.66519821  0.67404231  0.50475257  1
  Au  Au243  1  0.00203707  0.17177943  0.34171875  1
  Au  Au244  1  -0.00177382  0.83535785  0.17947316  1
  Au  Au245  1  0.17439616  0.50036133  0.83551206  1
  Au  Au246  1  0.66498180  0.00404381  0.32715578  1
  Au  Au247  1  0.82455277  0.84171022  -0.00158375  1
  Au  Au248  1  0.18008616  0.49792602  0.66439271  1
  Au  Au249  1  0.16415085  0.82569030  0.00367637  1
  Au  Au250  1  0.00121543  0.83364288  0.65513441  1
  Au  Au251  1  0.66354475  0.00135855  0.67319588  1
  Au  Au252  1  0.49695416  0.65630065  0.82549395  1
  Au  Au253  1  0.82302966  0.34534437  0.49470450  1
  Au  Au254  1  0.82190864  0.15578478  0.50262759  1
  Au  Au255  1  0.33615969  0.49983211  0.32779145  1
  Au  Au256  1  0.17351186  0.00068486  0.66246167  1
  Au  Au257  1  0.33205295  0.67737312  0.49913945  1
  Au  Au258  1  0.15989416  0.50037762  0.33248999  1
  Au  Au259  1  0.17247324  -0.00005915  0.17698021  1
  Au  Au260  1  0.49742486  0.82605219  0.65088874  1
  Au  Au261  1  0.50234409  0.32985671  0.34862541  1
  Au  Au262  1  0.17472558  0.49792765  0.16176161  1
  Au  Au263  1  0.33393926  0.16318672  -0.00144613  1
  Au  Au264  1  -0.00252050  0.17373123  0.17008955  1
  Au  Au265  1  0.17696431  0.17194896  0.49710870  1
  Au  Au266  1  0.50306908  0.83858412  0.17234043  1
  Au  Au267  1  0.00065308  0.32854692  0.84431879  1
  Au  Au268  1  -0.00013414  0.65988310  0.67872720  1
  Au  Au269  1  0.17400928  0.00125137  0.84327369  1
  Au  Au270  1  0.84196008  0.67425307  0.49726761  1
  Au  Au271  1  0.83898296  0.66741075  -0.00170276  1
  Au  Au272  1  0.15993585  0.67443049  0.49647287  1
  Au  Au273  1  0.00279633  0.66652592  0.17746619  1
  Au  Au274  1  0.82293424  0.33397768  0.00127810  1
  Au  Au275  1  0.50152548  0.33590446  0.16731730  1
  Au  Au276  1  0.33373649  0.82745453  0.00040436  1
  Au  Au277  1  0.00067987  0.32328635  0.66206282  1
  Au  Au278  1  0.50706707  0.15880195  0.16449590  1
  Au  Au279  1  0.50398934  0.83771445  0.83800893  1
  Au  Au280  1  0.49697026  0.16870168  0.34071308  1
  Au  Au281  1  0.15838316  0.18086602  -0.00040502  1
  Au  Au282  1  0.50072085  0.67390931  0.33360280  1
  Au  Au283  1  0.82830252  0.49922416  0.17574463  1
  Au  Au284  1  -0.00254264  0.82906948  0.83337405  1
  Au  Au285  1  0.83712623  -0.00332904  0.31842613  1
  Au  Au286  1  0.32234753  0.34273001  -0.00103786  1
  Au  Au287  1  0.83481675  -0.00092354  0.68062728  1
