# generated using pymatgen
data_Ca24Ti8Al207Au49
_symmetry_space_group_name_H-M   'P 1'
_cell_length_a   17.32204480
_cell_length_b   17.32324527
_cell_length_c   17.32158772
_cell_angle_alpha   89.99677726
_cell_angle_beta   90.00099337
_cell_angle_gamma   90.00131044
_symmetry_Int_Tables_number   1
_chemical_formula_structural   Ca24Ti8Al207Au49
_chemical_formula_sum   'Ca24 Ti8 Al207 Au49'
_cell_volume   5197.75863565
_cell_formula_units_Z   1
loop_
 _symmetry_equiv_pos_site_id
 _symmetry_equiv_pos_as_xyz
  1  'x, y, z'
loop_
 _atom_site_type_symbol
 _atom_site_label
 _atom_site_symmetry_multiplicity
 _atom_site_fract_x
 _atom_site_fract_y
 _atom_site_fract_z
 _atom_site_occupancy
  Ca  Ca0  1  0.24357674  -0.00017692  -0.00092276  1
  Ca  Ca1  1  0.25036574  0.00679133  0.50031663  1
  Ca  Ca2  1  0.24467338  0.49988845  0.00191354  1
  Ca  Ca3  1  0.24520565  0.49243895  0.50049270  1
  Ca  Ca4  1  0.75162135  0.00199538  0.00080849  1
  Ca  Ca5  1  0.75400909  0.00234894  0.49987954  1
  Ca  Ca6  1  0.75336298  0.49877197  0.00224038  1
  Ca  Ca7  1  0.75323983  0.49852477  0.49710167  1
  Ca  Ca8  1  -0.00104082  0.24537619  0.00334817  1
  Ca  Ca9  1  0.00014205  0.25552730  0.49431036  1
  Ca  Ca10  1  0.00476350  0.75010091  -0.00229815  1
  Ca  Ca11  1  -0.00220100  0.74752563  0.49943160  1
  Ca  Ca12  1  0.49951986  0.24607107  -0.00407544  1
  Ca  Ca13  1  0.50075287  0.25242437  0.50454666  1
  Ca  Ca14  1  0.49786361  0.75357484  0.00000194  1
  Ca  Ca15  1  0.50591855  0.74752742  0.50246340  1
  Ca  Ca16  1  -0.00098410  0.00472127  0.24800392  1
  Ca  Ca17  1  -0.00176699  -0.00339802  0.74987809  1
  Ca  Ca18  1  -0.00131224  0.49687351  0.25407630  1
  Ca  Ca19  1  -0.00222070  0.50187552  0.74196088  1
  Ca  Ca20  1  0.50330284  -0.00008945  0.25084643  1
  Ca  Ca21  1  0.50021067  0.00580607  0.74816422  1
  Ca  Ca22  1  0.50249554  0.49916925  0.25523805  1
  Ca  Ca23  1  0.49825172  0.49442511  0.74423381  1
  Ti  Ti24  1  0.24804693  0.25023817  0.24980459  1
  Ti  Ti25  1  0.25126414  0.25044649  0.74964455  1
  Ti  Ti26  1  0.24701994  0.75069870  0.25065704  1
  Ti  Ti27  1  0.24882609  0.75006782  0.74895089  1
  Ti  Ti28  1  0.74996623  0.24983362  0.25092977  1
  Ti  Ti29  1  0.74947179  0.25034989  0.74926953  1
  Ti  Ti30  1  0.75331997  0.75019163  0.25021899  1
  Ti  Ti31  1  0.75176746  0.74984317  0.75011749  1
  Al  Al32  1  0.08327211  0.09021707  0.08283532  1
  Al  Al33  1  0.08238222  0.09449499  0.58832009  1
  Al  Al34  1  0.08254311  0.58090128  0.08198112  1
  Al  Al35  1  0.07393077  0.58337195  0.58608565  1
  Al  Al36  1  0.58662239  0.07881301  0.08366487  1
  Al  Al37  1  0.58359137  0.08673789  0.59234441  1
  Al  Al38  1  0.59093746  0.57600768  0.08808338  1
  Al  Al39  1  0.57900390  0.57455328  0.57955021  1
  Al  Al40  1  0.42048841  0.42335531  0.07947125  1
  Al  Al41  1  0.41340017  0.40504328  0.58143139  1
  Al  Al42  1  0.40306496  0.92202769  0.08797423  1
  Al  Al43  1  0.42928332  0.92675296  0.57668371  1
  Al  Al44  1  0.91462811  0.41446154  0.09383046  1
  Al  Al45  1  0.90961621  0.41755601  0.58250229  1
  Al  Al46  1  0.92168744  0.92496246  0.08843777  1
  Al  Al47  1  0.91381387  0.90780592  0.57728404  1
  Al  Al48  1  0.41114197  0.08562829  0.42244683  1
  Al  Al49  1  0.42303575  0.08868536  0.90875753  1
  Al  Al50  1  0.41770528  0.57237276  0.41546878  1
  Al  Al51  1  0.41721936  0.57563917  0.91868293  1
  Al  Al52  1  0.91744940  0.08209341  0.40644367  1
  Al  Al53  1  0.91899231  0.07831616  0.92040908  1
  Al  Al54  1  0.91308331  0.57461951  0.41543980  1
  Al  Al55  1  0.92403716  0.58424207  0.91321071  1
  Al  Al56  1  0.08999376  0.40699880  0.40994573  1
  Al  Al57  1  0.08322528  0.42445171  0.91962991  1
  Al  Al58  1  0.07156581  0.92429358  0.41848046  1
  Al  Al59  1  0.09497287  0.91684660  0.91603574  1
  Al  Al60  1  0.59922380  0.41613577  0.42095755  1
  Al  Al61  1  0.57824936  0.40862526  0.91287034  1
  Al  Al62  1  0.59609685  0.92269609  0.41573711  1
  Al  Al63  1  0.58542652  0.93145111  0.91367647  1
  Al  Al64  1  0.07829960  0.09203555  0.41188772  1
  Al  Al65  1  0.08998759  0.07955781  0.92026942  1
  Al  Al66  1  0.08524186  0.56894429  0.41332255  1
  Al  Al67  1  0.08427456  0.58630691  0.91234153  1
  Al  Al68  1  0.59338145  0.07976642  0.41342112  1
  Al  Al69  1  0.58390855  0.09037465  0.90036627  1
  Al  Al70  1  0.58775625  0.57399568  0.41387481  1
  Al  Al71  1  0.57704873  0.57461313  0.92144272  1
  Al  Al72  1  0.40115961  0.41379052  0.42225902  1
  Al  Al73  1  0.42172816  0.41007247  0.90453377  1
  Al  Al74  1  0.41829082  0.92506947  0.41805180  1
  Al  Al75  1  0.41703709  0.92430012  0.92389945  1
  Al  Al76  1  0.91376195  0.41185462  0.41109047  1
  Al  Al77  1  0.91789417  0.42111702  0.92406882  1
  Al  Al78  1  0.90237743  0.91831322  0.41515504  1
  Al  Al79  1  0.92229189  0.92540078  0.91773886  1
  Al  Al80  1  0.07925857  0.41387789  0.09085274  1
  Al  Al81  1  0.08477408  0.41050575  0.57363099  1
  Al  Al82  1  0.08468156  0.91194367  0.07887674  1
  Al  Al83  1  0.07280646  0.92240403  0.58344643  1
  Al  Al84  1  0.59294304  0.42086167  0.08460420  1
  Al  Al85  1  0.58696142  0.40892759  0.58168500  1
  Al  Al86  1  0.58533256  0.92631378  0.08795173  1
  Al  Al87  1  0.59136776  0.92149122  0.58166232  1
  Al  Al88  1  0.41108732  0.07571908  0.08854343  1
  Al  Al89  1  0.42360830  0.09836701  0.58523921  1
  Al  Al90  1  0.41812949  0.57811204  0.08230436  1
  Al  Al91  1  0.41903218  0.57867901  0.57962306  1
  Al  Al92  1  0.92068411  0.08645936  0.09523709  1
  Al  Al93  1  0.92494454  0.08621144  0.58309456  1
  Al  Al94  1  0.91372325  0.57521266  0.09412307  1
  Al  Al95  1  0.91232569  0.58254731  0.58937186  1
  Al  Al96  1  0.24652963  0.13104134  0.13662910  1
  Al  Al97  1  0.25283890  0.13538054  0.63554455  1
  Al  Al98  1  0.24679276  0.62985905  0.13862262  1
  Al  Al99  1  0.25153845  0.62890210  0.63321111  1
  Al  Al100  1  0.74773976  0.12601956  0.14013502  1
  Al  Al101  1  0.74538783  0.13632156  0.63587817  1
  Al  Al102  1  0.75240344  0.62941020  0.13526649  1
  Al  Al103  1  0.75441217  0.63221610  0.63544439  1
  Al  Al104  1  0.24362711  0.36909148  0.13659032  1
  Al  Al105  1  0.25348372  0.36447810  0.63275656  1
  Al  Al106  1  0.24510273  0.86837576  0.13292118  1
  Al  Al107  1  0.24699615  0.86825370  0.63514029  1
  Al  Al108  1  0.75197354  0.36984267  0.14050951  1
  Al  Al109  1  0.74878071  0.36148619  0.63419942  1
  Al  Al110  1  0.75308524  0.87238208  0.13599882  1
  Al  Al111  1  0.75318227  0.86513077  0.63513281  1
  Al  Al112  1  0.24927650  0.13862311  0.36431059  1
  Al  Al113  1  0.24576124  0.13561343  0.86389945  1
  Al  Al114  1  0.24458963  0.63587938  0.36675158  1
  Al  Al115  1  0.24896833  0.63539479  0.86274116  1
  Al  Al116  1  0.75468247  0.13435159  0.36656108  1
  Al  Al117  1  0.74476060  0.13541556  0.86046963  1
  Al  Al118  1  0.75163026  0.63376361  0.36360328  1
  Al  Al119  1  0.75619124  0.63448618  0.86957573  1
  Al  Al120  1  0.24677003  0.36172519  0.36978084  1
  Al  Al121  1  0.25076553  0.36312633  0.86250706  1
  Al  Al122  1  0.24927554  0.86813798  0.36555857  1
  Al  Al123  1  0.24575084  0.86711804  0.87053874  1
  Al  Al124  1  0.74924350  0.36658004  0.36552561  1
  Al  Al125  1  0.74998060  0.36355236  0.86279987  1
  Al  Al126  1  0.75479369  0.86717999  0.36534723  1
  Al  Al127  1  0.74814781  0.86432503  0.86665367  1
  Al  Al128  1  0.13555532  0.24960574  0.13176795  1
  Al  Al129  1  0.13731817  0.25161809  0.63348508  1
  Al  Al130  1  0.13562163  0.74990603  0.13734235  1
  Al  Al131  1  0.13617519  0.74668539  0.63195688  1
  Al  Al132  1  0.63972259  0.24990913  0.13510492  1
  Al  Al133  1  0.62893505  0.25116717  0.63489161  1
  Al  Al134  1  0.63958186  0.74643037  0.13670262  1
  Al  Al135  1  0.63820449  0.75096348  0.63672258  1
  Al  Al136  1  0.13220739  0.25435614  0.36369938  1
  Al  Al137  1  0.13499774  0.24905027  0.87088907  1
  Al  Al138  1  0.12732156  0.75012675  0.36356008  1
  Al  Al139  1  0.13633359  0.75122420  0.86340246  1
  Al  Al140  1  0.63518702  0.25307182  0.36653106  1
  Al  Al141  1  0.62957852  0.25094223  0.86468664  1
  Al  Al142  1  0.64137759  0.75128747  0.36117577  1
  Al  Al143  1  0.63533357  0.74163668  0.86581867  1
  Al  Al144  1  0.36320035  0.24539251  0.13577388  1
  Al  Al145  1  0.37202332  0.25136940  0.64004913  1
  Al  Al146  1  0.36178875  0.75892954  0.13657069  1
  Al  Al147  1  0.36280561  0.74802176  0.63542923  1
  Al  Al148  1  0.86405741  0.24632932  0.13879434  1
  Al  Al149  1  0.86489121  0.24685126  0.63437647  1
  Al  Al150  1  0.86240883  0.74706602  0.13396074  1
  Al  Al151  1  0.86556496  0.74821438  0.63438684  1
  Al  Al152  1  0.36641927  0.25289319  0.36355974  1
  Al  Al153  1  0.36715257  0.24764244  0.86506264  1
  Al  Al154  1  0.36138636  0.75177606  0.36321287  1
  Al  Al155  1  0.36326977  0.75363291  0.86461736  1
  Al  Al156  1  0.86537729  0.25116337  0.36331660  1
  Al  Al157  1  0.86442528  0.24953917  0.86373468  1
  Al  Al158  1  0.86969813  0.75147259  0.36557637  1
  Al  Al159  1  0.86490920  0.74919460  0.86673234  1
  Al  Al160  1  0.13226891  0.13459216  0.24551760  1
  Al  Al161  1  0.13670233  0.13593299  0.74760467  1
  Al  Al162  1  0.13057085  0.63096028  0.25111950  1
  Al  Al163  1  0.13473508  0.63434061  0.74370233  1
  Al  Al164  1  0.63172041  0.13759356  0.25172852  1
  Al  Al165  1  0.62887701  0.13948854  0.75068306  1
  Al  Al166  1  0.63988731  0.62714931  0.25122334  1
  Al  Al167  1  0.63725891  0.63539001  0.74871612  1
  Al  Al168  1  0.36478444  0.13306818  0.25073124  1
  Al  Al169  1  0.36749404  0.13588786  0.75122379  1
  Al  Al170  1  0.36240924  0.63614948  0.24860653  1
  Al  Al171  1  0.36274212  0.63053699  0.75070198  1
  Al  Al172  1  0.86318208  0.12939879  0.25027257  1
  Al  Al173  1  0.86605642  0.13581503  0.74771574  1
  Al  Al174  1  0.87167633  0.63614620  0.25063478  1
  Al  Al175  1  0.86356671  0.63083823  0.74829994  1
  Al  Al176  1  0.13365300  0.37104977  0.25361637  1
  Al  Al177  1  0.13694934  0.36269571  0.74609313  1
  Al  Al178  1  0.13427457  0.86906869  0.25048991  1
  Al  Al179  1  0.13685788  0.86853428  0.75336275  1
  Al  Al180  1  0.63644058  0.37391020  0.25359947  1
  Al  Al181  1  0.62737905  0.36011570  0.74800812  1
  Al  Al182  1  0.63584537  0.86521468  0.24605756  1
  Al  Al183  1  0.63821614  0.86493836  0.75332380  1
  Al  Al184  1  0.36416989  0.36507631  0.25008247  1
  Al  Al185  1  0.36937236  0.36582109  0.74971113  1
  Al  Al186  1  0.36156737  0.87232136  0.24772463  1
  Al  Al187  1  0.36169080  0.86782727  0.75106426  1
  Al  Al188  1  0.86763772  0.36469540  0.25197199  1
  Al  Al189  1  0.86254873  0.37015154  0.74603670  1
  Al  Al190  1  0.86305788  0.87435007  0.25248895  1
  Al  Al191  1  0.86481147  0.86406206  0.75054878  1
  Al  Al192  1  0.83282842  0.82304814  0.00073851  1
  Al  Al193  1  0.69392489  0.00092570  0.30645004  1
  Al  Al194  1  -0.00109201  0.31791604  0.66872773  1
  Al  Al195  1  0.00134648  0.30619469  0.19058946  1
  Al  Al196  1  0.67110499  0.67156616  0.49998460  1
  Al  Al197  1  0.50123239  0.82788373  0.67157644  1
  Al  Al198  1  -0.00116786  0.19040689  0.30775299  1
  Al  Al199  1  0.32847729  0.68033512  0.00139387  1
  Al  Al200  1  0.50142748  0.67122967  0.32871003  1
  Al  Al201  1  0.17458272  0.00053377  0.67573092  1
  Al  Al202  1  0.68347890  0.49761557  0.66809126  1
  Al  Al203  1  0.81282328  0.00055873  0.82261033  1
  Al  Al204  1  0.83039343  0.00022439  0.66929017  1
  Al  Al205  1  0.32445690  0.19149084  0.50214014  1
  Al  Al206  1  0.00151519  0.83014128  0.82875079  1
  Al  Al207  1  0.81076828  0.49980471  0.30743898  1
  Al  Al208  1  0.50099977  0.32638015  0.33400079  1
  Al  Al209  1  0.82952995  0.17176776  0.00175976  1
  Al  Al210  1  0.67042541  0.82413334  0.00041650  1
  Al  Al211  1  0.00057338  0.67888217  0.80869243  1
  Al  Al212  1  0.31734296  0.33003592  0.00058672  1
  Al  Al213  1  0.17222271  0.18535360  0.49813871  1
  Al  Al214  1  -0.00104718  0.82135651  0.18030058  1
  Al  Al215  1  0.67317697  0.17624954  -0.00022168  1
  Al  Al216  1  0.50042564  0.67275802  0.67691517  1
  Al  Al217  1  0.67759197  0.00159474  0.69063623  1
  Al  Al218  1  0.00049379  0.32690425  0.82630740  1
  Al  Al219  1  0.17906251  0.49991645  0.81824005  1
  Al  Al220  1  0.00087226  0.81198874  0.67679375  1
  Al  Al221  1  0.68891871  0.82471826  0.49978721  1
  Al  Al222  1  0.17534392  0.82518097  0.49897986  1
  Al  Al223  1  0.82509965  0.68293361  0.49857656  1
  Al  Al224  1  0.32454017  0.67606006  0.49489316  1
  Al  Al225  1  0.50097158  0.82744954  0.32634349  1
  Al  Al226  1  0.50134027  0.82507888  0.83053074  1
  Al  Al227  1  0.82345862  0.32529944  0.00325737  1
  Al  Al228  1  0.81319214  0.31862772  0.49928476  1
  Al  Al229  1  0.31313893  0.16884871  0.00030461  1
  Al  Al230  1  0.30943552  0.49928533  0.32194314  1
  Al  Al231  1  0.31245329  0.00083312  0.82012206  1
  Al  Al232  1  0.17674655  0.00018949  0.32385920  1
  Al  Al233  1  0.67854813  0.17943077  0.50147239  1
  Al  Al234  1  0.50164589  0.31779954  0.17242657  1
  Al  Al235  1  0.17219818  0.68274624  0.00012345  1
  Al  Al236  1  0.00218840  0.16590059  0.81489842  1
  Al  Al237  1  0.67861101  0.49917921  0.82307393  1
  Al  Al238  1  0.49968738  0.67896388  0.17181673  1
  Au  Au239  1  0.66600897  0.18135976  0.50256774  1
  Au  Au240  1  0.50085620  0.33716587  0.34032591  1
  Au  Au241  1  0.83895936  0.50043561  0.82398527  1
  Au  Au242  1  0.83978680  0.83336609  0.00084928  1
  Au  Au243  1  0.00284451  0.16258428  0.83079946  1
  Au  Au244  1  0.50153500  0.84087985  0.82415188  1
  Au  Au245  1  0.00259578  0.66071590  0.33303067  1
  Au  Au246  1  0.33311389  0.00241548  0.32361297  1
  Au  Au247  1  0.49814581  0.65973280  0.82544051  1
  Au  Au248  1  0.15873789  0.49547545  0.66962711  1
  Au  Au249  1  0.83441873  0.65824229  0.00255979  1
  Au  Au250  1  0.50547367  0.82727932  0.34204820  1
  Au  Au251  1  0.67524738  0.33612619  -0.00241678  1
  Au  Au252  1  0.16828618  0.65617384  0.49969814  1
  Au  Au253  1  0.33072467  0.49607551  0.66265354  1
  Au  Au254  1  0.33360691  0.33476108  -0.00146637  1
  Au  Au255  1  0.33741016  0.00443842  0.65905240  1
  Au  Au256  1  0.66271217  0.49505113  0.82107275  1
  Au  Au257  1  0.32735207  0.49747544  0.83061366  1
  Au  Au258  1  0.67546621  0.16359200  -0.00134730  1
  Au  Au259  1  0.16191185  -0.00172595  0.67568207  1
  Au  Au260  1  0.84258069  0.17219343  0.49800944  1
  Au  Au261  1  0.33341612  0.66737037  0.49675568  1
  Au  Au262  1  0.50263445  0.33279687  0.16413050  1
  Au  Au263  1  0.66887497  0.84172130  0.00083976  1
  Au  Au264  1  0.32500935  0.00284995  0.83125903  1
  Au  Au265  1  0.49952711  0.15813516  0.16952118  1
  Au  Au266  1  0.15810370  0.32627149  0.00006817  1
  Au  Au267  1  0.49702287  0.84154045  0.16514425  1
  Au  Au268  1  0.31874334  0.83893620  0.00113437  1
  Au  Au269  1  -0.00170088  0.32010261  0.18180100  1
  Au  Au270  1  0.82325163  0.00150621  0.17856146  1
  Au  Au271  1  0.32712023  0.15963060  0.00041992  1
  Au  Au272  1  0.66648225  0.66333414  -0.00189928  1
  Au  Au273  1  0.50363378  0.66252246  0.17412905  1
  Au  Au274  1  0.32194988  0.66451178  0.00055377  1
  Au  Au275  1  0.16807104  0.00257277  0.33253556  1
  Au  Au276  1  0.82960418  0.67089955  0.49855300  1
  Au  Au277  1  0.68586875  0.49961141  0.18240133  1
  Au  Au278  1  -0.00000675  0.67327074  0.16318847  1
  Au  Au279  1  0.16156956  0.83492432  0.49929764  1
  Au  Au280  1  0.00054421  0.33910698  0.82288992  1
  Au  Au281  1  0.16554552  0.50116028  0.17693831  1
  Au  Au282  1  0.34008435  0.83154734  0.50487598  1
  Au  Au283  1  -0.00748925  0.83872213  0.32832228  1
  Au  Au284  1  0.33319453  0.49859565  0.17672470  1
  Au  Au285  1  0.50041410  0.32587883  0.67206136  1
  Au  Au286  1  0.49991808  0.16191285  0.33519071  1
  Au  Au287  1  0.17152030  0.00046024  0.15991665  1
