# generated using pymatgen
data_Ca24Ti8Al207Au49
_symmetry_space_group_name_H-M   'P 1'
_cell_length_a   17.32598287
_cell_length_b   17.32388125
_cell_length_c   17.32505918
_cell_angle_alpha   89.99922584
_cell_angle_beta   89.99906242
_cell_angle_gamma   90.00047807
_symmetry_Int_Tables_number   1
_chemical_formula_structural   Ca24Ti8Al207Au49
_chemical_formula_sum   'Ca24 Ti8 Al207 Au49'
_cell_volume   5200.17316266
_cell_formula_units_Z   1
loop_
 _symmetry_equiv_pos_site_id
 _symmetry_equiv_pos_as_xyz
  1  'x, y, z'
loop_
 _atom_site_type_symbol
 _atom_site_label
 _atom_site_symmetry_multiplicity
 _atom_site_fract_x
 _atom_site_fract_y
 _atom_site_fract_z
 _atom_site_occupancy
  Ca  Ca0  1  0.24845977  -0.00389972  0.00237285  1
  Ca  Ca1  1  0.24278066  0.00043477  0.49554420  1
  Ca  Ca2  1  0.24432524  0.50110277  -0.00364533  1
  Ca  Ca3  1  0.24153022  0.50123377  0.50265247  1
  Ca  Ca4  1  0.75543865  -0.00323724  -0.00340756  1
  Ca  Ca5  1  0.75432016  -0.00382376  0.50398891  1
  Ca  Ca6  1  0.75399887  0.50216330  -0.00129233  1
  Ca  Ca7  1  0.75583563  0.49903697  0.49754783  1
  Ca  Ca8  1  0.00043142  0.25297920  -0.00357036  1
  Ca  Ca9  1  -0.00304048  0.25010017  0.50257820  1
  Ca  Ca10  1  -0.00186687  0.74838948  -0.00053898  1
  Ca  Ca11  1  0.00003708  0.75093085  0.50107067  1
  Ca  Ca12  1  0.49965497  0.25260845  0.00064976  1
  Ca  Ca13  1  0.50134600  0.24819746  0.49666805  1
  Ca  Ca14  1  0.50123083  0.75130589  -0.00078484  1
  Ca  Ca15  1  0.50255038  0.75148735  0.49843879  1
  Ca  Ca16  1  0.00250898  -0.00258386  0.25073105  1
  Ca  Ca17  1  -0.00361615  0.00079246  0.74331382  1
  Ca  Ca18  1  0.00054648  0.50164157  0.25231959  1
  Ca  Ca19  1  -0.00260391  0.50279419  0.75124377  1
  Ca  Ca20  1  0.49969083  0.00127442  0.25352783  1
  Ca  Ca21  1  0.50358319  -0.00134401  0.75183521  1
  Ca  Ca22  1  0.49810339  0.49830867  0.25228101  1
  Ca  Ca23  1  0.50176831  0.50139202  0.75366769  1
  Ti  Ti24  1  0.24944488  0.25211260  0.24983982  1
  Ti  Ti25  1  0.24791953  0.25225225  0.75063478  1
  Ti  Ti26  1  0.24777491  0.74815844  0.24772978  1
  Ti  Ti27  1  0.24786489  0.74855903  0.75190346  1
  Ti  Ti28  1  0.75059231  0.25131241  0.25052929  1
  Ti  Ti29  1  0.75200058  0.25021684  0.75029729  1
  Ti  Ti30  1  0.75150710  0.74945557  0.24954262  1
  Ti  Ti31  1  0.75200665  0.75050653  0.75073399  1
  Al  Al32  1  0.08824465  0.07487150  0.09002115  1
  Al  Al33  1  0.06994193  0.09208307  0.57871767  1
  Al  Al34  1  0.07669415  0.58395493  0.08085658  1
  Al  Al35  1  0.08201430  0.58384038  0.59471172  1
  Al  Al36  1  0.57708091  0.07928029  0.08322293  1
  Al  Al37  1  0.58586508  0.07555974  0.58075233  1
  Al  Al38  1  0.58345954  0.58291444  0.07753265  1
  Al  Al39  1  0.58598167  0.58226280  0.58442247  1
  Al  Al40  1  0.42048036  0.41698394  0.08210664  1
  Al  Al41  1  0.42246989  0.41820337  0.58224346  1
  Al  Al42  1  0.40969617  0.91384612  0.08107754  1
  Al  Al43  1  0.42563098  0.91768751  0.58056397  1
  Al  Al44  1  0.91871696  0.42422901  0.08585207  1
  Al  Al45  1  0.91586625  0.40801435  0.57963623  1
  Al  Al46  1  0.92066085  0.91019235  0.08007064  1
  Al  Al47  1  0.90571950  0.91064191  0.58789633  1
  Al  Al48  1  0.42092726  0.09130938  0.40968074  1
  Al  Al49  1  0.42186575  0.08721619  0.92312953  1
  Al  Al50  1  0.41964753  0.57466074  0.42185600  1
  Al  Al51  1  0.41944599  0.58518800  0.91971902  1
  Al  Al52  1  0.91861132  0.08641711  0.42774947  1
  Al  Al53  1  0.92031301  0.08781459  0.90406495  1
  Al  Al54  1  0.91866413  0.59307379  0.41602480  1
  Al  Al55  1  0.91315581  0.59126699  0.91557337  1
  Al  Al56  1  0.07480762  0.41298754  0.41149692  1
  Al  Al57  1  0.07755091  0.41345383  0.90947191  1
  Al  Al58  1  0.07780139  0.91419461  0.40552111  1
  Al  Al59  1  0.07845262  0.90677423  0.92317056  1
  Al  Al60  1  0.58233021  0.40814592  0.41205827  1
  Al  Al61  1  0.58869495  0.42357420  0.90940055  1
  Al  Al62  1  0.58862935  0.91157186  0.42157637  1
  Al  Al63  1  0.58206133  0.91955319  0.91708304  1
  Al  Al64  1  0.08578635  0.07879960  0.41614782  1
  Al  Al65  1  0.07582797  0.09236582  0.91235067  1
  Al  Al66  1  0.07604233  0.58928658  0.41234597  1
  Al  Al67  1  0.07507303  0.58708366  0.90989100  1
  Al  Al68  1  0.57935841  0.08588042  0.41296190  1
  Al  Al69  1  0.58096811  0.08084537  0.91482043  1
  Al  Al70  1  0.58306334  0.57908683  0.42355489  1
  Al  Al71  1  0.59065712  0.58281563  0.91073505  1
  Al  Al72  1  0.42279126  0.41275316  0.41099702  1
  Al  Al73  1  0.42117009  0.41892802  0.91834654  1
  Al  Al74  1  0.42265253  0.92204983  0.41885128  1
  Al  Al75  1  0.41244698  0.90847884  0.92324364  1
  Al  Al76  1  0.91457845  0.40362099  0.41539820  1
  Al  Al77  1  0.92018388  0.42026672  0.91079919  1
  Al  Al78  1  0.91546331  0.90144883  0.42217899  1
  Al  Al79  1  0.91597359  0.91056698  0.91344442  1
  Al  Al80  1  0.07677130  0.41836831  0.08084172  1
  Al  Al81  1  0.08142686  0.41949122  0.59203265  1
  Al  Al82  1  0.08814276  0.91230854  0.08856292  1
  Al  Al83  1  0.06517670  0.91221327  0.58146421  1
  Al  Al84  1  0.58051884  0.41922121  0.08356141  1
  Al  Al85  1  0.58519354  0.41625313  0.58342833  1
  Al  Al86  1  0.58155380  0.91839130  0.07990927  1
  Al  Al87  1  0.59691968  0.91049761  0.58091043  1
  Al  Al88  1  0.41319838  0.08283590  0.08315807  1
  Al  Al89  1  0.42242948  0.07867169  0.57390425  1
  Al  Al90  1  0.41786031  0.58361435  0.07831380  1
  Al  Al91  1  0.42220932  0.58101280  0.58182457  1
  Al  Al92  1  0.92422787  0.07737113  0.07699498  1
  Al  Al93  1  0.90864174  0.08570728  0.59093991  1
  Al  Al94  1  0.91107921  0.58798094  0.07985775  1
  Al  Al95  1  0.92208365  0.58946869  0.58291905  1
  Al  Al96  1  0.24643019  0.13441032  0.13696799  1
  Al  Al97  1  0.25114175  0.13739340  0.63591438  1
  Al  Al98  1  0.25126166  0.63405729  0.12832506  1
  Al  Al99  1  0.24403879  0.63305963  0.63823888  1
  Al  Al100  1  0.75010932  0.13683502  0.13488221  1
  Al  Al101  1  0.75260585  0.12773266  0.63651619  1
  Al  Al102  1  0.75212147  0.63774256  0.12862717  1
  Al  Al103  1  0.75098101  0.63619627  0.63602954  1
  Al  Al104  1  0.24962586  0.36542224  0.13126096  1
  Al  Al105  1  0.24397297  0.36882629  0.63440321  1
  Al  Al106  1  0.24407994  0.86511496  0.13630157  1
  Al  Al107  1  0.24948904  0.86393182  0.63977560  1
  Al  Al108  1  0.75142163  0.36514098  0.13310036  1
  Al  Al109  1  0.75751107  0.36365534  0.63294924  1
  Al  Al110  1  0.75151825  0.86232570  0.13500069  1
  Al  Al111  1  0.75442860  0.87062052  0.63909410  1
  Al  Al112  1  0.25056902  0.14003933  0.36460778  1
  Al  Al113  1  0.24618576  0.13674846  0.86395276  1
  Al  Al114  1  0.24280078  0.63780286  0.36339857  1
  Al  Al115  1  0.24673987  0.63289522  0.86877001  1
  Al  Al116  1  0.75101252  0.13917242  0.36570899  1
  Al  Al117  1  0.75424396  0.13572630  0.86369090  1
  Al  Al118  1  0.75376544  0.63462840  0.36530014  1
  Al  Al119  1  0.75315690  0.63934947  0.86988072  1
  Al  Al120  1  0.24690619  0.36209057  0.36728345  1
  Al  Al121  1  0.24502600  0.37100428  0.86806819  1
  Al  Al122  1  0.24714609  0.86225971  0.36231045  1
  Al  Al123  1  0.24805216  0.86503763  0.86182785  1
  Al  Al124  1  0.75412410  0.36577750  0.36734438  1
  Al  Al125  1  0.75164323  0.36486298  0.87014359  1
  Al  Al126  1  0.75400126  0.86086572  0.37222155  1
  Al  Al127  1  0.75386032  0.86306199  0.86105433  1
  Al  Al128  1  0.13543625  0.25221662  0.13079764  1
  Al  Al129  1  0.13220090  0.25042134  0.63620457  1
  Al  Al130  1  0.13240715  0.74468806  0.13364256  1
  Al  Al131  1  0.13323446  0.75146721  0.63707720  1
  Al  Al132  1  0.63582033  0.25163911  0.13075856  1
  Al  Al133  1  0.63886249  0.25100278  0.63563281  1
  Al  Al134  1  0.63462647  0.74662733  0.12782669  1
  Al  Al135  1  0.64029255  0.75485973  0.63391697  1
  Al  Al136  1  0.12836971  0.25258018  0.36232604  1
  Al  Al137  1  0.13474986  0.25382286  0.86852768  1
  Al  Al138  1  0.12742875  0.75110125  0.36224480  1
  Al  Al139  1  0.12667295  0.74599366  0.86263945  1
  Al  Al140  1  0.63230950  0.25074169  0.36577396  1
  Al  Al141  1  0.63772682  0.25299314  0.86581292  1
  Al  Al142  1  0.63698840  0.75344492  0.36560000  1
  Al  Al143  1  0.63800932  0.75074935  0.87005294  1
  Al  Al144  1  0.36515237  0.25142253  0.13597604  1
  Al  Al145  1  0.36355133  0.25273688  0.63585083  1
  Al  Al146  1  0.36372780  0.75102425  0.12835055  1
  Al  Al147  1  0.36385567  0.75040761  0.63813259  1
  Al  Al148  1  0.86438863  0.25227297  0.13017448  1
  Al  Al149  1  0.86893653  0.24845362  0.63696620  1
  Al  Al150  1  0.86673716  0.74531913  0.13337760  1
  Al  Al151  1  0.86708730  0.75639361  0.63455024  1
  Al  Al152  1  0.36926759  0.25166745  0.36436549  1
  Al  Al153  1  0.36205091  0.25550406  0.86531962  1
  Al  Al154  1  0.36272377  0.75018980  0.36229112  1
  Al  Al155  1  0.36115045  0.75094353  0.87074774  1
  Al  Al156  1  0.87139206  0.25313714  0.36633200  1
  Al  Al157  1  0.86536589  0.25221824  0.86853265  1
  Al  Al158  1  0.87141165  0.75228519  0.36525987  1
  Al  Al159  1  0.87293592  0.74705896  0.86326174  1
  Al  Al160  1  0.13446276  0.13606395  0.25080399  1
  Al  Al161  1  0.13294668  0.13517453  0.74878336  1
  Al  Al162  1  0.12835676  0.63365099  0.25021699  1
  Al  Al163  1  0.13336715  0.63033820  0.75137380  1
  Al  Al164  1  0.63409344  0.13706574  0.25300629  1
  Al  Al165  1  0.63682283  0.13594338  0.74764860  1
  Al  Al166  1  0.63902854  0.63501529  0.24913535  1
  Al  Al167  1  0.63889058  0.63252264  0.75366224  1
  Al  Al168  1  0.36624237  0.13522387  0.25345292  1
  Al  Al169  1  0.36302376  0.13476281  0.75248867  1
  Al  Al170  1  0.36263496  0.63646582  0.24707511  1
  Al  Al171  1  0.36315957  0.63336950  0.75104729  1
  Al  Al172  1  0.86488522  0.13945966  0.25249488  1
  Al  Al173  1  0.86766262  0.13477918  0.74526019  1
  Al  Al174  1  0.87221430  0.63911870  0.25412296  1
  Al  Al175  1  0.86687753  0.63561881  0.75212821  1
  Al  Al176  1  0.13606800  0.37028277  0.25212842  1
  Al  Al177  1  0.13358880  0.36960393  0.75216837  1
  Al  Al178  1  0.13202301  0.86368383  0.24999612  1
  Al  Al179  1  0.12564307  0.86198741  0.75297603  1
  Al  Al180  1  0.63123577  0.36178158  0.25255055  1
  Al  Al181  1  0.64138132  0.37059322  0.75178197  1
  Al  Al182  1  0.63917474  0.86301867  0.24893013  1
  Al  Al183  1  0.63191426  0.86296409  0.74852882  1
  Al  Al184  1  0.36847403  0.36490289  0.25035326  1
  Al  Al185  1  0.36179513  0.36723120  0.75127407  1
  Al  Al186  1  0.36281016  0.86507311  0.24454552  1
  Al  Al187  1  0.36999871  0.86299756  0.75357501  1
  Al  Al188  1  0.86552151  0.36514938  0.25446998  1
  Al  Al189  1  0.86672093  0.36725147  0.75451935  1
  Al  Al190  1  0.86643634  0.86123028  0.25214639  1
  Al  Al191  1  0.87410207  0.86303170  0.74807491  1
  Al  Al192  1  0.67711999  0.17367461  0.00183217  1
  Al  Al193  1  0.67735540  0.68473287  0.49963990  1
  Al  Al194  1  0.81882382  0.18965089  0.50185484  1
  Al  Al195  1  0.31859020  0.17967651  0.00045675  1
  Al  Al196  1  0.82865693  -0.00152875  0.81498209  1
  Al  Al197  1  0.67514312  0.50077447  0.32040289  1
  Al  Al198  1  0.50043181  0.17121863  0.66934733  1
  Al  Al199  1  0.31759274  0.49975986  0.17298786  1
  Al  Al200  1  -0.00022083  0.81864002  0.18416379  1
  Al  Al201  1  0.83375767  -0.00115847  0.32550549  1
  Al  Al202  1  0.82086067  0.50107119  0.67159138  1
  Al  Al203  1  0.16888045  0.67409406  0.50151573  1
  Al  Al204  1  0.31788608  0.50020300  0.32908841  1
  Al  Al205  1  0.50105527  0.17766354  0.18284760  1
  Al  Al206  1  0.16858704  0.00010406  0.66898536  1
  Al  Al207  1  0.81635749  0.50236597  0.82753991  1
  Al  Al208  1  0.50191283  0.67765949  0.67432851  1
  Al  Al209  1  -0.00026742  0.32761037  0.18456986  1
  Al  Al210  1  0.16675639  0.82819604  0.49971590  1
  Al  Al211  1  0.18207578  -0.00020371  0.31060706  1
  Al  Al212  1  0.18629516  0.81748051  -0.00081555  1
  Al  Al213  1  -0.00060784  0.69036678  0.68964827  1
  Al  Al214  1  0.00022695  0.31236227  0.69221446  1
  Al  Al215  1  0.67468662  -0.00122199  0.32753254  1
  Al  Al216  1  0.17703760  0.18118993  0.49952060  1
  Al  Al217  1  -0.00018492  0.19465548  0.80687049  1
  Al  Al218  1  0.32446718  0.67004256  0.50004624  1
  Al  Al219  1  0.17153578  -0.00222009  0.83116443  1
  Al  Al220  1  0.49962713  0.67201627  0.33134153  1
  Al  Al221  1  0.50076232  0.67840250  0.82624988  1
  Al  Al222  1  0.00009100  0.17151591  0.17962221  1
  Al  Al223  1  0.82898937  -0.00112586  0.17239593  1
  Al  Al224  1  0.67505621  0.00056181  0.17376542  1
  Al  Al225  1  0.82190878  0.81199107  -0.00154191  1
  Al  Al226  1  0.32456255  0.50123118  0.67736998  1
  Al  Al227  1  0.31747258  -0.00014104  0.17997740  1
  Al  Al228  1  0.68356084  0.31966803  0.50288475  1
  Al  Al229  1  0.50075578  0.82612988  0.32088596  1
  Al  Al230  1  0.49991251  0.18307321  0.82306792  1
  Al  Al231  1  0.67632848  -0.00025964  0.81944913  1
  Al  Al232  1  0.82184447  0.50304156  0.18242848  1
  Al  Al233  1  0.82852740  0.68907233  0.50111298  1
  Al  Al234  1  0.50174061  0.32400434  0.68095651  1
  Al  Al235  1  0.32216132  0.82415072  0.49902139  1
  Al  Al236  1  0.50104023  0.68138363  0.17567044  1
  Al  Al237  1  0.32177664  0.32625639  0.49952779  1
  Al  Al238  1  0.32936274  0.00046244  0.68031474  1
  Au  Au239  1  0.84093349  0.50089669  0.33190663  1
  Au  Au240  1  0.00060486  0.17453501  0.33906454  1
  Au  Au241  1  0.67754581  -0.00183625  0.67124109  1
  Au  Au242  1  0.15817533  0.50078749  0.82343763  1
  Au  Au243  1  0.49949549  0.83992488  0.17266747  1
  Au  Au244  1  0.32442326  0.50349309  0.66482425  1
  Au  Au245  1  0.16143762  0.67261233  -0.00391370  1
  Au  Au246  1  0.66833958  0.16490442  -0.00026866  1
  Au  Au247  1  0.83279095  0.50172941  0.66802678  1
  Au  Au248  1  -0.00273669  0.67059435  0.17413325  1
  Au  Au249  1  0.84051919  0.33524771  -0.00010511  1
  Au  Au250  1  0.17135385  0.15969317  0.00164691  1
  Au  Au251  1  -0.00008583  0.32442868  0.68049185  1
  Au  Au252  1  0.49941138  0.82701408  0.83638488  1
  Au  Au253  1  0.15931925  -0.00373384  0.82894747  1
  Au  Au254  1  0.66868857  0.33774193  -0.00117337  1
  Au  Au255  1  0.50117974  0.33377229  0.18003820  1
  Au  Au256  1  0.67320694  0.16268021  0.49870174  1
  Au  Au257  1  0.32933945  0.50217365  0.83576131  1
  Au  Au258  1  0.50531531  0.82551944  0.66280696  1
  Au  Au259  1  0.82754614  -0.00302313  0.34034868  1
  Au  Au260  1  0.32637780  0.16312141  0.49912821  1
  Au  Au261  1  0.83364366  0.16236777  -0.00195320  1
  Au  Au262  1  0.16270629  0.33215305  -0.00154471  1
  Au  Au263  1  0.31401467  -0.00157715  0.16777184  1
  Au  Au264  1  0.33400217  0.00113237  0.66860220  1
  Au  Au265  1  0.15929213  0.00112367  0.65369795  1
  Au  Au266  1  0.67477160  0.50065516  0.16444929  1
  Au  Au267  1  0.15764770  0.32929694  0.50076897  1
  Au  Au268  1  0.50334725  0.33271250  0.82790081  1
  Au  Au269  1  0.50057431  0.66941874  0.17137454  1
  Au  Au270  1  0.66466456  0.49612165  0.32527735  1
  Au  Au271  1  0.32867773  0.00112242  0.33484267  1
  Au  Au272  1  0.33518603  0.00203941  0.84183494  1
  Au  Au273  1  0.16756123  0.50136403  0.33863973  1
  Au  Au274  1  0.66471597  0.50037537  0.67955884  1
  Au  Au275  1  -0.00052756  0.82039165  0.82373129  1
  Au  Au276  1  0.32964746  0.49959174  0.16946423  1
  Au  Au277  1  0.33642339  0.32704280  -0.00029821  1
  Au  Au278  1  0.67499274  0.32880303  0.50006315  1
  Au  Au279  1  0.49892368  0.16920717  0.17341265  1
  Au  Au280  1  0.33265649  0.33260831  0.49955044  1
  Au  Au281  1  0.16418675  0.50048675  0.16713168  1
  Au  Au282  1  0.33214062  0.67981998  -0.00124847  1
  Au  Au283  1  0.00169604  0.17465220  0.16753283  1
  Au  Au284  1  0.67886413  0.66593772  -0.00265404  1
  Au  Au285  1  0.33221319  0.83419771  0.50030914  1
  Au  Au286  1  0.67380015  0.67233158  0.49980792  1
  Au  Au287  1  0.67654229  0.83695208  -0.00133946  1
