# generated using pymatgen
data_Ca24Ti8Al207Au49
_symmetry_space_group_name_H-M   'P 1'
_cell_length_a   17.32019765
_cell_length_b   17.31906957
_cell_length_c   17.31980019
_cell_angle_alpha   90.00183472
_cell_angle_beta   89.99416023
_cell_angle_gamma   89.99874224
_symmetry_Int_Tables_number   1
_chemical_formula_structural   Ca24Ti8Al207Au49
_chemical_formula_sum   'Ca24 Ti8 Al207 Au49'
_cell_volume   5195.41537690
_cell_formula_units_Z   1
loop_
 _symmetry_equiv_pos_site_id
 _symmetry_equiv_pos_as_xyz
  1  'x, y, z'
loop_
 _atom_site_type_symbol
 _atom_site_label
 _atom_site_symmetry_multiplicity
 _atom_site_fract_x
 _atom_site_fract_y
 _atom_site_fract_z
 _atom_site_occupancy
  Ca  Ca0  1  0.25232816  0.00382217  0.00291803  1
  Ca  Ca1  1  0.25005874  0.00072968  0.50480408  1
  Ca  Ca2  1  0.24912700  0.49592830  0.00089433  1
  Ca  Ca3  1  0.24776803  0.49724389  0.49676394  1
  Ca  Ca4  1  0.75022102  0.00074742  -0.00016562  1
  Ca  Ca5  1  0.75479276  -0.00048867  0.50128461  1
  Ca  Ca6  1  0.74401959  0.49901854  -0.00016143  1
  Ca  Ca7  1  0.75234427  0.50346987  0.50041370  1
  Ca  Ca8  1  0.00037288  0.25257275  0.00115072  1
  Ca  Ca9  1  -0.00042792  0.25189045  0.49875946  1
  Ca  Ca10  1  -0.00182845  0.74690996  0.00055879  1
  Ca  Ca11  1  0.00118143  0.74605095  0.49791786  1
  Ca  Ca12  1  0.49893465  0.25440018  -0.00068952  1
  Ca  Ca13  1  0.49629246  0.25479735  0.49946021  1
  Ca  Ca14  1  0.49928303  0.75138416  0.00660222  1
  Ca  Ca15  1  0.49559905  0.74888187  0.49435979  1
  Ca  Ca16  1  -0.00324020  -0.00592174  0.25667207  1
  Ca  Ca17  1  -0.00120728  0.00116141  0.74691567  1
  Ca  Ca18  1  0.00478664  0.50202544  0.25563967  1
  Ca  Ca19  1  0.00344492  0.49753365  0.74513993  1
  Ca  Ca20  1  0.50062661  0.00126240  0.25506269  1
  Ca  Ca21  1  0.49713471  0.00187328  0.74329098  1
  Ca  Ca22  1  0.49811485  0.49653224  0.25614780  1
  Ca  Ca23  1  0.50112679  0.49528533  0.74528486  1
  Ti  Ti24  1  0.25066515  0.25186404  0.25020315  1
  Ti  Ti25  1  0.25106010  0.25139930  0.74929103  1
  Ti  Ti26  1  0.24866015  0.74719714  0.25190528  1
  Ti  Ti27  1  0.24710397  0.74863426  0.74590183  1
  Ti  Ti28  1  0.74938012  0.25147807  0.25399774  1
  Ti  Ti29  1  0.75076331  0.25100823  0.74684541  1
  Ti  Ti30  1  0.75050535  0.74768314  0.25179198  1
  Ti  Ti31  1  0.75193268  0.74881227  0.74792712  1
  Al  Al32  1  0.07852074  0.08265941  0.07633365  1
  Al  Al33  1  0.07944638  0.09321876  0.58737472  1
  Al  Al34  1  0.09483227  0.58600619  0.08959860  1
  Al  Al35  1  0.07736154  0.58805971  0.58322366  1
  Al  Al36  1  0.57668342  0.09386322  0.08717501  1
  Al  Al37  1  0.57592800  0.08672822  0.58185496  1
  Al  Al38  1  0.58240466  0.57897732  0.07813682  1
  Al  Al39  1  0.59114901  0.58199980  0.57441910  1
  Al  Al40  1  0.40959736  0.40967064  0.08102780  1
  Al  Al41  1  0.41105731  0.40473295  0.58338846  1
  Al  Al42  1  0.42597529  0.91908711  0.07649262  1
  Al  Al43  1  0.40207914  0.91776817  0.58956852  1
  Al  Al44  1  0.92220125  0.42155008  0.08300751  1
  Al  Al45  1  0.92103177  0.41953125  0.58021945  1
  Al  Al46  1  0.91436525  0.90997207  0.09092485  1
  Al  Al47  1  0.91010208  0.92287887  0.58176085  1
  Al  Al48  1  0.41508417  0.09619206  0.42848776  1
  Al  Al49  1  0.41306395  0.08575492  0.91675810  1
  Al  Al50  1  0.40103170  0.58272930  0.41157876  1
  Al  Al51  1  0.42502384  0.57384657  0.92792373  1
  Al  Al52  1  0.92062049  0.07833435  0.42386683  1
  Al  Al53  1  0.91890558  0.08773452  0.90587795  1
  Al  Al54  1  0.90765382  0.58664677  0.41802911  1
  Al  Al55  1  0.91375559  0.57545627  0.90592070  1
  Al  Al56  1  0.09652966  0.41434716  0.41077630  1
  Al  Al57  1  0.08189062  0.41680929  0.92634535  1
  Al  Al58  1  0.08079191  0.90645242  0.41087447  1
  Al  Al59  1  0.07935589  0.92192524  0.92793598  1
  Al  Al60  1  0.58908436  0.41847827  0.42522616  1
  Al  Al61  1  0.58454460  0.41211650  0.90331591  1
  Al  Al62  1  0.58089039  0.91831789  0.41725832  1
  Al  Al63  1  0.58292616  0.92111294  0.91487092  1
  Al  Al64  1  0.08351025  0.08147119  0.42486119  1
  Al  Al65  1  0.07636915  0.09219144  0.91362931  1
  Al  Al66  1  0.08890248  0.57845610  0.41227689  1
  Al  Al67  1  0.08693873  0.58967339  0.92691574  1
  Al  Al68  1  0.58135823  0.08328100  0.41795904  1
  Al  Al69  1  0.57979721  0.08085314  0.91707404  1
  Al  Al70  1  0.58985136  0.58646461  0.41662155  1
  Al  Al71  1  0.59481461  0.57151638  0.91488390  1
  Al  Al72  1  0.40104064  0.41810966  0.42044498  1
  Al  Al73  1  0.42220552  0.40271131  0.91598861  1
  Al  Al74  1  0.41612013  0.90566324  0.43049298  1
  Al  Al75  1  0.42174136  0.92755799  0.91180214  1
  Al  Al76  1  0.91543805  0.42335644  0.41125558  1
  Al  Al77  1  0.91197135  0.42153082  0.90496586  1
  Al  Al78  1  0.92058390  0.90604490  0.41607904  1
  Al  Al79  1  0.91478960  0.92431999  0.92525718  1
  Al  Al80  1  0.09480449  0.42259493  0.08815102  1
  Al  Al81  1  0.08777469  0.41009374  0.57453089  1
  Al  Al82  1  0.07158483  0.90181887  0.08996829  1
  Al  Al83  1  0.08193829  0.91765355  0.57478980  1
  Al  Al84  1  0.57530386  0.41818108  0.08051751  1
  Al  Al85  1  0.58372753  0.40428793  0.58701712  1
  Al  Al86  1  0.58171114  0.91583737  0.07954866  1
  Al  Al87  1  0.57744319  0.91965650  0.57695921  1
  Al  Al88  1  0.42203119  0.10274121  0.08240684  1
  Al  Al89  1  0.40773098  0.08880612  0.58963134  1
  Al  Al90  1  0.41693588  0.57592606  0.08909824  1
  Al  Al91  1  0.41026117  0.57721412  0.57035354  1
  Al  Al92  1  0.91850927  0.07329312  0.08287160  1
  Al  Al93  1  0.91605791  0.08517982  0.59755514  1
  Al  Al94  1  0.92553940  0.57795198  0.08610721  1
  Al  Al95  1  0.91385837  0.59428948  0.58230459  1
  Al  Al96  1  0.24979097  0.14250316  0.12715804  1
  Al  Al97  1  0.25716540  0.13511990  0.63110317  1
  Al  Al98  1  0.24393051  0.63019705  0.13577539  1
  Al  Al99  1  0.24805708  0.63471380  0.62608137  1
  Al  Al100  1  0.75280038  0.14064672  0.13047596  1
  Al  Al101  1  0.75063870  0.13711739  0.62862064  1
  Al  Al102  1  0.75303796  0.63593838  0.13872931  1
  Al  Al103  1  0.75274471  0.63041462  0.63249889  1
  Al  Al104  1  0.24910474  0.36678569  0.13623835  1
  Al  Al105  1  0.25012087  0.36312363  0.62916066  1
  Al  Al106  1  0.24689162  0.86061595  0.13378770  1
  Al  Al107  1  0.25061595  0.86309804  0.62681822  1
  Al  Al108  1  0.74888180  0.36402917  0.13829921  1
  Al  Al109  1  0.75119600  0.36560348  0.62809224  1
  Al  Al110  1  0.75075157  0.86019280  0.13796550  1
  Al  Al111  1  0.75362256  0.86291038  0.63341076  1
  Al  Al112  1  0.25487964  0.13737637  0.36560003  1
  Al  Al113  1  0.25389076  0.13999412  0.86750606  1
  Al  Al114  1  0.24995161  0.63370656  0.37076598  1
  Al  Al115  1  0.24256874  0.63377078  0.86453579  1
  Al  Al116  1  0.75065798  0.13880131  0.37363303  1
  Al  Al117  1  0.75197087  0.13875865  0.86688207  1
  Al  Al118  1  0.75147473  0.63036366  0.36718497  1
  Al  Al119  1  0.75428587  0.63194936  0.86337404  1
  Al  Al120  1  0.25191730  0.36816387  0.36761385  1
  Al  Al121  1  0.25073506  0.36557762  0.86323059  1
  Al  Al122  1  0.25002767  0.85945570  0.36904108  1
  Al  Al123  1  0.24709014  0.86278615  0.86183269  1
  Al  Al124  1  0.74872868  0.37042176  0.36899760  1
  Al  Al125  1  0.74813899  0.37004889  0.86047360  1
  Al  Al126  1  0.75147953  0.86142895  0.36580552  1
  Al  Al127  1  0.75281225  0.86666701  0.86093756  1
  Al  Al128  1  0.13115213  0.25327615  0.13906686  1
  Al  Al129  1  0.13817483  0.25117448  0.63131664  1
  Al  Al130  1  0.13601885  0.74829296  0.13401904  1
  Al  Al131  1  0.13450656  0.74844850  0.62603455  1
  Al  Al132  1  0.63450328  0.24838192  0.13581474  1
  Al  Al133  1  0.63628236  0.25469285  0.62937277  1
  Al  Al134  1  0.63104455  0.74935139  0.13802260  1
  Al  Al135  1  0.63761369  0.74307454  0.63450578  1
  Al  Al136  1  0.13871918  0.25693091  0.36892559  1
  Al  Al137  1  0.13577481  0.25030538  0.86182802  1
  Al  Al138  1  0.13237761  0.74688972  0.36940061  1
  Al  Al139  1  0.13363922  0.74866646  0.86618253  1
  Al  Al140  1  0.63470316  0.25161526  0.37385862  1
  Al  Al141  1  0.63599027  0.25322231  0.86235451  1
  Al  Al142  1  0.63505619  0.74386456  0.36741382  1
  Al  Al143  1  0.64205664  0.75181208  0.86272620  1
  Al  Al144  1  0.36179956  0.25656256  0.12786961  1
  Al  Al145  1  0.36311137  0.25310283  0.62836524  1
  Al  Al146  1  0.36743869  0.74082093  0.13736818  1
  Al  Al147  1  0.36059587  0.74891348  0.62844002  1
  Al  Al148  1  0.86699959  0.25234561  0.13853021  1
  Al  Al149  1  0.86544388  0.24990741  0.63037876  1
  Al  Al150  1  0.87103550  0.75438411  0.14094488  1
  Al  Al151  1  0.86746799  0.74236001  0.63464704  1
  Al  Al152  1  0.36338907  0.25172205  0.37098737  1
  Al  Al153  1  0.36678942  0.25584099  0.86811642  1
  Al  Al154  1  0.36249262  0.74647969  0.36849213  1
  Al  Al155  1  0.36223613  0.74688057  0.86158842  1
  Al  Al156  1  0.86231614  0.25469339  0.37409889  1
  Al  Al157  1  0.86375505  0.25107735  0.86125579  1
  Al  Al158  1  0.86803303  0.74446676  0.36580815  1
  Al  Al159  1  0.86804586  0.75271177  0.85752384  1
  Al  Al160  1  0.13716033  0.13806690  0.25291967  1
  Al  Al161  1  0.13793146  0.13755068  0.74333736  1
  Al  Al162  1  0.13727689  0.63069625  0.25487856  1
  Al  Al163  1  0.13580343  0.63161855  0.74213042  1
  Al  Al164  1  0.63582614  0.14071010  0.25222763  1
  Al  Al165  1  0.63697857  0.13930598  0.74522527  1
  Al  Al166  1  0.63605101  0.63262115  0.25260285  1
  Al  Al167  1  0.64019563  0.62953814  0.75551013  1
  Al  Al168  1  0.36624941  0.14470924  0.24238650  1
  Al  Al169  1  0.36403069  0.13983954  0.74794000  1
  Al  Al170  1  0.36015681  0.63035272  0.25388118  1
  Al  Al171  1  0.35871963  0.63454580  0.74567523  1
  Al  Al172  1  0.86403022  0.13721801  0.25685557  1
  Al  Al173  1  0.86120370  0.12960305  0.74558980  1
  Al  Al174  1  0.86767593  0.63144213  0.25563032  1
  Al  Al175  1  0.86581678  0.63086967  0.74916418  1
  Al  Al176  1  0.14016456  0.37238239  0.25256997  1
  Al  Al177  1  0.13834047  0.37145016  0.74678245  1
  Al  Al178  1  0.13275215  0.85895510  0.25348472  1
  Al  Al179  1  0.13235093  0.86020423  0.74371843  1
  Al  Al180  1  0.63473603  0.36323984  0.25506583  1
  Al  Al181  1  0.63286219  0.36371202  0.74856485  1
  Al  Al182  1  0.63545698  0.86270416  0.25178793  1
  Al  Al183  1  0.63641971  0.86310039  0.74549639  1
  Al  Al184  1  0.36357150  0.36498213  0.25454549  1
  Al  Al185  1  0.36952119  0.36080258  0.74552502  1
  Al  Al186  1  0.36119794  0.86204452  0.24691446  1
  Al  Al187  1  0.36106811  0.86270640  0.74446393  1
  Al  Al188  1  0.86450606  0.36607133  0.25461051  1
  Al  Al189  1  0.86365276  0.36965067  0.74724217  1
  Al  Al190  1  0.86937395  0.86154862  0.25634520  1
  Al  Al191  1  0.86498904  0.87070892  0.74521610  1
  Al  Al192  1  0.18668104  -0.00021412  0.67202890  1
  Al  Al193  1  -0.00244933  0.81805702  0.67343728  1
  Al  Al194  1  0.18981711  0.18342901  0.49927846  1
  Al  Al195  1  0.33073321  0.00563068  0.17037346  1
  Al  Al196  1  0.00091432  0.31455331  0.67944171  1
  Al  Al197  1  0.00301475  0.68091823  0.17977601  1
  Al  Al198  1  0.49862836  0.31535121  0.17740724  1
  Al  Al199  1  0.49917086  0.18997234  0.67088485  1
  Al  Al200  1  0.49556475  0.66799281  0.66575306  1
  Al  Al201  1  0.31375744  0.67165161  -0.00036230  1
  Al  Al202  1  0.17072945  0.00250880  0.82895169  1
  Al  Al203  1  0.68349246  0.00123653  0.32802624  1
  Al  Al204  1  -0.00462180  0.17467314  0.18116737  1
  Al  Al205  1  0.49909850  0.82662316  0.82361717  1
  Al  Al206  1  0.32822756  0.49862599  0.82720909  1
  Al  Al207  1  -0.00071441  0.18286129  0.80371632  1
  Al  Al208  1  0.68146837  0.00288483  0.82354816  1
  Al  Al209  1  0.17434044  -0.00061030  0.32836652  1
  Al  Al210  1  0.31953438  0.49826050  0.66989489  1
  Al  Al211  1  0.82564777  0.32612174  -0.00006394  1
  Al  Al212  1  0.66996061  0.32381305  -0.00037124  1
  Al  Al213  1  0.68159725  0.00031919  0.66644012  1
  Al  Al214  1  0.83387503  0.67366518  -0.00070369  1
  Al  Al215  1  0.32633946  0.00108963  0.81154606  1
  Al  Al216  1  0.32065154  0.82695573  -0.00282570  1
  Al  Al217  1  0.67270292  0.49802096  0.17976935  1
  Al  Al218  1  0.50004762  0.18662953  0.82664440  1
  Al  Al219  1  0.82654775  0.81241552  0.50044295  1
  Al  Al220  1  0.18748222  0.32123059  0.00093386  1
  Al  Al221  1  0.31249446  0.49793421  0.18811793  1
  Al  Al222  1  0.00103348  0.32180078  0.32257520  1
  Al  Al223  1  0.33279759  -0.00239055  0.33640462  1
  Al  Al224  1  0.00282013  0.67551266  0.81574804  1
  Al  Al225  1  0.49895986  0.17790699  0.31744574  1
  Al  Al226  1  0.67623435  0.00318897  0.16856108  1
  Al  Al227  1  0.82606469  -0.00130971  0.18556406  1
  Al  Al228  1  0.50453664  0.67039693  0.83157010  1
  Al  Al229  1  0.49852657  0.82537048  0.67063575  1
  Al  Al230  1  0.67958342  0.49716068  0.68107963  1
  Al  Al231  1  0.49759539  0.82495708  0.32343565  1
  Al  Al232  1  0.81841113  0.82447524  -0.00003354  1
  Al  Al233  1  0.67361734  0.81504914  0.50069543  1
  Al  Al234  1  0.82640708  0.49947726  0.18358911  1
  Al  Al235  1  0.67489636  0.67979822  0.00105920  1
  Al  Al236  1  0.16918698  -0.00259553  0.17279677  1
  Al  Al237  1  0.49858784  0.33313362  0.33311209  1
  Al  Al238  1  0.49700781  0.67015027  0.32382238  1
  Au  Au239  1  0.00248429  0.66920502  0.17478794  1
  Au  Au240  1  0.32459259  0.49495366  0.17650847  1
  Au  Au241  1  0.83339191  0.16072478  0.00062717  1
  Au  Au242  1  0.17419336  0.66404423  0.49812947  1
  Au  Au243  1  0.34386784  0.49361121  0.82561683  1
  Au  Au244  1  0.82501456  0.34211368  -0.00382956  1
  Au  Au245  1  0.82651042  0.65835612  -0.00067951  1
  Au  Au246  1  0.00264289  0.32704871  0.83841175  1
  Au  Au247  1  0.50395419  0.66115955  0.17368751  1
  Au  Au248  1  0.84144477  0.50279941  0.67454250  1
  Au  Au249  1  0.66503364  0.49716702  0.67325765  1
  Au  Au250  1  0.15720334  0.81908247  0.00109395  1
  Au  Au251  1  0.66331261  0.17680189  0.50143551  1
  Au  Au252  1  0.50027114  0.17072534  0.82071703  1
  Au  Au253  1  0.17966397  0.00248406  0.84407560  1
  Au  Au254  1  0.00534185  0.34187029  0.17462580  1
  Au  Au255  1  0.16854859  0.50007938  0.65979555  1
  Au  Au256  1  0.67540361  0.49933159  0.33151952  1
  Au  Au257  1  0.49390280  0.67235778  0.64943062  1
  Au  Au258  1  0.66153959  0.17356069  -0.00205776  1
  Au  Au259  1  0.83197607  -0.00058115  0.82525006  1
  Au  Au260  1  0.00199332  0.17051655  0.33701852  1
  Au  Au261  1  0.32386257  0.65787079  0.00252318  1
  Au  Au262  1  0.33017756  0.84035593  -0.00713517  1
  Au  Au263  1  0.83367310  -0.00420560  0.33618399  1
  Au  Au264  1  0.83519682  0.16707518  0.50486066  1
  Au  Au265  1  0.00373434  0.31764089  0.66306466  1
  Au  Au266  1  -0.00019092  0.67221909  0.33558623  1
  Au  Au267  1  0.16346127  0.17689212  -0.00063181  1
  Au  Au268  1  -0.00250681  0.16578873  0.17253442  1
  Au  Au269  1  0.66146926  0.00498280  0.17668780  1
  Au  Au270  1  0.17579276  0.83139617  0.49665114  1
  Au  Au271  1  0.00313934  0.66086164  0.82403288  1
  Au  Au272  1  0.17064620  0.00009988  0.66583042  1
  Au  Au273  1  0.82535544  0.34200266  0.49665169  1
  Au  Au274  1  0.33123523  0.18262353  -0.00237622  1
  Au  Au275  1  0.16502378  0.50070364  0.83843366  1
  Au  Au276  1  0.34698525  0.00657106  0.16637291  1
  Au  Au277  1  0.66550077  0.00074140  0.67242761  1
  Au  Au278  1  0.67002430  0.82748734  0.50046073  1
  Au  Au279  1  0.32656230  -0.00273005  0.35200069  1
  Au  Au280  1  0.49817422  0.17295356  0.32929307  1
  Au  Au281  1  -0.00205492  0.83746637  0.83743730  1
  Au  Au282  1  0.15311230  -0.00720905  0.17508009  1
  Au  Au283  1  0.17356109  0.17722986  0.49987163  1
  Au  Au284  1  -0.00361335  0.82837699  0.66008515  1
  Au  Au285  1  0.66781222  0.83046124  -0.00422641  1
  Au  Au286  1  0.49854684  0.83211013  0.17446337  1
  Au  Au287  1  0.50854445  0.67424821  0.84773798  1
