# generated using pymatgen
data_Ca24Ti8Al207Au49
_symmetry_space_group_name_H-M   'P 1'
_cell_length_a   17.32487117
_cell_length_b   17.32355782
_cell_length_c   17.32407134
_cell_angle_alpha   90.00217193
_cell_angle_beta   89.99904894
_cell_angle_gamma   90.00166624
_symmetry_Int_Tables_number   1
_chemical_formula_structural   Ca24Ti8Al207Au49
_chemical_formula_sum   'Ca24 Ti8 Al207 Au49'
_cell_volume   5199.44593585
_cell_formula_units_Z   1
loop_
 _symmetry_equiv_pos_site_id
 _symmetry_equiv_pos_as_xyz
  1  'x, y, z'
loop_
 _atom_site_type_symbol
 _atom_site_label
 _atom_site_symmetry_multiplicity
 _atom_site_fract_x
 _atom_site_fract_y
 _atom_site_fract_z
 _atom_site_occupancy
  Ca  Ca0  1  0.24796897  0.00058790  0.00015335  1
  Ca  Ca1  1  0.24699125  -0.00100470  0.50369145  1
  Ca  Ca2  1  0.24837500  0.50135379  -0.00430385  1
  Ca  Ca3  1  0.24661381  0.50275433  0.50200228  1
  Ca  Ca4  1  0.75376286  0.00240136  -0.00157862  1
  Ca  Ca5  1  0.75575553  -0.00041955  0.50496317  1
  Ca  Ca6  1  0.75077014  0.50036673  0.00233184  1
  Ca  Ca7  1  0.75392478  0.49757709  0.49595275  1
  Ca  Ca8  1  -0.00483681  0.24784334  -0.00252067  1
  Ca  Ca9  1  0.00159270  0.24332345  0.50532875  1
  Ca  Ca10  1  0.00278039  0.75023358  0.00028770  1
  Ca  Ca11  1  0.00441008  0.75729586  0.49943654  1
  Ca  Ca12  1  0.50150492  0.24761479  -0.00035566  1
  Ca  Ca13  1  0.50037315  0.24562618  0.50339840  1
  Ca  Ca14  1  0.49974091  0.75161290  0.00074640  1
  Ca  Ca15  1  0.49792999  0.75184753  0.49918200  1
  Ca  Ca16  1  0.00177141  -0.00489018  0.24964613  1
  Ca  Ca17  1  0.00240372  0.00023783  0.74778222  1
  Ca  Ca18  1  -0.00267554  0.50297058  0.24397645  1
  Ca  Ca19  1  0.00350711  0.50076021  0.75011281  1
  Ca  Ca20  1  0.49428196  0.00024842  0.25198146  1
  Ca  Ca21  1  0.50110669  0.00407182  0.74827337  1
  Ca  Ca22  1  0.50198935  0.50226971  0.24944676  1
  Ca  Ca23  1  0.49562877  0.49638177  0.75024320  1
  Ti  Ti24  1  0.24987094  0.24772712  0.25082907  1
  Ti  Ti25  1  0.24997554  0.24828570  0.74849755  1
  Ti  Ti26  1  0.24967868  0.75155049  0.24965370  1
  Ti  Ti27  1  0.24693879  0.75042114  0.75113077  1
  Ti  Ti28  1  0.75049810  0.25154905  0.24697424  1
  Ti  Ti29  1  0.75036394  0.24865661  0.75130462  1
  Ti  Ti30  1  0.75050600  0.74830613  0.24803131  1
  Ti  Ti31  1  0.75311745  0.75140187  0.75239008  1
  Al  Al32  1  0.07855781  0.08032608  0.08271772  1
  Al  Al33  1  0.09030861  0.08092752  0.59374075  1
  Al  Al34  1  0.08395395  0.59083756  0.07468318  1
  Al  Al35  1  0.08924879  0.58278515  0.58596007  1
  Al  Al36  1  0.58462229  0.08725721  0.07340732  1
  Al  Al37  1  0.57302198  0.09127754  0.58707282  1
  Al  Al38  1  0.58691049  0.58781337  0.08603050  1
  Al  Al39  1  0.57886177  0.58021101  0.57921621  1
  Al  Al40  1  0.41929725  0.42023014  0.07488175  1
  Al  Al41  1  0.41595532  0.41322903  0.58467642  1
  Al  Al42  1  0.41116027  0.92207717  0.08797375  1
  Al  Al43  1  0.40607426  0.92618419  0.58903112  1
  Al  Al44  1  0.90141583  0.41713774  0.08313231  1
  Al  Al45  1  0.92402485  0.40351594  0.58532940  1
  Al  Al46  1  0.92399179  0.91219733  0.08124052  1
  Al  Al47  1  0.92846807  0.91406361  0.58486103  1
  Al  Al48  1  0.40684433  0.08582717  0.42641020  1
  Al  Al49  1  0.41871212  0.08153805  0.91366202  1
  Al  Al50  1  0.42373583  0.58955289  0.41381749  1
  Al  Al51  1  0.41418640  0.58237925  0.91704037  1
  Al  Al52  1  0.92150019  0.07812011  0.42422093  1
  Al  Al53  1  0.90890784  0.08889619  0.91572501  1
  Al  Al54  1  0.92287717  0.58746156  0.41260302  1
  Al  Al55  1  0.91846263  0.58772430  0.92736076  1
  Al  Al56  1  0.07939995  0.41956088  0.42168841  1
  Al  Al57  1  0.08260856  0.42205679  0.90419632  1
  Al  Al58  1  0.08864073  0.91047849  0.41691966  1
  Al  Al59  1  0.08960951  0.90979191  0.92031965  1
  Al  Al60  1  0.57945026  0.41976417  0.41509449  1
  Al  Al61  1  0.57885679  0.40836478  0.92572984  1
  Al  Al62  1  0.57712822  0.91787488  0.41976185  1
  Al  Al63  1  0.58340225  0.91100571  0.91684764  1
  Al  Al64  1  0.08568999  0.07417670  0.42331177  1
  Al  Al65  1  0.07792541  0.08072064  0.91814914  1
  Al  Al66  1  0.07940544  0.59519919  0.41949481  1
  Al  Al67  1  0.09509263  0.58516602  0.91330903  1
  Al  Al68  1  0.57846083  0.08220317  0.42563112  1
  Al  Al69  1  0.58728652  0.09060395  0.91593520  1
  Al  Al70  1  0.57975010  0.58446005  0.40969395  1
  Al  Al71  1  0.58058646  0.58896549  0.92649764  1
  Al  Al72  1  0.42064071  0.41387606  0.41965950  1
  Al  Al73  1  0.41615603  0.41671090  0.91524274  1
  Al  Al74  1  0.41486287  0.91861439  0.41881665  1
  Al  Al75  1  0.41941229  0.91891457  0.91423389  1
  Al  Al76  1  0.91746246  0.41730018  0.42296545  1
  Al  Al77  1  0.91912100  0.40603360  0.92283096  1
  Al  Al78  1  0.92682564  0.91153617  0.41410971  1
  Al  Al79  1  0.91570730  0.91933911  0.91346818  1
  Al  Al80  1  0.07148237  0.42327188  0.07694129  1
  Al  Al81  1  0.08278945  0.41439916  0.59589895  1
  Al  Al82  1  0.08706560  0.90657024  0.08405694  1
  Al  Al83  1  0.09165622  0.91502914  0.58613689  1
  Al  Al84  1  0.58982740  0.41439912  0.08363221  1
  Al  Al85  1  0.57455716  0.41546767  0.58145397  1
  Al  Al86  1  0.58444848  0.91344792  0.07392419  1
  Al  Al87  1  0.57878563  0.92326108  0.57994794  1
  Al  Al88  1  0.41174287  0.07979971  0.08739241  1
  Al  Al89  1  0.40744729  0.08933969  0.59010890  1
  Al  Al90  1  0.42242291  0.58419723  0.08075411  1
  Al  Al91  1  0.41771952  0.57825884  0.57792318  1
  Al  Al92  1  0.91352979  0.09287915  0.07819249  1
  Al  Al93  1  0.92624642  0.08761829  0.59001462  1
  Al  Al94  1  0.90765492  0.58155051  0.08626466  1
  Al  Al95  1  0.92435433  0.58399868  0.58013614  1
  Al  Al96  1  0.25086004  0.12804614  0.13737155  1
  Al  Al97  1  0.25038553  0.12785412  0.63907790  1
  Al  Al98  1  0.24696327  0.63873017  0.13016745  1
  Al  Al99  1  0.24615409  0.63949061  0.63734303  1
  Al  Al100  1  0.75152091  0.13657799  0.12969630  1
  Al  Al101  1  0.75233315  0.12909649  0.64147555  1
  Al  Al102  1  0.74915087  0.63144278  0.12916186  1
  Al  Al103  1  0.75409565  0.63646677  0.63597620  1
  Al  Al104  1  0.24867908  0.36406868  0.13463174  1
  Al  Al105  1  0.25268513  0.36161182  0.63405311  1
  Al  Al106  1  0.24726370  0.86956138  0.13502523  1
  Al  Al107  1  0.24254190  0.86858981  0.63756706  1
  Al  Al108  1  0.75087796  0.36786200  0.12665332  1
  Al  Al109  1  0.75153770  0.36321209  0.63762720  1
  Al  Al110  1  0.74952793  0.86216647  0.13306889  1
  Al  Al111  1  0.75435807  0.86973521  0.63916233  1
  Al  Al112  1  0.25434988  0.13179587  0.36668739  1
  Al  Al113  1  0.25102529  0.13526024  0.85981737  1
  Al  Al114  1  0.24652474  0.63796433  0.36446160  1
  Al  Al115  1  0.24449577  0.63398776  0.86833412  1
  Al  Al116  1  0.75259452  0.13692477  0.36392969  1
  Al  Al117  1  0.75001054  0.13488101  0.86606537  1
  Al  Al118  1  0.75226015  0.63591307  0.36446236  1
  Al  Al119  1  0.75733505  0.63826181  0.87302731  1
  Al  Al120  1  0.25079129  0.36483390  0.36649468  1
  Al  Al121  1  0.24388881  0.36428767  0.86010287  1
  Al  Al122  1  0.24882957  0.86608045  0.36541381  1
  Al  Al123  1  0.24426509  0.86319146  0.86419780  1
  Al  Al124  1  0.75216358  0.36358329  0.36229336  1
  Al  Al125  1  0.75667070  0.36071545  0.87383135  1
  Al  Al126  1  0.75007527  0.86052202  0.36407948  1
  Al  Al127  1  0.74828402  0.86492700  0.86766005  1
  Al  Al128  1  0.13631628  0.24980484  0.13536559  1
  Al  Al129  1  0.13170974  0.24700034  0.63629332  1
  Al  Al130  1  0.13615090  0.75204353  0.13145284  1
  Al  Al131  1  0.12920920  0.75417184  0.63654019  1
  Al  Al132  1  0.63804551  0.24894738  0.12530038  1
  Al  Al133  1  0.63613897  0.24499919  0.63672163  1
  Al  Al134  1  0.63591913  0.74908727  0.12752629  1
  Al  Al135  1  0.63459397  0.75143561  0.63821694  1
  Al  Al136  1  0.13439900  0.24597704  0.36619648  1
  Al  Al137  1  0.13204891  0.24458243  0.86194558  1
  Al  Al138  1  0.13342297  0.75827149  0.36576407  1
  Al  Al139  1  0.12990558  0.75068596  0.86533548  1
  Al  Al140  1  0.63647744  0.25024130  0.36465671  1
  Al  Al141  1  0.63843101  0.24659672  0.87234409  1
  Al  Al142  1  0.62910114  0.74610224  0.36143294  1
  Al  Al143  1  0.63845396  0.74972343  0.87150378  1
  Al  Al144  1  0.36322746  0.24507978  0.13518932  1
  Al  Al145  1  0.36232810  0.24301208  0.62780130  1
  Al  Al146  1  0.36309633  0.75101441  0.13335012  1
  Al  Al147  1  0.36466492  0.75256233  0.63832172  1
  Al  Al148  1  0.86135985  0.25142163  0.12779535  1
  Al  Al149  1  0.86865852  0.24620255  0.63741585  1
  Al  Al150  1  0.86409763  0.74309441  0.12933881  1
  Al  Al151  1  0.87305201  0.75009269  0.63814098  1
  Al  Al152  1  0.36331031  0.24653689  0.36903817  1
  Al  Al153  1  0.36514323  0.24401076  0.86200781  1
  Al  Al154  1  0.36805896  0.75379182  0.36243635  1
  Al  Al155  1  0.36048367  0.74952222  0.86717942  1
  Al  Al156  1  0.86704408  0.24831948  0.36267825  1
  Al  Al157  1  0.86538596  0.24614647  0.86726012  1
  Al  Al158  1  0.86709309  0.75096043  0.36368250  1
  Al  Al159  1  0.87247777  0.75154904  0.86668321  1
  Al  Al160  1  0.13625150  0.13333098  0.24928578  1
  Al  Al161  1  0.12917587  0.13312363  0.74418593  1
  Al  Al162  1  0.13636351  0.63682424  0.24781162  1
  Al  Al163  1  0.12916146  0.63800073  0.75213827  1
  Al  Al164  1  0.63596711  0.13785013  0.24898252  1
  Al  Al165  1  0.63251119  0.13240429  0.75269488  1
  Al  Al166  1  0.63773418  0.63569120  0.24524711  1
  Al  Al167  1  0.63621909  0.63807317  0.75194485  1
  Al  Al168  1  0.36517893  0.12970506  0.25070470  1
  Al  Al169  1  0.37176463  0.13468236  0.74421733  1
  Al  Al170  1  0.36295092  0.63697233  0.25332827  1
  Al  Al171  1  0.36467085  0.63633296  0.75225063  1
  Al  Al172  1  0.86359033  0.13653021  0.24703589  1
  Al  Al173  1  0.87169365  0.13612230  0.75021647  1
  Al  Al174  1  0.86512257  0.63229369  0.24355255  1
  Al  Al175  1  0.87099529  0.63562344  0.75205272  1
  Al  Al176  1  0.13554759  0.36673030  0.25053790  1
  Al  Al177  1  0.13206888  0.36195627  0.74706540  1
  Al  Al178  1  0.13352751  0.86512808  0.24859554  1
  Al  Al179  1  0.12681346  0.86472857  0.74730955  1
  Al  Al180  1  0.63701964  0.36279179  0.24199225  1
  Al  Al181  1  0.63683229  0.36037326  0.75112426  1
  Al  Al182  1  0.63337171  0.86339211  0.24891902  1
  Al  Al183  1  0.63827288  0.87115030  0.75008787  1
  Al  Al184  1  0.36316339  0.36191983  0.25059189  1
  Al  Al185  1  0.36481653  0.36460739  0.75125027  1
  Al  Al186  1  0.36247713  0.87137676  0.24918637  1
  Al  Al187  1  0.36031453  0.86521756  0.74753464  1
  Al  Al188  1  0.86597675  0.36720854  0.24325025  1
  Al  Al189  1  0.86492949  0.36399107  0.74867574  1
  Al  Al190  1  0.86491781  0.86217964  0.25010570  1
  Al  Al191  1  0.87196102  0.86344410  0.74983608  1
  Al  Al192  1  0.67518496  0.82823782  0.50161831  1
  Al  Al193  1  0.17455530  0.68912608  0.50120755  1
  Al  Al194  1  0.49989053  0.82110260  0.81853523  1
  Al  Al195  1  0.32659461  0.50088093  0.17158294  1
  Al  Al196  1  0.82049123  0.00042551  0.81859588  1
  Al  Al197  1  0.50284057  0.17623034  0.17739535  1
  Al  Al198  1  0.50074342  0.31851803  0.31852602  1
  Al  Al199  1  0.83050265  0.49928258  0.82802375  1
  Al  Al200  1  0.18111243  -0.00112134  0.31766494  1
  Al  Al201  1  0.30742443  0.82735705  0.50209015  1
  Al  Al202  1  0.67069124  0.32834554  0.49984014  1
  Al  Al203  1  0.67708955  0.67228474  0.49838439  1
  Al  Al204  1  0.31530041  0.49648833  0.81847947  1
  Al  Al205  1  0.68323820  0.17480365  0.50244227  1
  Al  Al206  1  0.17172489  0.00024633  0.81459974  1
  Al  Al207  1  0.49559362  0.67698942  0.67736924  1
  Al  Al208  1  0.32657156  0.67394397  0.49900575  1
  Al  Al209  1  0.82859603  0.49965971  0.31705706  1
  Al  Al210  1  0.18069617  0.50058984  0.69236350  1
  Al  Al211  1  0.67013707  0.49829539  0.82941801  1
  Al  Al212  1  0.67247413  0.00031864  0.32583159  1
  Al  Al213  1  0.32782926  -0.00027713  0.81318987  1
  Al  Al214  1  0.82976048  0.82400674  0.50195859  1
  Al  Al215  1  0.32620310  0.31586810  -0.00195926  1
  Al  Al216  1  0.82371802  0.31568287  0.50101150  1
  Al  Al217  1  0.32642717  0.49971189  0.32781259  1
  Al  Al218  1  0.82087063  0.82018409  0.00098870  1
  Al  Al219  1  0.49948026  0.82720375  0.17719313  1
  Al  Al220  1  -0.00040600  0.18103789  0.17968674  1
  Al  Al221  1  0.67263302  0.49895347  0.31735061  1
  Al  Al222  1  0.83048578  -0.00234164  0.32710599  1
  Al  Al223  1  0.50082836  0.31820362  0.82625931  1
  Al  Al224  1  0.49874578  0.31209770  0.67466748  1
  Al  Al225  1  0.18484895  0.16884568  0.50213826  1
  Al  Al226  1  0.31537071  0.82482442  -0.00028950  1
  Al  Al227  1  0.83157953  -0.00065974  0.17148274  1
  Al  Al228  1  0.17613481  0.32439906  0.50308144  1
  Al  Al229  1  0.17017963  0.50193687  0.17386420  1
  Al  Al230  1  -0.00127222  0.31882353  0.81413833  1
  Al  Al231  1  0.67943025  0.49794749  0.67005795  1
  Al  Al232  1  0.17171366  0.32554322  -0.00292415  1
  Al  Al233  1  0.49902770  0.67327294  0.18543802  1
  Al  Al234  1  0.00119977  0.69223728  0.31420292  1
  Al  Al235  1  0.00014595  0.32006498  0.32470812  1
  Al  Al236  1  0.17863007  0.17207148  0.00005134  1
  Al  Al237  1  -0.00093465  0.81676038  0.18709996  1
  Al  Al238  1  0.67263026  0.00029837  0.17201505  1
  Au  Au239  1  0.32826813  0.16285985  -0.00147984  1
  Au  Au240  1  0.17311811  0.50206749  0.16126876  1
  Au  Au241  1  0.67587926  0.50082769  0.16822374  1
  Au  Au242  1  0.49772744  0.66824865  0.66850177  1
  Au  Au243  1  0.67637318  0.32262940  -0.00136359  1
  Au  Au244  1  0.66459353  0.67551327  0.49809902  1
  Au  Au245  1  0.32333587  0.49942866  0.82776426  1
  Au  Au246  1  0.33764817  0.50431305  0.33132370  1
  Au  Au247  1  0.50061320  0.17049337  0.82372560  1
  Au  Au248  1  0.83013248  0.82893430  -0.00136401  1
  Au  Au249  1  0.17091648  -0.00093916  0.16624713  1
  Au  Au250  1  0.84269568  -0.00334982  0.67191729  1
  Au  Au251  1  0.16408679  0.32672049  0.50554896  1
  Au  Au252  1  0.00284467  0.67522120  0.66623250  1
  Au  Au253  1  0.49966208  0.82299984  0.33600132  1
  Au  Au254  1  0.32205850  0.66354966  0.00228569  1
  Au  Au255  1  0.66586588  0.00492902  0.66484599  1
  Au  Au256  1  0.32426159  0.50082422  0.66242714  1
  Au  Au257  1  0.84073684  0.67558824  0.49992131  1
  Au  Au258  1  0.50101472  0.82662445  0.16446755  1
  Au  Au259  1  0.00045795  0.33105082  0.33092025  1
  Au  Au260  1  0.50091221  0.16776272  0.16822459  1
  Au  Au261  1  0.33053629  0.00139641  0.32845917  1
  Au  Au262  1  0.83280158  0.16735009  0.50340200  1
  Au  Au263  1  0.00337464  0.15634015  0.32803202  1
  Au  Au264  1  0.17740634  0.00041852  0.83062927  1
  Au  Au265  1  0.33784778  0.32000330  0.49887082  1
  Au  Au266  1  0.67302132  -0.00141567  0.84025501  1
  Au  Au267  1  0.00092245  0.83689196  0.82651745  1
  Au  Au268  1  0.32177624  0.84035357  -0.00179173  1
  Au  Au269  1  0.83253610  0.49996678  0.32926469  1
  Au  Au270  1  0.49712393  0.17209317  0.34272653  1
  Au  Au271  1  0.49886470  0.67606579  0.84086795  1
  Au  Au272  1  -0.00118737  0.17108707  0.82765826  1
  Au  Au273  1  0.67750887  0.67658111  0.00011194  1
  Au  Au274  1  0.00172835  0.66918935  0.83738051  1
  Au  Au275  1  0.84191294  0.49631163  0.66362553  1
  Au  Au276  1  0.49598523  0.33991451  0.17151550  1
  Au  Au277  1  0.83814965  0.49908822  0.83960828  1
  Au  Au278  1  -0.00146990  0.67020179  0.16572296  1
  Au  Au279  1  0.66850464  0.49807123  0.66405196  1
  Au  Au280  1  -0.00705020  0.32857572  0.15969091  1
  Au  Au281  1  0.67543714  0.00029822  0.33832119  1
  Au  Au282  1  0.32404539  0.82784876  0.50454208  1
  Au  Au283  1  0.16166533  0.33594677  -0.00356148  1
  Au  Au284  1  0.65308848  0.49833031  0.83325229  1
  Au  Au285  1  0.49802740  0.84214667  0.67183719  1
  Au  Au286  1  0.16256657  0.50571351  0.33686917  1
  Au  Au287  1  0.67526086  0.00036558  0.15936423  1
