# generated using pymatgen
data_Ca24Ti8Al207Au49
_symmetry_space_group_name_H-M   'P 1'
_cell_length_a   17.32115481
_cell_length_b   17.32094972
_cell_length_c   17.31967103
_cell_angle_alpha   89.99928990
_cell_angle_beta   90.00068102
_cell_angle_gamma   89.99458269
_symmetry_Int_Tables_number   1
_chemical_formula_structural   Ca24Ti8Al207Au49
_chemical_formula_sum   'Ca24 Ti8 Al207 Au49'
_cell_volume   5196.22778641
_cell_formula_units_Z   1
loop_
 _symmetry_equiv_pos_site_id
 _symmetry_equiv_pos_as_xyz
  1  'x, y, z'
loop_
 _atom_site_type_symbol
 _atom_site_label
 _atom_site_symmetry_multiplicity
 _atom_site_fract_x
 _atom_site_fract_y
 _atom_site_fract_z
 _atom_site_occupancy
  Ca  Ca0  1  0.25110283  -0.00187135  0.00056616  1
  Ca  Ca1  1  0.25355730  -0.00608255  0.50084977  1
  Ca  Ca2  1  0.25272062  0.50171929  0.00273437  1
  Ca  Ca3  1  0.25332645  0.50342916  0.49836792  1
  Ca  Ca4  1  0.74703466  0.00561331  0.00357049  1
  Ca  Ca5  1  0.74724259  -0.00442125  0.49534591  1
  Ca  Ca6  1  0.75256325  0.49547155  0.00735716  1
  Ca  Ca7  1  0.75250667  0.50231251  0.49505899  1
  Ca  Ca8  1  0.00072093  0.25364502  0.00237088  1
  Ca  Ca9  1  0.00169047  0.25441291  0.50003307  1
  Ca  Ca10  1  0.00190956  0.74945024  0.00169729  1
  Ca  Ca11  1  -0.00041004  0.75206073  0.50158182  1
  Ca  Ca12  1  0.49760271  0.24928279  0.00294425  1
  Ca  Ca13  1  0.49891677  0.24819577  0.49918701  1
  Ca  Ca14  1  0.49834641  0.74811009  -0.00037575  1
  Ca  Ca15  1  0.50304387  0.75571910  0.49838272  1
  Ca  Ca16  1  -0.00164020  -0.00326887  0.25024779  1
  Ca  Ca17  1  0.00252700  -0.00155381  0.74766903  1
  Ca  Ca18  1  -0.00471050  0.50546806  0.24811103  1
  Ca  Ca19  1  0.00532271  0.50337785  0.75000125  1
  Ca  Ca20  1  0.50131451  0.00275340  0.25076505  1
  Ca  Ca21  1  0.49466500  -0.00025606  0.74653245  1
  Ca  Ca22  1  0.49938229  0.49582779  0.25016352  1
  Ca  Ca23  1  0.49949809  0.49707028  0.75048209  1
  Ti  Ti24  1  0.25159175  0.24885664  0.24944694  1
  Ti  Ti25  1  0.25344730  0.24707201  0.75041545  1
  Ti  Ti26  1  0.24785122  0.75078026  0.24922461  1
  Ti  Ti27  1  0.25066535  0.75294450  0.75024239  1
  Ti  Ti28  1  0.74864306  0.25028176  0.24997715  1
  Ti  Ti29  1  0.74693557  0.24962289  0.75052031  1
  Ti  Ti30  1  0.75124257  0.75088856  0.24901600  1
  Ti  Ti31  1  0.74988801  0.75164379  0.74992265  1
  Al  Al32  1  0.08720277  0.07155206  0.08880020  1
  Al  Al33  1  0.08884885  0.06751776  0.58899045  1
  Al  Al34  1  0.07658305  0.58057842  0.08544441  1
  Al  Al35  1  0.08052904  0.59289313  0.58624506  1
  Al  Al36  1  0.58718215  0.09789069  0.08478445  1
  Al  Al37  1  0.57914672  0.08058691  0.59667002  1
  Al  Al38  1  0.58900663  0.57196469  0.09002359  1
  Al  Al39  1  0.58311830  0.59816070  0.57380214  1
  Al  Al40  1  0.42292779  0.41248273  0.08976333  1
  Al  Al41  1  0.40963061  0.40257163  0.58097558  1
  Al  Al42  1  0.41171093  0.92466164  0.08896575  1
  Al  Al43  1  0.40950706  0.91976120  0.58182228  1
  Al  Al44  1  0.91304990  0.41969752  0.09953394  1
  Al  Al45  1  0.92262742  0.42200127  0.57048916  1
  Al  Al46  1  0.92332292  0.91113393  0.09191023  1
  Al  Al47  1  0.92357776  0.90602034  0.58570475  1
  Al  Al48  1  0.41782934  0.08555539  0.41570715  1
  Al  Al49  1  0.42170995  0.08438132  0.90257473  1
  Al  Al50  1  0.42606607  0.58203652  0.41984936  1
  Al  Al51  1  0.42078788  0.58551489  0.91001290  1
  Al  Al52  1  0.90910042  0.07294974  0.41689502  1
  Al  Al53  1  0.91182547  0.09196037  0.92814012  1
  Al  Al54  1  0.90976281  0.58597396  0.41321346  1
  Al  Al55  1  0.91131540  0.58948930  0.92648195  1
  Al  Al56  1  0.07930675  0.42257946  0.41338421  1
  Al  Al57  1  0.07995840  0.41849433  0.92636541  1
  Al  Al58  1  0.08070457  0.90832925  0.40842890  1
  Al  Al59  1  0.08814787  0.91676284  0.90756984  1
  Al  Al60  1  0.57872972  0.41962240  0.41013874  1
  Al  Al61  1  0.57404180  0.40657670  0.91646329  1
  Al  Al62  1  0.59088322  0.91767010  0.41852335  1
  Al  Al63  1  0.57056282  0.92292731  0.91762230  1
  Al  Al64  1  0.08204715  0.06860256  0.41980471  1
  Al  Al65  1  0.08570548  0.07264604  0.91283049  1
  Al  Al66  1  0.08083276  0.58321245  0.41888388  1
  Al  Al67  1  0.07641161  0.58172546  0.92217598  1
  Al  Al68  1  0.58272596  0.07745503  0.40766038  1
  Al  Al69  1  0.58382039  0.09951856  0.91903414  1
  Al  Al70  1  0.59164668  0.58886087  0.41492513  1
  Al  Al71  1  0.57614085  0.59080060  0.91564281  1
  Al  Al72  1  0.41597018  0.40488378  0.41861205  1
  Al  Al73  1  0.41923530  0.41237725  0.91298088  1
  Al  Al74  1  0.41176276  0.91553252  0.42241743  1
  Al  Al75  1  0.41146512  0.92206306  0.90564358  1
  Al  Al76  1  0.90655394  0.42349667  0.40527343  1
  Al  Al77  1  0.92057718  0.42538095  0.92366735  1
  Al  Al78  1  0.91712549  0.91168883  0.40692161  1
  Al  Al79  1  0.92859072  0.91524554  0.92485553  1
  Al  Al80  1  0.07647211  0.41118173  0.08887179  1
  Al  Al81  1  0.08181411  0.42760624  0.57455125  1
  Al  Al82  1  0.08491635  0.91271317  0.09968817  1
  Al  Al83  1  0.08549420  0.90957015  0.59551569  1
  Al  Al84  1  0.58542871  0.41156259  0.09696564  1
  Al  Al85  1  0.56989162  0.41086346  0.57826938  1
  Al  Al86  1  0.57778831  0.92983612  0.08226311  1
  Al  Al87  1  0.59045257  0.92000351  0.58187601  1
  Al  Al88  1  0.42405896  0.08523605  0.09375549  1
  Al  Al89  1  0.41651604  0.08776362  0.59297605  1
  Al  Al90  1  0.42072650  0.57506148  0.07943435  1
  Al  Al91  1  0.42288888  0.58278242  0.58140666  1
  Al  Al92  1  0.90610186  0.08497834  0.08229356  1
  Al  Al93  1  0.92017185  0.07677340  0.57196476  1
  Al  Al94  1  0.90436097  0.58443806  0.08948460  1
  Al  Al95  1  0.92094640  0.59708878  0.57811777  1
  Al  Al96  1  0.25507915  0.13164723  0.13584799  1
  Al  Al97  1  0.25302098  0.12796536  0.63975084  1
  Al  Al98  1  0.24442960  0.63892224  0.13157581  1
  Al  Al99  1  0.25208811  0.63912381  0.63534221  1
  Al  Al100  1  0.74654147  0.13258212  0.13569942  1
  Al  Al101  1  0.74442138  0.13478510  0.63997987  1
  Al  Al102  1  0.75600206  0.63273748  0.13639741  1
  Al  Al103  1  0.74631982  0.63745739  0.63362733  1
  Al  Al104  1  0.25186797  0.36220316  0.13611871  1
  Al  Al105  1  0.25729834  0.36095822  0.63480753  1
  Al  Al106  1  0.24557429  0.86570412  0.13046683  1
  Al  Al107  1  0.24860877  0.87038248  0.63269801  1
  Al  Al108  1  0.74939962  0.36776405  0.13520765  1
  Al  Al109  1  0.74182495  0.35856363  0.62946590  1
  Al  Al110  1  0.75353162  0.86983067  0.13554644  1
  Al  Al111  1  0.74644363  0.86538424  0.63506190  1
  Al  Al112  1  0.24989255  0.13452828  0.36213467  1
  Al  Al113  1  0.25699976  0.13163452  0.86514710  1
  Al  Al114  1  0.24855063  0.63925977  0.36289052  1
  Al  Al115  1  0.24790632  0.63890432  0.86979118  1
  Al  Al116  1  0.74618548  0.13513053  0.36266868  1
  Al  Al117  1  0.74487314  0.13491819  0.86796758  1
  Al  Al118  1  0.75342940  0.63383101  0.36010154  1
  Al  Al119  1  0.75463317  0.63827180  0.86784973  1
  Al  Al120  1  0.25285141  0.36412812  0.36150799  1
  Al  Al121  1  0.25669288  0.35909955  0.86377924  1
  Al  Al122  1  0.24672596  0.86482635  0.36969568  1
  Al  Al123  1  0.25241045  0.86532430  0.86950458  1
  Al  Al124  1  0.75211846  0.36696043  0.36484050  1
  Al  Al125  1  0.74976351  0.36020447  0.86499162  1
  Al  Al126  1  0.75156878  0.86249166  0.36332990  1
  Al  Al127  1  0.75378016  0.86431425  0.86431412  1
  Al  Al128  1  0.13721391  0.24993515  0.13725936  1
  Al  Al129  1  0.13708319  0.25028871  0.63524896  1
  Al  Al130  1  0.12807596  0.75331097  0.13361713  1
  Al  Al131  1  0.13250872  0.75441116  0.63435098  1
  Al  Al132  1  0.63256530  0.24659679  0.13729727  1
  Al  Al133  1  0.62453593  0.24798531  0.63614793  1
  Al  Al134  1  0.63500551  0.75206516  0.13648427  1
  Al  Al135  1  0.63466547  0.74885874  0.63524451  1
  Al  Al136  1  0.13250589  0.25596989  0.36119311  1
  Al  Al137  1  0.13617230  0.24731597  0.86135564  1
  Al  Al138  1  0.12644908  0.75553971  0.36118221  1
  Al  Al139  1  0.13635082  0.75304389  0.86951810  1
  Al  Al140  1  0.63516371  0.25311914  0.36265471  1
  Al  Al141  1  0.63057016  0.24669628  0.86693564  1
  Al  Al142  1  0.63804873  0.74758233  0.36190663  1
  Al  Al143  1  0.63435275  0.74960054  0.86771615  1
  Al  Al144  1  0.37063229  0.24908815  0.13556437  1
  Al  Al145  1  0.37156257  0.24547616  0.63996180  1
  Al  Al146  1  0.36141859  0.75206487  0.12709192  1
  Al  Al147  1  0.36275083  0.75559395  0.63281879  1
  Al  Al148  1  0.86160837  0.24950772  0.13800797  1
  Al  Al149  1  0.86461812  0.25252780  0.63478318  1
  Al  Al150  1  0.86653045  0.74952361  0.13341083  1
  Al  Al151  1  0.86526098  0.75240581  0.63234622  1
  Al  Al152  1  0.36582407  0.24848055  0.36396842  1
  Al  Al153  1  0.37424190  0.24707906  0.86322882  1
  Al  Al154  1  0.36426105  0.75299988  0.36343990  1
  Al  Al155  1  0.36422527  0.75004103  0.86958753  1
  Al  Al156  1  0.86458976  0.25518370  0.36183530  1
  Al  Al157  1  0.86521970  0.24463607  0.86569790  1
  Al  Al158  1  0.87200164  0.75054506  0.36152280  1
  Al  Al159  1  0.86511915  0.75040713  0.87108456  1
  Al  Al160  1  0.13512972  0.12935535  0.24691237  1
  Al  Al161  1  0.13431150  0.13285858  0.74777199  1
  Al  Al162  1  0.12552446  0.64023219  0.24811568  1
  Al  Al163  1  0.13369984  0.64267603  0.74486854  1
  Al  Al164  1  0.63083518  0.13448087  0.24944121  1
  Al  Al165  1  0.62846336  0.13779592  0.75055889  1
  Al  Al166  1  0.63823294  0.63206177  0.24385921  1
  Al  Al167  1  0.63724833  0.63608997  0.75630236  1
  Al  Al168  1  0.37165168  0.13349886  0.24874047  1
  Al  Al169  1  0.36852656  0.12961426  0.75112418  1
  Al  Al170  1  0.36277199  0.63830973  0.24668768  1
  Al  Al171  1  0.36300422  0.63864437  0.75297265  1
  Al  Al172  1  0.86374381  0.13322281  0.24751278  1
  Al  Al173  1  0.86387488  0.13582517  0.74932476  1
  Al  Al174  1  0.86998476  0.63593881  0.24918766  1
  Al  Al175  1  0.86239493  0.64176956  0.74573299  1
  Al  Al176  1  0.13027568  0.36527691  0.24675526  1
  Al  Al177  1  0.13745626  0.36227605  0.74852422  1
  Al  Al178  1  0.13585981  0.86809686  0.24771812  1
  Al  Al179  1  0.13589098  0.86564167  0.74671721  1
  Al  Al180  1  0.63492434  0.36733346  0.24499348  1
  Al  Al181  1  0.62600005  0.35940441  0.75323352  1
  Al  Al182  1  0.63793284  0.87248135  0.24942199  1
  Al  Al183  1  0.63550827  0.86627554  0.74952214  1
  Al  Al184  1  0.36710405  0.36393620  0.24764877  1
  Al  Al185  1  0.37301317  0.36172791  0.75006455  1
  Al  Al186  1  0.35979923  0.86768625  0.24326025  1
  Al  Al187  1  0.36100671  0.87265300  0.75080914  1
  Al  Al188  1  0.86489165  0.36768574  0.24738335  1
  Al  Al189  1  0.86275671  0.36214086  0.74963574  1
  Al  Al190  1  0.87026838  0.86282883  0.24834522  1
  Al  Al191  1  0.86701193  0.86412484  0.74357342  1
  Al  Al192  1  0.50055680  0.31823574  0.31314583  1
  Al  Al193  1  0.17666163  0.50303049  0.31752930  1
  Al  Al194  1  0.32867769  0.68362051  0.49850186  1
  Al  Al195  1  0.81189460  0.68065402  0.49749735  1
  Al  Al196  1  0.49824538  0.81615933  0.82261027  1
  Al  Al197  1  0.66991458  0.49903092  0.82793636  1
  Al  Al198  1  0.49940162  0.83134376  0.67041233  1
  Al  Al199  1  0.66915897  0.17168562  0.50090547  1
  Al  Al200  1  0.50147544  0.82991669  0.32911037  1
  Al  Al201  1  0.68108853  0.83149482  -0.00068212  1
  Al  Al202  1  0.32189256  -0.00238222  0.32068204  1
  Al  Al203  1  0.50139533  0.67573054  0.32018927  1
  Al  Al204  1  0.32838396  0.49973504  0.82311500  1
  Al  Al205  1  0.67133431  0.31340224  0.00243902  1
  Al  Al206  1  0.17523358  0.16735273  0.00004715  1
  Al  Al207  1  0.33351083  0.17302322  0.00220069  1
  Al  Al208  1  -0.00061534  0.32600154  0.82420054  1
  Al  Al209  1  0.31730033  0.50114643  0.17685708  1
  Al  Al210  1  0.00073061  0.82586281  0.81390428  1
  Al  Al211  1  0.33106050  0.50071599  0.32988278  1
  Al  Al212  1  0.66674550  0.00310227  0.81845971  1
  Al  Al213  1  0.17672152  0.50219794  0.67094714  1
  Al  Al214  1  0.68673897  0.49953995  0.31364483  1
  Al  Al215  1  0.82838897  0.31620026  0.00079549  1
  Al  Al216  1  0.17228261  0.50205159  0.82158428  1
  Al  Al217  1  -0.00065317  0.17483102  0.67437598  1
  Al  Al218  1  0.50041417  0.67257193  0.69237689  1
  Al  Al219  1  -0.00294633  0.66976439  0.81409941  1
  Al  Al220  1  0.32850840  0.18309251  0.50226805  1
  Al  Al221  1  0.66882510  0.49992075  0.66635690  1
  Al  Al222  1  0.82413312  0.17947856  0.49897761  1
  Al  Al223  1  0.32960668  0.49981354  0.67088069  1
  Al  Al224  1  0.83276278  0.50206095  0.66975252  1
  Al  Al225  1  0.19183409  -0.00135135  0.80885214  1
  Al  Al226  1  0.18695542  0.32794989  0.49903030  1
  Al  Al227  1  0.81789691  0.00040464  0.66982292  1
  Al  Al228  1  0.81262135  -0.00149098  0.31895385  1
  Al  Al229  1  0.68421679  0.67089460  0.00370634  1
  Al  Al230  1  0.17933652  0.32439668  0.00033703  1
  Al  Al231  1  0.17319528  0.16794049  0.50183263  1
  Al  Al232  1  0.00058673  0.18172028  0.17203180  1
  Al  Al233  1  -0.00064250  0.17625368  0.33035648  1
  Al  Al234  1  0.82557832  0.50152947  0.82776060  1
  Al  Al235  1  0.49971299  0.82203016  0.17248429  1
  Al  Al236  1  0.17400021  0.68424292  0.49829411  1
  Al  Al237  1  0.68306975  0.81197433  0.49932147  1
  Al  Al238  1  0.83076532  -0.00042801  0.82834729  1
  Au  Au239  1  0.66431939  0.50027815  0.65030209  1
  Au  Au240  1  0.67285591  0.50097242  0.32316946  1
  Au  Au241  1  -0.00366706  0.67579119  0.83010249  1
  Au  Au242  1  0.00442003  0.34040940  0.66750643  1
  Au  Au243  1  0.17545352  0.49598896  0.83725925  1
  Au  Au244  1  0.66731423  0.84125879  -0.00093813  1
  Au  Au245  1  0.50151129  0.17153403  0.32358868  1
  Au  Au246  1  0.66944599  0.15589886  0.50507538  1
  Au  Au247  1  0.83422690  -0.00150253  0.84537714  1
  Au  Au248  1  0.16568059  -0.00285604  0.31794374  1
  Au  Au249  1  0.66974812  0.49524041  0.84450515  1
  Au  Au250  1  0.33081578  -0.00029057  0.32933370  1
  Au  Au251  1  0.33247862  0.67135491  0.49835197  1
  Au  Au252  1  0.16721713  0.49697735  0.16945281  1
  Au  Au253  1  0.33580626  0.66553776  -0.00122769  1
  Au  Au254  1  -0.00170885  0.16862863  0.34529939  1
  Au  Au255  1  0.66505566  0.33417742  0.49540028  1
  Au  Au256  1  0.16942482  0.83444767  0.50087634  1
  Au  Au257  1  0.16654653  0.66732339  0.00285269  1
  Au  Au258  1  0.32309072  -0.00018912  0.67666837  1
  Au  Au259  1  0.84046772  0.32791423  0.00322727  1
  Au  Au260  1  0.83323034  0.82651087  0.49591881  1
  Au  Au261  1  0.82607350  -0.00200875  0.65498064  1
  Au  Au262  1  0.65168281  0.00498729  0.82463715  1
  Au  Au263  1  0.83211301  -0.00303734  0.17264784  1
  Au  Au264  1  -0.00019831  0.67481764  0.33566063  1
  Au  Au265  1  0.83611407  0.32905667  0.49738582  1
  Au  Au266  1  0.17693112  0.34124087  0.49630734  1
  Au  Au267  1  0.66424312  0.00612429  0.17616932  1
  Au  Au268  1  0.50039118  0.83448653  0.17570305  1
  Au  Au269  1  0.16281252  0.17038225  -0.00001251  1
  Au  Au270  1  0.33291783  0.83967181  -0.00118384  1
  Au  Au271  1  0.00022883  0.16919570  0.84045711  1
  Au  Au272  1  0.16270800  0.83518070  0.00246761  1
  Au  Au273  1  -0.00038573  0.17105452  0.15890980  1
  Au  Au274  1  0.33045298  0.33811973  0.00158949  1
  Au  Au275  1  0.50038872  0.65729354  0.17329949  1
  Au  Au276  1  0.49789788  0.32293947  0.67433331  1
  Au  Au277  1  0.84819784  0.50585078  0.67561097  1
  Au  Au278  1  0.67569751  0.65685088  0.00420105  1
  Au  Au279  1  0.84326787  0.82348385  0.00296612  1
  Au  Au280  1  -0.00247548  0.34422296  0.31973536  1
  Au  Au281  1  0.18098796  0.15271738  0.50298160  1
  Au  Au282  1  0.49994472  0.67799421  0.67630923  1
  Au  Au283  1  0.33825118  0.16225300  -0.00224545  1
  Au  Au284  1  -0.00049164  0.33514708  0.83317428  1
  Au  Au285  1  -0.00000659  0.16373478  0.66170048  1
  Au  Au286  1  -0.00479197  0.67568058  0.16509958  1
  Au  Au287  1  0.65616759  0.31928823  0.00382764  1
