# generated using pymatgen
data_Ca24Ti8Al207Au49
_symmetry_space_group_name_H-M   'P 1'
_cell_length_a   17.32142041
_cell_length_b   17.32161582
_cell_length_c   17.31951245
_cell_angle_alpha   90.00378370
_cell_angle_beta   89.99516862
_cell_angle_gamma   89.99795985
_symmetry_Int_Tables_number   1
_chemical_formula_structural   Ca24Ti8Al207Au49
_chemical_formula_sum   'Ca24 Ti8 Al207 Au49'
_cell_volume   5196.45970828
_cell_formula_units_Z   1
loop_
 _symmetry_equiv_pos_site_id
 _symmetry_equiv_pos_as_xyz
  1  'x, y, z'
loop_
 _atom_site_type_symbol
 _atom_site_label
 _atom_site_symmetry_multiplicity
 _atom_site_fract_x
 _atom_site_fract_y
 _atom_site_fract_z
 _atom_site_occupancy
  Ca  Ca0  1  0.24771553  0.00408949  0.00028218  1
  Ca  Ca1  1  0.24909166  0.00279637  0.50230706  1
  Ca  Ca2  1  0.25200721  0.49849550  -0.00108691  1
  Ca  Ca3  1  0.24606534  0.49705492  0.50239709  1
  Ca  Ca4  1  0.75138213  -0.00001406  -0.00113002  1
  Ca  Ca5  1  0.75058938  -0.00087392  0.50503965  1
  Ca  Ca6  1  0.74775411  0.50001596  0.00188477  1
  Ca  Ca7  1  0.75145755  0.50185284  0.50029724  1
  Ca  Ca8  1  -0.00268625  0.24823014  0.00188533  1
  Ca  Ca9  1  0.00006259  0.25100959  0.50414490  1
  Ca  Ca10  1  -0.00327723  0.75110876  0.00104715  1
  Ca  Ca11  1  -0.00709471  0.74753556  0.49830289  1
  Ca  Ca12  1  0.50058945  0.25460496  0.00154151  1
  Ca  Ca13  1  0.49827900  0.25038012  0.50128666  1
  Ca  Ca14  1  0.50135247  0.74628079  -0.00037810  1
  Ca  Ca15  1  0.50274844  0.74583831  0.50035023  1
  Ca  Ca16  1  -0.00307799  0.00329891  0.24711393  1
  Ca  Ca17  1  -0.00307069  0.00092372  0.74805920  1
  Ca  Ca18  1  -0.00147357  0.49562064  0.24599125  1
  Ca  Ca19  1  0.00333882  0.49692571  0.74367571  1
  Ca  Ca20  1  0.50225980  -0.00014400  0.24947088  1
  Ca  Ca21  1  0.50407306  -0.00427995  0.75024060  1
  Ca  Ca22  1  0.50313125  0.50328663  0.24766194  1
  Ca  Ca23  1  0.49620542  0.50150271  0.74557859  1
  Ti  Ti24  1  0.25031530  0.25210893  0.24994911  1
  Ti  Ti25  1  0.25076445  0.25233509  0.74956435  1
  Ti  Ti26  1  0.25077226  0.74692095  0.24945655  1
  Ti  Ti27  1  0.25210788  0.74771195  0.75118274  1
  Ti  Ti28  1  0.74984357  0.24908716  0.25010488  1
  Ti  Ti29  1  0.75020519  0.24979656  0.74914805  1
  Ti  Ti30  1  0.74955827  0.75124588  0.25080770  1
  Ti  Ti31  1  0.74754894  0.74981973  0.74887476  1
  Al  Al32  1  0.07965737  0.09581075  0.08200321  1
  Al  Al33  1  0.07560564  0.09685026  0.58599387  1
  Al  Al34  1  0.07724115  0.57460606  0.08016578  1
  Al  Al35  1  0.08901002  0.58441636  0.58443842  1
  Al  Al36  1  0.57977379  0.08595248  0.08230769  1
  Al  Al37  1  0.58819444  0.08303285  0.59497729  1
  Al  Al38  1  0.58476355  0.58349278  0.09492071  1
  Al  Al39  1  0.57801911  0.58798088  0.58327288  1
  Al  Al40  1  0.42162974  0.41974726  0.09368777  1
  Al  Al41  1  0.40704341  0.41937413  0.58516529  1
  Al  Al42  1  0.42232655  0.91761427  0.08159253  1
  Al  Al43  1  0.43416195  0.92264920  0.57991067  1
  Al  Al44  1  0.91278290  0.40245628  0.08827967  1
  Al  Al45  1  0.92262686  0.41543578  0.59059093  1
  Al  Al46  1  0.90670566  0.92878997  0.08843598  1
  Al  Al47  1  0.89842785  0.91782737  0.58505101  1
  Al  Al48  1  0.41527056  0.07959499  0.41921041  1
  Al  Al49  1  0.41552673  0.08476984  0.92051771  1
  Al  Al50  1  0.42533774  0.58822623  0.40821550  1
  Al  Al51  1  0.41301819  0.58205587  0.90653606  1
  Al  Al52  1  0.91877506  0.07893747  0.41971679  1
  Al  Al53  1  0.91167359  0.08674936  0.92697089  1
  Al  Al54  1  0.91582795  0.59061741  0.42374698  1
  Al  Al55  1  0.91301903  0.57848181  0.92523485  1
  Al  Al56  1  0.07988379  0.41684965  0.41892984  1
  Al  Al57  1  0.08879262  0.41446410  0.91665037  1
  Al  Al58  1  0.07494738  0.92281693  0.41936625  1
  Al  Al59  1  0.09419397  0.92936735  0.91479914  1
  Al  Al60  1  0.58151391  0.42329922  0.41193287  1
  Al  Al61  1  0.57913446  0.42028975  0.92654888  1
  Al  Al62  1  0.58445134  0.91416794  0.41794851  1
  Al  Al63  1  0.58976417  0.91239354  0.91689259  1
  Al  Al64  1  0.08192801  0.08642655  0.42349089  1
  Al  Al65  1  0.09301204  0.08824010  0.91740505  1
  Al  Al66  1  0.08289918  0.58961524  0.42448239  1
  Al  Al67  1  0.08938434  0.56990406  0.91425387  1
  Al  Al68  1  0.57943646  0.07279501  0.42296820  1
  Al  Al69  1  0.58506087  0.07703631  0.91816364  1
  Al  Al70  1  0.58498513  0.58790483  0.40799305  1
  Al  Al71  1  0.57723128  0.58554360  0.92088272  1
  Al  Al72  1  0.41808149  0.41445821  0.42086933  1
  Al  Al73  1  0.41387123  0.42583466  0.91118407  1
  Al  Al74  1  0.42607432  0.92312527  0.40807261  1
  Al  Al75  1  0.42317885  0.91824863  0.91672803  1
  Al  Al76  1  0.92323772  0.41718915  0.41960814  1
  Al  Al77  1  0.91462353  0.40785718  0.92524916  1
  Al  Al78  1  0.90914029  0.90948324  0.42354457  1
  Al  Al79  1  0.91528485  0.92427438  0.92555752  1
  Al  Al80  1  0.07733450  0.40558433  0.08803081  1
  Al  Al81  1  0.08404900  0.41482593  0.59269799  1
  Al  Al82  1  0.07752522  0.92431793  0.07369683  1
  Al  Al83  1  0.07336904  0.92086524  0.57973126  1
  Al  Al84  1  0.58579023  0.41820823  0.09402387  1
  Al  Al85  1  0.57578569  0.42269110  0.57859297  1
  Al  Al86  1  0.58826196  0.90827573  0.07837336  1
  Al  Al87  1  0.59340884  0.91908157  0.59152178  1
  Al  Al88  1  0.41771989  0.09172133  0.08118684  1
  Al  Al89  1  0.42729037  0.09275554  0.58556602  1
  Al  Al90  1  0.42049890  0.58169122  0.09860356  1
  Al  Al91  1  0.41734983  0.58161358  0.59685943  1
  Al  Al92  1  0.91404320  0.09344130  0.09021206  1
  Al  Al93  1  0.91491157  0.08098376  0.59512770  1
  Al  Al94  1  0.91055876  0.57913344  0.08149262  1
  Al  Al95  1  0.91297562  0.58646035  0.58150530  1
  Al  Al96  1  0.24487713  0.13756048  0.13263044  1
  Al  Al97  1  0.25000120  0.13707276  0.63576523  1
  Al  Al98  1  0.25510554  0.62359962  0.13698423  1
  Al  Al99  1  0.24997476  0.62807430  0.63872274  1
  Al  Al100  1  0.75851087  0.13553490  0.12766232  1
  Al  Al101  1  0.74986406  0.13263903  0.63524234  1
  Al  Al102  1  0.74227757  0.63206221  0.13645828  1
  Al  Al103  1  0.75078774  0.63634758  0.62885190  1
  Al  Al104  1  0.24903334  0.36952916  0.13750132  1
  Al  Al105  1  0.24989789  0.37163072  0.63860394  1
  Al  Al106  1  0.25369000  0.86531269  0.13540106  1
  Al  Al107  1  0.25058123  0.86083686  0.63326840  1
  Al  Al108  1  0.75254107  0.35955086  0.12928719  1
  Al  Al109  1  0.74997412  0.36205609  0.63107831  1
  Al  Al110  1  0.74986083  0.86314278  0.13068478  1
  Al  Al111  1  0.74941041  0.86468890  0.62966535  1
  Al  Al112  1  0.24914892  0.13659318  0.36305835  1
  Al  Al113  1  0.24946733  0.13154377  0.86004042  1
  Al  Al114  1  0.24662109  0.63246821  0.36491040  1
  Al  Al115  1  0.25115474  0.63209001  0.86615801  1
  Al  Al116  1  0.75561017  0.13346136  0.36526120  1
  Al  Al117  1  0.75275308  0.13670731  0.86386056  1
  Al  Al118  1  0.74911960  0.63790658  0.37014633  1
  Al  Al119  1  0.74861527  0.63456489  0.86395914  1
  Al  Al120  1  0.24896049  0.36913924  0.36196376  1
  Al  Al121  1  0.24824796  0.36590452  0.86374370  1
  Al  Al122  1  0.24826017  0.86124114  0.36476802  1
  Al  Al123  1  0.25263549  0.86876529  0.86286880  1
  Al  Al124  1  0.75013483  0.36408654  0.36712623  1
  Al  Al125  1  0.75402364  0.36192424  0.86957636  1
  Al  Al126  1  0.75256651  0.86232678  0.37293300  1
  Al  Al127  1  0.74793326  0.86485880  0.86977459  1
  Al  Al128  1  0.13040709  0.25130624  0.13836497  1
  Al  Al129  1  0.13311996  0.25437770  0.63774719  1
  Al  Al130  1  0.13805860  0.74654882  0.13752793  1
  Al  Al131  1  0.13702033  0.74667398  0.63730283  1
  Al  Al132  1  0.63693304  0.25237045  0.13101341  1
  Al  Al133  1  0.63004017  0.24916089  0.63455811  1
  Al  Al134  1  0.63716249  0.74816466  0.13071667  1
  Al  Al135  1  0.63794770  0.74837850  0.62555383  1
  Al  Al136  1  0.13562178  0.25310423  0.36384562  1
  Al  Al137  1  0.13692894  0.24720850  0.86591866  1
  Al  Al138  1  0.13461571  0.74520071  0.36397495  1
  Al  Al139  1  0.13909329  0.75240595  0.86251594  1
  Al  Al140  1  0.63699636  0.25137801  0.36697126  1
  Al  Al141  1  0.63444153  0.25145810  0.86626017  1
  Al  Al142  1  0.63630333  0.74805234  0.37120414  1
  Al  Al143  1  0.63705593  0.74824241  0.87130513  1
  Al  Al144  1  0.36394483  0.25282248  0.13577615  1
  Al  Al145  1  0.36914490  0.25061876  0.63678585  1
  Al  Al146  1  0.36345812  0.74318576  0.13066353  1
  Al  Al147  1  0.36621954  0.74373563  0.63464485  1
  Al  Al148  1  0.86884889  0.24831750  0.13436394  1
  Al  Al149  1  0.86538111  0.24965141  0.63133444  1
  Al  Al150  1  0.86396420  0.75201071  0.13457457  1
  Al  Al151  1  0.86068694  0.75073635  0.62957121  1
  Al  Al152  1  0.36426338  0.25332887  0.36260892  1
  Al  Al153  1  0.36585807  0.24992567  0.86218069  1
  Al  Al154  1  0.36569519  0.74228370  0.36529814  1
  Al  Al155  1  0.36218063  0.74714447  0.87072303  1
  Al  Al156  1  0.86399117  0.25099717  0.36865193  1
  Al  Al157  1  0.86541692  0.24817936  0.86814450  1
  Al  Al158  1  0.86385787  0.75038069  0.36593018  1
  Al  Al159  1  0.86470902  0.75866496  0.86481951  1
  Al  Al160  1  0.13351701  0.13481264  0.24641454  1
  Al  Al161  1  0.13391726  0.13739905  0.74954185  1
  Al  Al162  1  0.13644269  0.62824024  0.24582730  1
  Al  Al163  1  0.13796541  0.62894167  0.75066830  1
  Al  Al164  1  0.63952964  0.13591676  0.24459340  1
  Al  Al165  1  0.63501913  0.13480958  0.74567158  1
  Al  Al166  1  0.63057384  0.64119067  0.25125839  1
  Al  Al167  1  0.62811419  0.64147135  0.74710044  1
  Al  Al168  1  0.36322821  0.13722109  0.24684057  1
  Al  Al169  1  0.36630431  0.13476432  0.74896880  1
  Al  Al170  1  0.36901800  0.63301491  0.24782469  1
  Al  Al171  1  0.36982772  0.63539459  0.74920453  1
  Al  Al172  1  0.86483886  0.13129987  0.24582563  1
  Al  Al173  1  0.86992511  0.13676725  0.74184463  1
  Al  Al174  1  0.86137369  0.63813233  0.24747079  1
  Al  Al175  1  0.86083277  0.63924334  0.74909376  1
  Al  Al176  1  0.13485833  0.36965299  0.24631568  1
  Al  Al177  1  0.13633428  0.37070597  0.74986712  1
  Al  Al178  1  0.13754925  0.86642678  0.25037223  1
  Al  Al179  1  0.13767304  0.86535418  0.74929015  1
  Al  Al180  1  0.63397995  0.36592948  0.24324314  1
  Al  Al181  1  0.63107455  0.36146796  0.74851562  1
  Al  Al182  1  0.63772670  0.86220139  0.25085332  1
  Al  Al183  1  0.63840005  0.86189078  0.74683245  1
  Al  Al184  1  0.37015711  0.36927111  0.24335336  1
  Al  Al185  1  0.36966839  0.36508588  0.74683199  1
  Al  Al186  1  0.36546931  0.86081155  0.24879869  1
  Al  Al187  1  0.36638515  0.86366575  0.75065625  1
  Al  Al188  1  0.86486084  0.36097898  0.24508079  1
  Al  Al189  1  0.86537951  0.36084767  0.74861025  1
  Al  Al190  1  0.85882429  0.87120173  0.25065108  1
  Al  Al191  1  0.86096762  0.86646826  0.74269930  1
  Al  Al192  1  0.68617342  -0.00125213  0.16794887  1
  Al  Al193  1  0.30960513  0.49933047  0.80609670  1
  Al  Al194  1  0.00004163  0.32704443  0.31403179  1
  Al  Al195  1  0.32393905  0.50045162  0.31695841  1
  Al  Al196  1  0.49978495  0.80675310  0.17186976  1
  Al  Al197  1  0.32963828  -0.00092909  0.67561104  1
  Al  Al198  1  0.50219443  0.17642150  0.81719696  1
  Al  Al199  1  -0.00071089  0.17013678  0.82277743  1
  Al  Al200  1  0.31507813  0.31862732  0.50089306  1
  Al  Al201  1  0.17281205  0.31171062  0.00187050  1
  Al  Al202  1  0.00080308  0.82349077  0.16992764  1
  Al  Al203  1  0.67776762  0.49805067  0.82557143  1
  Al  Al204  1  0.18185845  0.18271831  0.50107413  1
  Al  Al205  1  0.67526272  0.50221726  0.30912110  1
  Al  Al206  1  0.31913213  0.66645734  0.50224008  1
  Al  Al207  1  0.31136409  0.17664580  -0.00242549  1
  Al  Al208  1  0.32356654  0.32644246  0.00094150  1
  Al  Al209  1  0.17122490  0.00141676  0.67899301  1
  Al  Al210  1  0.00220833  0.83487891  0.82301320  1
  Al  Al211  1  -0.00028882  0.67295641  0.32207983  1
  Al  Al212  1  0.82929119  0.00192080  0.81304921  1
  Al  Al213  1  -0.00132516  0.17346224  0.31305031  1
  Al  Al214  1  0.67757342  0.17866765  -0.00255081  1
  Al  Al215  1  0.67380162  -0.00128772  0.81387610  1
  Al  Al216  1  0.17956087  0.82809108  -0.00038944  1
  Al  Al217  1  0.00197287  0.32674607  0.81590084  1
  Al  Al218  1  0.81253614  0.49711894  0.17156343  1
  Al  Al219  1  0.81585505  0.68280155  0.00009194  1
  Al  Al220  1  0.17670264  0.67034595  0.00010018  1
  Al  Al221  1  0.50175218  0.81336759  0.32615590  1
  Al  Al222  1  0.67487978  0.17506395  0.49783869  1
  Al  Al223  1  -0.00035049  0.67918684  0.67202853  1
  Al  Al224  1  -0.00176777  0.82663568  0.32614308  1
  Al  Al225  1  0.50108063  0.19044787  0.17622302  1
  Al  Al226  1  0.82786593  0.49980308  0.32068354  1
  Al  Al227  1  0.68208520  -0.00110249  0.32422586  1
  Al  Al228  1  0.16920704  0.81180323  0.50011430  1
  Al  Al229  1  0.82664125  0.50013956  0.67977941  1
  Al  Al230  1  0.50260204  0.81505638  0.67344234  1
  Al  Al231  1  0.00015200  0.66764328  0.82963181  1
  Al  Al232  1  0.33276526  0.82993021  0.49764538  1
  Al  Al233  1  0.50216063  0.81941351  0.82612404  1
  Al  Al234  1  0.17575309  0.00358209  0.17323009  1
  Al  Al235  1  0.50200274  0.16731540  0.32652662  1
  Al  Al236  1  0.31920866  -0.00070930  0.31784739  1
  Al  Al237  1  0.50151067  0.32276277  0.31364649  1
  Al  Al238  1  0.67256183  0.50140333  0.67075214  1
  Au  Au239  1  0.50287295  0.82345461  0.17315567  1
  Au  Au240  1  0.83954963  0.33191301  0.50291567  1
  Au  Au241  1  -0.00402875  0.65639338  0.17436529  1
  Au  Au242  1  0.83771708  0.49487192  0.83048145  1
  Au  Au243  1  0.17240613  0.00087136  0.33938849  1
  Au  Au244  1  0.16114856  0.50377043  0.33334092  1
  Au  Au245  1  0.67745729  0.16593531  -0.00492549  1
  Au  Au246  1  0.15589977  0.00444153  0.67217784  1
  Au  Au247  1  0.67352907  0.66385659  0.49975790  1
  Au  Au248  1  0.66633858  0.67059699  0.00351078  1
  Au  Au249  1  0.82247814  0.00238998  0.82882369  1
  Au  Au250  1  0.32989067  0.65385582  0.50239518  1
  Au  Au251  1  0.33886641  0.49977310  0.32464656  1
  Au  Au252  1  0.00153094  0.33069445  0.82775896  1
  Au  Au253  1  0.33447671  0.33824909  0.00195545  1
  Au  Au254  1  0.67617295  0.83519825  0.50045880  1
  Au  Au255  1  0.33783538  0.84510026  0.49703001  1
  Au  Au256  1  0.50177063  0.16160443  0.82553415  1
  Au  Au257  1  0.32436531  -0.00021500  0.84036417  1
  Au  Au258  1  0.32886859  0.83772757  -0.00149394  1
  Au  Au259  1  -0.00977387  0.82832746  0.65846635  1
  Au  Au260  1  0.82506814  0.83246918  0.00254550  1
  Au  Au261  1  -0.00381609  0.16749544  0.83446906  1
  Au  Au262  1  0.66173171  0.50204010  0.82461485  1
  Au  Au263  1  0.66622479  0.16626420  0.49958642  1
  Au  Au264  1  0.34634706  0.00129936  0.67238936  1
  Au  Au265  1  0.83159835  0.16333364  0.50504729  1
  Au  Au266  1  0.00494350  0.83953782  0.83896636  1
  Au  Au267  1  0.33246241  0.16987515  0.50002334  1
  Au  Au268  1  0.15750290  0.82398848  0.49863431  1
  Au  Au269  1  0.17650588  0.50083995  0.67811716  1
  Au  Au270  1  0.50152191  0.32762144  0.32567621  1
  Au  Au271  1  0.16049180  0.67538336  -0.00088479  1
  Au  Au272  1  0.16553880  0.33035734  0.50220951  1
  Au  Au273  1  0.82965227  0.50316966  0.33646247  1
  Au  Au274  1  0.67009515  0.34068884  0.49911851  1
  Au  Au275  1  0.49902621  0.67225741  0.82209123  1
  Au  Au276  1  0.34116207  0.66215253  0.00498274  1
  Au  Au277  1  0.67600468  0.33665883  0.00243544  1
  Au  Au278  1  0.49964467  0.33695266  0.83010071  1
  Au  Au279  1  0.34095311  0.00365742  0.17126398  1
  Au  Au280  1  0.16705076  0.00118740  0.16464356  1
  Au  Au281  1  0.83142056  -0.00254284  0.33162049  1
  Au  Au282  1  0.66930761  0.00066783  0.16932337  1
  Au  Au283  1  0.49807928  0.32910881  0.66103868  1
  Au  Au284  1  0.17231882  0.49569658  0.16041957  1
  Au  Au285  1  0.00008995  0.17598497  0.32983282  1
  Au  Au286  1  -0.00321612  0.83975837  0.17221773  1
  Au  Au287  1  -0.00014681  0.65245470  0.82402637  1
