# generated using pymatgen
data_Ca24Ti8Al207Au49
_symmetry_space_group_name_H-M   'P 1'
_cell_length_a   17.32169521
_cell_length_b   17.32056450
_cell_length_c   17.32166831
_cell_angle_alpha   89.99927509
_cell_angle_beta   90.00083526
_cell_angle_gamma   90.00272463
_symmetry_Int_Tables_number   1
_chemical_formula_structural   Ca24Ti8Al207Au49
_chemical_formula_sum   'Ca24 Ti8 Al207 Au49'
_cell_volume   5196.87358036
_cell_formula_units_Z   1
loop_
 _symmetry_equiv_pos_site_id
 _symmetry_equiv_pos_as_xyz
  1  'x, y, z'
loop_
 _atom_site_type_symbol
 _atom_site_label
 _atom_site_symmetry_multiplicity
 _atom_site_fract_x
 _atom_site_fract_y
 _atom_site_fract_z
 _atom_site_occupancy
  Ca  Ca0  1  0.25648735  -0.00283470  0.00131400  1
  Ca  Ca1  1  0.25400978  -0.00149299  0.50052425  1
  Ca  Ca2  1  0.25753718  0.50147084  0.00285448  1
  Ca  Ca3  1  0.25349407  0.50129387  0.49760106  1
  Ca  Ca4  1  0.74939288  0.00255486  0.00310905  1
  Ca  Ca5  1  0.74675347  0.00234613  0.50035584  1
  Ca  Ca6  1  0.75353143  0.49684126  0.00076656  1
  Ca  Ca7  1  0.74810105  0.49875693  0.49859122  1
  Ca  Ca8  1  0.00471261  0.24744369  0.00012366  1
  Ca  Ca9  1  0.00327809  0.25296188  0.50118686  1
  Ca  Ca10  1  0.00646206  0.75090354  0.00325880  1
  Ca  Ca11  1  0.00299613  0.75085518  0.49458353  1
  Ca  Ca12  1  0.49424244  0.25003533  -0.00097790  1
  Ca  Ca13  1  0.49665085  0.25212539  0.50225912  1
  Ca  Ca14  1  0.49358252  0.74952779  0.00112993  1
  Ca  Ca15  1  0.49659556  0.74762751  0.49806423  1
  Ca  Ca16  1  0.00063611  0.00099599  0.25048272  1
  Ca  Ca17  1  0.00375868  0.00351842  0.74121608  1
  Ca  Ca18  1  0.00252518  0.49926299  0.25603103  1
  Ca  Ca19  1  0.00331882  0.49820682  0.74528216  1
  Ca  Ca20  1  0.50189099  -0.00364241  0.25165981  1
  Ca  Ca21  1  0.49398907  0.00057203  0.74275489  1
  Ca  Ca22  1  0.49698835  0.50311922  0.25594425  1
  Ca  Ca23  1  0.49173378  0.49813497  0.74429031  1
  Ti  Ti24  1  0.25214604  0.24885915  0.25072957  1
  Ti  Ti25  1  0.25057031  0.25105224  0.74851715  1
  Ti  Ti26  1  0.25232016  0.74967992  0.25056973  1
  Ti  Ti27  1  0.25334185  0.74786942  0.74883362  1
  Ti  Ti28  1  0.74763782  0.25181792  0.25237819  1
  Ti  Ti29  1  0.74901988  0.25161212  0.74667343  1
  Ti  Ti30  1  0.74764023  0.74944618  0.25305724  1
  Ti  Ti31  1  0.74541616  0.74931500  0.74587903  1
  Al  Al32  1  0.07828820  0.08187034  0.07928030  1
  Al  Al33  1  0.08565851  0.08048414  0.58365265  1
  Al  Al34  1  0.09104535  0.58718245  0.08351398  1
  Al  Al35  1  0.09444754  0.58068604  0.57116342  1
  Al  Al36  1  0.57735024  0.08849877  0.08807894  1
  Al  Al37  1  0.57971332  0.09673930  0.58473703  1
  Al  Al38  1  0.57196982  0.58166985  0.08525876  1
  Al  Al39  1  0.58513646  0.58513455  0.57268331  1
  Al  Al40  1  0.41182783  0.40672391  0.07718496  1
  Al  Al41  1  0.40973347  0.41075768  0.58910581  1
  Al  Al42  1  0.41246309  0.90229621  0.08079306  1
  Al  Al43  1  0.40659923  0.91689973  0.58000825  1
  Al  Al44  1  0.92688515  0.41518857  0.09452515  1
  Al  Al45  1  0.92661586  0.41353740  0.58773555  1
  Al  Al46  1  0.91770413  0.92429701  0.08621133  1
  Al  Al47  1  0.92066968  0.92036076  0.57797241  1
  Al  Al48  1  0.42192013  0.08280804  0.42277281  1
  Al  Al49  1  0.40862047  0.07763228  0.91004693  1
  Al  Al50  1  0.41125172  0.59074263  0.41348261  1
  Al  Al51  1  0.40559151  0.58043083  0.91494170  1
  Al  Al52  1  0.91542830  0.08969675  0.42034873  1
  Al  Al53  1  0.92477315  0.08419639  0.92016768  1
  Al  Al54  1  0.90984095  0.58079789  0.40943436  1
  Al  Al55  1  0.91300118  0.57828110  0.92843908  1
  Al  Al56  1  0.09112150  0.41837435  0.41464382  1
  Al  Al57  1  0.08766209  0.41947275  0.91492353  1
  Al  Al58  1  0.08390438  0.90719647  0.42337905  1
  Al  Al59  1  0.09840708  0.91419382  0.92251914  1
  Al  Al60  1  0.57791899  0.42047774  0.42078991  1
  Al  Al61  1  0.56905459  0.41693786  0.91462118  1
  Al  Al62  1  0.58083560  0.89910827  0.41245646  1
  Al  Al63  1  0.57288361  0.92473825  0.92122996  1
  Al  Al64  1  0.07798091  0.08365232  0.42126918  1
  Al  Al65  1  0.08343997  0.07943721  0.91458825  1
  Al  Al66  1  0.09728272  0.58312384  0.41311692  1
  Al  Al67  1  0.09858818  0.58032725  0.92149932  1
  Al  Al68  1  0.58500242  0.08963094  0.42322901  1
  Al  Al69  1  0.57366595  0.08061284  0.92163776  1
  Al  Al70  1  0.58359255  0.59930237  0.41214817  1
  Al  Al71  1  0.57512429  0.57359514  0.92042499  1
  Al  Al72  1  0.40706565  0.41828934  0.42260890  1
  Al  Al73  1  0.40641616  0.41517790  0.91021651  1
  Al  Al74  1  0.41786716  0.90401839  0.41649291  1
  Al  Al75  1  0.40135641  0.91449391  0.91757448  1
  Al  Al76  1  0.91718966  0.41990903  0.41043086  1
  Al  Al77  1  0.92534398  0.42225427  0.91745995  1
  Al  Al78  1  0.92060116  0.91508519  0.41792170  1
  Al  Al79  1  0.92066508  0.92302391  0.92530191  1
  Al  Al80  1  0.08361536  0.41231512  0.09090570  1
  Al  Al81  1  0.08668995  0.41085282  0.58603524  1
  Al  Al82  1  0.09122686  0.91098643  0.07881712  1
  Al  Al83  1  0.09368464  0.91384661  0.58065067  1
  Al  Al84  1  0.56945157  0.41764895  0.08528442  1
  Al  Al85  1  0.57342436  0.41107139  0.58664350  1
  Al  Al86  1  0.57326118  0.91440014  0.09094199  1
  Al  Al87  1  0.58388778  0.91308769  0.57119668  1
  Al  Al88  1  0.42007932  0.09036636  0.08727831  1
  Al  Al89  1  0.41637535  0.09139322  0.59516291  1
  Al  Al90  1  0.41138564  0.59299041  0.07934572  1
  Al  Al91  1  0.41123475  0.57547238  0.57667041  1
  Al  Al92  1  0.91692584  0.08217810  0.08836754  1
  Al  Al93  1  0.91413217  0.08720874  0.57914903  1
  Al  Al94  1  0.91936104  0.58316727  0.08631225  1
  Al  Al95  1  0.91782340  0.57727426  0.56968291  1
  Al  Al96  1  0.25168376  0.13381238  0.13150217  1
  Al  Al97  1  0.25430991  0.13965112  0.62656122  1
  Al  Al98  1  0.25674030  0.63346233  0.13536019  1
  Al  Al99  1  0.25864375  0.63134302  0.63154341  1
  Al  Al100  1  0.74732448  0.13804653  0.13864721  1
  Al  Al101  1  0.74513726  0.13795744  0.63226876  1
  Al  Al102  1  0.74687286  0.63403844  0.14205144  1
  Al  Al103  1  0.74712731  0.63574730  0.62703405  1
  Al  Al104  1  0.25666630  0.36534413  0.13337977  1
  Al  Al105  1  0.25794354  0.36926354  0.63126355  1
  Al  Al106  1  0.25363774  0.86586360  0.13782885  1
  Al  Al107  1  0.25454945  0.86349982  0.63386009  1
  Al  Al108  1  0.74722727  0.36909286  0.13876292  1
  Al  Al109  1  0.74964054  0.36335944  0.63301964  1
  Al  Al110  1  0.74571349  0.86205125  0.13831520  1
  Al  Al111  1  0.74479864  0.86111351  0.62770841  1
  Al  Al112  1  0.25409788  0.13589677  0.36959349  1
  Al  Al113  1  0.25626696  0.13629353  0.86761925  1
  Al  Al114  1  0.25592696  0.63675413  0.36735543  1
  Al  Al115  1  0.25544655  0.63052946  0.86968599  1
  Al  Al116  1  0.74465587  0.13435561  0.36449956  1
  Al  Al117  1  0.74961199  0.13974567  0.86169167  1
  Al  Al118  1  0.74352824  0.63783936  0.37124429  1
  Al  Al119  1  0.74578081  0.63072816  0.86144508  1
  Al  Al120  1  0.25194409  0.36507177  0.36574191  1
  Al  Al121  1  0.25524010  0.37017809  0.86629404  1
  Al  Al122  1  0.25078518  0.86414770  0.36686498  1
  Al  Al123  1  0.25577382  0.86726960  0.86229589  1
  Al  Al124  1  0.75162605  0.36896014  0.36742323  1
  Al  Al125  1  0.74372805  0.36969426  0.86168170  1
  Al  Al126  1  0.74417325  0.86156957  0.37477912  1
  Al  Al127  1  0.74734490  0.86223375  0.86530451  1
  Al  Al128  1  0.13726035  0.25455789  0.13478689  1
  Al  Al129  1  0.13259139  0.24865619  0.63484149  1
  Al  Al130  1  0.13789187  0.75129296  0.13683888  1
  Al  Al131  1  0.14103173  0.74976601  0.63381103  1
  Al  Al132  1  0.63337059  0.24911561  0.13700945  1
  Al  Al133  1  0.62745670  0.24722802  0.63269496  1
  Al  Al134  1  0.62487966  0.75397430  0.13874142  1
  Al  Al135  1  0.62924706  0.74789701  0.62948473  1
  Al  Al136  1  0.13695262  0.25269885  0.36592226  1
  Al  Al137  1  0.13894330  0.25216191  0.86403688  1
  Al  Al138  1  0.13786074  0.74904241  0.36767915  1
  Al  Al139  1  0.14220673  0.75275943  0.86800041  1
  Al  Al140  1  0.62826929  0.24802374  0.36561658  1
  Al  Al141  1  0.63467177  0.25037594  0.86052364  1
  Al  Al142  1  0.62898703  0.75027903  0.36671949  1
  Al  Al143  1  0.62848189  0.75430426  0.86007997  1
  Al  Al144  1  0.36441445  0.24682835  0.13055745  1
  Al  Al145  1  0.36913877  0.25260044  0.63355950  1
  Al  Al146  1  0.37221053  0.75152101  0.13758095  1
  Al  Al147  1  0.37172156  0.74814603  0.63604512  1
  Al  Al148  1  0.86390624  0.25294526  0.14107693  1
  Al  Al149  1  0.87002160  0.25068476  0.63436303  1
  Al  Al150  1  0.86291155  0.75008998  0.14130143  1
  Al  Al151  1  0.86180902  0.74867142  0.62555654  1
  Al  Al152  1  0.36796483  0.25075845  0.37095330  1
  Al  Al153  1  0.36373153  0.25124407  0.86771790  1
  Al  Al154  1  0.36913858  0.74744726  0.36587923  1
  Al  Al155  1  0.36487745  0.74933679  0.86398189  1
  Al  Al156  1  0.86488202  0.25594227  0.36517607  1
  Al  Al157  1  0.86462591  0.25298706  0.86092711  1
  Al  Al158  1  0.86087369  0.74806374  0.37442309  1
  Al  Al159  1  0.86111310  0.75010590  0.86404159  1
  Al  Al160  1  0.13840369  0.13465954  0.25018510  1
  Al  Al161  1  0.14033176  0.13543366  0.74579895  1
  Al  Al162  1  0.14005180  0.63473870  0.25552597  1
  Al  Al163  1  0.14173606  0.63404986  0.75223847  1
  Al  Al164  1  0.62735940  0.13315118  0.25053146  1
  Al  Al165  1  0.63255027  0.13546270  0.74483074  1
  Al  Al166  1  0.62521572  0.63814356  0.25362641  1
  Al  Al167  1  0.62940579  0.63579459  0.74813812  1
  Al  Al168  1  0.37233039  0.13777779  0.25153236  1
  Al  Al169  1  0.36232594  0.13472391  0.74475398  1
  Al  Al170  1  0.37463743  0.63823818  0.25162334  1
  Al  Al171  1  0.36508035  0.63024106  0.74910920  1
  Al  Al172  1  0.86355857  0.13752694  0.25360885  1
  Al  Al173  1  0.86352772  0.13775494  0.74334068  1
  Al  Al174  1  0.86242498  0.63222274  0.25864150  1
  Al  Al175  1  0.86115903  0.63715393  0.74840367  1
  Al  Al176  1  0.13506466  0.36533906  0.25244006  1
  Al  Al177  1  0.13827323  0.36549939  0.74402812  1
  Al  Al178  1  0.13767531  0.86610806  0.25276910  1
  Al  Al179  1  0.14077931  0.86395993  0.74741344  1
  Al  Al180  1  0.63190497  0.36760532  0.25839429  1
  Al  Al181  1  0.63074983  0.36276893  0.74384510  1
  Al  Al182  1  0.63043588  0.86371278  0.25406958  1
  Al  Al183  1  0.62839884  0.86363084  0.74238506  1
  Al  Al184  1  0.36448678  0.36311018  0.25143947  1
  Al  Al185  1  0.36320055  0.36678031  0.74706700  1
  Al  Al186  1  0.37075116  0.86126570  0.25347755  1
  Al  Al187  1  0.36779692  0.86535264  0.74757374  1
  Al  Al188  1  0.86987332  0.36762489  0.25350668  1
  Al  Al189  1  0.86771108  0.36631179  0.74787372  1
  Al  Al190  1  0.86137023  0.86294707  0.25715561  1
  Al  Al191  1  0.86140750  0.85812589  0.74447258  1
  Al  Al192  1  0.32675090  -0.00026400  0.32492872  1
  Al  Al193  1  0.67903193  0.50056997  0.32562831  1
  Al  Al194  1  0.67706108  0.31327896  0.50035175  1
  Al  Al195  1  0.81045546  0.18265257  0.49878866  1
  Al  Al196  1  0.82648605  0.17273297  0.00091763  1
  Al  Al197  1  0.19417349  0.68907738  0.49998312  1
  Al  Al198  1  0.00269528  0.66925212  0.66613111  1
  Al  Al199  1  0.66827690  -0.00027354  0.66707829  1
  Al  Al200  1  0.18108536  0.32550429  0.00285785  1
  Al  Al201  1  0.31243389  0.50131461  0.31704696  1
  Al  Al202  1  -0.00034016  0.81450765  0.32443960  1
  Al  Al203  1  0.18015554  0.50155496  0.67900787  1
  Al  Al204  1  0.82951867  0.00011504  0.82197412  1
  Al  Al205  1  0.00145249  0.82676979  0.67183225  1
  Al  Al206  1  0.00324901  0.32914449  0.81594789  1
  Al  Al207  1  0.17758248  0.00346890  0.17505876  1
  Al  Al208  1  0.49765274  0.16855905  0.81635255  1
  Al  Al209  1  0.49899668  0.67466132  0.82472856  1
  Al  Al210  1  0.67489467  0.83292389  0.00061386  1
  Al  Al211  1  0.30542068  0.80456493  0.00093300  1
  Al  Al212  1  0.67061914  0.67165091  0.00028983  1
  Al  Al213  1  0.49603601  0.32310345  0.81186922  1
  Al  Al214  1  0.18634088  0.32191877  0.50097843  1
  Al  Al215  1  0.82616953  0.68070633  0.00342942  1
  Al  Al216  1  0.17960556  0.49981072  0.18278121  1
  Al  Al217  1  0.67388053  -0.00004794  0.32886481  1
  Al  Al218  1  0.82913446  0.50049264  0.67778647  1
  Al  Al219  1  0.19169732  0.68849230  0.00458816  1
  Al  Al220  1  0.67233919  0.17261922  -0.00115823  1
  Al  Al221  1  0.82275576  -0.00165604  0.67056018  1
  Al  Al222  1  0.31330833  0.80778710  0.50006542  1
  Al  Al223  1  0.19064046  0.00042385  0.67063664  1
  Al  Al224  1  0.49779493  0.31220163  0.18210910  1
  Al  Al225  1  0.67083709  0.50007404  0.67376456  1
  Al  Al226  1  0.18818364  0.00185385  0.82203387  1
  Al  Al227  1  0.00092812  0.18333773  0.32602804  1
  Al  Al228  1  0.82293158  0.49938842  0.17965140  1
  Al  Al229  1  0.67012250  -0.00015650  0.82300510  1
  Al  Al230  1  -0.00061924  0.66938928  0.83188062  1
  Al  Al231  1  0.00002975  0.82945510  0.17300776  1
  Al  Al232  1  0.83065656  0.32971029  0.00212508  1
  Al  Al233  1  0.00187428  0.82922187  0.82967080  1
  Al  Al234  1  0.00125298  0.18324954  0.17387893  1
  Al  Al235  1  0.00160866  0.17435290  0.81617446  1
  Al  Al236  1  0.00090430  0.67608540  0.18294485  1
  Al  Al237  1  0.67047738  0.32990038  0.00032329  1
  Al  Al238  1  0.81618148  -0.00016672  0.18234380  1
  Au  Au239  1  0.18267672  0.68085304  -0.00034540  1
  Au  Au240  1  0.34058363  0.49927270  0.16956130  1
  Au  Au241  1  0.00393682  0.33365830  0.32520224  1
  Au  Au242  1  0.82232865  0.00622680  0.83599930  1
  Au  Au243  1  0.82012235  0.66412260  0.49693813  1
  Au  Au244  1  0.82658119  0.49897181  0.66537731  1
  Au  Au245  1  0.65792906  0.32649633  0.00016008  1
  Au  Au246  1  0.67670299  0.65519836  0.00098617  1
  Au  Au247  1  0.66800525  0.00137304  0.16439831  1
  Au  Au248  1  0.66273206  0.83013524  -0.00090267  1
  Au  Au249  1  0.49715768  0.66606546  0.83379885  1
  Au  Au250  1  0.82518724  0.83504511  0.50157028  1
  Au  Au251  1  0.17283074  0.33464957  0.00038550  1
  Au  Au252  1  0.00396559  0.67524953  0.65036890  1
  Au  Au253  1  0.17636223  0.00108882  0.83069655  1
  Au  Au254  1  0.00326503  0.66443671  0.33211014  1
  Au  Au255  1  0.33617843  -0.00079304  0.33307530  1
  Au  Au256  1  0.67084716  0.50353510  0.33503696  1
  Au  Au257  1  0.84614536  0.32248767  0.00437361  1
  Au  Au258  1  0.65630547  0.49538236  0.82254129  1
  Au  Au259  1  0.34261720  -0.00248169  0.17000550  1
  Au  Au260  1  0.49943433  0.17402359  0.82788749  1
  Au  Au261  1  0.50107120  0.16905030  0.32696894  1
  Au  Au262  1  0.49334195  0.33801769  0.32931045  1
  Au  Au263  1  0.18479114  0.49936297  0.83110955  1
  Au  Au264  1  0.17870009  0.50362907  0.66651890  1
  Au  Au265  1  0.16603723  0.17033300  -0.00187557  1
  Au  Au266  1  0.66874677  -0.00497728  0.33938689  1
  Au  Au267  1  0.16766232  0.17430129  0.49866117  1
  Au  Au268  1  0.49913188  0.83570999  0.66096072  1
  Au  Au269  1  0.84337763  0.32831539  0.50055962  1
  Au  Au270  1  0.82743523  0.50105207  0.83531439  1
  Au  Au271  1  -0.00013704  0.65320892  0.83679484  1
  Au  Au272  1  0.83948697  0.82812566  0.00607684  1
  Au  Au273  1  0.49493389  0.84003846  0.83085095  1
  Au  Au274  1  0.83559190  0.49717960  0.17979483  1
  Au  Au275  1  0.33478399  0.17151732  -0.00019125  1
  Au  Au276  1  0.00169529  0.32593491  0.82838959  1
  Au  Au277  1  0.16684042  0.49756895  0.18259199  1
  Au  Au278  1  0.84201507  0.00163314  0.32835007  1
  Au  Au279  1  0.66294225  0.32223766  0.50102577  1
  Au  Au280  1  0.16870333  0.00120721  0.16638939  1
  Au  Au281  1  0.00033172  0.17048237  0.66694315  1
  Au  Au282  1  0.49695542  0.66268354  0.65973195  1
  Au  Au283  1  0.00350415  0.84561971  0.82521967  1
  Au  Au284  1  0.33744799  0.17622113  0.50289285  1
  Au  Au285  1  0.16321002  -0.00226832  0.33931560  1
  Au  Au286  1  0.65959502  0.49807675  0.17110169  1
  Au  Au287  1  0.49850985  0.67735818  0.17225149  1
