# generated using pymatgen
data_Ca24Ti8Al207Au49
_symmetry_space_group_name_H-M   'P 1'
_cell_length_a   17.32037007
_cell_length_b   17.32119325
_cell_length_c   17.32122991
_cell_angle_alpha   89.99727842
_cell_angle_beta   90.00058842
_cell_angle_gamma   90.00269373
_symmetry_Int_Tables_number   1
_chemical_formula_structural   Ca24Ti8Al207Au49
_chemical_formula_sum   'Ca24 Ti8 Al207 Au49'
_cell_volume   5196.53311536
_cell_formula_units_Z   1
loop_
 _symmetry_equiv_pos_site_id
 _symmetry_equiv_pos_as_xyz
  1  'x, y, z'
loop_
 _atom_site_type_symbol
 _atom_site_label
 _atom_site_symmetry_multiplicity
 _atom_site_fract_x
 _atom_site_fract_y
 _atom_site_fract_z
 _atom_site_occupancy
  Ca  Ca0  1  0.24881957  -0.00041497  0.00228088  1
  Ca  Ca1  1  0.25214445  0.00107655  0.49906081  1
  Ca  Ca2  1  0.25068924  0.49995043  -0.00044591  1
  Ca  Ca3  1  0.24866339  0.49951387  0.49813321  1
  Ca  Ca4  1  0.75359424  -0.00442882  0.00374947  1
  Ca  Ca5  1  0.74860376  -0.00099628  0.49737332  1
  Ca  Ca6  1  0.75340824  0.50366410  -0.00138033  1
  Ca  Ca7  1  0.74879632  0.50120159  0.50253128  1
  Ca  Ca8  1  0.00452409  0.25599073  0.00010762  1
  Ca  Ca9  1  0.00413244  0.25360760  0.49994167  1
  Ca  Ca10  1  -0.00224795  0.74850135  -0.00272429  1
  Ca  Ca11  1  0.00094268  0.74522540  0.49957732  1
  Ca  Ca12  1  0.49452147  0.25721258  0.00187507  1
  Ca  Ca13  1  0.49730348  0.24870568  0.49901639  1
  Ca  Ca14  1  0.50295356  0.74726408  0.00118643  1
  Ca  Ca15  1  0.50287661  0.74863746  0.49940949  1
  Ca  Ca16  1  -0.00075145  -0.00141638  0.25259082  1
  Ca  Ca17  1  -0.00196950  0.00034450  0.75077174  1
  Ca  Ca18  1  -0.00006468  0.50117501  0.24969098  1
  Ca  Ca19  1  -0.00074867  0.50051398  0.75212636  1
  Ca  Ca20  1  0.49920444  -0.00488184  0.25280422  1
  Ca  Ca21  1  0.49947792  -0.00412427  0.74743639  1
  Ca  Ca22  1  0.50042416  0.50406924  0.25193452  1
  Ca  Ca23  1  0.50081693  0.49935477  0.74931965  1
  Ti  Ti24  1  0.24956706  0.25076275  0.25009937  1
  Ti  Ti25  1  0.24951575  0.25309155  0.74896004  1
  Ti  Ti26  1  0.25071995  0.74959009  0.25019085  1
  Ti  Ti27  1  0.24868566  0.74781258  0.75006272  1
  Ti  Ti28  1  0.75182743  0.25044566  0.25008108  1
  Ti  Ti29  1  0.75148280  0.25338228  0.74943667  1
  Ti  Ti30  1  0.75099228  0.74959501  0.24973338  1
  Ti  Ti31  1  0.75086757  0.74781827  0.74976566  1
  Al  Al32  1  0.08166986  0.08390594  0.08261863  1
  Al  Al33  1  0.08153001  0.08707996  0.57471208  1
  Al  Al34  1  0.07510398  0.58433772  0.08705197  1
  Al  Al35  1  0.08677217  0.57314085  0.58544234  1
  Al  Al36  1  0.57621181  0.07496784  0.08397409  1
  Al  Al37  1  0.57974592  0.07353309  0.57410836  1
  Al  Al38  1  0.58038812  0.59433927  0.08761389  1
  Al  Al39  1  0.58816905  0.59604872  0.58553708  1
  Al  Al40  1  0.41059514  0.41900347  0.07416193  1
  Al  Al41  1  0.40459042  0.41540844  0.57626459  1
  Al  Al42  1  0.41718975  0.89656794  0.08577220  1
  Al  Al43  1  0.41744164  0.89668924  0.58153717  1
  Al  Al44  1  0.92490939  0.41955520  0.08936417  1
  Al  Al45  1  0.91193626  0.41849384  0.58581070  1
  Al  Al46  1  0.91805820  0.91357414  0.07691267  1
  Al  Al47  1  0.90900966  0.91844186  0.58679455  1
  Al  Al48  1  0.42177661  0.09657264  0.41313716  1
  Al  Al49  1  0.41800582  0.08597810  0.92074141  1
  Al  Al50  1  0.41755766  0.58642315  0.40956463  1
  Al  Al51  1  0.41146683  0.57825946  0.91692386  1
  Al  Al52  1  0.92079722  0.08163922  0.41808250  1
  Al  Al53  1  0.92190392  0.07486327  0.91181433  1
  Al  Al54  1  0.91404997  0.57796493  0.41120267  1
  Al  Al55  1  0.90293231  0.58564116  0.91537729  1
  Al  Al56  1  0.09318612  0.41466961  0.41783253  1
  Al  Al57  1  0.08203117  0.41158388  0.91030520  1
  Al  Al58  1  0.08790062  0.91857502  0.41990409  1
  Al  Al59  1  0.07695006  0.91110201  0.91253168  1
  Al  Al60  1  0.57927118  0.42215837  0.42136083  1
  Al  Al61  1  0.58808279  0.42428748  0.91180663  1
  Al  Al62  1  0.58515375  0.91694486  0.40995337  1
  Al  Al63  1  0.57820644  0.91681665  0.92762067  1
  Al  Al64  1  0.08605646  0.08639291  0.41776620  1
  Al  Al65  1  0.07898774  0.08170897  0.91897540  1
  Al  Al66  1  0.08541138  0.57520209  0.41232120  1
  Al  Al67  1  0.07968472  0.57821273  0.91511420  1
  Al  Al68  1  0.58343736  0.08160454  0.40556862  1
  Al  Al69  1  0.57276383  0.07934100  0.91749522  1
  Al  Al70  1  0.58296073  0.59395760  0.41948632  1
  Al  Al71  1  0.59118792  0.58059362  0.91493929  1
  Al  Al72  1  0.40167033  0.41521761  0.41704819  1
  Al  Al73  1  0.40520082  0.41882137  0.91438720  1
  Al  Al74  1  0.42088865  0.90759243  0.42177871  1
  Al  Al75  1  0.41202966  0.90831441  0.92651461  1
  Al  Al76  1  0.91090604  0.41994373  0.41721026  1
  Al  Al77  1  0.91830707  0.42221877  0.90572142  1
  Al  Al78  1  0.91587228  0.91810962  0.42362163  1
  Al  Al79  1  0.91682744  0.90992322  0.90972323  1
  Al  Al80  1  0.08334829  0.41404793  0.08614977  1
  Al  Al81  1  0.09284906  0.41400960  0.58301458  1
  Al  Al82  1  0.08209643  0.91645228  0.08006401  1
  Al  Al83  1  0.07971272  0.91375723  0.57658342  1
  Al  Al84  1  0.57666108  0.42888759  0.07235574  1
  Al  Al85  1  0.58620583  0.42887828  0.58120760  1
  Al  Al86  1  0.57766424  0.90496277  0.08991998  1
  Al  Al87  1  0.57888077  0.90490395  0.58691045  1
  Al  Al88  1  0.41603431  0.08214018  0.08188872  1
  Al  Al89  1  0.41113747  0.08690556  0.57043817  1
  Al  Al90  1  0.42090869  0.59179530  0.08665881  1
  Al  Al91  1  0.42251341  0.58891310  0.58722559  1
  Al  Al92  1  0.92407462  0.08093344  0.08439859  1
  Al  Al93  1  0.91181493  0.07745362  0.58958262  1
  Al  Al94  1  0.91224818  0.59432989  0.08170944  1
  Al  Al95  1  0.91347041  0.57699029  0.58846946  1
  Al  Al96  1  0.25514449  0.13075989  0.13828461  1
  Al  Al97  1  0.25456262  0.13528915  0.63260776  1
  Al  Al98  1  0.25155361  0.63315396  0.13984828  1
  Al  Al99  1  0.24813598  0.63363944  0.63401735  1
  Al  Al100  1  0.75203840  0.13378389  0.13737880  1
  Al  Al101  1  0.75241412  0.13502821  0.63145550  1
  Al  Al102  1  0.75228193  0.62984294  0.13862428  1
  Al  Al103  1  0.75039267  0.62920009  0.63836040  1
  Al  Al104  1  0.25147965  0.36775107  0.13492738  1
  Al  Al105  1  0.24986706  0.36879789  0.63246734  1
  Al  Al106  1  0.25121274  0.86225968  0.12978620  1
  Al  Al107  1  0.25296766  0.86375905  0.63427230  1
  Al  Al108  1  0.75267609  0.37024166  0.13720150  1
  Al  Al109  1  0.75102705  0.37596628  0.63960070  1
  Al  Al110  1  0.75424208  0.86287449  0.13582515  1
  Al  Al111  1  0.75079429  0.86058033  0.63389946  1
  Al  Al112  1  0.25183901  0.13819249  0.36724574  1
  Al  Al113  1  0.24971329  0.13849085  0.86399339  1
  Al  Al114  1  0.24993120  0.63600140  0.36336907  1
  Al  Al115  1  0.24884506  0.62871094  0.86193730  1
  Al  Al116  1  0.74828263  0.12878458  0.36516953  1
  Al  Al117  1  0.75525120  0.13869828  0.86292929  1
  Al  Al118  1  0.75082184  0.63688156  0.36161030  1
  Al  Al119  1  0.75288422  0.63117783  0.86240743  1
  Al  Al120  1  0.25020684  0.36264076  0.37024175  1
  Al  Al121  1  0.24945372  0.37378364  0.86390727  1
  Al  Al122  1  0.25464791  0.86220896  0.36304632  1
  Al  Al123  1  0.25171199  0.86081001  0.86692931  1
  Al  Al124  1  0.75086052  0.36705186  0.36316190  1
  Al  Al125  1  0.75355099  0.37105019  0.86437655  1
  Al  Al126  1  0.74575427  0.86867453  0.36260813  1
  Al  Al127  1  0.75259991  0.86123405  0.86324722  1
  Al  Al128  1  0.13233924  0.25358895  0.13706263  1
  Al  Al129  1  0.13867452  0.25608319  0.63304482  1
  Al  Al130  1  0.13497488  0.74809720  0.13503534  1
  Al  Al131  1  0.13343115  0.74888239  0.63676025  1
  Al  Al132  1  0.63480909  0.24930468  0.14008664  1
  Al  Al133  1  0.64091195  0.25678190  0.63266985  1
  Al  Al134  1  0.63433485  0.74739340  0.13657121  1
  Al  Al135  1  0.63836037  0.74495350  0.62862616  1
  Al  Al136  1  0.13491235  0.25486596  0.36726533  1
  Al  Al137  1  0.13653237  0.25682240  0.86284178  1
  Al  Al138  1  0.13075293  0.74965795  0.36253385  1
  Al  Al139  1  0.12839139  0.74978178  0.86267368  1
  Al  Al140  1  0.63548361  0.25027505  0.36278089  1
  Al  Al141  1  0.63723760  0.25590615  0.86079454  1
  Al  Al142  1  0.63620637  0.74901715  0.36823561  1
  Al  Al143  1  0.63584087  0.74612023  0.86467104  1
  Al  Al144  1  0.36731677  0.25347469  0.13835115  1
  Al  Al145  1  0.36208800  0.25580096  0.63058387  1
  Al  Al146  1  0.36926882  0.74942009  0.13565746  1
  Al  Al147  1  0.36784010  0.74976241  0.63349489  1
  Al  Al148  1  0.87121732  0.25258031  0.13701842  1
  Al  Al149  1  0.86283269  0.25294287  0.63664487  1
  Al  Al150  1  0.86508137  0.74483341  0.12951577  1
  Al  Al151  1  0.86765580  0.74594534  0.63688828  1
  Al  Al152  1  0.36264008  0.25115802  0.37022540  1
  Al  Al153  1  0.36232795  0.25763901  0.86448004  1
  Al  Al154  1  0.36779700  0.74929926  0.36455948  1
  Al  Al155  1  0.36560783  0.74968516  0.86457530  1
  Al  Al156  1  0.86394521  0.24932028  0.36359647  1
  Al  Al157  1  0.86742358  0.25610593  0.86270435  1
  Al  Al158  1  0.87041765  0.74769227  0.36183277  1
  Al  Al159  1  0.86656859  0.74713216  0.86763110  1
  Al  Al160  1  0.13722344  0.13738800  0.24642934  1
  Al  Al161  1  0.13714190  0.13960120  0.74839500  1
  Al  Al162  1  0.13114759  0.63489407  0.25215252  1
  Al  Al163  1  0.13177785  0.63016488  0.75220775  1
  Al  Al164  1  0.63279291  0.13122442  0.25476523  1
  Al  Al165  1  0.63704830  0.13810590  0.74725802  1
  Al  Al166  1  0.63051676  0.63663392  0.25029876  1
  Al  Al167  1  0.63705135  0.63096189  0.74763171  1
  Al  Al168  1  0.36671308  0.13704626  0.25582528  1
  Al  Al169  1  0.36130736  0.13726755  0.74977145  1
  Al  Al170  1  0.37187068  0.63918320  0.24945035  1
  Al  Al171  1  0.36431843  0.63599601  0.74717705  1
  Al  Al172  1  0.86391321  0.13042836  0.25078452  1
  Al  Al173  1  0.86569757  0.13638546  0.74749622  1
  Al  Al174  1  0.86868123  0.63430834  0.24828491  1
  Al  Al175  1  0.86840391  0.63237339  0.75232942  1
  Al  Al176  1  0.13698022  0.36737845  0.25296048  1
  Al  Al177  1  0.13852454  0.37354008  0.74873767  1
  Al  Al178  1  0.13571347  0.86450175  0.24713371  1
  Al  Al179  1  0.13382737  0.86347852  0.75104954  1
  Al  Al180  1  0.63202790  0.36801561  0.25012171  1
  Al  Al181  1  0.63674405  0.37580087  0.75245400  1
  Al  Al182  1  0.63280123  0.86129102  0.24916944  1
  Al  Al183  1  0.63369798  0.85863078  0.74085645  1
  Al  Al184  1  0.36494380  0.36568226  0.25169126  1
  Al  Al185  1  0.36487982  0.36903894  0.75340957  1
  Al  Al186  1  0.36834459  0.86401069  0.24417198  1
  Al  Al187  1  0.36499909  0.86314102  0.74301380  1
  Al  Al188  1  0.86489082  0.37132173  0.25027697  1
  Al  Al189  1  0.86492726  0.37166726  0.75020221  1
  Al  Al190  1  0.86500007  0.86691586  0.25260890  1
  Al  Al191  1  0.86635632  0.86139304  0.75060443  1
  Al  Al192  1  0.67494232  0.32961439  0.00074156  1
  Al  Al193  1  0.82828347  0.17344700  -0.00335307  1
  Al  Al194  1  0.00167162  0.18464493  0.82631578  1
  Al  Al195  1  0.17059713  0.67017158  0.49911044  1
  Al  Al196  1  0.49892724  0.18197339  0.82531425  1
  Al  Al197  1  0.00109084  0.17468300  0.67273772  1
  Al  Al198  1  0.68777984  -0.00127363  0.67273665  1
  Al  Al199  1  0.67914027  0.82359826  0.00142293  1
  Al  Al200  1  0.18864974  0.82193914  0.49873616  1
  Al  Al201  1  0.82013545  0.32200614  0.50086531  1
  Al  Al202  1  0.66814278  0.17159450  0.00008228  1
  Al  Al203  1  0.83100220  0.33087105  0.00222106  1
  Al  Al204  1  0.49955001  0.82985818  0.81246761  1
  Al  Al205  1  0.50078099  0.17875028  0.18449091  1
  Al  Al206  1  0.17556874  0.00109400  0.32099989  1
  Al  Al207  1  0.67520427  0.17670809  0.49447698  1
  Al  Al208  1  0.17322487  0.17508900  0.00025333  1
  Al  Al209  1  0.49978003  0.66952943  0.82034796  1
  Al  Al210  1  0.68044164  0.50311237  0.32280416  1
  Al  Al211  1  0.67113226  -0.00093712  0.82852254  1
  Al  Al212  1  0.32620397  0.68339877  0.49942107  1
  Al  Al213  1  0.50064885  0.81404739  0.31795785  1
  Al  Al214  1  0.18301971  0.32793807  -0.00005810  1
  Al  Al215  1  0.17728992  0.50142724  0.17954181  1
  Al  Al216  1  0.81685138  0.82229580  0.49858685  1
  Al  Al217  1  0.17610542  0.00151810  0.67133244  1
  Al  Al218  1  0.67703042  -0.00266522  0.18452233  1
  Al  Al219  1  0.00093917  0.17440292  0.31781828  1
  Al  Al220  1  0.49797258  0.31802256  0.32641094  1
  Al  Al221  1  -0.00168960  0.81404996  0.17968025  1
  Al  Al222  1  0.33048345  -0.00156630  0.82416857  1
  Al  Al223  1  0.32754341  0.68229095  -0.00021184  1
  Al  Al224  1  0.82697671  -0.00116753  0.81254974  1
  Al  Al225  1  0.00113613  0.32983641  0.68766541  1
  Al  Al226  1  0.68494613  0.67202263  0.00016690  1
  Al  Al227  1  -0.00148732  0.82188996  0.67485020  1
  Al  Al228  1  0.31648861  0.50096384  0.68350854  1
  Al  Al229  1  0.18506705  0.18564669  0.49974217  1
  Al  Al230  1  0.81358144  0.66727204  0.50115719  1
  Al  Al231  1  0.17364855  0.67994174  -0.00149652  1
  Al  Al232  1  0.17190447  0.00009381  0.82619423  1
  Al  Al233  1  0.49858945  0.17137537  0.66977509  1
  Al  Al234  1  0.33066170  -0.00131766  0.32580828  1
  Al  Al235  1  0.32700714  0.19413021  0.00116198  1
  Al  Al236  1  0.31054180  0.50101042  0.31770320  1
  Al  Al237  1  -0.00160540  0.33149367  0.32028619  1
  Al  Al238  1  0.50024308  0.33047925  0.67557465  1
  Au  Au239  1  0.49630266  0.15477416  0.67497018  1
  Au  Au240  1  0.50181275  0.83317383  0.82903203  1
  Au  Au241  1  0.83689989  0.16450097  -0.00141256  1
  Au  Au242  1  0.00072219  0.83084639  0.34082006  1
  Au  Au243  1  -0.00434039  0.67206174  0.83770662  1
  Au  Au244  1  0.67325389  0.33439619  0.50118516  1
  Au  Au245  1  -0.00009608  0.81988187  0.16382036  1
  Au  Au246  1  0.16012258  0.00223580  0.66824342  1
  Au  Au247  1  0.66602680  0.16848126  0.49693099  1
  Au  Au248  1  0.83885737  -0.00189742  0.17148907  1
  Au  Au249  1  -0.00388551  0.83433893  0.67500353  1
  Au  Au250  1  0.67390724  0.50435775  0.67300536  1
  Au  Au251  1  0.66612850  -0.00474705  0.17171928  1
  Au  Au252  1  0.17407014  0.66349549  0.00250460  1
  Au  Au253  1  0.16482749  0.50270775  0.18244564  1
  Au  Au254  1  0.66617810  0.82649684  0.49690455  1
  Au  Au255  1  0.49979075  0.65804073  0.82581240  1
  Au  Au256  1  0.16315965  0.00034186  0.17212719  1
  Au  Au257  1  0.33819802  -0.00568682  0.65582138  1
  Au  Au258  1  0.67296161  0.50426666  0.33798646  1
  Au  Au259  1  0.49636250  0.32969958  0.33857671  1
  Au  Au260  1  0.00385731  0.65896502  0.67113796  1
  Au  Au261  1  0.32654542  0.17690325  0.00140453  1
  Au  Au262  1  0.66870808  0.50109976  0.16166249  1
  Au  Au263  1  0.49917775  0.33483172  0.65904642  1
  Au  Au264  1  0.84188755  0.17376868  0.50139853  1
  Au  Au265  1  0.00083256  0.33172253  0.67141302  1
  Au  Au266  1  0.16917348  0.49948896  0.82592749  1
  Au  Au267  1  0.33187048  -0.00922400  0.15929997  1
  Au  Au268  1  0.82785036  0.82577054  -0.00379564  1
  Au  Au269  1  0.17632006  0.83881697  -0.00472459  1
  Au  Au270  1  0.50093610  0.33693743  0.15946983  1
  Au  Au271  1  0.49932839  0.33184425  0.84248565  1
  Au  Au272  1  0.32714744  0.50229222  0.67018343  1
  Au  Au273  1  -0.00145528  0.33560873  0.33237325  1
  Au  Au274  1  0.67932854  -0.00144286  0.84382658  1
  Au  Au275  1  0.82527273  -0.00117103  0.33901434  1
  Au  Au276  1  0.33996140  0.50275511  0.17228218  1
  Au  Au277  1  0.49755381  0.16214188  0.18043061  1
  Au  Au278  1  0.33108703  0.67154926  0.49955458  1
  Au  Au279  1  0.84095913  0.50372515  0.17475333  1
  Au  Au280  1  0.32528871  -0.00103910  0.84053450  1
  Au  Au281  1  0.00216454  0.17748507  0.16867666  1
  Au  Au282  1  0.33230670  0.00164434  0.34161310  1
  Au  Au283  1  0.83473674  0.34186909  -0.00251480  1
  Au  Au284  1  0.65239777  0.17859194  -0.00100210  1
  Au  Au285  1  0.83039933  0.66800948  0.49849777  1
  Au  Au286  1  0.67409626  -0.00410954  0.66285995  1
  Au  Au287  1  0.00075214  0.65915129  0.32457504  1
