# generated using pymatgen
data_Ca24Ti8Al207Au49
_symmetry_space_group_name_H-M   'P 1'
_cell_length_a   17.32024490
_cell_length_b   17.32180004
_cell_length_c   17.32134398
_cell_angle_alpha   89.99575804
_cell_angle_beta   90.00235155
_cell_angle_gamma   90.00333501
_symmetry_Int_Tables_number   1
_chemical_formula_structural   Ca24Ti8Al207Au49
_chemical_formula_sum   'Ca24 Ti8 Al207 Au49'
_cell_volume   5196.71181408
_cell_formula_units_Z   1
loop_
 _symmetry_equiv_pos_site_id
 _symmetry_equiv_pos_as_xyz
  1  'x, y, z'
loop_
 _atom_site_type_symbol
 _atom_site_label
 _atom_site_symmetry_multiplicity
 _atom_site_fract_x
 _atom_site_fract_y
 _atom_site_fract_z
 _atom_site_occupancy
  Ca  Ca0  1  0.25296433  -0.00215931  -0.00061411  1
  Ca  Ca1  1  0.24171578  0.00092961  0.50331680  1
  Ca  Ca2  1  0.25284444  0.50150282  0.00936775  1
  Ca  Ca3  1  0.24552468  0.49961942  0.49260023  1
  Ca  Ca4  1  0.75018626  -0.00081799  0.00217669  1
  Ca  Ca5  1  0.75264803  0.00061913  0.49626893  1
  Ca  Ca6  1  0.74753539  0.50264520  0.00053878  1
  Ca  Ca7  1  0.74888693  0.49900469  0.50040250  1
  Ca  Ca8  1  -0.00187945  0.24818549  -0.00130780  1
  Ca  Ca9  1  -0.00489072  0.24783012  0.50209841  1
  Ca  Ca10  1  -0.00067067  0.74863299  -0.00187350  1
  Ca  Ca11  1  0.00060977  0.75079213  0.50168681  1
  Ca  Ca12  1  0.50121144  0.25399622  0.00642912  1
  Ca  Ca13  1  0.50462027  0.24859217  0.49484743  1
  Ca  Ca14  1  0.50297733  0.74409255  -0.00165459  1
  Ca  Ca15  1  0.50226477  0.74734151  0.50313304  1
  Ca  Ca16  1  -0.00205953  -0.00183540  0.25535221  1
  Ca  Ca17  1  0.00180262  0.00425788  0.74578049  1
  Ca  Ca18  1  -0.00092483  0.50234607  0.24979982  1
  Ca  Ca19  1  -0.00325762  0.49416479  0.75021086  1
  Ca  Ca20  1  0.50456328  -0.00040130  0.24984901  1
  Ca  Ca21  1  0.49912276  -0.00278021  0.75280871  1
  Ca  Ca22  1  0.50212033  0.50216149  0.24736597  1
  Ca  Ca23  1  0.50215518  0.50301422  0.75498124  1
  Ti  Ti24  1  0.25170546  0.24981533  0.25000948  1
  Ti  Ti25  1  0.24827536  0.24816705  0.74864081  1
  Ti  Ti26  1  0.24900540  0.75097189  0.25109191  1
  Ti  Ti27  1  0.25000932  0.75179238  0.74944905  1
  Ti  Ti28  1  0.74937747  0.24946127  0.25026842  1
  Ti  Ti29  1  0.75114835  0.25029807  0.74889339  1
  Ti  Ti30  1  0.75011168  0.75051215  0.24892281  1
  Ti  Ti31  1  0.74955328  0.74998879  0.75158656  1
  Al  Al32  1  0.07455182  0.07742668  0.08235035  1
  Al  Al33  1  0.08582485  0.09083485  0.59169759  1
  Al  Al34  1  0.08205706  0.57600162  0.08624841  1
  Al  Al35  1  0.07601486  0.57616763  0.57547233  1
  Al  Al36  1  0.59236211  0.08041603  0.08924769  1
  Al  Al37  1  0.58431648  0.08060336  0.57500354  1
  Al  Al38  1  0.59165968  0.58641178  0.08705724  1
  Al  Al39  1  0.58269296  0.58862799  0.58308387  1
  Al  Al40  1  0.40709617  0.41759494  0.08851510  1
  Al  Al41  1  0.42974734  0.42741900  0.57656585  1
  Al  Al42  1  0.41843842  0.92280750  0.07858612  1
  Al  Al43  1  0.41884566  0.91279751  0.59201710  1
  Al  Al44  1  0.91792310  0.41957579  0.08566397  1
  Al  Al45  1  0.90798570  0.40553187  0.59150597  1
  Al  Al46  1  0.90971213  0.92043741  0.09040063  1
  Al  Al47  1  0.92133419  0.92551846  0.57459885  1
  Al  Al48  1  0.41591314  0.07932156  0.40813360  1
  Al  Al49  1  0.41421627  0.08201488  0.92159494  1
  Al  Al50  1  0.42277580  0.58664833  0.40014797  1
  Al  Al51  1  0.42726728  0.58634893  0.92267840  1
  Al  Al52  1  0.90997646  0.08789950  0.42094021  1
  Al  Al53  1  0.92401379  0.09022471  0.91111933  1
  Al  Al54  1  0.91935920  0.58059976  0.42010443  1
  Al  Al55  1  0.91590472  0.58923456  0.91109957  1
  Al  Al56  1  0.08794090  0.42556971  0.41507973  1
  Al  Al57  1  0.07752006  0.41787063  0.91636132  1
  Al  Al58  1  0.08734183  0.91355335  0.42399193  1
  Al  Al59  1  0.08680170  0.92389347  0.90656490  1
  Al  Al60  1  0.59163861  0.42332856  0.40798975  1
  Al  Al61  1  0.57856983  0.42441397  0.92127103  1
  Al  Al62  1  0.59058267  0.92531372  0.41016310  1
  Al  Al63  1  0.57928128  0.90941799  0.91353086  1
  Al  Al64  1  0.08260632  0.08586092  0.42728152  1
  Al  Al65  1  0.08387184  0.08424556  0.89534216  1
  Al  Al66  1  0.08634697  0.58321472  0.40959604  1
  Al  Al67  1  0.07507512  0.58435415  0.90997668  1
  Al  Al68  1  0.59082516  0.08215477  0.40956079  1
  Al  Al69  1  0.58093820  0.07935756  0.92533703  1
  Al  Al70  1  0.58651213  0.58609477  0.40519042  1
  Al  Al71  1  0.58867114  0.59138704  0.92034528  1
  Al  Al72  1  0.42038717  0.42992889  0.40575142  1
  Al  Al73  1  0.41638953  0.40755227  0.92921981  1
  Al  Al74  1  0.40935171  0.92401093  0.41174603  1
  Al  Al75  1  0.42180922  0.91179297  0.90839173  1
  Al  Al76  1  0.90640569  0.41187648  0.42922247  1
  Al  Al77  1  0.91626773  0.41630628  0.91431808  1
  Al  Al78  1  0.91370698  0.92228747  0.41489453  1
  Al  Al79  1  0.92099796  0.91971282  0.92119787  1
  Al  Al80  1  0.08289570  0.41850974  0.08929366  1
  Al  Al81  1  0.06880644  0.41245269  0.59097194  1
  Al  Al82  1  0.07849313  0.91734486  0.08318269  1
  Al  Al83  1  0.09190903  0.92636277  0.58523406  1
  Al  Al84  1  0.58677325  0.42484925  0.08700370  1
  Al  Al85  1  0.58601507  0.41836683  0.57643875  1
  Al  Al86  1  0.59299620  0.92174877  0.08459338  1
  Al  Al87  1  0.57582363  0.91220956  0.58723568  1
  Al  Al88  1  0.41585657  0.08574897  0.08294277  1
  Al  Al89  1  0.41862351  0.07539966  0.58119347  1
  Al  Al90  1  0.41649013  0.57938324  0.08821816  1
  Al  Al91  1  0.42628399  0.59032989  0.58782368  1
  Al  Al92  1  0.90918685  0.07952802  0.08954842  1
  Al  Al93  1  0.92103287  0.10028549  0.58587505  1
  Al  Al94  1  0.91553316  0.58061493  0.08226124  1
  Al  Al95  1  0.90910186  0.57072031  0.58633848  1
  Al  Al96  1  0.25215813  0.13311448  0.13759655  1
  Al  Al97  1  0.24302617  0.12983790  0.63523443  1
  Al  Al98  1  0.25183058  0.63319926  0.13691122  1
  Al  Al99  1  0.24745301  0.63899685  0.63410923  1
  Al  Al100  1  0.75046927  0.12876221  0.13748840  1
  Al  Al101  1  0.75426517  0.13627365  0.62811479  1
  Al  Al102  1  0.74597399  0.63426008  0.13101308  1
  Al  Al103  1  0.75348681  0.63317187  0.63796176  1
  Al  Al104  1  0.25698337  0.36782316  0.13450373  1
  Al  Al105  1  0.24585145  0.36068933  0.63555685  1
  Al  Al106  1  0.25100578  0.86456170  0.13090157  1
  Al  Al107  1  0.24790106  0.87066044  0.63770430  1
  Al  Al108  1  0.74817460  0.36457855  0.13527179  1
  Al  Al109  1  0.75408914  0.36452679  0.62756033  1
  Al  Al110  1  0.74908396  0.86805766  0.13377931  1
  Al  Al111  1  0.75096879  0.86540489  0.63798814  1
  Al  Al112  1  0.25039725  0.12882889  0.36178895  1
  Al  Al113  1  0.24510694  0.13115097  0.85880921  1
  Al  Al114  1  0.24514568  0.63425184  0.36717854  1
  Al  Al115  1  0.25296078  0.64000097  0.86124158  1
  Al  Al116  1  0.75031207  0.13459799  0.36776370  1
  Al  Al117  1  0.75649780  0.12886578  0.86202712  1
  Al  Al118  1  0.74626208  0.63099475  0.36258302  1
  Al  Al119  1  0.75089770  0.63924467  0.87044613  1
  Al  Al120  1  0.24766583  0.36432310  0.36632565  1
  Al  Al121  1  0.24795238  0.35922143  0.86345059  1
  Al  Al122  1  0.24756526  0.86986413  0.36415301  1
  Al  Al123  1  0.24682901  0.86411165  0.86703235  1
  Al  Al124  1  0.74869165  0.36387991  0.36898146  1
  Al  Al125  1  0.75766727  0.36430734  0.86340210  1
  Al  Al126  1  0.74738812  0.86591731  0.36281549  1
  Al  Al127  1  0.74825981  0.86897202  0.86424004  1
  Al  Al128  1  0.13798866  0.25323408  0.13623201  1
  Al  Al129  1  0.12830574  0.24445019  0.63580465  1
  Al  Al130  1  0.13677374  0.75314304  0.13502199  1
  Al  Al131  1  0.13683614  0.75449461  0.62956583  1
  Al  Al132  1  0.63196106  0.24943368  0.13914750  1
  Al  Al133  1  0.64118911  0.25000029  0.62613096  1
  Al  Al134  1  0.63855150  0.74852247  0.13128631  1
  Al  Al135  1  0.63662801  0.74856244  0.63626085  1
  Al  Al136  1  0.13923307  0.24312521  0.36985711  1
  Al  Al137  1  0.12895152  0.24368148  0.86002995  1
  Al  Al138  1  0.13770355  0.75281822  0.37173896  1
  Al  Al139  1  0.12960996  0.75248911  0.86223381  1
  Al  Al140  1  0.63713408  0.24947386  0.36801860  1
  Al  Al141  1  0.63877892  0.24861819  0.86449419  1
  Al  Al142  1  0.63376891  0.74513569  0.36071971  1
  Al  Al143  1  0.63187613  0.74799964  0.86679279  1
  Al  Al144  1  0.37045479  0.25091915  0.13809935  1
  Al  Al145  1  0.36089700  0.24590160  0.63219852  1
  Al  Al146  1  0.36353143  0.75172326  0.13840426  1
  Al  Al147  1  0.36343931  0.75037983  0.63205806  1
  Al  Al148  1  0.86050035  0.24705508  0.12896510  1
  Al  Al149  1  0.86985835  0.25020517  0.63651693  1
  Al  Al150  1  0.86265396  0.74982542  0.13411272  1
  Al  Al151  1  0.86691134  0.74817499  0.63895115  1
  Al  Al152  1  0.36469552  0.24902529  0.36108585  1
  Al  Al153  1  0.36307516  0.24795620  0.86382256  1
  Al  Al154  1  0.36485637  0.74491931  0.36032897  1
  Al  Al155  1  0.37154661  0.75223871  0.86266122  1
  Al  Al156  1  0.86264957  0.24814557  0.36800256  1
  Al  Al157  1  0.86651915  0.24643369  0.86551627  1
  Al  Al158  1  0.86205803  0.75077816  0.36308045  1
  Al  Al159  1  0.86946309  0.75050626  0.86416600  1
  Al  Al160  1  0.13457546  0.13366407  0.24992228  1
  Al  Al161  1  0.12994207  0.13256625  0.74602982  1
  Al  Al162  1  0.13511075  0.63616590  0.25161450  1
  Al  Al163  1  0.13510323  0.63683911  0.75200752  1
  Al  Al164  1  0.63963861  0.12909096  0.24987473  1
  Al  Al165  1  0.63884750  0.13528570  0.74996224  1
  Al  Al166  1  0.63746038  0.63036674  0.24775488  1
  Al  Al167  1  0.62933023  0.63588023  0.74997107  1
  Al  Al168  1  0.36559935  0.13049791  0.24908962  1
  Al  Al169  1  0.36406074  0.13311667  0.74901793  1
  Al  Al170  1  0.36471421  0.63356017  0.24804493  1
  Al  Al171  1  0.37481798  0.64149612  0.74750507  1
  Al  Al172  1  0.86336553  0.13515486  0.24818480  1
  Al  Al173  1  0.86875719  0.13484802  0.74600719  1
  Al  Al174  1  0.86278302  0.63468062  0.24932630  1
  Al  Al175  1  0.86251843  0.63040749  0.75451746  1
  Al  Al176  1  0.13641799  0.36384410  0.25248571  1
  Al  Al177  1  0.13240991  0.36241973  0.74791277  1
  Al  Al178  1  0.12941473  0.86530654  0.25335783  1
  Al  Al179  1  0.13400205  0.86992279  0.74946570  1
  Al  Al180  1  0.63898381  0.37048022  0.25004929  1
  Al  Al181  1  0.63946109  0.36337432  0.74818869  1
  Al  Al182  1  0.63678768  0.86912187  0.24946623  1
  Al  Al183  1  0.63253032  0.86486939  0.75379488  1
  Al  Al184  1  0.36635895  0.36742869  0.24684994  1
  Al  Al185  1  0.36538162  0.36206720  0.75052058  1
  Al  Al186  1  0.36239032  0.87156186  0.25495269  1
  Al  Al187  1  0.36443208  0.86614071  0.75085304  1
  Al  Al188  1  0.86108762  0.36220687  0.25003822  1
  Al  Al189  1  0.86604664  0.36824943  0.74560507  1
  Al  Al190  1  0.86714806  0.86615252  0.24760941  1
  Al  Al191  1  0.86607604  0.86967052  0.75327116  1
  Al  Al192  1  0.81571615  0.00103895  0.31625164  1
  Al  Al193  1  0.30991316  0.50057232  0.30766151  1
  Al  Al194  1  -0.00137110  0.31757574  0.17470910  1
  Al  Al195  1  0.50263266  0.32809054  0.32069940  1
  Al  Al196  1  0.50208406  0.17173341  0.67775429  1
  Al  Al197  1  0.68255654  0.50118688  0.82957183  1
  Al  Al198  1  0.00028035  0.32380803  0.33323318  1
  Al  Al199  1  0.18454666  0.32723861  0.00099859  1
  Al  Al200  1  0.32296609  -0.00120303  0.82191203  1
  Al  Al201  1  0.67954394  0.50050143  0.67367812  1
  Al  Al202  1  0.33285801  0.33059060  0.49623934  1
  Al  Al203  1  0.68072520  0.17474365  0.00107224  1
  Al  Al204  1  0.50201263  0.17374675  0.32090620  1
  Al  Al205  1  0.32933703  0.49808266  0.83551857  1
  Al  Al206  1  0.50166083  0.32357244  0.82819940  1
  Al  Al207  1  0.82386411  0.81968263  0.50058153  1
  Al  Al208  1  0.32846809  0.50082033  0.67221926  1
  Al  Al209  1  0.81345295  0.50004598  0.17466278  1
  Al  Al210  1  0.50106749  0.67199457  0.18268646  1
  Al  Al211  1  0.81929106  0.82169287  0.00240198  1
  Al  Al212  1  0.68198117  0.67515021  0.49896484  1
  Al  Al213  1  0.16882705  0.17093120  -0.00247292  1
  Al  Al214  1  0.32596642  0.66959056  0.49619013  1
  Al  Al215  1  0.31401991  0.16968405  0.49816802  1
  Al  Al216  1  -0.00046746  0.67979107  0.32519448  1
  Al  Al217  1  0.50187382  0.82800470  0.17326508  1
  Al  Al218  1  0.16811713  0.31811219  0.50359063  1
  Al  Al219  1  0.67092510  0.82896454  0.49957424  1
  Al  Al220  1  0.49925735  0.80745369  0.69022803  1
  Al  Al221  1  0.50190949  0.32818624  0.67333338  1
  Al  Al222  1  0.67724345  -0.00224161  0.67541229  1
  Al  Al223  1  0.00168800  0.83074625  0.67664484  1
  Al  Al224  1  -0.00203316  0.31365342  0.81119756  1
  Al  Al225  1  -0.00054158  0.66856327  0.68451368  1
  Al  Al226  1  0.17265227  0.49937258  0.82559828  1
  Al  Al227  1  -0.00026684  0.17232347  0.32314729  1
  Al  Al228  1  0.67632741  0.32898709  -0.00114820  1
  Al  Al229  1  0.19013412  0.50023346  0.19014195  1
  Al  Al230  1  0.31306554  0.82819179  0.49966308  1
  Al  Al231  1  0.49965265  0.81670276  0.33230779  1
  Al  Al232  1  0.81823338  0.49828185  0.32568562  1
  Al  Al233  1  0.32332251  0.18721560  0.00133880  1
  Al  Al234  1  0.17098062  0.49940484  0.67235452  1
  Al  Al235  1  0.16811712  0.67589206  -0.00166113  1
  Al  Al236  1  0.17862699  0.00164469  0.17930132  1
  Al  Al237  1  0.00020142  0.67698468  0.17215894  1
  Al  Al238  1  0.32660931  0.67830130  0.00095628  1
  Au  Au239  1  0.34804644  0.33495260  0.49414213  1
  Au  Au240  1  0.66387000  -0.00035640  0.83218916  1
  Au  Au241  1  0.17002038  -0.00076050  0.17049118  1
  Au  Au242  1  0.00006003  0.82797207  0.34052091  1
  Au  Au243  1  0.17259009  0.65955619  -0.00291823  1
  Au  Au244  1  0.16153889  0.67247452  0.50153541  1
  Au  Au245  1  0.50115011  0.17552354  0.84574102  1
  Au  Au246  1  0.82960143  0.16348181  -0.00179576  1
  Au  Au247  1  -0.00295614  0.33938731  0.32742002  1
  Au  Au248  1  0.17585904  0.34227822  0.00166997  1
  Au  Au249  1  0.50159023  0.17717072  0.66146857  1
  Au  Au250  1  0.83211899  0.67015047  0.50245475  1
  Au  Au251  1  0.15497649  0.32787306  0.50453536  1
  Au  Au252  1  0.33784480  0.66775081  0.49303353  1
  Au  Au253  1  -0.00262457  0.82575944  0.16554945  1
  Au  Au254  1  0.17323801  0.49766236  0.18761324  1
  Au  Au255  1  0.50368093  0.16374893  0.17225030  1
  Au  Au256  1  0.32324701  0.50133459  0.65612173  1
  Au  Au257  1  0.32233158  0.00041645  0.66988906  1
  Au  Au258  1  0.82979113  0.49785261  0.33419892  1
  Au  Au259  1  0.00057269  0.82647341  0.83648113  1
  Au  Au260  1  0.84009990  0.00198105  0.82932146  1
  Au  Au261  1  0.83183497  0.50112493  0.82622840  1
  Au  Au262  1  0.66724530  0.50194470  0.67038717  1
  Au  Au263  1  0.32417224  0.49689262  0.85148944  1
  Au  Au264  1  0.00195951  0.83585344  0.66508313  1
  Au  Au265  1  0.83341510  0.00601053  0.66009794  1
  Au  Au266  1  0.32399027  0.15607926  0.49694935  1
  Au  Au267  1  0.00008247  0.32225534  0.82594672  1
  Au  Au268  1  -0.00263334  0.16765877  0.17031564  1
  Au  Au269  1  0.50001846  0.82954143  0.34229707  1
  Au  Au270  1  0.16987626  0.84134375  -0.00294331  1
  Au  Au271  1  -0.00281346  0.65348945  0.67824889  1
  Au  Au272  1  0.67927697  0.16503435  0.49612942  1
  Au  Au273  1  0.82590964  0.66584976  0.00101114  1
  Au  Au274  1  0.66834374  -0.00041260  0.66682782  1
  Au  Au275  1  0.50190525  0.67732320  0.82442403  1
  Au  Au276  1  0.82778385  0.83017236  -0.00031295  1
  Au  Au277  1  0.17194806  0.00187925  0.34270157  1
  Au  Au278  1  0.34148603  0.82593399  -0.00288085  1
  Au  Au279  1  0.32149798  0.84281474  0.50103572  1
  Au  Au280  1  0.82651904  0.33777266  0.00294691  1
  Au  Au281  1  0.66374252  0.82385674  -0.00233384  1
  Au  Au282  1  0.32062826  -0.00298146  0.83431452  1
  Au  Au283  1  0.50145862  0.34044193  0.17126810  1
  Au  Au284  1  0.33493663  -0.00064760  0.17586649  1
  Au  Au285  1  0.50322185  0.82447437  0.16111124  1
  Au  Au286  1  0.67414865  0.33336801  0.49619389  1
  Au  Au287  1  0.17336652  0.15461268  -0.00529429  1
