# generated using pymatgen
data_Ca24Ti8Al207Au49
_symmetry_space_group_name_H-M   'P 1'
_cell_length_a   17.32169642
_cell_length_b   17.32129792
_cell_length_c   17.32155277
_cell_angle_alpha   89.99518632
_cell_angle_beta   90.00245575
_cell_angle_gamma   90.00047196
_symmetry_Int_Tables_number   1
_chemical_formula_structural   Ca24Ti8Al207Au49
_chemical_formula_sum   'Ca24 Ti8 Al207 Au49'
_cell_volume   5197.05931582
_cell_formula_units_Z   1
loop_
 _symmetry_equiv_pos_site_id
 _symmetry_equiv_pos_as_xyz
  1  'x, y, z'
loop_
 _atom_site_type_symbol
 _atom_site_label
 _atom_site_symmetry_multiplicity
 _atom_site_fract_x
 _atom_site_fract_y
 _atom_site_fract_z
 _atom_site_occupancy
  Ca  Ca0  1  0.24468116  -0.00129363  -0.00134613  1
  Ca  Ca1  1  0.25252406  0.00084252  0.50065545  1
  Ca  Ca2  1  0.24749849  0.50218432  -0.00063043  1
  Ca  Ca3  1  0.24773969  0.49780979  0.49949998  1
  Ca  Ca4  1  0.75740653  0.00437757  0.00041322  1
  Ca  Ca5  1  0.75618075  0.00052042  0.49977008  1
  Ca  Ca6  1  0.75484470  0.49498145  0.00179477  1
  Ca  Ca7  1  0.75508533  0.49888161  0.49754454  1
  Ca  Ca8  1  -0.00042251  0.25383823  -0.00051113  1
  Ca  Ca9  1  0.00124616  0.25050123  0.49966985  1
  Ca  Ca10  1  -0.00129118  0.75022799  -0.00178780  1
  Ca  Ca11  1  -0.00054467  0.75250307  0.50004794  1
  Ca  Ca12  1  0.50365105  0.25451516  0.00199171  1
  Ca  Ca13  1  0.50032738  0.25173111  0.49423713  1
  Ca  Ca14  1  0.49958661  0.74993113  -0.00134314  1
  Ca  Ca15  1  0.50044029  0.75265671  0.49913231  1
  Ca  Ca16  1  -0.00306323  -0.00069658  0.24708014  1
  Ca  Ca17  1  -0.00354671  0.00008862  0.74866222  1
  Ca  Ca18  1  0.00101052  0.49674297  0.25049597  1
  Ca  Ca19  1  -0.00209658  0.50042698  0.75258953  1
  Ca  Ca20  1  0.49916881  -0.00054255  0.25214411  1
  Ca  Ca21  1  0.50547196  -0.00207788  0.74840747  1
  Ca  Ca22  1  0.49961234  0.50036677  0.25080730  1
  Ca  Ca23  1  0.49912622  0.49783174  0.75542860  1
  Ti  Ti24  1  0.24812406  0.24830930  0.25041641  1
  Ti  Ti25  1  0.25025844  0.25357869  0.74894917  1
  Ti  Ti26  1  0.25084249  0.75079854  0.24761172  1
  Ti  Ti27  1  0.24967097  0.74688784  0.75264394  1
  Ti  Ti28  1  0.75179957  0.25085385  0.25036267  1
  Ti  Ti29  1  0.75037141  0.25051963  0.75067849  1
  Ti  Ti30  1  0.74878574  0.75057469  0.25007957  1
  Ti  Ti31  1  0.75139428  0.75041472  0.75231400  1
  Al  Al32  1  0.07220530  0.08137574  0.09120300  1
  Al  Al33  1  0.08103936  0.08846423  0.59130400  1
  Al  Al34  1  0.08410042  0.57649301  0.07671185  1
  Al  Al35  1  0.07542028  0.58581448  0.58760240  1
  Al  Al36  1  0.57986280  0.08721218  0.07638499  1
  Al  Al37  1  0.58456379  0.07769616  0.58408129  1
  Al  Al38  1  0.58120847  0.58273160  0.08070200  1
  Al  Al39  1  0.57858033  0.58004222  0.58033497  1
  Al  Al40  1  0.41933468  0.40906960  0.08018994  1
  Al  Al41  1  0.41706623  0.41724076  0.57769880  1
  Al  Al42  1  0.41823118  0.91187116  0.08467105  1
  Al  Al43  1  0.42701981  0.92174934  0.57959159  1
  Al  Al44  1  0.91767715  0.39960029  0.08411715  1
  Al  Al45  1  0.91293247  0.41667240  0.58831446  1
  Al  Al46  1  0.91584364  0.90636896  0.09027757  1
  Al  Al47  1  0.90986528  0.91619395  0.57433820  1
  Al  Al48  1  0.41482143  0.10306972  0.41461294  1
  Al  Al49  1  0.42481011  0.07920431  0.91969666  1
  Al  Al50  1  0.41911946  0.57953916  0.40727906  1
  Al  Al51  1  0.41694817  0.58661344  0.91087418  1
  Al  Al52  1  0.91299837  0.07917262  0.40413242  1
  Al  Al53  1  0.91752433  0.08900276  0.91851592  1
  Al  Al54  1  0.92041235  0.57329593  0.42515864  1
  Al  Al55  1  0.91883800  0.59144606  0.90956771  1
  Al  Al56  1  0.08304209  0.41189468  0.39865750  1
  Al  Al57  1  0.08612108  0.42838715  0.91592089  1
  Al  Al58  1  0.06968710  0.92016551  0.42046251  1
  Al  Al59  1  0.08488867  0.90837937  0.92487716  1
  Al  Al60  1  0.57817927  0.41244731  0.40954236  1
  Al  Al61  1  0.58520527  0.41155020  0.92809561  1
  Al  Al62  1  0.58136670  0.91749192  0.41999499  1
  Al  Al63  1  0.58926407  0.91898249  0.91014330  1
  Al  Al64  1  0.07590261  0.08699204  0.41810225  1
  Al  Al65  1  0.07385020  0.08074827  0.91602313  1
  Al  Al66  1  0.09037987  0.57076176  0.41402890  1
  Al  Al67  1  0.08309398  0.58975750  0.90861913  1
  Al  Al68  1  0.57500460  0.09045170  0.41251888  1
  Al  Al69  1  0.59413650  0.07991907  0.91519868  1
  Al  Al70  1  0.57531395  0.58508422  0.40617874  1
  Al  Al71  1  0.57567116  0.59089974  0.91633630  1
  Al  Al72  1  0.41724005  0.41246867  0.40709835  1
  Al  Al73  1  0.40832599  0.41486642  0.92294558  1
  Al  Al74  1  0.42120539  0.91946016  0.41905767  1
  Al  Al75  1  0.41950238  0.91387972  0.91924115  1
  Al  Al76  1  0.92167610  0.41078402  0.41407727  1
  Al  Al77  1  0.91215691  0.41885385  0.92370590  1
  Al  Al78  1  0.90692648  0.91492298  0.40929746  1
  Al  Al79  1  0.91462855  0.90764759  0.92630244  1
  Al  Al80  1  0.07953811  0.41156932  0.09316851  1
  Al  Al81  1  0.07484040  0.41974839  0.58492558  1
  Al  Al82  1  0.07957571  0.90746191  0.08727306  1
  Al  Al83  1  0.07892632  0.92536957  0.58164115  1
  Al  Al84  1  0.58376023  0.40676198  0.08405660  1
  Al  Al85  1  0.58086236  0.41876919  0.57634416  1
  Al  Al86  1  0.57744256  0.91130265  0.08069544  1
  Al  Al87  1  0.58898305  0.91920710  0.58946306  1
  Al  Al88  1  0.41948088  0.08124658  0.08460821  1
  Al  Al89  1  0.41366754  0.08736713  0.57210080  1
  Al  Al90  1  0.42009699  0.58288268  0.07833403  1
  Al  Al91  1  0.41918268  0.57923765  0.58209824  1
  Al  Al92  1  0.91570690  0.09091679  0.08993970  1
  Al  Al93  1  0.92099381  0.08477712  0.58899204  1
  Al  Al94  1  0.91433235  0.58962923  0.07030469  1
  Al  Al95  1  0.91423980  0.58152297  0.59714565  1
  Al  Al96  1  0.25185636  0.13673571  0.13636824  1
  Al  Al97  1  0.24997204  0.13706254  0.63292631  1
  Al  Al98  1  0.24890376  0.63655730  0.13598352  1
  Al  Al99  1  0.24649319  0.62617497  0.64243989  1
  Al  Al100  1  0.75226565  0.13996864  0.13758374  1
  Al  Al101  1  0.74504013  0.13352079  0.63420091  1
  Al  Al102  1  0.75276920  0.63523239  0.13430658  1
  Al  Al103  1  0.75507204  0.63508839  0.63786187  1
  Al  Al104  1  0.24628354  0.36028921  0.13187824  1
  Al  Al105  1  0.24974706  0.37008897  0.63367963  1
  Al  Al106  1  0.25062526  0.86358404  0.12942852  1
  Al  Al107  1  0.25012236  0.86285678  0.63894693  1
  Al  Al108  1  0.75133299  0.36288893  0.13167859  1
  Al  Al109  1  0.75341797  0.36492444  0.63583827  1
  Al  Al110  1  0.75205620  0.86248235  0.13003840  1
  Al  Al111  1  0.74945526  0.86580915  0.63556195  1
  Al  Al112  1  0.24989652  0.13900202  0.37117686  1
  Al  Al113  1  0.24830123  0.13893530  0.86704632  1
  Al  Al114  1  0.24871164  0.63633159  0.35994049  1
  Al  Al115  1  0.25001939  0.62831338  0.86522466  1
  Al  Al116  1  0.75951912  0.13899344  0.36557758  1
  Al  Al117  1  0.75225845  0.13796655  0.86531629  1
  Al  Al118  1  0.74595871  0.63695732  0.36618197  1
  Al  Al119  1  0.75683628  0.63675289  0.86862485  1
  Al  Al120  1  0.24662666  0.36235636  0.36480905  1
  Al  Al121  1  0.24947236  0.36852987  0.86706542  1
  Al  Al122  1  0.25230076  0.86573635  0.36294233  1
  Al  Al123  1  0.24650514  0.85946041  0.87239145  1
  Al  Al124  1  0.75052914  0.36281251  0.36242339  1
  Al  Al125  1  0.75049957  0.36248141  0.86879570  1
  Al  Al126  1  0.75596668  0.86581318  0.36781794  1
  Al  Al127  1  0.75315044  0.85997033  0.87031457  1
  Al  Al128  1  0.12876731  0.25196537  0.13589706  1
  Al  Al129  1  0.13574215  0.24880866  0.63413763  1
  Al  Al130  1  0.13260024  0.75637000  0.13078018  1
  Al  Al131  1  0.13723889  0.74819974  0.63890197  1
  Al  Al132  1  0.63461456  0.25121403  0.13705780  1
  Al  Al133  1  0.63345882  0.25352079  0.63413061  1
  Al  Al134  1  0.63437223  0.74927300  0.13330951  1
  Al  Al135  1  0.63724304  0.74661199  0.63496240  1
  Al  Al136  1  0.12690570  0.24828646  0.36442362  1
  Al  Al137  1  0.13675348  0.25531279  0.86755201  1
  Al  Al138  1  0.13737437  0.75208831  0.36295537  1
  Al  Al139  1  0.13149614  0.74421204  0.86470434  1
  Al  Al140  1  0.63279679  0.25255415  0.36415015  1
  Al  Al141  1  0.63183900  0.25307616  0.86512261  1
  Al  Al142  1  0.63138739  0.75129180  0.36510543  1
  Al  Al143  1  0.63131166  0.74957969  0.86607390  1
  Al  Al144  1  0.36608045  0.25137914  0.13684507  1
  Al  Al145  1  0.36297363  0.25136015  0.62883242  1
  Al  Al146  1  0.36477122  0.74820745  0.12833557  1
  Al  Al147  1  0.36369070  0.74492001  0.63949045  1
  Al  Al148  1  0.87070087  0.25266627  0.13684769  1
  Al  Al149  1  0.86452081  0.24548408  0.63500438  1
  Al  Al150  1  0.86603605  0.75373565  0.13288927  1
  Al  Al151  1  0.86472193  0.75355038  0.63514695  1
  Al  Al152  1  0.36476956  0.25015410  0.36671656  1
  Al  Al153  1  0.36757347  0.25678413  0.86390737  1
  Al  Al154  1  0.37088011  0.75077641  0.35898679  1
  Al  Al155  1  0.36729472  0.74738415  0.86803098  1
  Al  Al156  1  0.87545242  0.25181078  0.36131378  1
  Al  Al157  1  0.86552472  0.25417120  0.86520738  1
  Al  Al158  1  0.86499512  0.75247762  0.36771965  1
  Al  Al159  1  0.86822465  0.74567930  0.86908395  1
  Al  Al160  1  0.12883447  0.13641405  0.24962472  1
  Al  Al161  1  0.13717807  0.13782844  0.75035814  1
  Al  Al162  1  0.13240383  0.63705508  0.24838712  1
  Al  Al163  1  0.13343791  0.62795756  0.75561772  1
  Al  Al164  1  0.63349882  0.13833467  0.25861788  1
  Al  Al165  1  0.63512099  0.13702169  0.75013438  1
  Al  Al166  1  0.63302963  0.63308070  0.24748494  1
  Al  Al167  1  0.63761382  0.63391571  0.75561103  1
  Al  Al168  1  0.36504035  0.13338555  0.25471913  1
  Al  Al169  1  0.36528094  0.14084878  0.75162554  1
  Al  Al170  1  0.37116586  0.63786220  0.24892969  1
  Al  Al171  1  0.36363042  0.62769594  0.75484795  1
  Al  Al172  1  0.87280202  0.13890857  0.24729940  1
  Al  Al173  1  0.86453960  0.13280833  0.74783704  1
  Al  Al174  1  0.86388579  0.63854354  0.25125904  1
  Al  Al175  1  0.86600531  0.63658892  0.75229766  1
  Al  Al176  1  0.13184541  0.36201842  0.25073882  1
  Al  Al177  1  0.13708651  0.37028664  0.74993344  1
  Al  Al178  1  0.13375932  0.86378836  0.24483616  1
  Al  Al179  1  0.13425766  0.86302722  0.75494878  1
  Al  Al180  1  0.63852830  0.36984051  0.24943027  1
  Al  Al181  1  0.62998025  0.36403780  0.75120033  1
  Al  Al182  1  0.63669480  0.86509809  0.25517212  1
  Al  Al183  1  0.63750531  0.86213242  0.75248675  1
  Al  Al184  1  0.36346070  0.36139690  0.25458820  1
  Al  Al185  1  0.36676783  0.36972813  0.75013499  1
  Al  Al186  1  0.36271318  0.87119913  0.24867724  1
  Al  Al187  1  0.36407492  0.86089848  0.75612863  1
  Al  Al188  1  0.87002789  0.36349745  0.24912919  1
  Al  Al189  1  0.86384034  0.36550735  0.74799017  1
  Al  Al190  1  0.86338337  0.86405549  0.24766512  1
  Al  Al191  1  0.86541438  0.86561201  0.75395760  1
  Al  Al192  1  0.31988208  0.00047085  0.82825001  1
  Al  Al193  1  0.17103444  0.67313653  0.50146996  1
  Al  Al194  1  0.68192537  0.82412140  0.50166878  1
  Al  Al195  1  0.67701015  0.17586740  0.50039185  1
  Al  Al196  1  -0.00133760  0.82535047  0.31387008  1
  Al  Al197  1  0.67020782  0.00034789  0.17205280  1
  Al  Al198  1  0.17424376  0.32405599  0.49889047  1
  Al  Al199  1  0.50056434  0.82429333  0.68170612  1
  Al  Al200  1  0.49991704  0.32663175  0.18939527  1
  Al  Al201  1  0.67466074  0.49853684  0.82938681  1
  Al  Al202  1  0.32759251  0.49831490  0.17761507  1
  Al  Al203  1  0.49658364  0.17544546  0.67453448  1
  Al  Al204  1  0.17470681  0.00004334  0.68066032  1
  Al  Al205  1  0.49921528  0.81754299  0.18396781  1
  Al  Al206  1  0.50059625  0.17348193  0.18513552  1
  Al  Al207  1  0.17661361  -0.00024820  0.17155381  1
  Al  Al208  1  0.17108373  0.82988563  0.50030977  1
  Al  Al209  1  0.68861954  0.00231930  0.33212923  1
  Al  Al210  1  0.82726903  0.00085443  0.18272874  1
  Al  Al211  1  0.32231264  0.67097500  0.49931552  1
  Al  Al212  1  0.82831269  0.18736747  0.00193139  1
  Al  Al213  1  0.00194281  0.67002445  0.32824108  1
  Al  Al214  1  0.82717395  0.49909279  0.17079561  1
  Al  Al215  1  0.00037375  0.68434579  0.69301334  1
  Al  Al216  1  0.68552446  0.49930210  0.67344755  1
  Al  Al217  1  -0.00030193  0.31291718  0.67806323  1
  Al  Al218  1  0.17259388  0.49912941  0.18674344  1
  Al  Al219  1  0.32568795  0.82848796  0.50243826  1
  Al  Al220  1  0.68511544  0.68188146  -0.00063307  1
  Al  Al221  1  0.17548926  -0.00005450  0.32822197  1
  Al  Al222  1  0.00087728  0.33300394  0.82988855  1
  Al  Al223  1  0.82294106  0.31977438  0.49876498  1
  Al  Al224  1  0.68757513  -0.00038242  0.80702394  1
  Al  Al225  1  0.82348693  0.68172884  0.50155364  1
  Al  Al226  1  0.82257033  0.49976742  0.32563651  1
  Al  Al227  1  0.00007549  0.18036845  0.81239460  1
  Al  Al228  1  0.82075472  -0.00042021  0.67926982  1
  Al  Al229  1  0.16863646  0.17773687  0.00453545  1
  Al  Al230  1  -0.00068433  0.82004882  0.82159696  1
  Al  Al231  1  0.82751635  0.49993889  0.81842773  1
  Al  Al232  1  0.32903000  0.00027551  0.67017725  1
  Al  Al233  1  0.31276687  0.49956790  0.32603978  1
  Al  Al234  1  0.67691678  0.18518999  -0.00016759  1
  Al  Al235  1  0.32785380  0.18649731  -0.00161866  1
  Al  Al236  1  0.17863279  0.68186159  -0.00041186  1
  Al  Al237  1  0.50016885  0.66628603  0.69086097  1
  Al  Al238  1  -0.00082909  0.68353512  0.17085458  1
  Au  Au239  1  0.67165179  0.00390967  0.33466303  1
  Au  Au240  1  0.66779482  0.16768572  0.49814899  1
  Au  Au241  1  0.32722054  0.66828240  -0.00285796  1
  Au  Au242  1  0.84220412  0.17025674  0.49818207  1
  Au  Au243  1  0.16279601  0.33553072  0.49869120  1
  Au  Au244  1  0.84292988  0.49877361  0.16696361  1
  Au  Au245  1  -0.00112902  0.82861279  0.65822073  1
  Au  Au246  1  0.32845855  0.49729537  0.66638276  1
  Au  Au247  1  0.15683438  -0.00292393  0.82911040  1
  Au  Au248  1  0.68047012  0.50088427  0.65706785  1
  Au  Au249  1  0.67186025  0.49923084  0.84506111  1
  Au  Au250  1  0.33631357  0.67517714  0.49104403  1
  Au  Au251  1  0.49839440  0.16649784  0.66604758  1
  Au  Au252  1  0.67879507  0.83953128  -0.00117902  1
  Au  Au253  1  0.65787955  0.66890188  0.49434201  1
  Au  Au254  1  0.32461148  0.49798004  0.83615774  1
  Au  Au255  1  -0.00023365  0.81644305  0.83390701  1
  Au  Au256  1  0.32264914  0.83377071  0.00031866  1
  Au  Au257  1  0.83437314  0.66902327  0.50326229  1
  Au  Au258  1  0.17415300  0.16049504  0.50254050  1
  Au  Au259  1  0.50032859  0.67218669  0.67445131  1
  Au  Au260  1  0.50202384  0.82502647  0.83332907  1
  Au  Au261  1  0.81822137  0.00135990  0.66691116  1
  Au  Au262  1  0.15725458  0.16630180  0.00435144  1
  Au  Au263  1  0.33947287  0.00590748  0.33509800  1
  Au  Au264  1  0.17242481  0.34358248  -0.00044083  1
  Au  Au265  1  0.15965248  0.50084802  0.67589846  1
  Au  Au266  1  0.33867455  0.32298335  0.49586251  1
  Au  Au267  1  0.15981404  -0.00418694  0.32678152  1
  Au  Au268  1  0.34209831  0.17705610  -0.00203034  1
  Au  Au269  1  0.49812591  0.33353762  0.83990163  1
  Au  Au270  1  0.32608507  -0.00146500  0.16190585  1
  Au  Au271  1  0.83029328  -0.00233947  0.84261690  1
  Au  Au272  1  0.67700969  0.00055240  0.15672895  1
  Au  Au273  1  0.67146210  0.50066073  0.33558495  1
  Au  Au274  1  0.49963877  0.33300529  0.66781997  1
  Au  Au275  1  0.50590135  0.16442606  0.83012146  1
  Au  Au276  1  0.67156124  0.33257534  0.49566725  1
  Au  Au277  1  0.33605987  0.00036585  0.82264822  1
  Au  Au278  1  0.49918997  0.82629542  0.33176083  1
  Au  Au279  1  0.32528604  0.49281793  0.16238517  1
  Au  Au280  1  -0.00066501  0.17362916  0.32332474  1
  Au  Au281  1  0.67722060  0.66686776  -0.00080241  1
  Au  Au282  1  0.66403972  0.49701463  0.16609901  1
  Au  Au283  1  0.67459438  0.83585483  0.50146813  1
  Au  Au284  1  0.00481378  0.66820832  0.34019934  1
  Au  Au285  1  0.50286180  0.17414904  0.17224688  1
  Au  Au286  1  0.50038091  0.66975318  0.17298567  1
  Au  Au287  1  0.00111856  0.67499223  0.15727866  1
