# generated using pymatgen
data_Ca24Ti8Al207Au49
_symmetry_space_group_name_H-M   'P 1'
_cell_length_a   17.31719389
_cell_length_b   17.31626507
_cell_length_c   17.31750638
_cell_angle_alpha   89.99536732
_cell_angle_beta   90.00551588
_cell_angle_gamma   89.99712140
_symmetry_Int_Tables_number   1
_chemical_formula_structural   Ca24Ti8Al207Au49
_chemical_formula_sum   'Ca24 Ti8 Al207 Au49'
_cell_volume   5192.98534627
_cell_formula_units_Z   1
loop_
 _symmetry_equiv_pos_site_id
 _symmetry_equiv_pos_as_xyz
  1  'x, y, z'
loop_
 _atom_site_type_symbol
 _atom_site_label
 _atom_site_symmetry_multiplicity
 _atom_site_fract_x
 _atom_site_fract_y
 _atom_site_fract_z
 _atom_site_occupancy
  Ca  Ca0  1  0.24424860  -0.00283849  0.00275199  1
  Ca  Ca1  1  0.25772880  0.00733860  0.49992398  1
  Ca  Ca2  1  0.24969980  0.50253605  0.00256813  1
  Ca  Ca3  1  0.25406358  0.49437730  0.49733069  1
  Ca  Ca4  1  0.74903019  -0.00004992  0.00324933  1
  Ca  Ca5  1  0.74407533  0.00578875  0.49781804  1
  Ca  Ca6  1  0.74164232  0.49994968  0.00422472  1
  Ca  Ca7  1  0.74298513  0.49744986  0.49691090  1
  Ca  Ca8  1  -0.00016934  0.24810468  0.00524484  1
  Ca  Ca9  1  0.00180606  0.24854013  0.49558658  1
  Ca  Ca10  1  0.00259825  0.75122475  0.00725056  1
  Ca  Ca11  1  -0.00080336  0.75223707  0.49549848  1
  Ca  Ca12  1  0.50345914  0.25546213  0.00147457  1
  Ca  Ca13  1  0.49908668  0.24929155  0.49834912  1
  Ca  Ca14  1  0.50084656  0.74581070  0.00357666  1
  Ca  Ca15  1  0.50119949  0.75169296  0.49506793  1
  Ca  Ca16  1  -0.00048881  0.00547221  0.24455303  1
  Ca  Ca17  1  0.00246467  0.00596226  0.75073476  1
  Ca  Ca18  1  0.00133962  0.49680230  0.25000551  1
  Ca  Ca19  1  0.00328948  0.49664088  0.75102898  1
  Ca  Ca20  1  0.50334817  -0.00205965  0.25416103  1
  Ca  Ca21  1  0.50030946  -0.00071275  0.74330794  1
  Ca  Ca22  1  0.49944366  0.49945342  0.24947315  1
  Ca  Ca23  1  0.49221077  0.50225269  0.75020463  1
  Ti  Ti24  1  0.24849266  0.25060350  0.25033323  1
  Ti  Ti25  1  0.25030742  0.24955293  0.74888518  1
  Ti  Ti26  1  0.25172975  0.74790067  0.24910061  1
  Ti  Ti27  1  0.24989946  0.74954951  0.75148739  1
  Ti  Ti28  1  0.75008298  0.24873375  0.24982114  1
  Ti  Ti29  1  0.74933529  0.24961855  0.74978715  1
  Ti  Ti30  1  0.74767302  0.75136416  0.24876546  1
  Ti  Ti31  1  0.74673249  0.75006625  0.75313528  1
  Al  Al32  1  0.08436735  0.08097166  0.09126049  1
  Al  Al33  1  0.08862594  0.08952528  0.57767900  1
  Al  Al34  1  0.08689433  0.58781147  0.09809156  1
  Al  Al35  1  0.09064727  0.56446420  0.58007233  1
  Al  Al36  1  0.59674602  0.07514486  0.08482579  1
  Al  Al37  1  0.58418565  0.09573158  0.58354295  1
  Al  Al38  1  0.58393368  0.57753722  0.08839774  1
  Al  Al39  1  0.57063590  0.58354417  0.57880007  1
  Al  Al40  1  0.42353628  0.42228683  0.08336938  1
  Al  Al41  1  0.40174723  0.41359333  0.58356677  1
  Al  Al42  1  0.42166946  0.91652223  0.08642922  1
  Al  Al43  1  0.41479618  0.92911885  0.57650988  1
  Al  Al44  1  0.91546751  0.41123733  0.08178423  1
  Al  Al45  1  0.92545268  0.41299000  0.57048704  1
  Al  Al46  1  0.91646272  0.91706385  0.08646822  1
  Al  Al47  1  0.92015164  0.93005074  0.57124721  1
  Al  Al48  1  0.42718675  0.07882722  0.42746928  1
  Al  Al49  1  0.41893707  0.07846919  0.92037818  1
  Al  Al50  1  0.41297765  0.58013739  0.40245187  1
  Al  Al51  1  0.41674467  0.59292499  0.90435135  1
  Al  Al52  1  0.90060228  0.09077110  0.41071590  1
  Al  Al53  1  0.91686079  0.08230344  0.92510062  1
  Al  Al54  1  0.91865288  0.58091600  0.41434486  1
  Al  Al55  1  0.91755326  0.57721313  0.93316007  1
  Al  Al56  1  0.08943631  0.40337534  0.41355189  1
  Al  Al57  1  0.08478025  0.42031428  0.91798687  1
  Al  Al58  1  0.07771378  0.93106902  0.41870620  1
  Al  Al59  1  0.08430876  0.90958800  0.92958390  1
  Al  Al60  1  0.58219287  0.41576882  0.41731141  1
  Al  Al61  1  0.59161751  0.42333194  0.92366133  1
  Al  Al62  1  0.58826643  0.90463328  0.41095826  1
  Al  Al63  1  0.58634396  0.90597344  0.92399311  1
  Al  Al64  1  0.08487473  0.09077449  0.41476758  1
  Al  Al65  1  0.07880635  0.07845880  0.92601317  1
  Al  Al66  1  0.08303871  0.57289901  0.41522383  1
  Al  Al67  1  0.08939711  0.57841274  0.92559896  1
  Al  Al68  1  0.59038908  0.08796876  0.42018526  1
  Al  Al69  1  0.58757484  0.08313557  0.92445830  1
  Al  Al70  1  0.57399792  0.59097830  0.40466017  1
  Al  Al71  1  0.58076054  0.58535819  0.90806557  1
  Al  Al72  1  0.40598244  0.41650334  0.41805652  1
  Al  Al73  1  0.41195657  0.43436413  0.91549361  1
  Al  Al74  1  0.42666279  0.90891682  0.41430464  1
  Al  Al75  1  0.42453416  0.91574187  0.91649483  1
  Al  Al76  1  0.92599196  0.40559586  0.40918414  1
  Al  Al77  1  0.91350869  0.41107192  0.92568933  1
  Al  Al78  1  0.90356298  0.93168073  0.40827692  1
  Al  Al79  1  0.92010504  0.91700630  0.92611663  1
  Al  Al80  1  0.08750695  0.42462628  0.09167686  1
  Al  Al81  1  0.10407429  0.40728861  0.57662930  1
  Al  Al82  1  0.08964306  0.91609949  0.08928655  1
  Al  Al83  1  0.08378171  0.93060788  0.58177859  1
  Al  Al84  1  0.58991316  0.41385281  0.08675775  1
  Al  Al85  1  0.57927107  0.41506348  0.57754583  1
  Al  Al86  1  0.59434578  0.91168766  0.08816921  1
  Al  Al87  1  0.58720605  0.91938525  0.57055038  1
  Al  Al88  1  0.41526759  0.07613642  0.08144224  1
  Al  Al89  1  0.41961071  0.09086495  0.59189066  1
  Al  Al90  1  0.41939213  0.58349234  0.08307193  1
  Al  Al91  1  0.41058419  0.57746597  0.59291958  1
  Al  Al92  1  0.92031961  0.08829891  0.09232545  1
  Al  Al93  1  0.90461312  0.09218989  0.57113619  1
  Al  Al94  1  0.92419513  0.59218034  0.09319226  1
  Al  Al95  1  0.92304555  0.57482615  0.56624003  1
  Al  Al96  1  0.24718331  0.12765131  0.14023065  1
  Al  Al97  1  0.25140673  0.13543620  0.63296018  1
  Al  Al98  1  0.24998092  0.62692334  0.13845492  1
  Al  Al99  1  0.25542540  0.62957661  0.63173268  1
  Al  Al100  1  0.75302671  0.12708956  0.13920766  1
  Al  Al101  1  0.74622506  0.13981469  0.62831876  1
  Al  Al102  1  0.74404619  0.63480750  0.13065914  1
  Al  Al103  1  0.74430779  0.63488032  0.63662063  1
  Al  Al104  1  0.25047810  0.37278004  0.13883411  1
  Al  Al105  1  0.25281780  0.35993273  0.62849835  1
  Al  Al106  1  0.24983894  0.86698677  0.13412527  1
  Al  Al107  1  0.25092078  0.87138008  0.63527942  1
  Al  Al108  1  0.74675811  0.36684230  0.13776838  1
  Al  Al109  1  0.74922938  0.36038944  0.63439358  1
  Al  Al110  1  0.74646173  0.87229609  0.13666318  1
  Al  Al111  1  0.74480059  0.86497714  0.63356997  1
  Al  Al112  1  0.24749181  0.13792723  0.36379917  1
  Al  Al113  1  0.25185971  0.13096803  0.86232313  1
  Al  Al114  1  0.25298268  0.62374190  0.36281842  1
  Al  Al115  1  0.25023555  0.62788079  0.86510088  1
  Al  Al116  1  0.74977678  0.13187549  0.36428312  1
  Al  Al117  1  0.74746253  0.13236509  0.86453832  1
  Al  Al118  1  0.74659808  0.63043723  0.36156267  1
  Al  Al119  1  0.74458529  0.63376628  0.87448091  1
  Al  Al120  1  0.24677185  0.36656386  0.36664958  1
  Al  Al121  1  0.25433867  0.37138997  0.85988876  1
  Al  Al122  1  0.24906993  0.86772141  0.36123360  1
  Al  Al123  1  0.24584209  0.86512193  0.86851743  1
  Al  Al124  1  0.74967822  0.36785582  0.36321076  1
  Al  Al125  1  0.74540280  0.36594520  0.86466839  1
  Al  Al126  1  0.74593542  0.87007924  0.36472739  1
  Al  Al127  1  0.74413970  0.86523614  0.87114488  1
  Al  Al128  1  0.13550919  0.24833765  0.13802698  1
  Al  Al129  1  0.13279786  0.25135663  0.63549197  1
  Al  Al130  1  0.13932244  0.74748778  0.13484353  1
  Al  Al131  1  0.14185731  0.74612387  0.63813454  1
  Al  Al132  1  0.63763883  0.25253005  0.13769322  1
  Al  Al133  1  0.62732645  0.24824367  0.63561273  1
  Al  Al134  1  0.63608370  0.75205923  0.13146025  1
  Al  Al135  1  0.63466240  0.74967894  0.63647093  1
  Al  Al136  1  0.12780655  0.25328963  0.35993560  1
  Al  Al137  1  0.13923080  0.25079820  0.86554529  1
  Al  Al138  1  0.14025189  0.74011679  0.36011751  1
  Al  Al139  1  0.13930329  0.74622265  0.87270224  1
  Al  Al140  1  0.63733037  0.24872512  0.36154406  1
  Al  Al141  1  0.63368688  0.25247703  0.86768072  1
  Al  Al142  1  0.63241073  0.75313696  0.36052720  1
  Al  Al143  1  0.63454872  0.74677534  0.87391595  1
  Al  Al144  1  0.35847863  0.25030718  0.13744048  1
  Al  Al145  1  0.36863075  0.25100655  0.63501438  1
  Al  Al146  1  0.36466993  0.75017166  0.13840840  1
  Al  Al147  1  0.36191745  0.74583109  0.63568202  1
  Al  Al148  1  0.86472394  0.24766512  0.13927402  1
  Al  Al149  1  0.86950804  0.24696036  0.63434540  1
  Al  Al150  1  0.86062782  0.75141004  0.13905452  1
  Al  Al151  1  0.86218893  0.74899255  0.63531604  1
  Al  Al152  1  0.36232582  0.25870171  0.36546520  1
  Al  Al153  1  0.36375418  0.24587249  0.86205868  1
  Al  Al154  1  0.36810186  0.74525451  0.36011811  1
  Al  Al155  1  0.36399611  0.74746634  0.86467495  1
  Al  Al156  1  0.86826746  0.24619518  0.35997933  1
  Al  Al157  1  0.86252593  0.25157727  0.86638685  1
  Al  Al158  1  0.86024209  0.75002372  0.36174644  1
  Al  Al159  1  0.86050237  0.74862542  0.86876396  1
  Al  Al160  1  0.12709714  0.13480676  0.25013693  1
  Al  Al161  1  0.13556637  0.13221414  0.74753505  1
  Al  Al162  1  0.13703595  0.62542520  0.24760996  1
  Al  Al163  1  0.13770076  0.63210334  0.75158319  1
  Al  Al164  1  0.63890321  0.12742846  0.25099788  1
  Al  Al165  1  0.63492535  0.13743241  0.74750767  1
  Al  Al166  1  0.63566759  0.63344734  0.24989916  1
  Al  Al167  1  0.63251576  0.63439387  0.75938321  1
  Al  Al168  1  0.36330703  0.13039125  0.25102891  1
  Al  Al169  1  0.36778623  0.13215427  0.74142822  1
  Al  Al170  1  0.36583975  0.62703280  0.25158372  1
  Al  Al171  1  0.36202056  0.63040546  0.75296204  1
  Al  Al172  1  0.86671470  0.12966333  0.25167355  1
  Al  Al173  1  0.86505150  0.13653653  0.74983037  1
  Al  Al174  1  0.86283503  0.63370312  0.24699946  1
  Al  Al175  1  0.85890248  0.63460874  0.75535029  1
  Al  Al176  1  0.13563503  0.37074836  0.25071773  1
  Al  Al177  1  0.13292233  0.36370246  0.75022685  1
  Al  Al178  1  0.13637885  0.86935486  0.24499247  1
  Al  Al179  1  0.13812033  0.87015498  0.74803972  1
  Al  Al180  1  0.63565006  0.36990450  0.25143214  1
  Al  Al181  1  0.63371108  0.36443456  0.74904304  1
  Al  Al182  1  0.63648192  0.87230013  0.25096945  1
  Al  Al183  1  0.63552255  0.86403256  0.75533896  1
  Al  Al184  1  0.36073319  0.37423903  0.25381127  1
  Al  Al185  1  0.36526193  0.36717120  0.74513530  1
  Al  Al186  1  0.36579471  0.86791353  0.25229955  1
  Al  Al187  1  0.36345899  0.86293897  0.74904285  1
  Al  Al188  1  0.86649784  0.36560565  0.25245695  1
  Al  Al189  1  0.86950888  0.36173489  0.74834536  1
  Al  Al190  1  0.85886149  0.87222256  0.24964877  1
  Al  Al191  1  0.85914985  0.86152186  0.75109018  1
  Al  Al192  1  0.32963624  0.32246163  -0.00086022  1
  Al  Al193  1  0.66767958  0.50229205  0.68325776  1
  Al  Al194  1  0.81781810  0.49873348  0.83030503  1
  Al  Al195  1  -0.00193221  0.83297513  0.67073177  1
  Al  Al196  1  0.82923603  0.49894124  0.67230552  1
  Al  Al197  1  0.00163614  0.82461987  0.82871817  1
  Al  Al198  1  0.00078718  0.67276356  0.30940664  1
  Al  Al199  1  0.18228461  0.66888194  0.49934703  1
  Al  Al200  1  0.50049119  0.81008854  0.82462021  1
  Al  Al201  1  0.49902824  0.33377915  0.82647490  1
  Al  Al202  1  0.32274606  -0.00218435  0.81404161  1
  Al  Al203  1  0.00128801  0.66798031  0.66757419  1
  Al  Al204  1  0.49826432  0.32609921  0.18271966  1
  Al  Al205  1  0.67388374  0.31266825  0.49961495  1
  Al  Al206  1  0.82910502  0.30665766  0.49661046  1
  Al  Al207  1  0.32681109  0.82047548  0.49816227  1
  Al  Al208  1  0.49903627  0.82641915  0.67368285  1
  Al  Al209  1  0.19298035  0.49534957  0.68198879  1
  Al  Al210  1  0.81855574  0.50023882  0.17639218  1
  Al  Al211  1  0.50048962  0.67382253  0.18452285  1
  Al  Al212  1  0.49912728  0.18033808  0.32651298  1
  Al  Al213  1  0.82258356  0.67601526  0.49790404  1
  Al  Al214  1  0.00133448  0.31779836  0.18477445  1
  Al  Al215  1  0.50130237  0.17467002  0.16835832  1
  Al  Al216  1  0.81412039  0.83515151  0.49927194  1
  Al  Al217  1  0.00152986  0.17659915  0.82535060  1
  Al  Al218  1  0.50252577  0.82578341  0.18490869  1
  Al  Al219  1  0.67085912  0.00161922  0.67571702  1
  Al  Al220  1  0.49809928  0.67513518  0.68883140  1
  Al  Al221  1  0.17696951  0.17289315  0.00268250  1
  Al  Al222  1  0.82513214  -0.00142221  0.82546963  1
  Al  Al223  1  0.82343306  0.00249894  0.66937280  1
  Al  Al224  1  0.81665125  0.82384696  0.00375814  1
  Al  Al225  1  0.33017891  0.18295214  0.49905978  1
  Al  Al226  1  0.32287850  0.82892372  0.00040625  1
  Al  Al227  1  0.17813839  0.19165370  0.49730634  1
  Al  Al228  1  0.16752573  0.82527402  0.49879311  1
  Al  Al229  1  0.17347327  0.32819381  0.00302736  1
  Al  Al230  1  0.80724839  0.31775053  0.00249436  1
  Al  Al231  1  0.00061653  0.81562641  0.17346076  1
  Al  Al232  1  0.68355935  0.18678189  0.00296296  1
  Al  Al233  1  0.49999782  0.17061466  0.81620927  1
  Al  Al234  1  0.31969861  0.67351538  0.00100843  1
  Al  Al235  1  -0.00333539  0.83153594  0.32895305  1
  Al  Al236  1  -0.00091969  0.66679194  0.82979737  1
  Al  Al237  1  0.66707374  0.68584734  0.49737923  1
  Al  Al238  1  0.18081183  0.00256879  0.32160296  1
  Au  Au239  1  0.83444315  0.67758691  0.00686083  1
  Au  Au240  1  0.66518624  0.66877280  0.49723013  1
  Au  Au241  1  0.83656889  -0.00604513  0.82888293  1
  Au  Au242  1  -0.00530906  0.84654389  0.32092849  1
  Au  Au243  1  0.67000834  0.00047920  0.33179345  1
  Au  Au244  1  0.33767198  -0.00332932  0.82251191  1
  Au  Au245  1  -0.00024849  0.33216837  0.83662308  1
  Au  Au246  1  0.18020386  0.00579560  0.66401291  1
  Au  Au247  1  -0.00340669  0.84896651  0.67684835  1
  Au  Au248  1  0.82742647  0.50066974  0.16193190  1
  Au  Au249  1  0.66091471  -0.00364892  0.82957433  1
  Au  Au250  1  0.49597926  0.32564543  0.65754543  1
  Au  Au251  1  0.00086481  0.66667413  0.32565719  1
  Au  Au252  1  0.17741027  0.49826482  0.82891769  1
  Au  Au253  1  0.66145689  0.66890121  0.00151325  1
  Au  Au254  1  0.49892331  0.83651048  0.66074795  1
  Au  Au255  1  0.17059780  0.66391569  0.49963844  1
  Au  Au256  1  0.50089608  0.34859866  0.83265443  1
  Au  Au257  1  -0.00316910  0.17099933  0.32848579  1
  Au  Au258  1  0.17259259  0.49532101  0.32815934  1
  Au  Au259  1  0.83081527  0.17245533  0.00581421  1
  Au  Au260  1  0.00663355  0.33639189  0.66352671  1
  Au  Au261  1  0.49536809  0.33164910  0.33448379  1
  Au  Au262  1  0.17503521  0.84153234  0.49844179  1
  Au  Au263  1  0.82584386  0.32332451  0.49522575  1
  Au  Au264  1  0.83195171  0.49741523  0.65513523  1
  Au  Au265  1  0.50662556  0.15929852  0.17103893  1
  Au  Au266  1  0.00237272  0.32839052  0.17142664  1
  Au  Au267  1  0.17067899  0.67050064  0.00705899  1
  Au  Au268  1  0.16813356  0.00088809  0.32178058  1
  Au  Au269  1  0.65264479  0.50278167  0.67517056  1
  Au  Au270  1  0.32361013  -0.00297132  0.16781025  1
  Au  Au271  1  0.32423512  0.16080444  0.00115258  1
  Au  Au272  1  0.83079922  0.83112409  0.49852163  1
  Au  Au273  1  0.82241527  0.49976168  0.84663390  1
  Au  Au274  1  0.66067168  0.50126470  0.32475924  1
  Au  Au275  1  0.50184353  0.16745119  0.83296518  1
  Au  Au276  1  0.00140657  0.17004855  0.83598932  1
  Au  Au277  1  -0.00370797  0.16538412  0.66174519  1
  Au  Au278  1  0.34580176  0.66924705  0.49667125  1
  Au  Au279  1  0.16216042  -0.00478290  0.83689016  1
  Au  Au280  1  0.00289289  0.66431816  0.65139699  1
  Au  Au281  1  0.82998554  0.49596285  0.33776843  1
  Au  Au282  1  0.83118715  0.00047741  0.17399253  1
  Au  Au283  1  0.32753169  0.33927000  -0.00247867  1
  Au  Au284  1  0.33050776  0.50088122  0.17181520  1
  Au  Au285  1  0.33551937  0.82544647  0.00044932  1
  Au  Au286  1  -0.00092515  0.67301900  0.84556571  1
  Au  Au287  1  0.34194889  0.00086706  0.33499425  1
