# generated using pymatgen
data_Ca24Ti8Al207Au49
_symmetry_space_group_name_H-M   'P 1'
_cell_length_a   17.32038651
_cell_length_b   17.32169055
_cell_length_c   17.32087870
_cell_angle_alpha   89.99683931
_cell_angle_beta   89.99838033
_cell_angle_gamma   89.99980047
_symmetry_Int_Tables_number   1
_chemical_formula_structural   Ca24Ti8Al207Au49
_chemical_formula_sum   'Ca24 Ti8 Al207 Au49'
_cell_volume   5196.58187802
_cell_formula_units_Z   1
loop_
 _symmetry_equiv_pos_site_id
 _symmetry_equiv_pos_as_xyz
  1  'x, y, z'
loop_
 _atom_site_type_symbol
 _atom_site_label
 _atom_site_symmetry_multiplicity
 _atom_site_fract_x
 _atom_site_fract_y
 _atom_site_fract_z
 _atom_site_occupancy
  Ca  Ca0  1  0.25371720  -0.00645345  0.00154335  1
  Ca  Ca1  1  0.24774789  -0.00223674  0.49820083  1
  Ca  Ca2  1  0.25537342  0.50309582  -0.00216937  1
  Ca  Ca3  1  0.24830359  0.50295298  0.50431556  1
  Ca  Ca4  1  0.74520470  0.00226078  -0.00007617  1
  Ca  Ca5  1  0.75387112  -0.00269313  0.49887390  1
  Ca  Ca6  1  0.74232476  0.49402653  0.00132936  1
  Ca  Ca7  1  0.74694239  0.50255242  0.49947861  1
  Ca  Ca8  1  -0.00151383  0.24352190  0.00205276  1
  Ca  Ca9  1  -0.00014826  0.24242010  0.49762180  1
  Ca  Ca10  1  0.00141559  0.75556671  -0.00116343  1
  Ca  Ca11  1  -0.00343139  0.74983677  0.49918608  1
  Ca  Ca12  1  0.50106391  0.24694571  -0.00019340  1
  Ca  Ca13  1  0.50097049  0.25433741  0.50076304  1
  Ca  Ca14  1  0.49949553  0.75660285  0.00002172  1
  Ca  Ca15  1  0.50107951  0.74650442  0.49973299  1
  Ca  Ca16  1  -0.00358119  0.00237556  0.24918663  1
  Ca  Ca17  1  0.00128294  -0.00581979  0.74985656  1
  Ca  Ca18  1  -0.00295157  0.50033215  0.25109928  1
  Ca  Ca19  1  0.00374908  0.50435188  0.74495963  1
  Ca  Ca20  1  0.50128788  -0.00083433  0.24115575  1
  Ca  Ca21  1  0.49864784  -0.00035856  0.76179447  1
  Ca  Ca22  1  0.50433120  0.49917277  0.24481868  1
  Ca  Ca23  1  0.49755928  0.50154327  0.74715020  1
  Ti  Ti24  1  0.25054807  0.24594990  0.24880465  1
  Ti  Ti25  1  0.25147360  0.24981192  0.75005079  1
  Ti  Ti26  1  0.24976454  0.75188873  0.24833602  1
  Ti  Ti27  1  0.24889219  0.74933452  0.75251794  1
  Ti  Ti28  1  0.74881205  0.24804541  0.24883351  1
  Ti  Ti29  1  0.74887769  0.25008418  0.75051033  1
  Ti  Ti30  1  0.74922099  0.75195693  0.25133250  1
  Ti  Ti31  1  0.75012232  0.75079270  0.74892804  1
  Al  Al32  1  0.08188532  0.07823959  0.08427535  1
  Al  Al33  1  0.08127627  0.07403698  0.58659495  1
  Al  Al34  1  0.08652368  0.59469631  0.07406106  1
  Al  Al35  1  0.08890317  0.59136666  0.58272197  1
  Al  Al36  1  0.58761111  0.08584662  0.08079379  1
  Al  Al37  1  0.57658698  0.08218062  0.58090003  1
  Al  Al38  1  0.59025206  0.58153348  0.08687071  1
  Al  Al39  1  0.59173959  0.57897548  0.58402381  1
  Al  Al40  1  0.42436641  0.39747738  0.08101902  1
  Al  Al41  1  0.41886366  0.42199680  0.59071226  1
  Al  Al42  1  0.41778583  0.91066580  0.08205028  1
  Al  Al43  1  0.41978158  0.92110882  0.58698128  1
  Al  Al44  1  0.90716027  0.41077830  0.08650397  1
  Al  Al45  1  0.91292586  0.42792866  0.57914190  1
  Al  Al46  1  0.91617135  0.92198328  0.09301240  1
  Al  Al47  1  0.91823322  0.91112916  0.58939256  1
  Al  Al48  1  0.41521623  0.08046516  0.40826594  1
  Al  Al49  1  0.40924578  0.08002805  0.92167457  1
  Al  Al50  1  0.41976238  0.58412072  0.42213864  1
  Al  Al51  1  0.41868661  0.58547288  0.91501114  1
  Al  Al52  1  0.91320699  0.07755767  0.41066424  1
  Al  Al53  1  0.90540519  0.07979136  0.91686550  1
  Al  Al54  1  0.91322127  0.59007062  0.42322523  1
  Al  Al55  1  0.93061132  0.57748814  0.92097267  1
  Al  Al56  1  0.08160270  0.42226140  0.41508791  1
  Al  Al57  1  0.08356664  0.42922585  0.92043788  1
  Al  Al58  1  0.08718295  0.92121041  0.40985289  1
  Al  Al59  1  0.08871988  0.91396331  0.90834080  1
  Al  Al60  1  0.58942864  0.41177465  0.42374188  1
  Al  Al61  1  0.58169261  0.40968261  0.92630037  1
  Al  Al62  1  0.58296232  0.91653509  0.41296084  1
  Al  Al63  1  0.58278620  0.91079479  0.91808343  1
  Al  Al64  1  0.08636869  0.07891140  0.40859968  1
  Al  Al65  1  0.09072433  0.07302398  0.91219434  1
  Al  Al66  1  0.08911395  0.58620002  0.42264700  1
  Al  Al67  1  0.09437836  0.58983790  0.91687675  1
  Al  Al68  1  0.57891479  0.07938348  0.41247159  1
  Al  Al69  1  0.58640466  0.08115979  0.92315198  1
  Al  Al70  1  0.58427557  0.58576882  0.41997914  1
  Al  Al71  1  0.57876600  0.58899732  0.92255673  1
  Al  Al72  1  0.42421453  0.42223541  0.42110243  1
  Al  Al73  1  0.41136115  0.40761829  0.91968867  1
  Al  Al74  1  0.41275301  0.92379240  0.40238992  1
  Al  Al75  1  0.41461862  0.91296904  0.91709800  1
  Al  Al76  1  0.92307313  0.41964737  0.41902157  1
  Al  Al77  1  0.90862352  0.41234375  0.93033500  1
  Al  Al78  1  0.91006492  0.91823543  0.41356470  1
  Al  Al79  1  0.91602721  0.91922741  0.90656528  1
  Al  Al80  1  0.07167045  0.41862825  0.07758761  1
  Al  Al81  1  0.08561415  0.42776112  0.57941011  1
  Al  Al82  1  0.08229568  0.91605944  0.08380199  1
  Al  Al83  1  0.07901538  0.91393223  0.59619422  1
  Al  Al84  1  0.58830519  0.40708652  0.09034565  1
  Al  Al85  1  0.59353959  0.41730132  0.58593247  1
  Al  Al86  1  0.58321853  0.91129051  0.08188685  1
  Al  Al87  1  0.57964904  0.91367793  0.57875646  1
  Al  Al88  1  0.41094473  0.08696066  0.08111999  1
  Al  Al89  1  0.41903915  0.08166688  0.58504627  1
  Al  Al90  1  0.42483188  0.58814670  0.07697270  1
  Al  Al91  1  0.41173991  0.57838423  0.58944062  1
  Al  Al92  1  0.90598881  0.08231036  0.08677224  1
  Al  Al93  1  0.91953861  0.07587847  0.58075268  1
  Al  Al94  1  0.92239989  0.57321469  0.08471776  1
  Al  Al95  1  0.90792775  0.59022858  0.58304095  1
  Al  Al96  1  0.25291878  0.12654694  0.13632272  1
  Al  Al97  1  0.25108020  0.13404146  0.63410582  1
  Al  Al98  1  0.24795305  0.63865543  0.13334150  1
  Al  Al99  1  0.24774225  0.63398410  0.63646506  1
  Al  Al100  1  0.74868430  0.12982031  0.13560517  1
  Al  Al101  1  0.74958813  0.13662473  0.63499897  1
  Al  Al102  1  0.74590154  0.63772623  0.13815564  1
  Al  Al103  1  0.75068430  0.63789003  0.63517612  1
  Al  Al104  1  0.26080556  0.35838327  0.13083263  1
  Al  Al105  1  0.24901497  0.37233435  0.63569169  1
  Al  Al106  1  0.25165569  0.86782687  0.13115073  1
  Al  Al107  1  0.24982338  0.86369243  0.63492969  1
  Al  Al108  1  0.74870973  0.36296418  0.13415449  1
  Al  Al109  1  0.74516244  0.36707194  0.63129084  1
  Al  Al110  1  0.74765094  0.86902653  0.13634585  1
  Al  Al111  1  0.75422314  0.86264019  0.62852126  1
  Al  Al112  1  0.25107901  0.12773678  0.36170006  1
  Al  Al113  1  0.25407167  0.13469591  0.86618871  1
  Al  Al114  1  0.25128555  0.64057100  0.36845137  1
  Al  Al115  1  0.24950990  0.63593029  0.86667600  1
  Al  Al116  1  0.75069032  0.12811524  0.36163517  1
  Al  Al117  1  0.74800357  0.13465159  0.86646051  1
  Al  Al118  1  0.75060563  0.63710599  0.36333236  1
  Al  Al119  1  0.74518156  0.63823954  0.86334239  1
  Al  Al120  1  0.25214678  0.36391929  0.36074204  1
  Al  Al121  1  0.25432889  0.36461771  0.86659254  1
  Al  Al122  1  0.24961071  0.86810146  0.36434408  1
  Al  Al123  1  0.24847996  0.86289131  0.87251714  1
  Al  Al124  1  0.74261674  0.36503662  0.36416686  1
  Al  Al125  1  0.74812772  0.36534091  0.86738590  1
  Al  Al126  1  0.75128103  0.86980291  0.36649529  1
  Al  Al127  1  0.75176565  0.86380892  0.86587194  1
  Al  Al128  1  0.13667248  0.24451178  0.13467839  1
  Al  Al129  1  0.13910180  0.24904258  0.63539111  1
  Al  Al130  1  0.13744012  0.75377941  0.12952537  1
  Al  Al131  1  0.13048371  0.74958760  0.63725393  1
  Al  Al132  1  0.63063095  0.24698354  0.13780017  1
  Al  Al133  1  0.63654886  0.25426325  0.63243127  1
  Al  Al134  1  0.63188888  0.75427909  0.13820900  1
  Al  Al135  1  0.63621594  0.75404347  0.63394278  1
  Al  Al136  1  0.13729176  0.24245491  0.36417274  1
  Al  Al137  1  0.13468096  0.24732101  0.86571756  1
  Al  Al138  1  0.13212261  0.75023670  0.36468965  1
  Al  Al139  1  0.13663959  0.75002836  0.87275221  1
  Al  Al140  1  0.63707236  0.24978441  0.36003583  1
  Al  Al141  1  0.63514295  0.24810119  0.86625743  1
  Al  Al142  1  0.63427167  0.75457349  0.36211736  1
  Al  Al143  1  0.63409566  0.75577565  0.86647796  1
  Al  Al144  1  0.36907918  0.24290553  0.13531611  1
  Al  Al145  1  0.36273590  0.25272797  0.63233577  1
  Al  Al146  1  0.36905421  0.75383888  0.13371564  1
  Al  Al147  1  0.36177011  0.74705869  0.63501546  1
  Al  Al148  1  0.86243984  0.24881552  0.13372778  1
  Al  Al149  1  0.86142396  0.24915206  0.63480337  1
  Al  Al150  1  0.86293788  0.75404926  0.13605747  1
  Al  Al151  1  0.86817184  0.75065560  0.63096941  1
  Al  Al152  1  0.36508411  0.24869096  0.36170914  1
  Al  Al153  1  0.36432785  0.25037043  0.86909762  1
  Al  Al154  1  0.36611552  0.75400631  0.36012439  1
  Al  Al155  1  0.36524961  0.75486923  0.86858688  1
  Al  Al156  1  0.86188062  0.24810080  0.36287587  1
  Al  Al157  1  0.86494426  0.25165532  0.86660492  1
  Al  Al158  1  0.86646785  0.75276440  0.36806861  1
  Al  Al159  1  0.86700410  0.74956030  0.86482521  1
  Al  Al160  1  0.13304236  0.12804015  0.24890008  1
  Al  Al161  1  0.13640665  0.13343390  0.75528728  1
  Al  Al162  1  0.12960506  0.64119398  0.24990504  1
  Al  Al163  1  0.12813934  0.63772087  0.74781198  1
  Al  Al164  1  0.63689375  0.12658570  0.24652669  1
  Al  Al165  1  0.63496875  0.13733535  0.75078198  1
  Al  Al166  1  0.63520009  0.63080145  0.24970571  1
  Al  Al167  1  0.63601053  0.63638632  0.74801225  1
  Al  Al168  1  0.36417392  0.12662450  0.24701214  1
  Al  Al169  1  0.36503702  0.13578808  0.75051782  1
  Al  Al170  1  0.36606490  0.63563173  0.24750787  1
  Al  Al171  1  0.36350877  0.63689545  0.75141939  1
  Al  Al172  1  0.86696682  0.13409084  0.24822209  1
  Al  Al173  1  0.86315672  0.13598588  0.75524981  1
  Al  Al174  1  0.87129104  0.64057318  0.25135335  1
  Al  Al175  1  0.87139324  0.63918297  0.74583143  1
  Al  Al176  1  0.13816810  0.36201132  0.24723007  1
  Al  Al177  1  0.13798296  0.36559617  0.75049203  1
  Al  Al178  1  0.13741183  0.86827499  0.25068335  1
  Al  Al179  1  0.13820137  0.86287965  0.75343701  1
  Al  Al180  1  0.63495386  0.36963776  0.24324422  1
  Al  Al181  1  0.63748483  0.36653050  0.74783325  1
  Al  Al182  1  0.63310252  0.87131194  0.24834741  1
  Al  Al183  1  0.63466170  0.86434630  0.75545038  1
  Al  Al184  1  0.37021021  0.35978551  0.24568316  1
  Al  Al185  1  0.36526853  0.36457845  0.74754026  1
  Al  Al186  1  0.36513006  0.86876401  0.24641107  1
  Al  Al187  1  0.36322371  0.86459820  0.75446708  1
  Al  Al188  1  0.86277879  0.36268207  0.24994180  1
  Al  Al189  1  0.86059936  0.36307243  0.74601602  1
  Al  Al190  1  0.86282027  0.86840830  0.25203003  1
  Al  Al191  1  0.86408397  0.86254828  0.74881631  1
  Al  Al192  1  0.00128248  0.32119045  0.32534268  1
  Al  Al193  1  0.18686062  0.17215353  0.00029600  1
  Al  Al194  1  0.82753688  0.66767238  0.00079504  1
  Al  Al195  1  0.50099149  0.66965510  0.67180340  1
  Al  Al196  1  0.68534789  0.30757381  0.00193367  1
  Al  Al197  1  0.16928206  0.81910125  0.50152131  1
  Al  Al198  1  0.00090164  0.82242945  0.81350896  1
  Al  Al199  1  0.49884862  0.82685515  0.69204747  1
  Al  Al200  1  0.82454034  0.17177992  0.49916226  1
  Al  Al201  1  0.67232314  0.68755321  0.00146487  1
  Al  Al202  1  0.33117479  0.82063205  0.49736628  1
  Al  Al203  1  0.33017040  0.49990304  0.81984963  1
  Al  Al204  1  0.17619321  0.32338588  0.49755305  1
  Al  Al205  1  0.18235991  0.32705445  0.00016336  1
  Al  Al206  1  -0.00027395  0.33124674  0.67229214  1
  Al  Al207  1  -0.00025613  0.32038974  0.17305587  1
  Al  Al208  1  0.33284213  0.49654985  0.17334606  1
  Al  Al209  1  0.81266297  0.50197444  0.67292285  1
  Al  Al210  1  0.49736827  0.67950315  0.32015136  1
  Al  Al211  1  0.18004014  0.50337033  0.32513974  1
  Al  Al212  1  0.17772810  0.50153399  0.81911448  1
  Al  Al213  1  0.49979555  0.68795386  0.82457910  1
  Al  Al214  1  0.49910619  0.16877555  0.83298709  1
  Al  Al215  1  0.17018604  0.50110735  0.16894775  1
  Al  Al216  1  0.68239747  -0.00104136  0.83063195  1
  Al  Al217  1  0.50037246  0.32253304  0.82076095  1
  Al  Al218  1  0.82884981  0.50041351  0.82692923  1
  Al  Al219  1  0.31242833  -0.00221359  0.82253959  1
  Al  Al220  1  0.50321942  0.32875287  0.32091498  1
  Al  Al221  1  0.82940462  0.00022020  0.68641943  1
  Al  Al222  1  0.66713767  0.50114843  0.82052821  1
  Al  Al223  1  0.81010945  0.18800423  0.00008045  1
  Al  Al224  1  0.00048192  0.32519858  0.83209538  1
  Al  Al225  1  0.00073306  0.82181311  0.17899322  1
  Al  Al226  1  0.31648642  0.68657380  0.00110040  1
  Al  Al227  1  0.68565717  0.67854007  0.49977329  1
  Al  Al228  1  0.81255482  0.33123832  0.49826658  1
  Al  Al229  1  -0.00011668  0.17282461  0.67917180  1
  Al  Al230  1  0.82098181  0.83274280  0.00140071  1
  Al  Al231  1  0.50037595  0.17359818  0.31305367  1
  Al  Al232  1  0.18065574  -0.00127056  0.68984073  1
  Al  Al233  1  0.32509182  0.17423285  0.49755311  1
  Al  Al234  1  0.82045958  0.50109137  0.32858925  1
  Al  Al235  1  0.81351277  0.50088014  0.17325225  1
  Al  Al236  1  0.49991298  0.18288918  0.67837288  1
  Al  Al237  1  0.68024248  -0.00101517  0.67778552  1
  Al  Al238  1  0.66777192  0.18531441  0.49714337  1
  Au  Au239  1  0.33465522  -0.00421930  0.17046329  1
  Au  Au240  1  0.16531010  -0.00282918  0.17896402  1
  Au  Au241  1  0.32808699  0.00158649  0.67469160  1
  Au  Au242  1  0.17058040  0.83098186  0.00074106  1
  Au  Au243  1  0.34644070  0.49434749  0.16363792  1
  Au  Au244  1  0.16827781  0.15925961  0.50233793  1
  Au  Au245  1  0.33421949  0.16580857  0.49596624  1
  Au  Au246  1  0.83648526  0.50240642  0.32341937  1
  Au  Au247  1  0.32728540  0.50195525  0.34017157  1
  Au  Au248  1  -0.00133405  0.67501813  0.16133918  1
  Au  Au249  1  0.66590851  0.16834286  0.49713964  1
  Au  Au250  1  0.50046343  0.17172942  0.16371609  1
  Au  Au251  1  0.67456980  -0.00223574  0.16146235  1
  Au  Au252  1  0.17525843  0.50431774  0.67143636  1
  Au  Au253  1  -0.00186610  0.67665536  0.66206524  1
  Au  Au254  1  0.33673363  0.83681450  0.49579054  1
  Au  Au255  1  0.82092085  0.65291800  0.00143637  1
  Au  Au256  1  0.49962931  0.67106834  0.32911908  1
  Au  Au257  1  0.50118772  0.32512673  0.33306014  1
  Au  Au258  1  -0.00193437  0.17106012  0.16453744  1
  Au  Au259  1  0.67714682  -0.00071700  0.33155813  1
  Au  Au260  1  0.50443289  0.67708399  0.16433330  1
  Au  Au261  1  0.17898844  0.15722937  -0.00037829  1
  Au  Au262  1  0.81695247  0.17265496  -0.00011794  1
  Au  Au263  1  0.15412952  0.50367395  0.17349583  1
  Au  Au264  1  0.00437807  0.67681801  0.83719716  1
  Au  Au265  1  0.66590644  0.82451294  0.49627257  1
  Au  Au266  1  0.84463124  0.49744037  0.82159441  1
  Au  Au267  1  -0.00086509  0.15094410  0.82794053  1
  Au  Au268  1  -0.00180322  0.17133741  0.33427979  1
  Au  Au269  1  0.82725969  0.84769321  0.00151740  1
  Au  Au270  1  0.66178422  0.49927217  0.32777268  1
  Au  Au271  1  0.50444430  0.33269511  0.67042890  1
  Au  Au272  1  0.49890658  0.83833664  0.31818825  1
  Au  Au273  1  0.49910278  0.82181510  0.67563477  1
  Au  Au274  1  0.32732807  0.67361870  -0.00153287  1
  Au  Au275  1  0.17921148  0.34365510  0.00148173  1
  Au  Au276  1  -0.00239662  0.32691013  0.65603101  1
  Au  Au277  1  0.65353329  0.49977966  0.82954326  1
  Au  Au278  1  0.33107125  0.34004168  0.50413256  1
  Au  Au279  1  0.00264058  0.66967643  0.33805317  1
  Au  Au280  1  0.15540870  0.82771286  0.50270748  1
  Au  Au281  1  -0.00194672  0.84101663  0.32481953  1
  Au  Au282  1  0.32237459  0.66048684  0.50558911  1
  Au  Au283  1  0.82957503  0.32904369  0.49670838  1
  Au  Au284  1  0.83513982  0.82591160  0.50051324  1
  Au  Au285  1  0.00153388  0.32841869  0.84870339  1
  Au  Au286  1  0.66521244  -0.00045720  0.67007686  1
  Au  Au287  1  0.16932681  0.33396048  0.49727532  1
