# generated using pymatgen
data_Ca24Ti8Al207Au49
_symmetry_space_group_name_H-M   'P 1'
_cell_length_a   17.32383612
_cell_length_b   17.32127471
_cell_length_c   17.32152688
_cell_angle_alpha   89.99927986
_cell_angle_beta   89.99439790
_cell_angle_gamma   89.99785876
_symmetry_Int_Tables_number   1
_chemical_formula_structural   Ca24Ti8Al207Au49
_chemical_formula_sum   'Ca24 Ti8 Al207 Au49'
_cell_volume   5197.68655214
_cell_formula_units_Z   1
loop_
 _symmetry_equiv_pos_site_id
 _symmetry_equiv_pos_as_xyz
  1  'x, y, z'
loop_
 _atom_site_type_symbol
 _atom_site_label
 _atom_site_symmetry_multiplicity
 _atom_site_fract_x
 _atom_site_fract_y
 _atom_site_fract_z
 _atom_site_occupancy
  Ca  Ca0  1  0.25569266  -0.00080595  0.00005929  1
  Ca  Ca1  1  0.25679456  -0.00320965  0.50043572  1
  Ca  Ca2  1  0.25063873  0.50334621  0.00180227  1
  Ca  Ca3  1  0.24984587  0.50203778  0.50052537  1
  Ca  Ca4  1  0.74710538  0.00108258  0.00267066  1
  Ca  Ca5  1  0.74514625  -0.00127531  0.49754471  1
  Ca  Ca6  1  0.74345462  0.49971762  -0.00332094  1
  Ca  Ca7  1  0.74563970  0.50413067  0.49992911  1
  Ca  Ca8  1  0.00366805  0.25260646  0.00207296  1
  Ca  Ca9  1  -0.00015496  0.25111729  0.49454011  1
  Ca  Ca10  1  0.00218177  0.74703864  0.00021465  1
  Ca  Ca11  1  0.00188699  0.74621229  0.49958197  1
  Ca  Ca12  1  0.49529726  0.25119279  0.00010359  1
  Ca  Ca13  1  0.49871389  0.24601082  0.50060191  1
  Ca  Ca14  1  0.49936270  0.75170865  0.00052296  1
  Ca  Ca15  1  0.49808489  0.74832442  0.50015961  1
  Ca  Ca16  1  0.00641648  -0.00020916  0.24775973  1
  Ca  Ca17  1  0.00710950  0.00236938  0.75034605  1
  Ca  Ca18  1  0.00163895  0.49983761  0.24577031  1
  Ca  Ca19  1  -0.00140006  0.49771901  0.75192201  1
  Ca  Ca20  1  0.49653128  -0.00006583  0.24602381  1
  Ca  Ca21  1  0.49339594  -0.00118021  0.75009335  1
  Ca  Ca22  1  0.49920675  0.50063417  0.24369265  1
  Ca  Ca23  1  0.50277150  0.49862358  0.75085685  1
  Ti  Ti24  1  0.25131214  0.24976470  0.24981055  1
  Ti  Ti25  1  0.25128560  0.25032850  0.74855170  1
  Ti  Ti26  1  0.25035080  0.75080318  0.25079005  1
  Ti  Ti27  1  0.24984412  0.75027920  0.74914729  1
  Ti  Ti28  1  0.74801389  0.25007601  0.25023630  1
  Ti  Ti29  1  0.74681076  0.25085465  0.74968307  1
  Ti  Ti30  1  0.74964819  0.75080385  0.25005890  1
  Ti  Ti31  1  0.74814609  0.74880549  0.74786727  1
  Al  Al32  1  0.08034034  0.08265068  0.08820169  1
  Al  Al33  1  0.08536696  0.07835964  0.58729633  1
  Al  Al34  1  0.08952890  0.59068154  0.08269417  1
  Al  Al35  1  0.09013026  0.57771501  0.58642754  1
  Al  Al36  1  0.57365236  0.08692335  0.08823258  1
  Al  Al37  1  0.57185935  0.09033135  0.58931760  1
  Al  Al38  1  0.57683806  0.58604051  0.07705816  1
  Al  Al39  1  0.58155893  0.59441203  0.58970257  1
  Al  Al40  1  0.42008010  0.42060737  0.09327303  1
  Al  Al41  1  0.42442923  0.41723081  0.58881162  1
  Al  Al42  1  0.41737246  0.91812463  0.09102283  1
  Al  Al43  1  0.41316488  0.91779518  0.59250800  1
  Al  Al44  1  0.91718494  0.41152059  0.08025825  1
  Al  Al45  1  0.92517832  0.41721915  0.58760188  1
  Al  Al46  1  0.90698262  0.91943991  0.09075604  1
  Al  Al47  1  0.91527466  0.91477623  0.57599317  1
  Al  Al48  1  0.41371591  0.08192383  0.40196738  1
  Al  Al49  1  0.41162099  0.08441584  0.90181449  1
  Al  Al50  1  0.41308573  0.58467126  0.42729141  1
  Al  Al51  1  0.41953473  0.58685222  0.92446142  1
  Al  Al52  1  0.92386782  0.09086531  0.40587405  1
  Al  Al53  1  0.93078381  0.07826847  0.92731308  1
  Al  Al54  1  0.91369203  0.59380253  0.42291118  1
  Al  Al55  1  0.92033575  0.57731925  0.91637085  1
  Al  Al56  1  0.07984453  0.41832765  0.40532954  1
  Al  Al57  1  0.08023784  0.42001575  0.91903251  1
  Al  Al58  1  0.08506601  0.92254685  0.41701369  1
  Al  Al59  1  0.09087821  0.91835997  0.91611008  1
  Al  Al60  1  0.57694609  0.40733315  0.41950927  1
  Al  Al61  1  0.59106005  0.41058900  0.91192807  1
  Al  Al62  1  0.57850562  0.91096004  0.42081166  1
  Al  Al63  1  0.58252231  0.91354503  0.92923295  1
  Al  Al64  1  0.08053345  0.08356317  0.40474942  1
  Al  Al65  1  0.09106809  0.07615668  0.91612170  1
  Al  Al66  1  0.08257102  0.57869981  0.41941328  1
  Al  Al67  1  0.09120751  0.58851454  0.92141441  1
  Al  Al68  1  0.57346383  0.08835707  0.41586857  1
  Al  Al69  1  0.56752123  0.08743838  0.91696969  1
  Al  Al70  1  0.58212756  0.59062816  0.43121198  1
  Al  Al71  1  0.58824455  0.57690180  0.91271990  1
  Al  Al72  1  0.42373880  0.41253272  0.40791382  1
  Al  Al73  1  0.42929956  0.41255928  0.91391703  1
  Al  Al74  1  0.41190538  0.91953031  0.40878813  1
  Al  Al75  1  0.41164904  0.92357441  0.91527605  1
  Al  Al76  1  0.92729498  0.41008434  0.41440363  1
  Al  Al77  1  0.91094754  0.41605206  0.91811305  1
  Al  Al78  1  0.91726033  0.91332385  0.41956553  1
  Al  Al79  1  0.92573940  0.91463639  0.93112958  1
  Al  Al80  1  0.08104253  0.41819836  0.08494131  1
  Al  Al81  1  0.08354662  0.41864016  0.60038759  1
  Al  Al82  1  0.08711727  0.91734884  0.08136095  1
  Al  Al83  1  0.08769290  0.91936184  0.58308813  1
  Al  Al84  1  0.58112268  0.40371671  0.07673451  1
  Al  Al85  1  0.58141642  0.41381331  0.58484347  1
  Al  Al86  1  0.58032116  0.90424834  0.08754552  1
  Al  Al87  1  0.57725245  0.90799057  0.57952626  1
  Al  Al88  1  0.41286994  0.08180940  0.09544764  1
  Al  Al89  1  0.41346792  0.08093701  0.60130443  1
  Al  Al90  1  0.40966708  0.58508972  0.08802246  1
  Al  Al91  1  0.41756742  0.59141880  0.58842549  1
  Al  Al92  1  0.91775751  0.07924591  0.09718473  1
  Al  Al93  1  0.92360089  0.08164493  0.57495272  1
  Al  Al94  1  0.92795954  0.58188788  0.08024881  1
  Al  Al95  1  0.91239284  0.58542991  0.57950311  1
  Al  Al96  1  0.25493619  0.13335248  0.13759781  1
  Al  Al97  1  0.25296003  0.13139025  0.63356860  1
  Al  Al98  1  0.24906991  0.63159213  0.13646447  1
  Al  Al99  1  0.25119325  0.63458328  0.62995752  1
  Al  Al100  1  0.74737631  0.12950750  0.13906116  1
  Al  Al101  1  0.74833489  0.13889285  0.62983282  1
  Al  Al102  1  0.74840178  0.63194016  0.13641259  1
  Al  Al103  1  0.74771285  0.63288965  0.63025960  1
  Al  Al104  1  0.25086709  0.37168311  0.14090887  1
  Al  Al105  1  0.25059685  0.36715420  0.63830956  1
  Al  Al106  1  0.25331263  0.86532374  0.12971552  1
  Al  Al107  1  0.25220799  0.86932421  0.63107945  1
  Al  Al108  1  0.74809543  0.36927416  0.13828415  1
  Al  Al109  1  0.74335900  0.36499692  0.63945732  1
  Al  Al110  1  0.74778743  0.86974529  0.13532446  1
  Al  Al111  1  0.75091707  0.86526918  0.63260168  1
  Al  Al112  1  0.25772738  0.13705200  0.36608622  1
  Al  Al113  1  0.25343715  0.13632280  0.86270689  1
  Al  Al114  1  0.25194579  0.63667747  0.36981058  1
  Al  Al115  1  0.24871419  0.63509575  0.86458495  1
  Al  Al116  1  0.74594679  0.13986565  0.36705549  1
  Al  Al117  1  0.74068344  0.13930209  0.86273620  1
  Al  Al118  1  0.74984196  0.63442672  0.36758666  1
  Al  Al119  1  0.74727580  0.63588813  0.86352502  1
  Al  Al120  1  0.25214193  0.36232371  0.36200563  1
  Al  Al121  1  0.24913430  0.36569532  0.85935353  1
  Al  Al122  1  0.25253864  0.86374539  0.36903885  1
  Al  Al123  1  0.25389598  0.86453677  0.87072906  1
  Al  Al124  1  0.74879327  0.36416895  0.36171048  1
  Al  Al125  1  0.74418221  0.36491468  0.86265756  1
  Al  Al126  1  0.75321634  0.86400899  0.36455127  1
  Al  Al127  1  0.74055201  0.86267509  0.86762223  1
  Al  Al128  1  0.13809809  0.25038170  0.13632893  1
  Al  Al129  1  0.13651838  0.24987678  0.63393121  1
  Al  Al130  1  0.14010687  0.75117080  0.12906966  1
  Al  Al131  1  0.14026019  0.74911761  0.62576864  1
  Al  Al132  1  0.63691616  0.25208213  0.13395037  1
  Al  Al133  1  0.62588805  0.24848811  0.63919694  1
  Al  Al134  1  0.63576759  0.75424504  0.13258536  1
  Al  Al135  1  0.63273376  0.74328761  0.63276910  1
  Al  Al136  1  0.13150910  0.24781644  0.36246989  1
  Al  Al137  1  0.13312545  0.25097029  0.86058144  1
  Al  Al138  1  0.13444884  0.75064659  0.36910787  1
  Al  Al139  1  0.13854068  0.75038726  0.86724446  1
  Al  Al140  1  0.62664350  0.24856449  0.36173311  1
  Al  Al141  1  0.62974415  0.25756095  0.86637785  1
  Al  Al142  1  0.63420845  0.74960430  0.36348253  1
  Al  Al143  1  0.63416631  0.74952262  0.86435456  1
  Al  Al144  1  0.36680688  0.24733942  0.13733174  1
  Al  Al145  1  0.37123820  0.24769669  0.63698855  1
  Al  Al146  1  0.36529086  0.75442575  0.13594397  1
  Al  Al147  1  0.36073142  0.75179669  0.62912541  1
  Al  Al148  1  0.86350874  0.25343179  0.13845455  1
  Al  Al149  1  0.86425259  0.25272768  0.63488620  1
  Al  Al150  1  0.86373510  0.75307432  0.13562403  1
  Al  Al151  1  0.86205284  0.74565941  0.62588332  1
  Al  Al152  1  0.37316914  0.25037581  0.36080500  1
  Al  Al153  1  0.36607563  0.25273790  0.86287837  1
  Al  Al154  1  0.36379708  0.75180208  0.37004949  1
  Al  Al155  1  0.36485867  0.74961178  0.86457218  1
  Al  Al156  1  0.86861152  0.24911378  0.36229586  1
  Al  Al157  1  0.86699289  0.25223096  0.86342689  1
  Al  Al158  1  0.86916097  0.74987597  0.36648527  1
  Al  Al159  1  0.86363412  0.75050739  0.86482985  1
  Al  Al160  1  0.13792516  0.13382417  0.25152132  1
  Al  Al161  1  0.13584113  0.13356474  0.74764330  1
  Al  Al162  1  0.13714157  0.63776638  0.25012663  1
  Al  Al163  1  0.13764509  0.63355483  0.74415752  1
  Al  Al164  1  0.62607092  0.13622607  0.24601986  1
  Al  Al165  1  0.63323620  0.13115722  0.74645962  1
  Al  Al166  1  0.63635759  0.63536374  0.24723106  1
  Al  Al167  1  0.63429924  0.63018459  0.74854034  1
  Al  Al168  1  0.37051349  0.13239834  0.24791021  1
  Al  Al169  1  0.36474136  0.13085542  0.74893322  1
  Al  Al170  1  0.36296454  0.63576540  0.24602654  1
  Al  Al171  1  0.36803525  0.63840947  0.74421303  1
  Al  Al172  1  0.86361260  0.13595812  0.24909038  1
  Al  Al173  1  0.86502144  0.13661744  0.74853359  1
  Al  Al174  1  0.86364846  0.63620077  0.25057323  1
  Al  Al175  1  0.86318722  0.63769879  0.74724408  1
  Al  Al176  1  0.12831669  0.36274447  0.24865546  1
  Al  Al177  1  0.12806950  0.36741714  0.74876364  1
  Al  Al178  1  0.13383549  0.86238520  0.24954613  1
  Al  Al179  1  0.14008833  0.86364770  0.74717399  1
  Al  Al180  1  0.63349762  0.36713578  0.25042793  1
  Al  Al181  1  0.62750390  0.36767780  0.75130378  1
  Al  Al182  1  0.63088268  0.86560587  0.24380706  1
  Al  Al183  1  0.63472295  0.86439700  0.74404575  1
  Al  Al184  1  0.36694355  0.36713152  0.24852020  1
  Al  Al185  1  0.37280086  0.36551940  0.74799702  1
  Al  Al186  1  0.36300691  0.86862614  0.24930912  1
  Al  Al187  1  0.36164588  0.86608602  0.74930533  1
  Al  Al188  1  0.86870865  0.36507365  0.24971274  1
  Al  Al189  1  0.86681770  0.36352745  0.75065730  1
  Al  Al190  1  0.86819047  0.86477489  0.24774196  1
  Al  Al191  1  0.86036042  0.86223322  0.74852048  1
  Al  Al192  1  0.83057473  0.49929110  0.32267746  1
  Al  Al193  1  0.83102309  0.00068709  0.31898999  1
  Al  Al194  1  0.17570911  0.49960750  0.31495087  1
  Al  Al195  1  0.66879109  0.18302997  -0.00042523  1
  Al  Al196  1  0.49944718  0.83088349  0.82791944  1
  Al  Al197  1  0.00190180  0.82647698  0.82864814  1
  Al  Al198  1  0.32693006  0.32426979  0.00256022  1
  Al  Al199  1  -0.00062101  0.81999933  0.67196972  1
  Al  Al200  1  0.49992122  0.68588314  0.17499168  1
  Al  Al201  1  0.19161103  -0.00125180  0.81891071  1
  Al  Al202  1  0.82959398  0.32146709  0.49875693  1
  Al  Al203  1  0.67517969  0.68439816  -0.00051999  1
  Al  Al204  1  0.82859910  0.17016424  0.00332910  1
  Al  Al205  1  0.32132344  0.50368473  0.67756663  1
  Al  Al206  1  0.81783636  0.49921476  0.67225006  1
  Al  Al207  1  0.32883621  0.17052183  -0.00029564  1
  Al  Al208  1  0.18543595  -0.00119862  0.17276244  1
  Al  Al209  1  0.50126378  0.67521388  0.81656770  1
  Al  Al210  1  0.49755807  0.81071617  0.67666832  1
  Al  Al211  1  0.18774276  -0.00085365  0.32450657  1
  Al  Al212  1  0.00155975  0.18097656  0.18831753  1
  Al  Al213  1  0.31309435  0.68172386  0.00150594  1
  Al  Al214  1  0.17353573  0.33001650  0.49992747  1
  Al  Al215  1  0.82781616  0.66926307  -0.00006804  1
  Al  Al216  1  0.00155629  0.68292819  0.17932064  1
  Al  Al217  1  0.00183394  0.67288671  0.82316416  1
  Al  Al218  1  0.67433874  0.31937734  0.50022134  1
  Al  Al219  1  0.66475819  0.50183078  0.32621577  1
  Al  Al220  1  0.66398080  -0.00029519  0.82702532  1
  Al  Al221  1  0.49788912  0.67026654  0.32854012  1
  Al  Al222  1  0.82869449  -0.00040954  0.83385389  1
  Al  Al223  1  0.17418407  0.17159762  0.00075942  1
  Al  Al224  1  0.33129917  0.32253394  0.49806203  1
  Al  Al225  1  0.50090539  0.31124118  0.18799036  1
  Al  Al226  1  0.49933315  0.19111796  0.80610627  1
  Al  Al227  1  0.17648113  0.16905187  0.49580424  1
  Al  Al228  1  0.67055940  0.00092654  0.31997971  1
  Al  Al229  1  0.17968149  0.50075617  0.82250117  1
  Al  Al230  1  0.32764576  0.50259429  0.32034296  1
  Al  Al231  1  0.81062750  0.32526967  -0.00048722  1
  Al  Al232  1  0.49773374  0.82314632  0.31318606  1
  Al  Al233  1  0.81250103  0.82452244  0.00070635  1
  Al  Al234  1  0.81388651  0.50020903  0.82747641  1
  Al  Al235  1  0.17457162  0.32620183  -0.00072366  1
  Al  Al236  1  -0.00058083  0.18561902  0.67780796  1
  Al  Al237  1  0.82138195  0.00203537  0.66744998  1
  Al  Al238  1  0.67935561  0.81175475  0.49952030  1
  Au  Au239  1  -0.00064456  0.83616524  0.67725513  1
  Au  Au240  1  0.65308031  0.17859923  -0.00071076  1
  Au  Au241  1  0.82971523  0.16101472  0.49362847  1
  Au  Au242  1  0.82448628  0.82929807  0.00033602  1
  Au  Au243  1  0.16707470  0.49982024  0.82081311  1
  Au  Au244  1  0.50060049  0.31970568  0.68004677  1
  Au  Au245  1  0.16850993  0.82193565  -0.00203875  1
  Au  Au246  1  0.65414260  0.50212707  0.33800081  1
  Au  Au247  1  0.00084152  0.83150548  0.16447113  1
  Au  Au248  1  0.18076302  -0.00060840  0.67244593  1
  Au  Au249  1  0.33699153  0.82967944  0.50081052  1
  Au  Au250  1  0.82901362  0.33813494  0.50234622  1
  Au  Au251  1  0.16035546  0.34208551  0.50110448  1
  Au  Au252  1  0.34119246  0.50028699  0.83211836  1
  Au  Au253  1  0.84597632  -0.00343889  0.83094716  1
  Au  Au254  1  0.32600352  0.49834797  0.66696579  1
  Au  Au255  1  0.84222467  -0.00424806  0.32199288  1
  Au  Au256  1  0.33819132  0.82934818  0.00183429  1
  Au  Au257  1  0.83370111  0.00469740  0.66634449  1
  Au  Au258  1  0.16909413  0.83069059  0.49722092  1
  Au  Au259  1  0.00290433  0.66423549  0.32796808  1
  Au  Au260  1  0.49825222  0.17888732  0.31722124  1
  Au  Au261  1  0.16480142  0.16610804  0.49299690  1
  Au  Au262  1  -0.00274143  0.33667669  0.82851327  1
  Au  Au263  1  0.33924944  0.15869127  0.50294587  1
  Au  Au264  1  0.00383525  0.83143429  0.33286488  1
  Au  Au265  1  0.00140682  0.65774514  0.67289802  1
  Au  Au266  1  0.82637215  0.82035981  0.49727692  1
  Au  Au267  1  0.49800069  0.82786759  0.32513416  1
  Au  Au268  1  0.66282495  0.49730333  0.15646917  1
  Au  Au269  1  0.83169897  0.50269681  0.15786314  1
  Au  Au270  1  0.33536910  0.33362166  0.50244654  1
  Au  Au271  1  0.33107155  0.33991131  0.00211171  1
  Au  Au272  1  0.65700648  -0.00203263  0.66381586  1
  Au  Au273  1  -0.00029943  0.17862976  0.66209530  1
  Au  Au274  1  0.00572888  0.16905355  0.83640541  1
  Au  Au275  1  0.17625558  0.66106336  0.49917462  1
  Au  Au276  1  0.83015688  0.49972278  0.67568402  1
  Au  Au277  1  0.84438110  0.17530200  0.00623407  1
  Au  Au278  1  0.66621707  0.00187008  0.83933019  1
  Au  Au279  1  0.84147024  0.49945969  0.33431850  1
  Au  Au280  1  0.50119771  0.67051810  0.82858224  1
  Au  Au281  1  0.65855617  0.17221368  0.50327866  1
  Au  Au282  1  0.33629872  0.50194993  0.33182453  1
  Au  Au283  1  0.66905902  -0.00086612  0.15828136  1
  Au  Au284  1  0.66758969  0.00098808  0.33669408  1
  Au  Au285  1  0.17316416  0.50134120  0.16510754  1
  Au  Au286  1  -0.00065627  0.32738208  0.17447511  1
  Au  Au287  1  0.66354454  0.50108496  0.67104949  1
