# generated using pymatgen
data_Ca24Ti8Al207Au49
_symmetry_space_group_name_H-M   'P 1'
_cell_length_a   17.32132629
_cell_length_b   17.32330721
_cell_length_c   17.32180104
_cell_angle_alpha   89.99898527
_cell_angle_beta   90.00702347
_cell_angle_gamma   89.99732856
_symmetry_Int_Tables_number   1
_chemical_formula_structural   Ca24Ti8Al207Au49
_chemical_formula_sum   'Ca24 Ti8 Al207 Au49'
_cell_volume   5197.62559456
_cell_formula_units_Z   1
loop_
 _symmetry_equiv_pos_site_id
 _symmetry_equiv_pos_as_xyz
  1  'x, y, z'
loop_
 _atom_site_type_symbol
 _atom_site_label
 _atom_site_symmetry_multiplicity
 _atom_site_fract_x
 _atom_site_fract_y
 _atom_site_fract_z
 _atom_site_occupancy
  Ca  Ca0  1  0.24607830  0.00162645  0.00397575  1
  Ca  Ca1  1  0.25149504  0.00736726  0.49539246  1
  Ca  Ca2  1  0.24778613  0.50050056  -0.00125863  1
  Ca  Ca3  1  0.25042232  0.49673036  0.50225338  1
  Ca  Ca4  1  0.75294234  0.00003733  0.00006953  1
  Ca  Ca5  1  0.74767517  0.00150089  0.49948103  1
  Ca  Ca6  1  0.75052677  0.49778852  0.00392714  1
  Ca  Ca7  1  0.75083094  0.49915315  0.49541138  1
  Ca  Ca8  1  -0.00120338  0.24993289  0.00161590  1
  Ca  Ca9  1  0.00027108  0.24953818  0.49976361  1
  Ca  Ca10  1  0.00421621  0.74855952  0.00472418  1
  Ca  Ca11  1  -0.00161427  0.75252633  0.49836026  1
  Ca  Ca12  1  0.50063300  0.24794094  -0.00244817  1
  Ca  Ca13  1  0.50025869  0.24820181  0.50312880  1
  Ca  Ca14  1  0.49579524  0.74459125  0.00153334  1
  Ca  Ca15  1  0.50408709  0.74917069  0.49778568  1
  Ca  Ca16  1  0.00326264  -0.00091311  0.24677181  1
  Ca  Ca17  1  0.00158584  0.00058154  0.74741771  1
  Ca  Ca18  1  -0.00326245  0.50137252  0.24857137  1
  Ca  Ca19  1  0.00339925  0.49822628  0.74822607  1
  Ca  Ca20  1  0.49419864  -0.00170272  0.25620454  1
  Ca  Ca21  1  0.50139985  0.00339262  0.74630987  1
  Ca  Ca22  1  0.50569810  0.49734748  0.25107602  1
  Ca  Ca23  1  0.49877760  0.49790678  0.74988324  1
  Ti  Ti24  1  0.24908287  0.25069231  0.25029134  1
  Ti  Ti25  1  0.24941588  0.24849291  0.75041865  1
  Ti  Ti26  1  0.25069530  0.74938800  0.24842150  1
  Ti  Ti27  1  0.24898770  0.75174106  0.75311964  1
  Ti  Ti28  1  0.75125997  0.24837720  0.25117758  1
  Ti  Ti29  1  0.75005728  0.25222434  0.74934973  1
  Ti  Ti30  1  0.75039608  0.75073150  0.25228236  1
  Ti  Ti31  1  0.75059709  0.74818755  0.74790522  1
  Al  Al32  1  0.08556300  0.07734858  0.08605627  1
  Al  Al33  1  0.09075721  0.08204144  0.58226735  1
  Al  Al34  1  0.07827951  0.59131813  0.08801410  1
  Al  Al35  1  0.08234254  0.56606583  0.59130569  1
  Al  Al36  1  0.58953789  0.08088717  0.08879767  1
  Al  Al37  1  0.59245901  0.08710341  0.58069702  1
  Al  Al38  1  0.59033965  0.58123869  0.09226026  1
  Al  Al39  1  0.58409591  0.58901718  0.57026736  1
  Al  Al40  1  0.41587477  0.42104423  0.07245686  1
  Al  Al41  1  0.40733089  0.40855518  0.58120909  1
  Al  Al42  1  0.40719782  0.92124138  0.08742725  1
  Al  Al43  1  0.41083682  0.91169834  0.57409169  1
  Al  Al44  1  0.90800059  0.42476342  0.08771926  1
  Al  Al45  1  0.92145546  0.42149458  0.57650867  1
  Al  Al46  1  0.92859270  0.91939525  0.09151430  1
  Al  Al47  1  0.91769426  0.91528249  0.57954293  1
  Al  Al48  1  0.41210777  0.08063979  0.41368747  1
  Al  Al49  1  0.42243555  0.09069237  0.91944160  1
  Al  Al50  1  0.41525116  0.57390952  0.41081564  1
  Al  Al51  1  0.41443460  0.58853326  0.92566242  1
  Al  Al52  1  0.91432344  0.08628245  0.42018379  1
  Al  Al53  1  0.90638277  0.08720748  0.92137470  1
  Al  Al54  1  0.90927942  0.58351166  0.40796712  1
  Al  Al55  1  0.92147716  0.57974055  0.92274338  1
  Al  Al56  1  0.09205555  0.41021635  0.42529203  1
  Al  Al57  1  0.09271327  0.41589161  0.91800479  1
  Al  Al58  1  0.08732987  0.92657310  0.40994987  1
  Al  Al59  1  0.08997642  0.91160235  0.92492286  1
  Al  Al60  1  0.59396743  0.42395484  0.41574917  1
  Al  Al61  1  0.57876410  0.40841780  0.91791450  1
  Al  Al62  1  0.58298830  0.91965998  0.41887272  1
  Al  Al63  1  0.57652637  0.92616605  0.91841560  1
  Al  Al64  1  0.09122795  0.08372623  0.41649546  1
  Al  Al65  1  0.07914389  0.07928931  0.92088624  1
  Al  Al66  1  0.07107488  0.57460714  0.41404591  1
  Al  Al67  1  0.08606488  0.57944044  0.92034888  1
  Al  Al68  1  0.58738771  0.08942597  0.41955760  1
  Al  Al69  1  0.58051299  0.08779653  0.91355118  1
  Al  Al70  1  0.59900215  0.58505697  0.41249236  1
  Al  Al71  1  0.57640611  0.57669617  0.92910124  1
  Al  Al72  1  0.39747047  0.41500132  0.41958117  1
  Al  Al73  1  0.41999230  0.40575255  0.91268052  1
  Al  Al74  1  0.40160226  0.91787556  0.41532958  1
  Al  Al75  1  0.41442301  0.91894966  0.92301290  1
  Al  Al76  1  0.90913270  0.42222697  0.41170557  1
  Al  Al77  1  0.91960599  0.41742243  0.92176536  1
  Al  Al78  1  0.91618684  0.91622628  0.42117670  1
  Al  Al79  1  0.92428769  0.92876602  0.91438533  1
  Al  Al80  1  0.08604476  0.41544496  0.07469261  1
  Al  Al81  1  0.10264475  0.41048175  0.58518076  1
  Al  Al82  1  0.09094307  0.90918406  0.08964610  1
  Al  Al83  1  0.08293927  0.92446151  0.58810106  1
  Al  Al84  1  0.59505975  0.42629857  0.08281817  1
  Al  Al85  1  0.57589605  0.41308043  0.57762667  1
  Al  Al86  1  0.58479093  0.92688999  0.09237883  1
  Al  Al87  1  0.58370985  0.92298431  0.58142677  1
  Al  Al88  1  0.40854386  0.07987028  0.08415942  1
  Al  Al89  1  0.42110781  0.08173239  0.57872177  1
  Al  Al90  1  0.41763887  0.58845222  0.08094758  1
  Al  Al91  1  0.42089454  0.57096527  0.58042492  1
  Al  Al92  1  0.91340637  0.08877501  0.08029206  1
  Al  Al93  1  0.91340253  0.08687963  0.57928117  1
  Al  Al94  1  0.91666231  0.58586685  0.09836538  1
  Al  Al95  1  0.91837335  0.57985384  0.57741301  1
  Al  Al96  1  0.24954049  0.13447537  0.13586334  1
  Al  Al97  1  0.24759550  0.13393329  0.63496650  1
  Al  Al98  1  0.25190081  0.63632606  0.12930684  1
  Al  Al99  1  0.24831134  0.63585226  0.63415287  1
  Al  Al100  1  0.75222164  0.12952702  0.13541254  1
  Al  Al101  1  0.74918365  0.13880815  0.63374005  1
  Al  Al102  1  0.75061212  0.62802916  0.14056407  1
  Al  Al103  1  0.74893368  0.63707286  0.62679701  1
  Al  Al104  1  0.25356959  0.36498704  0.13027732  1
  Al  Al105  1  0.24990518  0.35920040  0.63165214  1
  Al  Al106  1  0.24796592  0.86544059  0.13312451  1
  Al  Al107  1  0.24950285  0.86736715  0.63529466  1
  Al  Al108  1  0.75172684  0.36989618  0.13975079  1
  Al  Al109  1  0.74692381  0.36136910  0.62992130  1
  Al  Al110  1  0.75247172  0.87010550  0.13753511  1
  Al  Al111  1  0.74917775  0.86379021  0.63292148  1
  Al  Al112  1  0.24884969  0.13688751  0.36526692  1
  Al  Al113  1  0.24723413  0.13216033  0.86474451  1
  Al  Al114  1  0.25418148  0.63515896  0.36562567  1
  Al  Al115  1  0.24771966  0.63756618  0.87247464  1
  Al  Al116  1  0.74632464  0.12921762  0.36417674  1
  Al  Al117  1  0.75135074  0.13777561  0.86539173  1
  Al  Al118  1  0.74863681  0.63529203  0.36967569  1
  Al  Al119  1  0.75108772  0.62794987  0.86450712  1
  Al  Al120  1  0.24969398  0.36260505  0.37252354  1
  Al  Al121  1  0.24808856  0.36376129  0.86911044  1
  Al  Al122  1  0.25109818  0.86384150  0.36522411  1
  Al  Al123  1  0.24721659  0.87115169  0.86881369  1
  Al  Al124  1  0.74880490  0.36299203  0.37009219  1
  Al  Al125  1  0.75110916  0.37102514  0.86107521  1
  Al  Al126  1  0.74595433  0.87082788  0.36495620  1
  Al  Al127  1  0.75142161  0.86467891  0.86532907  1
  Al  Al128  1  0.13647946  0.25304303  0.13628182  1
  Al  Al129  1  0.13033863  0.25053156  0.63591609  1
  Al  Al130  1  0.13898677  0.74962869  0.12901235  1
  Al  Al131  1  0.13696292  0.75358145  0.63665555  1
  Al  Al132  1  0.63942278  0.24839092  0.13799799  1
  Al  Al133  1  0.63040395  0.25159274  0.63228856  1
  Al  Al134  1  0.63862467  0.74872422  0.14203373  1
  Al  Al135  1  0.63562877  0.74990927  0.62996516  1
  Al  Al136  1  0.13155466  0.25280769  0.36555758  1
  Al  Al137  1  0.13371827  0.25145321  0.86357942  1
  Al  Al138  1  0.13450549  0.74511954  0.36421562  1
  Al  Al139  1  0.13444708  0.75125154  0.87170866  1
  Al  Al140  1  0.63730636  0.24915855  0.36725924  1
  Al  Al141  1  0.63601665  0.25296061  0.86709501  1
  Al  Al142  1  0.63296403  0.74963221  0.36620403  1
  Al  Al143  1  0.64103869  0.74650057  0.86481831  1
  Al  Al144  1  0.36776518  0.25419266  0.13763412  1
  Al  Al145  1  0.36909131  0.25235763  0.63563955  1
  Al  Al146  1  0.36550388  0.74766269  0.13416795  1
  Al  Al147  1  0.36196875  0.75246363  0.63418206  1
  Al  Al148  1  0.86035398  0.24903450  0.12939019  1
  Al  Al149  1  0.87019626  0.25434624  0.63481764  1
  Al  Al150  1  0.86172472  0.74733098  0.13539588  1
  Al  Al151  1  0.86526886  0.74747190  0.63444802  1
  Al  Al152  1  0.36253744  0.25101994  0.36496860  1
  Al  Al153  1  0.36378231  0.25381414  0.86504061  1
  Al  Al154  1  0.36813467  0.75416403  0.36465636  1
  Al  Al155  1  0.36119118  0.74803904  0.86829658  1
  Al  Al156  1  0.86893006  0.24997670  0.36156961  1
  Al  Al157  1  0.86456507  0.24992008  0.87149416  1
  Al  Al158  1  0.86504501  0.74620726  0.36299231  1
  Al  Al159  1  0.86554761  0.74659093  0.86592432  1
  Al  Al160  1  0.13558065  0.13502280  0.25421436  1
  Al  Al161  1  0.13386812  0.13061694  0.75058030  1
  Al  Al162  1  0.13443472  0.63536490  0.24489775  1
  Al  Al163  1  0.13822835  0.63760306  0.75123005  1
  Al  Al164  1  0.63597472  0.13129915  0.24855354  1
  Al  Al165  1  0.63638414  0.13877654  0.74968702  1
  Al  Al166  1  0.64006792  0.62811431  0.25393563  1
  Al  Al167  1  0.63703404  0.63437927  0.74905968  1
  Al  Al168  1  0.36290203  0.13566032  0.24690118  1
  Al  Al169  1  0.36416140  0.13511784  0.74851934  1
  Al  Al170  1  0.36564480  0.63573135  0.25485154  1
  Al  Al171  1  0.36239578  0.63863108  0.74830871  1
  Al  Al172  1  0.86313978  0.12829583  0.25271314  1
  Al  Al173  1  0.86521226  0.13825378  0.74632679  1
  Al  Al174  1  0.86595839  0.63153488  0.24677438  1
  Al  Al175  1  0.86422854  0.63395678  0.75142233  1
  Al  Al176  1  0.13665568  0.36506035  0.25249928  1
  Al  Al177  1  0.13437797  0.36419714  0.74636310  1
  Al  Al178  1  0.13762938  0.86422831  0.25153661  1
  Al  Al179  1  0.13785386  0.87068030  0.75382509  1
  Al  Al180  1  0.63771312  0.36832911  0.25175098  1
  Al  Al181  1  0.62794766  0.36313959  0.75171236  1
  Al  Al182  1  0.63381187  0.86926650  0.25203379  1
  Al  Al183  1  0.63681546  0.86245410  0.75006276  1
  Al  Al184  1  0.36187300  0.36903097  0.25683254  1
  Al  Al185  1  0.36650395  0.36344831  0.74894349  1
  Al  Al186  1  0.36277213  0.86642787  0.24601381  1
  Al  Al187  1  0.35951581  0.86916915  0.75254497  1
  Al  Al188  1  0.86639554  0.36438702  0.24767556  1
  Al  Al189  1  0.87082183  0.36174296  0.75288769  1
  Al  Al190  1  0.86368251  0.87057909  0.25187980  1
  Al  Al191  1  0.86371797  0.86368548  0.74899608  1
  Al  Al192  1  0.32500844  -0.00038143  0.67392098  1
  Al  Al193  1  0.32747645  0.18376247  0.50087480  1
  Al  Al194  1  0.33093967  0.68279147  0.49973435  1
  Al  Al195  1  0.00137268  0.33223577  0.17580669  1
  Al  Al196  1  0.50486785  0.32736580  0.16795772  1
  Al  Al197  1  0.18900153  0.49997845  0.33101998  1
  Al  Al198  1  0.68361640  0.17184181  0.00171740  1
  Al  Al199  1  0.68373617  0.32773344  0.00090594  1
  Al  Al200  1  0.49956218  0.19101462  0.81696900  1
  Al  Al201  1  0.30841972  0.00128848  0.31017295  1
  Al  Al202  1  0.80751630  0.49905604  0.31042875  1
  Al  Al203  1  0.49870431  0.82660163  0.66985092  1
  Al  Al204  1  0.18738211  0.00007269  0.18907164  1
  Al  Al205  1  0.66989390  0.83078565  0.00247847  1
  Al  Al206  1  0.33403579  0.50261051  0.18343841  1
  Al  Al207  1  0.18020352  0.83290185  0.49993984  1
  Al  Al208  1  0.50239324  0.67391860  0.17974470  1
  Al  Al209  1  0.50110869  0.67046740  0.82636908  1
  Al  Al210  1  0.82691368  0.49810703  0.67786732  1
  Al  Al211  1  0.49946414  0.67123230  0.67101424  1
  Al  Al212  1  0.00200021  0.68132466  0.82664566  1
  Al  Al213  1  0.17569253  0.18622312  0.50048953  1
  Al  Al214  1  0.17504807  0.50008918  0.81281198  1
  Al  Al215  1  0.00135038  0.82567218  0.67793786  1
  Al  Al216  1  0.81724937  0.81622664  0.49802835  1
  Al  Al217  1  0.49997922  0.81973148  0.82898882  1
  Al  Al218  1  -0.00093732  0.17495811  0.17854671  1
  Al  Al219  1  0.81147776  0.18358969  0.49778510  1
  Al  Al220  1  0.17060387  0.18084514  0.00099541  1
  Al  Al221  1  0.67090168  0.49959247  0.67263914  1
  Al  Al222  1  0.32455613  0.50261980  0.82258140  1
  Al  Al223  1  0.49974029  0.17677024  0.32303870  1
  Al  Al224  1  0.00087550  0.67113743  0.67088619  1
  Al  Al225  1  0.16711433  0.66877435  0.50212732  1
  Al  Al226  1  0.17374333  0.49965242  0.17285451  1
  Al  Al227  1  0.68307701  0.00092690  0.68083233  1
  Al  Al228  1  0.31142811  0.49817497  0.67221752  1
  Al  Al229  1  0.83353233  0.82459964  -0.00026181  1
  Al  Al230  1  0.49944025  0.83095798  0.17907251  1
  Al  Al231  1  0.31474264  0.81409728  0.00124459  1
  Al  Al232  1  0.00000290  0.68224172  0.31627315  1
  Al  Al233  1  0.00138836  0.80633129  0.18362139  1
  Al  Al234  1  0.81815124  0.00172098  0.81667404  1
  Al  Al235  1  0.32331839  0.17996586  0.00066629  1
  Al  Al236  1  -0.00530390  0.17648665  0.82493434  1
  Al  Al237  1  0.67906484  0.67297720  0.00239468  1
  Al  Al238  1  0.49964018  0.33172641  0.33139632  1
  Au  Au239  1  0.32356955  -0.00243796  0.66149227  1
  Au  Au240  1  0.66360223  0.49894052  0.83908309  1
  Au  Au241  1  0.49522041  0.83208956  0.34021485  1
  Au  Au242  1  0.32287831  0.32756509  -0.00198026  1
  Au  Au243  1  0.00266397  0.83945063  0.82672987  1
  Au  Au244  1  0.66070735  0.00266302  0.32402738  1
  Au  Au245  1  0.82705502  0.66732522  0.49981823  1
  Au  Au246  1  0.82799775  0.00135865  0.16332840  1
  Au  Au247  1  0.83257228  0.32954950  0.50060110  1
  Au  Au248  1  0.67134394  0.16809508  0.00159798  1
  Au  Au249  1  0.33619512  0.50214924  0.83384163  1
  Au  Au250  1  -0.00027661  0.32948632  0.16358041  1
  Au  Au251  1  0.49440210  0.83447873  0.82141115  1
  Au  Au252  1  0.17193229  0.49762795  0.33152462  1
  Au  Au253  1  0.33991470  0.66860341  0.49979655  1
  Au  Au254  1  0.83172863  -0.00114118  0.66619573  1
  Au  Au255  1  0.49831403  0.82858873  0.16644363  1
  Au  Au256  1  0.50380291  0.65644354  0.32759431  1
  Au  Au257  1  0.84558044  0.83553313  -0.00030806  1
  Au  Au258  1  0.16554853  -0.00010412  0.83064554  1
  Au  Au259  1  0.33320789  0.00774992  0.83653232  1
  Au  Au260  1  0.32877316  0.50375683  0.16708643  1
  Au  Au261  1  0.83084971  0.33006838  0.00198132  1
  Au  Au262  1  0.17274581  0.66858832  0.00256288  1
  Au  Au263  1  0.00431790  0.33225487  0.83577888  1
  Au  Au264  1  0.00215855  0.15897100  0.32756177  1
  Au  Au265  1  0.50649037  0.33206138  0.15268773  1
  Au  Au266  1  0.82893195  -0.00106050  0.33576489  1
  Au  Au267  1  0.32211170  0.82953615  0.00138306  1
  Au  Au268  1  0.49662873  0.33423988  0.67711469  1
  Au  Au269  1  0.66915773  0.00123318  0.82885331  1
  Au  Au270  1  0.67269578  0.50378752  0.65674697  1
  Au  Au271  1  0.65457210  0.82520193  0.00281780  1
  Au  Au272  1  0.66615831  0.32018619  0.49904500  1
  Au  Au273  1  0.00129206  0.66951947  0.31620221  1
  Au  Au274  1  0.00209956  0.66944965  0.83097694  1
  Au  Au275  1  0.00243256  0.33740341  0.66356531  1
  Au  Au276  1  -0.00305533  0.16749103  0.83324583  1
  Au  Au277  1  0.00320264  0.16385443  0.66835999  1
  Au  Au278  1  0.17585286  0.84882226  0.50018589  1
  Au  Au279  1  0.82716096  0.65560695  0.00641172  1
  Au  Au280  1  0.00044115  0.33275332  0.33947455  1
  Au  Au281  1  0.15332792  0.66095884  0.50395568  1
  Au  Au282  1  0.00069420  0.84026498  0.32714270  1
  Au  Au283  1  0.49629929  0.33320343  0.34651308  1
  Au  Au284  1  0.49660744  0.15366346  0.17521711  1
  Au  Au285  1  0.83821115  0.49861785  0.82717070  1
  Au  Au286  1  0.50336304  0.16492671  0.67112332  1
  Au  Au287  1  0.66913105  0.82881813  0.50147760  1
