# generated using pymatgen
data_Ca24Ti8Al207Au49
_symmetry_space_group_name_H-M   'P 1'
_cell_length_a   17.32566492
_cell_length_b   17.32555700
_cell_length_c   17.32401340
_cell_angle_alpha   90.00029858
_cell_angle_beta   89.99945210
_cell_angle_gamma   90.00125976
_symmetry_Int_Tables_number   1
_chemical_formula_structural   Ca24Ti8Al207Au49
_chemical_formula_sum   'Ca24 Ti8 Al207 Au49'
_cell_volume   5200.26682145
_cell_formula_units_Z   1
loop_
 _symmetry_equiv_pos_site_id
 _symmetry_equiv_pos_as_xyz
  1  'x, y, z'
loop_
 _atom_site_type_symbol
 _atom_site_label
 _atom_site_symmetry_multiplicity
 _atom_site_fract_x
 _atom_site_fract_y
 _atom_site_fract_z
 _atom_site_occupancy
  Ca  Ca0  1  0.24658423  0.00288172  0.00041365  1
  Ca  Ca1  1  0.24681200  0.00086743  0.49771887  1
  Ca  Ca2  1  0.24576622  0.49465773  0.00223665  1
  Ca  Ca3  1  0.24780209  0.50231444  0.49718423  1
  Ca  Ca4  1  0.74905446  0.00363681  0.00081758  1
  Ca  Ca5  1  0.75150242  -0.00143414  0.49676054  1
  Ca  Ca6  1  0.75390055  0.49656032  0.00090350  1
  Ca  Ca7  1  0.75231907  0.50266634  0.50110690  1
  Ca  Ca8  1  -0.00171259  0.25322977  0.00401182  1
  Ca  Ca9  1  -0.00269445  0.24833162  0.49686180  1
  Ca  Ca10  1  -0.00428986  0.74712973  0.00104421  1
  Ca  Ca11  1  -0.00145000  0.74811266  0.49914258  1
  Ca  Ca12  1  0.50433452  0.25312941  0.00395680  1
  Ca  Ca13  1  0.50185191  0.24866841  0.49462535  1
  Ca  Ca14  1  0.50271882  0.75166144  -0.00550113  1
  Ca  Ca15  1  0.50142148  0.74752698  0.50725043  1
  Ca  Ca16  1  -0.00238789  0.00201305  0.25452579  1
  Ca  Ca17  1  0.00078822  0.00220753  0.74447159  1
  Ca  Ca18  1  -0.00344025  0.50063958  0.25143981  1
  Ca  Ca19  1  -0.00162756  0.49607106  0.74920762  1
  Ca  Ca20  1  0.50304347  0.00350810  0.25462846  1
  Ca  Ca21  1  0.50290191  -0.00486594  0.74562792  1
  Ca  Ca22  1  0.50027687  0.49605322  0.25174217  1
  Ca  Ca23  1  0.50379418  0.50499747  0.74449132  1
  Ti  Ti24  1  0.24828496  0.25081065  0.25139642  1
  Ti  Ti25  1  0.24785464  0.25026795  0.74988057  1
  Ti  Ti26  1  0.24791522  0.74745936  0.25363829  1
  Ti  Ti27  1  0.24980209  0.74981969  0.74629057  1
  Ti  Ti28  1  0.75138965  0.24935003  0.24975250  1
  Ti  Ti29  1  0.75089694  0.25154112  0.75078520  1
  Ti  Ti30  1  0.75211634  0.74983548  0.25034311  1
  Ti  Ti31  1  0.75072753  0.74846385  0.74988712  1
  Al  Al32  1  0.08263685  0.08674099  0.08300587  1
  Al  Al33  1  0.08717193  0.08861322  0.57942770  1
  Al  Al34  1  0.07675199  0.57250015  0.09015840  1
  Al  Al35  1  0.08090002  0.58895219  0.57546652  1
  Al  Al36  1  0.59100700  0.09093868  0.08296382  1
  Al  Al37  1  0.58618350  0.07382267  0.58412874  1
  Al  Al38  1  0.58530065  0.57472085  0.07926126  1
  Al  Al39  1  0.58840708  0.58827630  0.58853795  1
  Al  Al40  1  0.40838270  0.41359095  0.08672440  1
  Al  Al41  1  0.42202199  0.42613780  0.57790404  1
  Al  Al42  1  0.42175598  0.93105983  0.08081846  1
  Al  Al43  1  0.42279572  0.91125828  0.58852345  1
  Al  Al44  1  0.91017321  0.41844122  0.08793104  1
  Al  Al45  1  0.91677078  0.41236811  0.58679772  1
  Al  Al46  1  0.91474569  0.91741433  0.08340955  1
  Al  Al47  1  0.91441530  0.91732658  0.58135451  1
  Al  Al48  1  0.42177992  0.08984426  0.41185159  1
  Al  Al49  1  0.41663240  0.07592003  0.92225285  1
  Al  Al50  1  0.41152143  0.58280011  0.41783480  1
  Al  Al51  1  0.42664822  0.58138630  0.90908503  1
  Al  Al52  1  0.91803821  0.08206495  0.40982338  1
  Al  Al53  1  0.91025683  0.09074876  0.92223616  1
  Al  Al54  1  0.90891095  0.58257538  0.41522997  1
  Al  Al55  1  0.90953513  0.58708853  0.92456059  1
  Al  Al56  1  0.08287522  0.42188068  0.41030443  1
  Al  Al57  1  0.08140899  0.40308853  0.91836284  1
  Al  Al58  1  0.07813320  0.91689941  0.41652143  1
  Al  Al59  1  0.07141786  0.92355599  0.91210921  1
  Al  Al60  1  0.58190820  0.41212921  0.41084436  1
  Al  Al61  1  0.59211244  0.41443966  0.92394565  1
  Al  Al62  1  0.59209342  0.92337027  0.41670312  1
  Al  Al63  1  0.58252105  0.91715284  0.90713622  1
  Al  Al64  1  0.08061886  0.09125338  0.41722726  1
  Al  Al65  1  0.08078637  0.08566394  0.92191975  1
  Al  Al66  1  0.08912275  0.58268399  0.41534889  1
  Al  Al67  1  0.07109557  0.57075599  0.91842619  1
  Al  Al68  1  0.58381523  0.08494659  0.40710112  1
  Al  Al69  1  0.59352739  0.08280465  0.92187786  1
  Al  Al70  1  0.58938106  0.58095766  0.42407566  1
  Al  Al71  1  0.58612604  0.58707013  0.91315736  1
  Al  Al72  1  0.42139502  0.41529831  0.40701991  1
  Al  Al73  1  0.41509812  0.41861872  0.92542714  1
  Al  Al74  1  0.41824470  0.92322549  0.42254267  1
  Al  Al75  1  0.42672885  0.91765774  0.90123455  1
  Al  Al76  1  0.91258053  0.42017559  0.41124169  1
  Al  Al77  1  0.91871290  0.41009922  0.91409347  1
  Al  Al78  1  0.91276878  0.91944501  0.41082493  1
  Al  Al79  1  0.91636791  0.91531087  0.91780458  1
  Al  Al80  1  0.08905572  0.41059245  0.08212111  1
  Al  Al81  1  0.07392766  0.41221606  0.58749296  1
  Al  Al82  1  0.07485144  0.92687819  0.08785911  1
  Al  Al83  1  0.08349233  0.91847994  0.58171873  1
  Al  Al84  1  0.59147710  0.41255197  0.08377133  1
  Al  Al85  1  0.58715048  0.42608250  0.58542746  1
  Al  Al86  1  0.58541601  0.92649122  0.07758095  1
  Al  Al87  1  0.58530044  0.91323422  0.59333326  1
  Al  Al88  1  0.41938429  0.08554208  0.08244515  1
  Al  Al89  1  0.41915044  0.07915537  0.57844169  1
  Al  Al90  1  0.41428073  0.56788092  0.09343352  1
  Al  Al91  1  0.42327554  0.58783714  0.58729117  1
  Al  Al92  1  0.91036930  0.08912654  0.08241795  1
  Al  Al93  1  0.92074387  0.07944323  0.58219116  1
  Al  Al94  1  0.90520512  0.58165223  0.08614940  1
  Al  Al95  1  0.91423087  0.58663495  0.57851010  1
  Al  Al96  1  0.24965429  0.13706919  0.13912363  1
  Al  Al97  1  0.24892363  0.13823627  0.62763106  1
  Al  Al98  1  0.24706529  0.62685454  0.13989823  1
  Al  Al99  1  0.24783174  0.63636106  0.62870595  1
  Al  Al100  1  0.75029700  0.13515759  0.13450443  1
  Al  Al101  1  0.74819582  0.13572005  0.63449110  1
  Al  Al102  1  0.75805186  0.63298530  0.13285555  1
  Al  Al103  1  0.74999351  0.63070687  0.63563212  1
  Al  Al104  1  0.24794450  0.37073027  0.13945893  1
  Al  Al105  1  0.24818708  0.36425882  0.63629922  1
  Al  Al106  1  0.24786969  0.86307427  0.13667629  1
  Al  Al107  1  0.25220210  0.86273143  0.62781935  1
  Al  Al108  1  0.75219871  0.36118963  0.13005336  1
  Al  Al109  1  0.75046908  0.37123706  0.63791907  1
  Al  Al110  1  0.75528419  0.86705570  0.13030471  1
  Al  Al111  1  0.74649112  0.86385918  0.62982979  1
  Al  Al112  1  0.24848705  0.13501010  0.36896757  1
  Al  Al113  1  0.24713666  0.13699376  0.86383425  1
  Al  Al114  1  0.24845540  0.63103676  0.36919100  1
  Al  Al115  1  0.25356179  0.63119914  0.86069341  1
  Al  Al116  1  0.75058006  0.13191976  0.36321863  1
  Al  Al117  1  0.75168001  0.13769340  0.86864445  1
  Al  Al118  1  0.75729016  0.63170375  0.36583218  1
  Al  Al119  1  0.75199847  0.63344787  0.86732742  1
  Al  Al120  1  0.24570111  0.36616915  0.36406018  1
  Al  Al121  1  0.24548227  0.36869308  0.86427397  1
  Al  Al122  1  0.24687831  0.86689391  0.37057178  1
  Al  Al123  1  0.25022440  0.86345510  0.86229472  1
  Al  Al124  1  0.75061459  0.36334433  0.36268236  1
  Al  Al125  1  0.75174371  0.36450909  0.87286058  1
  Al  Al126  1  0.75370338  0.86482644  0.36999947  1
  Al  Al127  1  0.75011189  0.86300960  0.86931205  1
  Al  Al128  1  0.13551934  0.25360587  0.13810523  1
  Al  Al129  1  0.13448884  0.25012430  0.63332287  1
  Al  Al130  1  0.13031957  0.74499078  0.14115687  1
  Al  Al131  1  0.13625454  0.75106386  0.62780152  1
  Al  Al132  1  0.63566084  0.25023019  0.13365650  1
  Al  Al133  1  0.63801986  0.25386951  0.63469553  1
  Al  Al134  1  0.63992360  0.74949637  0.13436466  1
  Al  Al135  1  0.63465038  0.74652010  0.63591628  1
  Al  Al136  1  0.12808759  0.24966182  0.36492133  1
  Al  Al137  1  0.13261310  0.25656158  0.86656084  1
  Al  Al138  1  0.13578599  0.74526931  0.37040903  1
  Al  Al139  1  0.13687079  0.74976375  0.86259304  1
  Al  Al140  1  0.63446906  0.24940343  0.36414795  1
  Al  Al141  1  0.63848264  0.24881318  0.86943326  1
  Al  Al142  1  0.63786222  0.75218248  0.36446377  1
  Al  Al143  1  0.63406559  0.75194193  0.86522402  1
  Al  Al144  1  0.36682575  0.25331790  0.13729669  1
  Al  Al145  1  0.36483389  0.24849865  0.63459578  1
  Al  Al146  1  0.35949905  0.74663816  0.13815067  1
  Al  Al147  1  0.36562899  0.74748731  0.62907162  1
  Al  Al148  1  0.86318262  0.24929134  0.13094673  1
  Al  Al149  1  0.86370749  0.25438491  0.63518513  1
  Al  Al150  1  0.86794559  0.74947228  0.13397121  1
  Al  Al151  1  0.85978546  0.74908180  0.62613701  1
  Al  Al152  1  0.36567727  0.25075663  0.36442720  1
  Al  Al153  1  0.36343519  0.24975675  0.86235289  1
  Al  Al154  1  0.36201762  0.74782958  0.37097459  1
  Al  Al155  1  0.36689181  0.75348077  0.86128909  1
  Al  Al156  1  0.87039394  0.25078632  0.36146313  1
  Al  Al157  1  0.86289967  0.25236243  0.87158945  1
  Al  Al158  1  0.86402363  0.74674529  0.36996337  1
  Al  Al159  1  0.86311774  0.74955310  0.86927119  1
  Al  Al160  1  0.13267942  0.13691167  0.25661697  1
  Al  Al161  1  0.13490452  0.13746806  0.74848281  1
  Al  Al162  1  0.13175860  0.62845328  0.25421975  1
  Al  Al163  1  0.13570525  0.63351745  0.74886955  1
  Al  Al164  1  0.63718848  0.13294937  0.25146374  1
  Al  Al165  1  0.63901470  0.13671133  0.74987346  1
  Al  Al166  1  0.63790067  0.63638998  0.24913767  1
  Al  Al167  1  0.63543303  0.63109113  0.74868591  1
  Al  Al168  1  0.36607633  0.13695321  0.25552143  1
  Al  Al169  1  0.36174937  0.13531257  0.74666433  1
  Al  Al170  1  0.36540646  0.63306435  0.25041257  1
  Al  Al171  1  0.36696220  0.63786863  0.74574238  1
  Al  Al172  1  0.86574700  0.13299548  0.25498673  1
  Al  Al173  1  0.86323600  0.13917869  0.74910333  1
  Al  Al174  1  0.86846432  0.63412339  0.25085702  1
  Al  Al175  1  0.86432567  0.63362826  0.74800477  1
  Al  Al176  1  0.13323384  0.37111259  0.25175768  1
  Al  Al177  1  0.12944849  0.36536633  0.74965313  1
  Al  Al178  1  0.13562184  0.86320421  0.25363926  1
  Al  Al179  1  0.13633308  0.86380329  0.74460432  1
  Al  Al180  1  0.63297695  0.36259281  0.24867402  1
  Al  Al181  1  0.63940879  0.36965281  0.75243995  1
  Al  Al182  1  0.64216150  0.87148999  0.25406479  1
  Al  Al183  1  0.63725058  0.86413981  0.74811158  1
  Al  Al184  1  0.36697792  0.36460240  0.24840833  1
  Al  Al185  1  0.36265838  0.36497320  0.75300420  1
  Al  Al186  1  0.36195943  0.86361752  0.25729928  1
  Al  Al187  1  0.36483720  0.86385236  0.74582085  1
  Al  Al188  1  0.86204964  0.36851214  0.24930754  1
  Al  Al189  1  0.86803622  0.36402268  0.75243880  1
  Al  Al190  1  0.86302014  0.86622193  0.25217167  1
  Al  Al191  1  0.86155155  0.86147174  0.74624332  1
  Al  Al192  1  0.49989984  0.82275504  0.17079120  1
  Al  Al193  1  -0.00126865  0.81813559  0.32109554  1
  Al  Al194  1  0.67989357  0.67769735  0.00179077  1
  Al  Al195  1  0.50213097  0.17312372  0.67086701  1
  Al  Al196  1  -0.00117481  0.82293631  0.81780293  1
  Al  Al197  1  -0.00186304  0.32663618  0.17922124  1
  Al  Al198  1  0.32276340  0.17741946  0.00116665  1
  Al  Al199  1  0.31775967  0.49595953  0.31624958  1
  Al  Al200  1  0.31081467  0.32372538  0.00119431  1
  Al  Al201  1  0.17068670  0.50153935  0.67302875  1
  Al  Al202  1  0.50068111  0.32880746  0.67149931  1
  Al  Al203  1  0.81379401  0.00020661  0.67135934  1
  Al  Al204  1  0.32675582  0.50100718  0.67967924  1
  Al  Al205  1  0.50210036  0.32597990  0.82979454  1
  Al  Al206  1  -0.00191911  0.67094459  0.82776979  1
  Al  Al207  1  0.67514250  0.00013852  0.81351243  1
  Al  Al208  1  0.32572790  0.32757181  0.49928549  1
  Al  Al209  1  0.82264824  0.50196180  0.82107793  1
  Al  Al210  1  0.49905051  0.68711110  0.81213801  1
  Al  Al211  1  0.32506368  0.00068861  0.17982224  1
  Al  Al212  1  0.17331142  0.00181971  0.18117468  1
  Al  Al213  1  0.82320717  0.00112108  0.82270224  1
  Al  Al214  1  0.68307069  0.49982725  0.32230565  1
  Al  Al215  1  0.18255874  0.00150459  0.67301975  1
  Al  Al216  1  0.82098617  0.32672780  0.49867766  1
  Al  Al217  1  0.17168213  0.66903401  -0.00048384  1
  Al  Al218  1  -0.00134062  0.19074611  0.82669788  1
  Al  Al219  1  0.17232852  0.32546737  0.49904539  1
  Al  Al220  1  0.81846540  0.00191676  0.17908281  1
  Al  Al221  1  0.67405436  0.17441676  0.49731174  1
  Al  Al222  1  0.32313731  -0.00028068  0.81820252  1
  Al  Al223  1  0.17356621  0.18856314  0.00122635  1
  Al  Al224  1  -0.00096903  0.18450573  0.67227577  1
  Al  Al225  1  0.68774906  0.68126506  0.50036115  1
  Al  Al226  1  -0.00091124  0.17412784  0.18115879  1
  Al  Al227  1  0.68921482  0.49799257  0.17280315  1
  Al  Al228  1  0.83012431  0.17281605  0.49817703  1
  Al  Al229  1  0.50133463  0.82193041  0.33377844  1
  Al  Al230  1  0.16778433  0.82994610  0.00080240  1
  Al  Al231  1  0.33035315  0.83250706  -0.00222334  1
  Al  Al232  1  0.50171317  0.18133655  0.18631326  1
  Al  Al233  1  0.50111728  0.66602702  0.17955940  1
  Al  Al234  1  0.50064853  0.80743413  0.69237362  1
  Al  Al235  1  0.17058483  0.00103840  0.82695494  1
  Al  Al236  1  -0.00101960  0.68236040  0.67340694  1
  Al  Al237  1  0.33049192  0.66891614  0.00250343  1
  Al  Al238  1  0.50164535  0.17250807  0.82938669  1
  Au  Au239  1  0.00020459  0.66904446  0.33847344  1
  Au  Au240  1  0.16448229  0.49477543  0.83614205  1
  Au  Au241  1  0.16268500  0.82502330  0.49763337  1
  Au  Au242  1  0.50238014  0.67818908  0.82106947  1
  Au  Au243  1  0.33663884  0.00233329  0.32724884  1
  Au  Au244  1  0.32661756  0.49888264  0.32518618  1
  Au  Au245  1  -0.00570766  0.66583421  0.16810343  1
  Au  Au246  1  0.83075221  0.00313608  0.17691394  1
  Au  Au247  1  0.67045500  0.16309731  0.50147181  1
  Au  Au248  1  0.82725617  0.50113866  0.66368776  1
  Au  Au249  1  0.33793056  0.32468021  0.49935375  1
  Au  Au250  1  0.16190115  0.00308632  0.33060660  1
  Au  Au251  1  0.15736831  0.84221027  0.00005408  1
  Au  Au252  1  0.66794699  0.83590035  -0.00360221  1
  Au  Au253  1  0.67977513  0.66510191  0.00402251  1
  Au  Au254  1  0.83525815  0.82571306  0.49666854  1
  Au  Au255  1  0.16818903  0.50393004  0.66091589  1
  Au  Au256  1  0.67126015  0.33838072  0.50246414  1
  Au  Au257  1  0.66699055  0.00140766  0.17765146  1
  Au  Au258  1  0.50238585  0.33843950  0.82711302  1
  Au  Au259  1  0.83069139  0.32582707  0.00176763  1
  Au  Au260  1  0.66663209  0.82916255  0.50217387  1
  Au  Au261  1  -0.00276560  0.33059985  0.32800835  1
  Au  Au262  1  0.33209603  0.83204309  0.50042392  1
  Au  Au263  1  0.32644033  0.66423371  0.50364100  1
  Au  Au264  1  0.50171837  0.16005630  0.82626923  1
  Au  Au265  1  0.50175057  0.16675802  0.17800235  1
  Au  Au266  1  0.67122840  0.49970985  0.33043535  1
  Au  Au267  1  0.00000662  0.17438740  0.83021754  1
  Au  Au268  1  0.83310392  0.00100785  0.83255551  1
  Au  Au269  1  0.00038352  0.83438429  0.17444433  1
  Au  Au270  1  -0.00111398  0.83299561  0.67040593  1
  Au  Au271  1  0.83134104  0.49816995  0.82895858  1
  Au  Au272  1  0.34409774  0.84071716  -0.00407392  1
  Au  Au273  1  0.33138201  0.16818900  0.00502375  1
  Au  Au274  1  0.32677675  0.16357712  0.49804302  1
  Au  Au275  1  0.15988303  0.32216316  0.49856410  1
  Au  Au276  1  0.50062158  0.84065084  0.16992761  1
  Au  Au277  1  0.17266602  0.49764998  0.17614044  1
  Au  Au278  1  0.50240064  0.66881757  0.34216838  1
  Au  Au279  1  0.66707271  0.49894519  0.82683176  1
  Au  Au280  1  0.83642618  0.82220786  0.00066137  1
  Au  Au281  1  0.33519636  0.65329276  0.00272723  1
  Au  Au282  1  0.33276212  -0.00017795  0.67032118  1
  Au  Au283  1  0.50279148  0.83373051  0.33052352  1
  Au  Au284  1  0.50198194  0.66191046  0.16775639  1
  Au  Au285  1  0.33455003  0.49829065  0.82884196  1
  Au  Au286  1  0.15534113  0.66262725  0.00017199  1
  Au  Au287  1  0.50085260  0.34051444  0.17560705  1
