# generated using pymatgen
data_Ca24Ti8Al207Au49
_symmetry_space_group_name_H-M   'P 1'
_cell_length_a   17.32694984
_cell_length_b   17.32685268
_cell_length_c   17.32586345
_cell_angle_alpha   90.00194535
_cell_angle_beta   89.99760590
_cell_angle_gamma   90.00174615
_symmetry_Int_Tables_number   1
_chemical_formula_structural   Ca24Ti8Al207Au49
_chemical_formula_sum   'Ca24 Ti8 Al207 Au49'
_cell_volume   5201.59682646
_cell_formula_units_Z   1
loop_
 _symmetry_equiv_pos_site_id
 _symmetry_equiv_pos_as_xyz
  1  'x, y, z'
loop_
 _atom_site_type_symbol
 _atom_site_label
 _atom_site_symmetry_multiplicity
 _atom_site_fract_x
 _atom_site_fract_y
 _atom_site_fract_z
 _atom_site_occupancy
  Ca  Ca0  1  0.25115849  0.00396237  -0.00093765  1
  Ca  Ca1  1  0.24546702  -0.00198645  0.50214953  1
  Ca  Ca2  1  0.25008029  0.49481071  0.00135367  1
  Ca  Ca3  1  0.24641859  0.50212971  0.49731529  1
  Ca  Ca4  1  0.74878712  -0.00222631  0.00201655  1
  Ca  Ca5  1  0.74960695  -0.00271104  0.49809686  1
  Ca  Ca6  1  0.75033898  0.50105195  -0.00032898  1
  Ca  Ca7  1  0.75322082  0.50127171  0.50204774  1
  Ca  Ca8  1  0.00572458  0.25104944  -0.00005997  1
  Ca  Ca9  1  -0.00019989  0.24911978  0.49802009  1
  Ca  Ca10  1  -0.00223208  0.75001100  -0.00126736  1
  Ca  Ca11  1  -0.00007614  0.74995708  0.49950442  1
  Ca  Ca12  1  0.49578616  0.24964921  0.00012090  1
  Ca  Ca13  1  0.50111365  0.25037983  0.49741582  1
  Ca  Ca14  1  0.50062572  0.75264133  -0.00536001  1
  Ca  Ca15  1  0.50091667  0.75237267  0.50580014  1
  Ca  Ca16  1  0.00100283  0.00148338  0.25257757  1
  Ca  Ca17  1  0.00472051  0.00097393  0.74766335  1
  Ca  Ca18  1  -0.00037779  0.49840893  0.25237267  1
  Ca  Ca19  1  -0.00059185  0.49874908  0.74746140  1
  Ca  Ca20  1  0.49915398  0.00251482  0.24855793  1
  Ca  Ca21  1  0.49535895  -0.00371232  0.74983731  1
  Ca  Ca22  1  0.49905156  0.49623157  0.25010894  1
  Ca  Ca23  1  0.50045298  0.50322657  0.75025564  1
  Ti  Ti24  1  0.24906138  0.25101477  0.24927703  1
  Ti  Ti25  1  0.24899390  0.24911083  0.75097263  1
  Ti  Ti26  1  0.24868859  0.74926054  0.25029158  1
  Ti  Ti27  1  0.24951059  0.75068358  0.74967192  1
  Ti  Ti28  1  0.75103124  0.25012769  0.25074810  1
  Ti  Ti29  1  0.75115626  0.25019101  0.74982263  1
  Ti  Ti30  1  0.75167353  0.74983653  0.25098848  1
  Ti  Ti31  1  0.75030072  0.74913713  0.74922592  1
  Al  Al32  1  0.08876676  0.08700671  0.08675690  1
  Al  Al33  1  0.08940212  0.08476237  0.58261243  1
  Al  Al34  1  0.07866485  0.57851411  0.08859579  1
  Al  Al35  1  0.07821080  0.58901597  0.58635513  1
  Al  Al36  1  0.58201101  0.08476432  0.08003134  1
  Al  Al37  1  0.58042202  0.08116614  0.58110413  1
  Al  Al38  1  0.58446790  0.58011990  0.07926259  1
  Al  Al39  1  0.58496641  0.58458326  0.59083756  1
  Al  Al40  1  0.41243624  0.41306699  0.08018553  1
  Al  Al41  1  0.41784881  0.42346769  0.58502725  1
  Al  Al42  1  0.40767407  0.91907275  0.07857051  1
  Al  Al43  1  0.41678894  0.91465363  0.59056292  1
  Al  Al44  1  0.91778024  0.41988327  0.08743349  1
  Al  Al45  1  0.91484438  0.41781578  0.59091114  1
  Al  Al46  1  0.91836828  0.91582109  0.08115831  1
  Al  Al47  1  0.91994665  0.91127561  0.58179574  1
  Al  Al48  1  0.41984755  0.08072625  0.41714712  1
  Al  Al49  1  0.40906432  0.08610509  0.91790285  1
  Al  Al50  1  0.40927237  0.57754847  0.41513213  1
  Al  Al51  1  0.42182452  0.58656660  0.91238046  1
  Al  Al52  1  0.92191301  0.08587511  0.41077938  1
  Al  Al53  1  0.92203202  0.08570861  0.91838561  1
  Al  Al54  1  0.91486870  0.57870494  0.41460026  1
  Al  Al55  1  0.91716436  0.58332192  0.91498082  1
  Al  Al56  1  0.08213678  0.41669057  0.40902097  1
  Al  Al57  1  0.08454590  0.40869205  0.91601759  1
  Al  Al58  1  0.08331408  0.91205731  0.41648777  1
  Al  Al59  1  0.08687739  0.92264423  0.91124129  1
  Al  Al60  1  0.58394466  0.42107084  0.41272883  1
  Al  Al61  1  0.57739638  0.41392120  0.91113382  1
  Al  Al62  1  0.59241494  0.91714975  0.41884964  1
  Al  Al63  1  0.57611332  0.91231437  0.91526273  1
  Al  Al64  1  0.08409296  0.08813679  0.41627139  1
  Al  Al65  1  0.09157929  0.08557561  0.91538901  1
  Al  Al66  1  0.08784155  0.58161446  0.41259986  1
  Al  Al67  1  0.07910465  0.57963277  0.91425974  1
  Al  Al68  1  0.58650064  0.07768701  0.41215702  1
  Al  Al69  1  0.58083898  0.08587584  0.91929135  1
  Al  Al70  1  0.58782904  0.57784536  0.41908181  1
  Al  Al71  1  0.57982884  0.58732896  0.91334846  1
  Al  Al72  1  0.41543164  0.42291082  0.40903229  1
  Al  Al73  1  0.41634462  0.40712647  0.91704343  1
  Al  Al74  1  0.41609710  0.91965946  0.42106992  1
  Al  Al75  1  0.41326200  0.91215172  0.91452833  1
  Al  Al76  1  0.91782996  0.41645065  0.41020113  1
  Al  Al77  1  0.92273784  0.41333223  0.91045759  1
  Al  Al78  1  0.91918622  0.91142563  0.41473899  1
  Al  Al79  1  0.91953414  0.91564795  0.91823748  1
  Al  Al80  1  0.08799543  0.41119029  0.08219890  1
  Al  Al81  1  0.07660089  0.41407505  0.58633721  1
  Al  Al82  1  0.08650951  0.92400974  0.08818205  1
  Al  Al83  1  0.08755833  0.91261400  0.58465583  1
  Al  Al84  1  0.58127469  0.41796304  0.08384016  1
  Al  Al85  1  0.58645679  0.42281036  0.58981080  1
  Al  Al86  1  0.58222148  0.91879634  0.07932739  1
  Al  Al87  1  0.58131105  0.90798342  0.58156220  1
  Al  Al88  1  0.40912535  0.08469262  0.08150950  1
  Al  Al89  1  0.41475130  0.07664002  0.58862071  1
  Al  Al90  1  0.41586002  0.57761025  0.08234625  1
  Al  Al91  1  0.41924361  0.58469383  0.58962956  1
  Al  Al92  1  0.92276847  0.08767388  0.08437758  1
  Al  Al93  1  0.92108993  0.08352458  0.58273337  1
  Al  Al94  1  0.91570494  0.58123750  0.08760219  1
  Al  Al95  1  0.91607415  0.58334069  0.59021298  1
  Al  Al96  1  0.24801989  0.13520210  0.13403499  1
  Al  Al97  1  0.24786376  0.13433553  0.63548833  1
  Al  Al98  1  0.25088007  0.62949055  0.13590674  1
  Al  Al99  1  0.24845134  0.63760859  0.63239825  1
  Al  Al100  1  0.75155420  0.13530286  0.13833318  1
  Al  Al101  1  0.75205295  0.13243394  0.63636971  1
  Al  Al102  1  0.75066203  0.63567052  0.13650133  1
  Al  Al103  1  0.74977586  0.63183340  0.63720244  1
  Al  Al104  1  0.24763853  0.36967155  0.13560999  1
  Al  Al105  1  0.24558944  0.36463205  0.63654156  1
  Al  Al106  1  0.24948656  0.86612909  0.13408569  1
  Al  Al107  1  0.24948803  0.86613265  0.63422572  1
  Al  Al108  1  0.75006634  0.36430523  0.13598434  1
  Al  Al109  1  0.75285160  0.36874374  0.63708425  1
  Al  Al110  1  0.75166891  0.86584299  0.13722309  1
  Al  Al111  1  0.74806089  0.86621204  0.63489965  1
  Al  Al112  1  0.24439169  0.13784459  0.36738464  1
  Al  Al113  1  0.25035606  0.13167293  0.86420152  1
  Al  Al114  1  0.24755250  0.63474631  0.36806934  1
  Al  Al115  1  0.25042022  0.63481417  0.86249839  1
  Al  Al116  1  0.75209813  0.12955194  0.36271347  1
  Al  Al117  1  0.75030268  0.13748374  0.86160667  1
  Al  Al118  1  0.75176349  0.63447781  0.36573766  1
  Al  Al119  1  0.75207223  0.63427205  0.86180432  1
  Al  Al120  1  0.24695512  0.36898503  0.36333857  1
  Al  Al121  1  0.24699143  0.36437269  0.86599380  1
  Al  Al122  1  0.24464054  0.86324499  0.36871354  1
  Al  Al123  1  0.25240022  0.86939690  0.86454287  1
  Al  Al124  1  0.75460226  0.36574443  0.36540551  1
  Al  Al125  1  0.75052803  0.36502224  0.86339597  1
  Al  Al126  1  0.75214568  0.86939024  0.36404592  1
  Al  Al127  1  0.74938639  0.86253509  0.86170149  1
  Al  Al128  1  0.13529129  0.25332123  0.13448495  1
  Al  Al129  1  0.13188526  0.24752168  0.63499506  1
  Al  Al130  1  0.13454563  0.75245107  0.13591261  1
  Al  Al131  1  0.13615973  0.75023102  0.63062530  1
  Al  Al132  1  0.63621641  0.25021112  0.13659550  1
  Al  Al133  1  0.63954164  0.25177650  0.63211516  1
  Al  Al134  1  0.63551905  0.75108898  0.13720644  1
  Al  Al135  1  0.63425392  0.75234423  0.63468286  1
  Al  Al136  1  0.13176197  0.25078657  0.36375067  1
  Al  Al137  1  0.13228149  0.24984912  0.86447974  1
  Al  Al138  1  0.13171268  0.74781681  0.36703075  1
  Al  Al139  1  0.13237947  0.75162680  0.86480412  1
  Al  Al140  1  0.63891549  0.24945590  0.36590704  1
  Al  Al141  1  0.63070035  0.25232715  0.86270033  1
  Al  Al142  1  0.63847852  0.75387612  0.36769141  1
  Al  Al143  1  0.63365786  0.74772888  0.86147670  1
  Al  Al144  1  0.36118913  0.24868909  0.13431317  1
  Al  Al145  1  0.36010132  0.25050720  0.63790061  1
  Al  Al146  1  0.36187268  0.75328985  0.13413286  1
  Al  Al147  1  0.36662486  0.75343147  0.63615193  1
  Al  Al148  1  0.86776662  0.25179937  0.13924775  1
  Al  Al149  1  0.87055361  0.25298096  0.63715249  1
  Al  Al150  1  0.86488662  0.75035504  0.13814003  1
  Al  Al151  1  0.86571809  0.74663247  0.63559556  1
  Al  Al152  1  0.36210506  0.24937141  0.36396468  1
  Al  Al153  1  0.36607214  0.24698914  0.86482544  1
  Al  Al154  1  0.36151585  0.75128883  0.36682711  1
  Al  Al155  1  0.36425915  0.75234568  0.86463729  1
  Al  Al156  1  0.86842763  0.24999372  0.36431393  1
  Al  Al157  1  0.87337024  0.25231989  0.86020565  1
  Al  Al158  1  0.86932646  0.75088881  0.36364223  1
  Al  Al159  1  0.86982526  0.74774797  0.86124962  1
  Al  Al160  1  0.13496320  0.13427694  0.24946261  1
  Al  Al161  1  0.13131373  0.13505599  0.75200416  1
  Al  Al162  1  0.13670051  0.62976204  0.25412449  1
  Al  Al163  1  0.12925172  0.63655479  0.74782491  1
  Al  Al164  1  0.63621746  0.13405710  0.25225127  1
  Al  Al165  1  0.63526609  0.13662276  0.75001496  1
  Al  Al166  1  0.63764772  0.63584526  0.25056100  1
  Al  Al167  1  0.63479648  0.63458072  0.74841079  1
  Al  Al168  1  0.36217056  0.13559348  0.24962632  1
  Al  Al169  1  0.36245808  0.12826132  0.75270564  1
  Al  Al170  1  0.36182141  0.63011595  0.25108605  1
  Al  Al171  1  0.36599229  0.63764828  0.75108915  1
  Al  Al172  1  0.86641842  0.13180054  0.25311851  1
  Al  Al173  1  0.87150399  0.13721036  0.74807736  1
  Al  Al174  1  0.86510997  0.63351180  0.25484236  1
  Al  Al175  1  0.86819580  0.63188803  0.74796924  1
  Al  Al176  1  0.13137008  0.36683901  0.24936700  1
  Al  Al177  1  0.13007752  0.36185658  0.75067005  1
  Al  Al178  1  0.13347937  0.86503790  0.25236588  1
  Al  Al179  1  0.13659519  0.86583639  0.75082804  1
  Al  Al180  1  0.63636796  0.36425394  0.25025613  1
  Al  Al181  1  0.63440945  0.36584382  0.74966738  1
  Al  Al182  1  0.63838270  0.86718159  0.25257295  1
  Al  Al183  1  0.63196346  0.86387166  0.74563911  1
  Al  Al184  1  0.36110154  0.36894923  0.24900027  1
  Al  Al185  1  0.36670907  0.36355983  0.75566041  1
  Al  Al186  1  0.36311367  0.86435373  0.24975775  1
  Al  Al187  1  0.36309464  0.87007053  0.74966341  1
  Al  Al188  1  0.87017955  0.36450352  0.25284075  1
  Al  Al189  1  0.86488856  0.36827981  0.74847740  1
  Al  Al190  1  0.86726056  0.86804365  0.25381245  1
  Al  Al191  1  0.86528029  0.86293695  0.74751020  1
  Al  Al192  1  0.00174443  0.81452235  0.67917606  1
  Al  Al193  1  0.17844762  0.49750246  0.82168563  1
  Al  Al194  1  0.49898723  0.17324007  0.17274409  1
  Al  Al195  1  0.49791704  0.32477260  0.17394252  1
  Al  Al196  1  0.18746672  0.18607414  -0.00063604  1
  Al  Al197  1  0.82247202  0.17683379  0.00056197  1
  Al  Al198  1  0.50055578  0.68032281  0.17170809  1
  Al  Al199  1  0.82471068  0.32467124  0.49862361  1
  Al  Al200  1  0.82981547  0.67279926  0.50062901  1
  Al  Al201  1  0.32676322  0.32891035  0.49808384  1
  Al  Al202  1  0.67872039  0.50083571  0.81643133  1
  Al  Al203  1  0.50072342  0.17426120  0.32520410  1
  Al  Al204  1  0.31281766  0.31183569  -0.00036440  1
  Al  Al205  1  0.31719335  0.50115735  0.68207778  1
  Al  Al206  1  0.67565482  0.68258451  0.50144303  1
  Al  Al207  1  0.67608211  0.18016674  -0.00021881  1
  Al  Al208  1  0.32271309  0.81980266  0.50203976  1
  Al  Al209  1  0.81885300  0.49962146  0.18872154  1
  Al  Al210  1  0.32332782  0.17259837  0.50081386  1
  Al  Al211  1  0.67452075  0.67447310  -0.00176441  1
  Al  Al212  1  0.68844828  0.49955522  0.31794228  1
  Al  Al213  1  0.49835688  0.81272156  0.81247690  1
  Al  Al214  1  0.50013165  0.32277473  0.67702909  1
  Al  Al215  1  0.00134282  0.82353398  0.17535493  1
  Al  Al216  1  0.82524209  0.82445246  -0.00078714  1
  Al  Al217  1  0.82672768  0.67327782  0.00053713  1
  Al  Al218  1  0.67914252  0.00131171  0.18246715  1
  Al  Al219  1  0.17195053  0.67228546  0.00200957  1
  Al  Al220  1  0.17120543  0.32364859  0.49902242  1
  Al  Al221  1  0.49834311  0.17806995  0.67964399  1
  Al  Al222  1  0.32602818  0.67702517  -0.00061967  1
  Al  Al223  1  -0.00021305  0.67370811  0.18430282  1
  Al  Al224  1  0.49945321  0.32603780  0.32546403  1
  Al  Al225  1  0.67736440  0.17638681  0.49848743  1
  Al  Al226  1  0.50329558  0.83113260  0.32414698  1
  Al  Al227  1  0.00132700  0.18144970  0.18583780  1
  Al  Al228  1  0.17716879  0.82867723  -0.00050040  1
  Al  Al229  1  0.81609280  0.82438382  0.49957348  1
  Al  Al230  1  0.31274732  0.00048461  0.17912455  1
  Al  Al231  1  0.50026434  0.68636129  0.68821332  1
  Al  Al232  1  0.82699664  0.32252503  -0.00047961  1
  Al  Al233  1  0.18408981  0.00019173  0.68404853  1
  Al  Al234  1  0.49697412  0.67162488  0.32823043  1
  Al  Al235  1  0.17566806  0.00018941  0.31792255  1
  Al  Al236  1  0.82811007  -0.00172138  0.82115503  1
  Al  Al237  1  0.67378397  0.82553215  -0.00091683  1
  Al  Al238  1  0.67105729  0.00125847  0.82272291  1
  Au  Au239  1  0.33376195  0.33629307  0.50192340  1
  Au  Au240  1  0.00295067  0.17479859  0.66517460  1
  Au  Au241  1  -0.00093624  0.66921443  0.33241710  1
  Au  Au242  1  0.00108521  0.32902708  0.17388584  1
  Au  Au243  1  0.49784048  0.17448226  0.83739853  1
  Au  Au244  1  0.16742980  0.49805620  0.82747458  1
  Au  Au245  1  0.83359038  0.33300440  0.50093401  1
  Au  Au246  1  0.33149286  0.00100024  0.32610884  1
  Au  Au247  1  0.50005085  0.33515208  0.68009852  1
  Au  Au248  1  0.33877713  0.67922265  -0.00105459  1
  Au  Au249  1  0.83099041  0.33227988  -0.00067375  1
  Au  Au250  1  0.16589152  0.49861876  0.17564203  1
  Au  Au251  1  0.49607439  0.83556198  0.16161224  1
  Au  Au252  1  0.32085192  0.15990400  0.50123892  1
  Au  Au253  1  0.49856985  0.16898477  0.67120941  1
  Au  Au254  1  0.00212095  0.83422672  0.82686906  1
  Au  Au255  1  0.83802612  0.49865698  0.82283402  1
  Au  Au256  1  0.67060608  0.16592837  0.49880334  1
  Au  Au257  1  0.83114362  0.16719070  0.00060404  1
  Au  Au258  1  0.66492463  0.00131649  0.17331904  1
  Au  Au259  1  0.83791723  0.00081831  0.16908290  1
  Au  Au260  1  0.66721281  -0.00325373  0.83360256  1
  Au  Au261  1  0.83476594  -0.00225506  0.66537454  1
  Au  Au262  1  0.00424932  0.17426219  0.83318699  1
  Au  Au263  1  0.16770280  0.50040985  0.66583614  1
  Au  Au264  1  0.50179968  0.66081278  0.33215290  1
  Au  Au265  1  0.67122517  0.67056455  0.50140023  1
  Au  Au266  1  0.34205415  0.49863756  0.82897638  1
  Au  Au267  1  -0.00148914  0.66736533  0.82328257  1
  Au  Au268  1  0.82986667  -0.00109242  0.33578568  1
  Au  Au269  1  0.65932311  0.32863512  -0.00169576  1
  Au  Au270  1  0.66367531  0.50127666  0.82373363  1
  Au  Au271  1  0.16345196  0.67387036  0.50024892  1
  Au  Au272  1  0.83213248  0.00293534  0.83195456  1
  Au  Au273  1  0.00362507  0.83618078  0.17548789  1
  Au  Au274  1  0.83309042  0.16754285  0.49789162  1
  Au  Au275  1  0.66717276  0.33928696  0.50069433  1
  Au  Au276  1  0.32440288  0.83220608  0.50293820  1
  Au  Au277  1  0.32576199  -0.00099477  0.82857215  1
  Au  Au278  1  0.67154915  0.49959199  0.17062096  1
  Au  Au279  1  0.66503967  -0.00401102  0.66478444  1
  Au  Au280  1  0.17986603  0.84138074  -0.00041769  1
  Au  Au281  1  0.16393988  0.66602651  -0.00206764  1
  Au  Au282  1  0.49880232  0.83403333  0.33557021  1
  Au  Au283  1  0.15875050  0.32085078  0.49866715  1
  Au  Au284  1  0.33079262  0.66501290  0.50159723  1
  Au  Au285  1  0.50078367  0.66880078  0.16681660  1
  Au  Au286  1  0.33273842  0.49768285  0.17488047  1
  Au  Au287  1  0.17069032  0.00023816  0.32961378  1
