# generated using pymatgen
data_Ca24Ti8Al207Au49
_symmetry_space_group_name_H-M   'P 1'
_cell_length_a   17.32290442
_cell_length_b   17.32419878
_cell_length_c   17.32422229
_cell_angle_alpha   90.00260949
_cell_angle_beta   89.99578596
_cell_angle_gamma   90.00110257
_symmetry_Int_Tables_number   1
_chemical_formula_structural   Ca24Ti8Al207Au49
_chemical_formula_sum   'Ca24 Ti8 Al207 Au49'
_cell_volume   5199.09332586
_cell_formula_units_Z   1
loop_
 _symmetry_equiv_pos_site_id
 _symmetry_equiv_pos_as_xyz
  1  'x, y, z'
loop_
 _atom_site_type_symbol
 _atom_site_label
 _atom_site_symmetry_multiplicity
 _atom_site_fract_x
 _atom_site_fract_y
 _atom_site_fract_z
 _atom_site_occupancy
  Ca  Ca0  1  0.25253039  0.00239069  0.00145169  1
  Ca  Ca1  1  0.25125613  0.00386576  0.50155544  1
  Ca  Ca2  1  0.24881491  0.49935840  -0.00380323  1
  Ca  Ca3  1  0.24719776  0.49740487  0.49993709  1
  Ca  Ca4  1  0.74777571  0.00114950  0.00073108  1
  Ca  Ca5  1  0.74684451  0.00212336  0.50201075  1
  Ca  Ca6  1  0.74662985  0.49476271  -0.00217293  1
  Ca  Ca7  1  0.74703180  0.49733276  0.50177519  1
  Ca  Ca8  1  -0.00105680  0.24855857  -0.00078118  1
  Ca  Ca9  1  0.00087109  0.24947913  0.50046770  1
  Ca  Ca10  1  0.00015563  0.75065991  -0.00342401  1
  Ca  Ca11  1  -0.00252636  0.74911814  0.50003407  1
  Ca  Ca12  1  0.50394747  0.24823811  0.00274556  1
  Ca  Ca13  1  0.50196640  0.24715129  0.49932167  1
  Ca  Ca14  1  0.49860752  0.75176133  -0.00392589  1
  Ca  Ca15  1  0.50115823  0.75103718  0.50615167  1
  Ca  Ca16  1  -0.00227520  0.00117902  0.24953813  1
  Ca  Ca17  1  -0.00322663  0.00021435  0.74640040  1
  Ca  Ca18  1  0.00145354  0.49946120  0.25768213  1
  Ca  Ca19  1  0.00003832  0.49883863  0.74662664  1
  Ca  Ca20  1  0.50338440  0.00142886  0.24968099  1
  Ca  Ca21  1  0.50250711  0.00008065  0.74533867  1
  Ca  Ca22  1  0.49916852  0.49694908  0.25286964  1
  Ca  Ca23  1  0.49799203  0.49924219  0.75066916  1
  Ti  Ti24  1  0.25123096  0.24858377  0.25253663  1
  Ti  Ti25  1  0.24916871  0.25072587  0.74819068  1
  Ti  Ti26  1  0.24988269  0.75139635  0.24966740  1
  Ti  Ti27  1  0.25014837  0.75003391  0.74931200  1
  Ti  Ti28  1  0.74941136  0.25010446  0.25196258  1
  Ti  Ti29  1  0.74999375  0.24873726  0.74882744  1
  Ti  Ti30  1  0.74987834  0.74869932  0.25202065  1
  Ti  Ti31  1  0.75032193  0.75197423  0.74884415  1
  Al  Al32  1  0.08401771  0.08732707  0.08211646  1
  Al  Al33  1  0.09287594  0.09254468  0.57865360  1
  Al  Al34  1  0.08164259  0.58129478  0.09011428  1
  Al  Al35  1  0.08388223  0.57483778  0.57909027  1
  Al  Al36  1  0.58806612  0.08272029  0.08377977  1
  Al  Al37  1  0.59066511  0.07889642  0.57900069  1
  Al  Al38  1  0.58165847  0.57988593  0.07361545  1
  Al  Al39  1  0.57993584  0.58960921  0.59083712  1
  Al  Al40  1  0.42188701  0.41646111  0.07855177  1
  Al  Al41  1  0.40878231  0.42371555  0.58388537  1
  Al  Al42  1  0.41462967  0.92307143  0.08681985  1
  Al  Al43  1  0.42550271  0.91825724  0.59361710  1
  Al  Al44  1  0.90602725  0.41148946  0.07544553  1
  Al  Al45  1  0.91083238  0.41122930  0.57655459  1
  Al  Al46  1  0.91309974  0.92374099  0.08509310  1
  Al  Al47  1  0.90588527  0.92215880  0.58769364  1
  Al  Al48  1  0.41723496  0.09501147  0.41881556  1
  Al  Al49  1  0.40904444  0.08564539  0.92496437  1
  Al  Al50  1  0.41974042  0.56907396  0.42115177  1
  Al  Al51  1  0.41404940  0.57798453  0.90360363  1
  Al  Al52  1  0.91244463  0.08725860  0.42160324  1
  Al  Al53  1  0.91089497  0.08112808  0.91179439  1
  Al  Al54  1  0.91710325  0.58433253  0.42260581  1
  Al  Al55  1  0.91704434  0.57538470  0.91934365  1
  Al  Al56  1  0.09209636  0.41200613  0.41465847  1
  Al  Al57  1  0.08640151  0.42246810  0.90889667  1
  Al  Al58  1  0.08138448  0.92623688  0.42102990  1
  Al  Al59  1  0.08369286  0.92501138  0.91694974  1
  Al  Al60  1  0.58432811  0.39886798  0.41549036  1
  Al  Al61  1  0.59563739  0.41528123  0.91386420  1
  Al  Al62  1  0.58842632  0.92602572  0.42414659  1
  Al  Al63  1  0.58186713  0.92155513  0.90625487  1
  Al  Al64  1  0.09310638  0.08917782  0.41977826  1
  Al  Al65  1  0.08827507  0.08224996  0.92006570  1
  Al  Al66  1  0.08844336  0.57445566  0.41549498  1
  Al  Al67  1  0.09180824  0.57699795  0.90980739  1
  Al  Al68  1  0.58774123  0.09157009  0.41537373  1
  Al  Al69  1  0.59065423  0.07839156  0.91959439  1
  Al  Al70  1  0.58221579  0.57982147  0.42618937  1
  Al  Al71  1  0.58738359  0.57730748  0.90877132  1
  Al  Al72  1  0.41966870  0.40822486  0.41274581  1
  Al  Al73  1  0.41124567  0.42226099  0.90893442  1
  Al  Al74  1  0.42332043  0.92565280  0.42510883  1
  Al  Al75  1  0.42167614  0.91733078  0.91775632  1
  Al  Al76  1  0.92040216  0.41181973  0.42152605  1
  Al  Al77  1  0.90707878  0.41008698  0.91907068  1
  Al  Al78  1  0.91384695  0.92098370  0.42220951  1
  Al  Al79  1  0.91017753  0.92487159  0.90954177  1
  Al  Al80  1  0.07982781  0.42608596  0.07961008  1
  Al  Al81  1  0.09337835  0.41207768  0.57730226  1
  Al  Al82  1  0.08389453  0.92121127  0.08150927  1
  Al  Al83  1  0.08243109  0.92115529  0.58139107  1
  Al  Al84  1  0.58633178  0.40689883  0.07621970  1
  Al  Al85  1  0.59192121  0.41411220  0.57572065  1
  Al  Al86  1  0.58211878  0.92515407  0.08989991  1
  Al  Al87  1  0.58838085  0.91438442  0.59263515  1
  Al  Al88  1  0.40670543  0.08332902  0.08560721  1
  Al  Al89  1  0.41236448  0.08119507  0.57834866  1
  Al  Al90  1  0.42311455  0.57892799  0.07804513  1
  Al  Al91  1  0.41871884  0.58556733  0.60050455  1
  Al  Al92  1  0.91525434  0.08191729  0.08552018  1
  Al  Al93  1  0.90459176  0.08289003  0.58528652  1
  Al  Al94  1  0.92279065  0.58206122  0.08058186  1
  Al  Al95  1  0.91122092  0.58653052  0.57553740  1
  Al  Al96  1  0.25174670  0.12975885  0.13708934  1
  Al  Al97  1  0.24798601  0.13888199  0.62934709  1
  Al  Al98  1  0.24530218  0.63615643  0.13678241  1
  Al  Al99  1  0.25271570  0.63336112  0.63856664  1
  Al  Al100  1  0.74697662  0.13485034  0.13545119  1
  Al  Al101  1  0.74532522  0.13526677  0.63150712  1
  Al  Al102  1  0.75046465  0.63441143  0.13532499  1
  Al  Al103  1  0.74837772  0.64006422  0.62882132  1
  Al  Al104  1  0.25180091  0.36244515  0.14015060  1
  Al  Al105  1  0.24966501  0.36462576  0.63368076  1
  Al  Al106  1  0.24994335  0.87218548  0.13602084  1
  Al  Al107  1  0.24899714  0.86109466  0.63091206  1
  Al  Al108  1  0.74835704  0.36486601  0.13373714  1
  Al  Al109  1  0.75036818  0.36101394  0.63083019  1
  Al  Al110  1  0.74828804  0.86559295  0.13395935  1
  Al  Al111  1  0.75017922  0.86554602  0.63414489  1
  Al  Al112  1  0.25243849  0.13661816  0.37057137  1
  Al  Al113  1  0.25198274  0.13565451  0.86376758  1
  Al  Al114  1  0.24844141  0.63386294  0.36370098  1
  Al  Al115  1  0.25073028  0.63098403  0.86140524  1
  Al  Al116  1  0.74596052  0.13656875  0.37001279  1
  Al  Al117  1  0.75094174  0.12990132  0.86343448  1
  Al  Al118  1  0.75003981  0.63347379  0.37168184  1
  Al  Al119  1  0.75173400  0.63121566  0.86093364  1
  Al  Al120  1  0.24348317  0.36388717  0.37085310  1
  Al  Al121  1  0.25206468  0.37151801  0.86051257  1
  Al  Al122  1  0.25322078  0.86548182  0.37085268  1
  Al  Al123  1  0.24978595  0.86444742  0.86262387  1
  Al  Al124  1  0.74697034  0.36379371  0.37432085  1
  Al  Al125  1  0.74785261  0.36678264  0.86489993  1
  Al  Al126  1  0.75145606  0.86588262  0.36626945  1
  Al  Al127  1  0.75292503  0.87425679  0.86016518  1
  Al  Al128  1  0.13826736  0.24747024  0.13816203  1
  Al  Al129  1  0.13350681  0.25235793  0.63186564  1
  Al  Al130  1  0.13792916  0.75399179  0.12985853  1
  Al  Al131  1  0.13129108  0.75002337  0.63724407  1
  Al  Al132  1  0.63383170  0.25273757  0.13500503  1
  Al  Al133  1  0.63631164  0.25031400  0.63063459  1
  Al  Al134  1  0.63572910  0.74747361  0.13726496  1
  Al  Al135  1  0.62984462  0.75170607  0.63848013  1
  Al  Al136  1  0.13772775  0.24669424  0.37215423  1
  Al  Al137  1  0.13437730  0.24968500  0.86125995  1
  Al  Al138  1  0.13886507  0.75323676  0.36504243  1
  Al  Al139  1  0.13756859  0.74856322  0.86926491  1
  Al  Al140  1  0.63707485  0.24904451  0.37260006  1
  Al  Al141  1  0.63918477  0.25085595  0.86306181  1
  Al  Al142  1  0.63514452  0.74519870  0.36663501  1
  Al  Al143  1  0.63823265  0.75224755  0.85949713  1
  Al  Al144  1  0.36672379  0.24743725  0.13359541  1
  Al  Al145  1  0.36536011  0.24816286  0.63244950  1
  Al  Al146  1  0.36369279  0.74734817  0.13641971  1
  Al  Al147  1  0.37017689  0.75034900  0.63765261  1
  Al  Al148  1  0.86115887  0.25329348  0.13560139  1
  Al  Al149  1  0.86805546  0.25198375  0.63502676  1
  Al  Al150  1  0.86094214  0.75143927  0.13043829  1
  Al  Al151  1  0.86640074  0.75152412  0.63263323  1
  Al  Al152  1  0.36449657  0.24836834  0.36893643  1
  Al  Al153  1  0.36200142  0.24941247  0.85972059  1
  Al  Al154  1  0.36470142  0.75276043  0.36656462  1
  Al  Al155  1  0.36526446  0.74913955  0.85971171  1
  Al  Al156  1  0.86285325  0.25120247  0.36938680  1
  Al  Al157  1  0.86573580  0.25354766  0.86593632  1
  Al  Al158  1  0.86189001  0.74941930  0.37241335  1
  Al  Al159  1  0.86149581  0.75232790  0.86898025  1
  Al  Al160  1  0.13772278  0.13644950  0.25322652  1
  Al  Al161  1  0.13385314  0.13695564  0.74517044  1
  Al  Al162  1  0.13489658  0.63717971  0.25273624  1
  Al  Al163  1  0.13450300  0.63317213  0.75066611  1
  Al  Al164  1  0.63497360  0.13727515  0.24905783  1
  Al  Al165  1  0.63886418  0.12838808  0.74723283  1
  Al  Al166  1  0.63214158  0.63225807  0.25265014  1
  Al  Al167  1  0.63648877  0.63510493  0.74886483  1
  Al  Al168  1  0.36489084  0.13549541  0.24675200  1
  Al  Al169  1  0.36308134  0.13517444  0.74694413  1
  Al  Al170  1  0.36949854  0.63840674  0.25309945  1
  Al  Al171  1  0.36659931  0.63222386  0.74861459  1
  Al  Al172  1  0.86180604  0.13760553  0.25425082  1
  Al  Al173  1  0.86433790  0.13697183  0.74914523  1
  Al  Al174  1  0.86265125  0.63334691  0.25200932  1
  Al  Al175  1  0.86524120  0.63629309  0.74797011  1
  Al  Al176  1  0.13704419  0.36270908  0.25633612  1
  Al  Al177  1  0.13072166  0.36480034  0.74902124  1
  Al  Al178  1  0.13540161  0.86547578  0.24548832  1
  Al  Al179  1  0.13097663  0.86283893  0.74885719  1
  Al  Al180  1  0.63461347  0.36145390  0.25711361  1
  Al  Al181  1  0.63693240  0.36382354  0.74943576  1
  Al  Al182  1  0.63762490  0.86481301  0.24957307  1
  Al  Al183  1  0.63834707  0.87387160  0.74534886  1
  Al  Al184  1  0.36754472  0.35884694  0.25806124  1
  Al  Al185  1  0.36402180  0.36644110  0.74662437  1
  Al  Al186  1  0.36411623  0.86756163  0.24693127  1
  Al  Al187  1  0.36516202  0.86551987  0.74802987  1
  Al  Al188  1  0.85913336  0.36682320  0.25585109  1
  Al  Al189  1  0.86739907  0.36363217  0.75150703  1
  Al  Al190  1  0.86342897  0.86263148  0.24933947  1
  Al  Al191  1  0.86939891  0.86313241  0.74990895  1
  Al  Al192  1  0.80543075  0.00072673  0.69357486  1
  Al  Al193  1  0.50101932  0.32863330  0.82787865  1
  Al  Al194  1  0.67853063  0.82001218  0.50091649  1
  Al  Al195  1  0.82320233  0.18108717  0.00041287  1
  Al  Al196  1  0.50204558  0.67410294  0.81375877  1
  Al  Al197  1  0.67612741  0.49463522  0.32679200  1
  Al  Al198  1  0.31722852  0.31413445  0.50009839  1
  Al  Al199  1  0.81062871  0.00103735  0.18372605  1
  Al  Al200  1  0.50045648  0.32658122  0.67200340  1
  Al  Al201  1  0.17593866  -0.00064579  0.32013071  1
  Al  Al202  1  0.50180923  0.82543766  0.81104532  1
  Al  Al203  1  -0.00089034  0.68074524  0.17668166  1
  Al  Al204  1  0.50216526  0.82278666  0.33153470  1
  Al  Al205  1  0.32974390  0.50001440  0.17949410  1
  Al  Al206  1  0.32789599  0.31449327  -0.00334967  1
  Al  Al207  1  0.32307938  0.82750994  0.00122886  1
  Al  Al208  1  0.50274035  0.32179641  0.18385838  1
  Al  Al209  1  0.32100810  0.67058228  -0.00206433  1
  Al  Al210  1  0.50093066  0.17243484  0.82415280  1
  Al  Al211  1  -0.00050762  0.33381065  0.17794224  1
  Al  Al212  1  0.49901814  0.82261721  0.17424309  1
  Al  Al213  1  0.50218986  0.16907031  0.66897291  1
  Al  Al214  1  0.00024330  0.67110672  0.33012030  1
  Al  Al215  1  0.67974323  0.00135759  0.31463464  1
  Al  Al216  1  -0.00095821  0.82826548  0.32064714  1
  Al  Al217  1  0.17309112  0.67852403  0.50084773  1
  Al  Al218  1  0.33108980  0.67338508  0.50125527  1
  Al  Al219  1  0.33157276  0.00167607  0.31787665  1
  Al  Al220  1  0.00317977  0.17458419  0.82218055  1
  Al  Al221  1  0.18486851  0.49854293  0.68719393  1
  Al  Al222  1  0.18731846  0.17551786  0.00040463  1
  Al  Al223  1  0.81396297  0.18695994  0.50237310  1
  Al  Al224  1  -0.00064700  0.67787178  0.82355962  1
  Al  Al225  1  0.82335830  0.50250424  0.17624531  1
  Al  Al226  1  0.82418776  0.49863107  0.67761405  1
  Al  Al227  1  0.00068375  0.31724782  0.32845777  1
  Al  Al228  1  0.50078942  0.19040200  0.31891167  1
  Al  Al229  1  0.67228391  0.83102177  -0.00068169  1
  Al  Al230  1  0.31869501  0.00042438  0.68090931  1
  Al  Al231  1  0.67013054  0.50000591  0.68194364  1
  Al  Al232  1  0.31385159  0.49655769  0.32747522  1
  Al  Al233  1  0.67385046  0.18553198  -0.00050560  1
  Al  Al234  1  0.17697323  0.33119719  -0.00115343  1
  Al  Al235  1  0.17241426  0.49878498  0.18928767  1
  Al  Al236  1  -0.00117217  0.17470400  0.18299163  1
  Al  Al237  1  0.18198730  0.00097736  0.81590728  1
  Al  Al238  1  0.68029002  0.67344355  -0.00427256  1
  Au  Au239  1  0.66817280  0.49845774  0.16031388  1
  Au  Au240  1  0.50371230  0.67294790  0.16029043  1
  Au  Au241  1  0.34373863  0.32101389  -0.00607762  1
  Au  Au242  1  0.16970910  0.00365119  0.17031913  1
  Au  Au243  1  0.81938380  0.49697936  0.83772585  1
  Au  Au244  1  -0.00168263  0.32604593  0.16286209  1
  Au  Au245  1  0.32746593  0.65740988  0.50349374  1
  Au  Au246  1  0.17886204  0.49898049  0.67078068  1
  Au  Au247  1  0.33103304  -0.00189488  0.83283324  1
  Au  Au248  1  0.83169298  0.16951479  0.00031295  1
  Au  Au249  1  0.17418317  0.83973752  -0.00347598  1
  Au  Au250  1  -0.00258117  0.83590838  0.66462004  1
  Au  Au251  1  0.82738996  0.82768646  0.50176442  1
  Au  Au252  1  0.16302568  0.66417964  0.00185717  1
  Au  Au253  1  0.32374917  0.32990141  0.49939365  1
  Au  Au254  1  0.83152481  0.49761157  0.34168896  1
  Au  Au255  1  0.00166615  0.33267690  0.65948235  1
  Au  Au256  1  0.83232991  0.50035097  0.16775374  1
  Au  Au257  1  0.16031532  0.32585678  -0.00227116  1
  Au  Au258  1  -0.00169247  0.16547916  0.66538882  1
  Au  Au259  1  0.50214347  0.67049638  0.82602497  1
  Au  Au260  1  0.50025059  0.33147540  0.17583716  1
  Au  Au261  1  0.00202222  0.82801056  0.33679239  1
  Au  Au262  1  0.32133628  0.49956380  0.16457206  1
  Au  Au263  1  0.16545529  0.82982520  0.49848895  1
  Au  Au264  1  0.49753136  0.65917880  0.33272702  1
  Au  Au265  1  0.33726805  0.67257355  -0.00634745  1
  Au  Au266  1  0.82271483  0.50226966  0.66179406  1
  Au  Au267  1  0.82645741  0.00239508  0.33082288  1
  Au  Au268  1  0.50043166  0.33627120  0.66199977  1
  Au  Au269  1  0.00069926  0.66868338  0.65692953  1
  Au  Au270  1  0.68084188  0.00120434  0.82038074  1
  Au  Au271  1  0.17070380  0.00212863  0.66718677  1
  Au  Au272  1  0.33693558  0.83874971  0.50743776  1
  Au  Au273  1  0.32974987  0.00531540  0.33434666  1
  Au  Au274  1  0.50683967  0.83900602  0.32977805  1
  Au  Au275  1  0.66697329  0.49813528  0.33454784  1
  Au  Au276  1  -0.00177059  0.82727053  0.15761661  1
  Au  Au277  1  0.65635202  0.82755338  0.00146094  1
  Au  Au278  1  -0.00186352  0.33894674  0.82842211  1
  Au  Au279  1  0.49906215  0.15815193  0.17256269  1
  Au  Au280  1  0.00002928  0.66183617  0.82918681  1
  Au  Au281  1  0.00072959  0.84082780  0.83109394  1
  Au  Au282  1  0.82883435  0.66412659  0.00000836  1
  Au  Au283  1  0.00148584  0.16657311  0.33490888  1
  Au  Au284  1  0.83493786  0.83578927  -0.00281117  1
  Au  Au285  1  0.50088076  0.16937340  0.84025448  1
  Au  Au286  1  0.00112277  0.16577724  0.83092191  1
  Au  Au287  1  0.66936422  0.67125480  0.50367395  1
