# generated using pymatgen
data_Ca24Ti8Al207Au49
_symmetry_space_group_name_H-M   'P 1'
_cell_length_a   17.32454627
_cell_length_b   17.32485823
_cell_length_c   17.32339917
_cell_angle_alpha   89.99652053
_cell_angle_beta   89.99805384
_cell_angle_gamma   89.99930516
_symmetry_Int_Tables_number   1
_chemical_formula_structural   Ca24Ti8Al207Au49
_chemical_formula_sum   'Ca24 Ti8 Al207 Au49'
_cell_volume   5199.53696765
_cell_formula_units_Z   1
loop_
 _symmetry_equiv_pos_site_id
 _symmetry_equiv_pos_as_xyz
  1  'x, y, z'
loop_
 _atom_site_type_symbol
 _atom_site_label
 _atom_site_symmetry_multiplicity
 _atom_site_fract_x
 _atom_site_fract_y
 _atom_site_fract_z
 _atom_site_occupancy
  Ca  Ca0  1  0.24793808  -0.00238812  0.00412761  1
  Ca  Ca1  1  0.24669165  0.00106029  0.49682570  1
  Ca  Ca2  1  0.25481443  0.50351565  0.00337807  1
  Ca  Ca3  1  0.25253632  0.49814623  0.49729743  1
  Ca  Ca4  1  0.75218752  -0.00204913  -0.00093513  1
  Ca  Ca5  1  0.75165498  0.00031404  0.49971220  1
  Ca  Ca6  1  0.74976411  0.50139630  -0.00347266  1
  Ca  Ca7  1  0.74372776  0.50099090  0.50266760  1
  Ca  Ca8  1  -0.00141108  0.24294350  0.00203041  1
  Ca  Ca9  1  0.00080589  0.24323503  0.49774697  1
  Ca  Ca10  1  -0.00084478  0.75258910  0.00276187  1
  Ca  Ca11  1  -0.00407707  0.75479477  0.50137076  1
  Ca  Ca12  1  0.49779190  0.25309858  0.00181512  1
  Ca  Ca13  1  0.49816465  0.25216381  0.49870194  1
  Ca  Ca14  1  0.49767290  0.74990283  0.00152147  1
  Ca  Ca15  1  0.50483902  0.75040383  0.49870822  1
  Ca  Ca16  1  0.00081675  0.00174676  0.24828627  1
  Ca  Ca17  1  -0.00447588  0.00021346  0.74929345  1
  Ca  Ca18  1  0.00516264  0.49931777  0.24737177  1
  Ca  Ca19  1  -0.00247270  0.49778116  0.75146927  1
  Ca  Ca20  1  0.49684645  -0.00295109  0.24886656  1
  Ca  Ca21  1  0.50505339  -0.00037094  0.75152136  1
  Ca  Ca22  1  0.49885371  0.50371522  0.24804763  1
  Ca  Ca23  1  0.50186849  0.50178380  0.75516186  1
  Ti  Ti24  1  0.24909928  0.24865037  0.24991580  1
  Ti  Ti25  1  0.24968864  0.24785977  0.75097029  1
  Ti  Ti26  1  0.25059728  0.75085965  0.24827592  1
  Ti  Ti27  1  0.24983021  0.75156583  0.75223678  1
  Ti  Ti28  1  0.75138629  0.24859696  0.25033638  1
  Ti  Ti29  1  0.74980118  0.24773152  0.75110068  1
  Ti  Ti30  1  0.75130725  0.75131187  0.25161416  1
  Ti  Ti31  1  0.74919488  0.75161831  0.74949500  1
  Al  Al32  1  0.08200433  0.08354565  0.09466999  1
  Al  Al33  1  0.08444181  0.08109310  0.58871785  1
  Al  Al34  1  0.08327600  0.58975264  0.08930660  1
  Al  Al35  1  0.08011846  0.57658177  0.58189372  1
  Al  Al36  1  0.57768582  0.07626015  0.08007577  1
  Al  Al37  1  0.58595477  0.08093574  0.58134392  1
  Al  Al38  1  0.57353088  0.59023220  0.08577525  1
  Al  Al39  1  0.58887461  0.59212341  0.57801695  1
  Al  Al40  1  0.41433614  0.42530621  0.09122239  1
  Al  Al41  1  0.42399747  0.41539782  0.58053349  1
  Al  Al42  1  0.41057885  0.91597772  0.08974840  1
  Al  Al43  1  0.42320711  0.92064684  0.58466401  1
  Al  Al44  1  0.92071066  0.41466248  0.08429511  1
  Al  Al45  1  0.91639601  0.41792417  0.58300554  1
  Al  Al46  1  0.91129751  0.91974995  0.08650410  1
  Al  Al47  1  0.90806844  0.92031163  0.58352847  1
  Al  Al48  1  0.41328741  0.07981051  0.41483655  1
  Al  Al49  1  0.41742611  0.07907099  0.92239498  1
  Al  Al50  1  0.42597751  0.58207845  0.40188463  1
  Al  Al51  1  0.41286821  0.59041801  0.92393238  1
  Al  Al52  1  0.92210240  0.08839484  0.40959536  1
  Al  Al53  1  0.91614550  0.08226136  0.90392268  1
  Al  Al54  1  0.91591748  0.58462504  0.41655146  1
  Al  Al55  1  0.91126888  0.57738417  0.91475310  1
  Al  Al56  1  0.08026044  0.41800433  0.41376110  1
  Al  Al57  1  0.08053149  0.42068860  0.92050708  1
  Al  Al58  1  0.08517093  0.92525874  0.40892342  1
  Al  Al59  1  0.08417362  0.92002704  0.92232487  1
  Al  Al60  1  0.57721817  0.41401934  0.41163400  1
  Al  Al61  1  0.58873957  0.42239602  0.91564648  1
  Al  Al62  1  0.57998054  0.90857973  0.41314552  1
  Al  Al63  1  0.58642586  0.90555069  0.91624005  1
  Al  Al64  1  0.08314189  0.08541555  0.40130536  1
  Al  Al65  1  0.07668151  0.08408953  0.91055243  1
  Al  Al66  1  0.07956689  0.57845069  0.41354868  1
  Al  Al67  1  0.08217313  0.58454791  0.92159268  1
  Al  Al68  1  0.58128430  0.08169752  0.41947649  1
  Al  Al69  1  0.58332859  0.07595638  0.91744775  1
  Al  Al70  1  0.58408453  0.59484531  0.41492260  1
  Al  Al71  1  0.58450077  0.58288740  0.91254727  1
  Al  Al72  1  0.41997834  0.41300005  0.40657622  1
  Al  Al73  1  0.42106302  0.42528703  0.92126057  1
  Al  Al74  1  0.41917123  0.91571402  0.40494256  1
  Al  Al75  1  0.42182464  0.91171159  0.91163691  1
  Al  Al76  1  0.91684723  0.41512034  0.41465960  1
  Al  Al77  1  0.91104260  0.42013987  0.91087019  1
  Al  Al78  1  0.91623184  0.91690630  0.41977131  1
  Al  Al79  1  0.90933853  0.92158372  0.91363941  1
  Al  Al80  1  0.07924208  0.41703546  0.08728657  1
  Al  Al81  1  0.07823707  0.41861197  0.58336441  1
  Al  Al82  1  0.08729025  0.91947186  0.08530555  1
  Al  Al83  1  0.08515308  0.92414097  0.58967706  1
  Al  Al84  1  0.57672501  0.41744648  0.07949107  1
  Al  Al85  1  0.58111761  0.41742001  0.58247549  1
  Al  Al86  1  0.58575117  0.90709586  0.08128378  1
  Al  Al87  1  0.58522899  0.91628744  0.58358316  1
  Al  Al88  1  0.41057777  0.07786299  0.08598870  1
  Al  Al89  1  0.41524545  0.08317185  0.57950369  1
  Al  Al90  1  0.41113478  0.58903046  0.08956751  1
  Al  Al91  1  0.42987144  0.57823774  0.58297843  1
  Al  Al92  1  0.91826359  0.08163374  0.09399797  1
  Al  Al93  1  0.91174662  0.07962446  0.59029118  1
  Al  Al94  1  0.92385753  0.58677598  0.08636189  1
  Al  Al95  1  0.91329443  0.58164869  0.58205528  1
  Al  Al96  1  0.24938697  0.13252096  0.13762239  1
  Al  Al97  1  0.24492822  0.13087839  0.63784689  1
  Al  Al98  1  0.25222050  0.63704250  0.13012439  1
  Al  Al99  1  0.24764223  0.63724472  0.63786572  1
  Al  Al100  1  0.75716453  0.12846042  0.13434546  1
  Al  Al101  1  0.75192609  0.12934004  0.63789582  1
  Al  Al102  1  0.75099318  0.63782490  0.13892145  1
  Al  Al103  1  0.75018237  0.63673563  0.62958922  1
  Al  Al104  1  0.25208389  0.36524660  0.13784051  1
  Al  Al105  1  0.24941261  0.36258567  0.63840490  1
  Al  Al106  1  0.25402862  0.86394038  0.13503874  1
  Al  Al107  1  0.24429614  0.86761536  0.63593370  1
  Al  Al108  1  0.75432961  0.36268398  0.13720784  1
  Al  Al109  1  0.75283026  0.36521188  0.63067950  1
  Al  Al110  1  0.74929973  0.86523771  0.13695625  1
  Al  Al111  1  0.74965151  0.87111674  0.63749565  1
  Al  Al112  1  0.24651766  0.12725690  0.35972581  1
  Al  Al113  1  0.24790475  0.13427039  0.86261373  1
  Al  Al114  1  0.25314511  0.63723789  0.36068935  1
  Al  Al115  1  0.24904447  0.64043543  0.87334619  1
  Al  Al116  1  0.75338351  0.13057267  0.36341710  1
  Al  Al117  1  0.75215691  0.12702362  0.86434849  1
  Al  Al118  1  0.74986670  0.63789875  0.36986100  1
  Al  Al119  1  0.74887931  0.63906355  0.86493247  1
  Al  Al120  1  0.25019709  0.36252812  0.36286078  1
  Al  Al121  1  0.24753318  0.36184387  0.86472206  1
  Al  Al122  1  0.24917463  0.87161662  0.36164959  1
  Al  Al123  1  0.25311397  0.86509082  0.86666640  1
  Al  Al124  1  0.75361837  0.36109485  0.37116133  1
  Al  Al125  1  0.75349147  0.36216426  0.86490631  1
  Al  Al126  1  0.75000503  0.87031600  0.36434220  1
  Al  Al127  1  0.74890775  0.86804064  0.86338953  1
  Al  Al128  1  0.13483892  0.24489345  0.13486816  1
  Al  Al129  1  0.13478109  0.24599397  0.63223984  1
  Al  Al130  1  0.13211105  0.74935719  0.13610687  1
  Al  Al131  1  0.12947317  0.75267040  0.63599354  1
  Al  Al132  1  0.63661078  0.24811637  0.13676699  1
  Al  Al133  1  0.63740884  0.24858765  0.63667533  1
  Al  Al134  1  0.63432939  0.75087526  0.13707099  1
  Al  Al135  1  0.63794866  0.75255241  0.63176023  1
  Al  Al136  1  0.12897038  0.24613062  0.36425785  1
  Al  Al137  1  0.13063295  0.24380565  0.86700958  1
  Al  Al138  1  0.13427932  0.75080271  0.36522558  1
  Al  Al139  1  0.13269336  0.75189651  0.86594206  1
  Al  Al140  1  0.63558462  0.25403993  0.36403586  1
  Al  Al141  1  0.63214999  0.24576759  0.86296477  1
  Al  Al142  1  0.63687787  0.75066315  0.37019470  1
  Al  Al143  1  0.62868724  0.75563895  0.86389408  1
  Al  Al144  1  0.36365709  0.24923360  0.13905811  1
  Al  Al145  1  0.36337507  0.24709349  0.63425102  1
  Al  Al146  1  0.36724877  0.74723729  0.13055191  1
  Al  Al147  1  0.36489450  0.75335576  0.63605761  1
  Al  Al148  1  0.86621920  0.24388138  0.13171822  1
  Al  Al149  1  0.86295083  0.24710703  0.63733042  1
  Al  Al150  1  0.86841727  0.75548039  0.13665673  1
  Al  Al151  1  0.86799377  0.75153145  0.63799086  1
  Al  Al152  1  0.36246721  0.24963292  0.36073503  1
  Al  Al153  1  0.36902357  0.24849594  0.86562351  1
  Al  Al154  1  0.36547389  0.75496111  0.36018227  1
  Al  Al155  1  0.36785005  0.74921492  0.87084976  1
  Al  Al156  1  0.87232716  0.24733758  0.36173713  1
  Al  Al157  1  0.86558608  0.24358981  0.86898121  1
  Al  Al158  1  0.86503198  0.74932565  0.36592753  1
  Al  Al159  1  0.86425450  0.75428529  0.86418242  1
  Al  Al160  1  0.13033184  0.13332015  0.25120227  1
  Al  Al161  1  0.12790247  0.13516294  0.74819740  1
  Al  Al162  1  0.13346528  0.63644975  0.24731610  1
  Al  Al163  1  0.13546015  0.63671090  0.75362215  1
  Al  Al164  1  0.63765444  0.13145830  0.25021271  1
  Al  Al165  1  0.63426417  0.12901544  0.75066183  1
  Al  Al166  1  0.63577394  0.63725989  0.25124578  1
  Al  Al167  1  0.63637888  0.63842924  0.75189328  1
  Al  Al168  1  0.36283407  0.12631404  0.25064676  1
  Al  Al169  1  0.37329826  0.13852717  0.74915116  1
  Al  Al170  1  0.36520388  0.63033520  0.24329365  1
  Al  Al171  1  0.36475541  0.63637527  0.75608972  1
  Al  Al172  1  0.86835058  0.13199787  0.25039940  1
  Al  Al173  1  0.86834263  0.13366729  0.75078951  1
  Al  Al174  1  0.87279949  0.64088926  0.24766680  1
  Al  Al175  1  0.86286082  0.63345638  0.75166261  1
  Al  Al176  1  0.13492140  0.36394514  0.25050933  1
  Al  Al177  1  0.13345673  0.36266035  0.75406590  1
  Al  Al178  1  0.13342222  0.86583577  0.24875493  1
  Al  Al179  1  0.12877725  0.86422020  0.74929558  1
  Al  Al180  1  0.63669381  0.36507513  0.25098068  1
  Al  Al181  1  0.63711601  0.36356092  0.75174675  1
  Al  Al182  1  0.63175799  0.86453364  0.25525008  1
  Al  Al183  1  0.63700698  0.87158274  0.75271907  1
  Al  Al184  1  0.36474334  0.36974629  0.25124859  1
  Al  Al185  1  0.36578291  0.36363141  0.75351013  1
  Al  Al186  1  0.36449742  0.87019101  0.24796923  1
  Al  Al187  1  0.36732323  0.86100881  0.75270416  1
  Al  Al188  1  0.86775398  0.36119089  0.25131901  1
  Al  Al189  1  0.86353154  0.36473320  0.75398943  1
  Al  Al190  1  0.86454658  0.87312017  0.24953636  1
  Al  Al191  1  0.86559834  0.86805262  0.74983226  1
  Al  Al192  1  0.50049651  0.31873085  0.68165756  1
  Al  Al193  1  0.31768340  0.17466837  0.49746541  1
  Al  Al194  1  0.67619468  0.17840382  0.49917713  1
  Al  Al195  1  0.49867018  0.17238528  0.17295235  1
  Al  Al196  1  0.81526192  0.82833173  0.00006329  1
  Al  Al197  1  0.00218787  0.82154520  0.32059185  1
  Al  Al198  1  0.17288777  0.49894018  0.68232309  1
  Al  Al199  1  0.32600940  0.82971872  0.49746137  1
  Al  Al200  1  0.49980673  0.32713439  0.18458202  1
  Al  Al201  1  0.17248837  0.32148963  0.50030510  1
  Al  Al202  1  0.32945559  0.32679219  0.49882460  1
  Al  Al203  1  0.81710884  0.49866152  0.68033403  1
  Al  Al204  1  0.67691783  0.17248048  0.00010747  1
  Al  Al205  1  0.50012793  0.69418065  0.30554631  1
  Al  Al206  1  0.82566293  0.50182708  0.17666262  1
  Al  Al207  1  0.31798950  0.50188934  0.83076484  1
  Al  Al208  1  0.50123175  0.81620446  0.18487030  1
  Al  Al209  1  0.67927765  0.32745020  0.00051968  1
  Al  Al210  1  0.16813837  -0.00056989  0.81494888  1
  Al  Al211  1  0.82836836  0.67526249  0.00164363  1
  Al  Al212  1  0.69317415  0.50033724  0.81662889  1
  Al  Al213  1  -0.00580531  0.67725299  0.82404190  1
  Al  Al214  1  0.50315706  0.82729931  0.68385482  1
  Al  Al215  1  0.67833741  0.00028135  0.17579178  1
  Al  Al216  1  0.32905453  0.67068812  0.49879474  1
  Al  Al217  1  0.66850316  0.50066956  0.17065458  1
  Al  Al218  1  0.17341682  0.32040788  0.00290430  1
  Al  Al219  1  0.81577216  0.81956266  0.50153670  1
  Al  Al220  1  0.18179917  0.50097623  0.17238734  1
  Al  Al221  1  0.18314207  0.81908518  0.00124047  1
  Al  Al222  1  0.50148500  0.67644265  0.68058922  1
  Al  Al223  1  0.67197027  0.68783103  -0.00071310  1
  Al  Al224  1  0.67167381  0.50093584  0.32788364  1
  Al  Al225  1  0.82831062  0.17521355  0.49935777  1
  Al  Al226  1  0.18225976  0.50043645  0.32408554  1
  Al  Al227  1  0.33026896  0.32916888  0.00145257  1
  Al  Al228  1  0.32377050  0.00020860  0.82337992  1
  Al  Al229  1  -0.00068829  0.31608488  0.67296181  1
  Al  Al230  1  0.50002949  0.18937553  0.32767742  1
  Al  Al231  1  0.18684840  -0.00136568  0.18895351  1
  Al  Al232  1  0.00047134  0.31137820  0.18025626  1
  Al  Al233  1  0.17072811  0.67891577  0.49901500  1
  Al  Al234  1  0.32600298  0.49993770  0.67593884  1
  Al  Al235  1  0.81960327  0.50068924  0.32301785  1
  Al  Al236  1  -0.00193686  0.31665039  0.82882549  1
  Al  Al237  1  0.31973417  -0.00275810  0.67852803  1
  Al  Al238  1  0.31847342  0.17467468  0.00113687  1
  Au  Au239  1  0.33180727  -0.00033337  0.83355547  1
  Au  Au240  1  0.16601279  0.66722263  0.49957189  1
  Au  Au241  1  0.33656336  0.49984739  0.66588377  1
  Au  Au242  1  0.33722393  0.83343479  0.50164749  1
  Au  Au243  1  0.16994534  0.15745564  0.49566506  1
  Au  Au244  1  0.33105961  0.49956283  0.32262465  1
  Au  Au245  1  -0.00054252  0.83007880  0.32922318  1
  Au  Au246  1  0.16921858  0.50221306  0.83230777  1
  Au  Au247  1  0.66620475  -0.00179683  0.33139798  1
  Au  Au248  1  0.82822781  0.33689087  0.00013121  1
  Au  Au249  1  -0.00079950  0.83400581  0.83711155  1
  Au  Au250  1  0.65852348  0.50355193  0.67286898  1
  Au  Au251  1  0.00074753  0.66553342  0.66858730  1
  Au  Au252  1  0.66756660  0.82589594  0.49964042  1
  Au  Au253  1  0.32844730  -0.00070019  0.66996894  1
  Au  Au254  1  0.83723272  0.00241352  0.32650098  1
  Au  Au255  1  -0.00406292  0.83786834  0.66656889  1
  Au  Au256  1  0.83903655  0.16125976  -0.00031393  1
  Au  Au257  1  0.83467373  0.50174091  0.16696700  1
  Au  Au258  1  0.00224029  0.66479728  0.32158114  1
  Au  Au259  1  0.67808808  0.00108926  0.66570534  1
  Au  Au260  1  0.82657611  0.67144227  0.50071608  1
  Au  Au261  1  0.17532864  0.33404282  0.50085202  1
  Au  Au262  1  -0.00220050  0.16594896  0.67346712  1
  Au  Au263  1  0.49746015  0.67308430  0.83052238  1
  Au  Au264  1  0.66971256  -0.00193470  0.16687302  1
  Au  Au265  1  0.82795911  0.50058688  0.33331847  1
  Au  Au266  1  0.67317692  0.67128884  0.00202388  1
  Au  Au267  1  -0.00077176  0.32891913  0.83234667  1
  Au  Au268  1  0.49980099  0.17238149  0.32705780  1
  Au  Au269  1  0.34518088  0.66465078  0.49574741  1
  Au  Au270  1  0.49989224  0.16684564  0.83417266  1
  Au  Au271  1  0.66078638  0.32737191  0.49803943  1
  Au  Au272  1  0.50073992  0.33945544  0.82998503  1
  Au  Au273  1  0.00166069  0.32430826  0.32689580  1
  Au  Au274  1  0.67557303  -0.00401806  0.83508648  1
  Au  Au275  1  0.66415938  0.17291990  0.00241001  1
  Au  Au276  1  0.17605905  0.33305767  0.00330247  1
  Au  Au277  1  0.83636797  0.32439978  0.50145202  1
  Au  Au278  1  -0.00020227  0.82884057  0.16416192  1
  Au  Au279  1  0.49825863  0.82516122  0.17595828  1
  Au  Au280  1  0.33284369  0.82842299  -0.00067821  1
  Au  Au281  1  0.16855959  0.15709666  -0.00060855  1
  Au  Au282  1  -0.00336571  0.66880567  0.83293659  1
  Au  Au283  1  0.82953884  0.49741070  0.68331525  1
  Au  Au284  1  0.50172814  0.17191920  0.66117358  1
  Au  Au285  1  0.32315041  -0.00154849  0.32141670  1
  Au  Au286  1  0.16659173  0.84211416  0.49897446  1
  Au  Au287  1  0.17234967  0.67111768  0.00336615  1
