# generated using pymatgen
data_Ca24Ti8Al207Au49
_symmetry_space_group_name_H-M   'P 1'
_cell_length_a   17.32354878
_cell_length_b   17.32337975
_cell_length_c   17.32285076
_cell_angle_alpha   90.00133644
_cell_angle_beta   90.00395992
_cell_angle_gamma   89.99980131
_symmetry_Int_Tables_number   1
_chemical_formula_structural   Ca24Ti8Al207Au49
_chemical_formula_sum   'Ca24 Ti8 Al207 Au49'
_cell_volume   5198.62931754
_cell_formula_units_Z   1
loop_
 _symmetry_equiv_pos_site_id
 _symmetry_equiv_pos_as_xyz
  1  'x, y, z'
loop_
 _atom_site_type_symbol
 _atom_site_label
 _atom_site_symmetry_multiplicity
 _atom_site_fract_x
 _atom_site_fract_y
 _atom_site_fract_z
 _atom_site_occupancy
  Ca  Ca0  1  0.25191664  0.00211604  -0.00214212  1
  Ca  Ca1  1  0.25696615  0.00254209  0.50020634  1
  Ca  Ca2  1  0.25022476  0.49973964  -0.00196943  1
  Ca  Ca3  1  0.24961870  0.49935819  0.50011488  1
  Ca  Ca4  1  0.74869720  0.00256526  -0.00591234  1
  Ca  Ca5  1  0.74583210  0.00219102  0.50605207  1
  Ca  Ca6  1  0.74536778  0.49774563  -0.00671664  1
  Ca  Ca7  1  0.75180446  0.49813581  0.50160339  1
  Ca  Ca8  1  0.00406492  0.24903221  -0.00046990  1
  Ca  Ca9  1  -0.00040886  0.25335102  0.49990734  1
  Ca  Ca10  1  -0.00131663  0.74612360  -0.00049799  1
  Ca  Ca11  1  0.00527742  0.74573574  0.50317286  1
  Ca  Ca12  1  0.49697082  0.25322584  0.00092489  1
  Ca  Ca13  1  0.50009884  0.24713985  0.50030320  1
  Ca  Ca14  1  0.49983701  0.74532316  -0.00101183  1
  Ca  Ca15  1  0.49784375  0.75145624  0.49874288  1
  Ca  Ca16  1  0.00204599  0.00435665  0.25612500  1
  Ca  Ca17  1  -0.00044512  0.00302124  0.74964573  1
  Ca  Ca18  1  0.00412554  0.49232944  0.25373500  1
  Ca  Ca19  1  -0.00272979  0.49562017  0.74686529  1
  Ca  Ca20  1  0.49709831  0.00301700  0.25914073  1
  Ca  Ca21  1  0.50002763  0.00334515  0.74816854  1
  Ca  Ca22  1  0.49395980  0.49799637  0.24940400  1
  Ca  Ca23  1  0.49942455  0.49802937  0.74746851  1
  Ti  Ti24  1  0.25131084  0.25047173  0.25254914  1
  Ti  Ti25  1  0.25047945  0.25105403  0.74825867  1
  Ti  Ti26  1  0.25159600  0.74809190  0.25137125  1
  Ti  Ti27  1  0.25125441  0.74834827  0.74925992  1
  Ti  Ti28  1  0.74971928  0.25092689  0.25268144  1
  Ti  Ti29  1  0.74986341  0.25015202  0.74862067  1
  Ti  Ti30  1  0.74782789  0.74841293  0.25296968  1
  Ti  Ti31  1  0.74867940  0.74924851  0.74795586  1
  Al  Al32  1  0.08334281  0.08876073  0.08387684  1
  Al  Al33  1  0.08850328  0.08845842  0.58020928  1
  Al  Al34  1  0.08285870  0.57299806  0.07943387  1
  Al  Al35  1  0.09962972  0.58460457  0.57885132  1
  Al  Al36  1  0.57375600  0.09018184  0.08904604  1
  Al  Al37  1  0.57752846  0.08507407  0.58409308  1
  Al  Al38  1  0.58091311  0.57923229  0.08035987  1
  Al  Al39  1  0.58402369  0.57616761  0.58432187  1
  Al  Al40  1  0.41993429  0.41013573  0.08972535  1
  Al  Al41  1  0.41866687  0.41027879  0.58806804  1
  Al  Al42  1  0.41929531  0.92024998  0.08172623  1
  Al  Al43  1  0.41582222  0.91584573  0.57801550  1
  Al  Al44  1  0.92443666  0.41003471  0.08980628  1
  Al  Al45  1  0.90872220  0.41387384  0.58286663  1
  Al  Al46  1  0.92312685  0.92647703  0.06882695  1
  Al  Al47  1  0.91394688  0.91894300  0.58327880  1
  Al  Al48  1  0.41259259  0.08773679  0.41340695  1
  Al  Al49  1  0.41363641  0.08337059  0.90994558  1
  Al  Al50  1  0.41122256  0.59682746  0.41551923  1
  Al  Al51  1  0.42022596  0.57784996  0.91821688  1
  Al  Al52  1  0.91843325  0.09282107  0.42009616  1
  Al  Al53  1  0.91849648  0.08737399  0.90040350  1
  Al  Al54  1  0.92848942  0.58681249  0.41512968  1
  Al  Al55  1  0.91299402  0.57509647  0.90965133  1
  Al  Al56  1  0.08009733  0.41269364  0.41364027  1
  Al  Al57  1  0.08098569  0.41383895  0.91513492  1
  Al  Al58  1  0.09332244  0.91342394  0.42435061  1
  Al  Al59  1  0.08584256  0.92443976  0.91672484  1
  Al  Al60  1  0.57666885  0.40911191  0.41993874  1
  Al  Al61  1  0.58243951  0.41722051  0.90877146  1
  Al  Al62  1  0.58278593  0.92279863  0.41288155  1
  Al  Al63  1  0.58777302  0.92441986  0.91336705  1
  Al  Al64  1  0.09006394  0.09300459  0.41948362  1
  Al  Al65  1  0.07990664  0.08996408  0.91173800  1
  Al  Al66  1  0.08948112  0.59303095  0.41535102  1
  Al  Al67  1  0.08059745  0.57655633  0.91690632  1
  Al  Al68  1  0.57779254  0.08509355  0.41057981  1
  Al  Al69  1  0.58483237  0.08079451  0.90862252  1
  Al  Al70  1  0.57072524  0.59114480  0.41439278  1
  Al  Al71  1  0.58992050  0.57579545  0.91459012  1
  Al  Al72  1  0.41687362  0.41354770  0.41744501  1
  Al  Al73  1  0.42156712  0.41365607  0.91483602  1
  Al  Al74  1  0.41107417  0.92023581  0.41510583  1
  Al  Al75  1  0.41312912  0.92606883  0.91090025  1
  Al  Al76  1  0.91875394  0.40349099  0.42104178  1
  Al  Al77  1  0.91771679  0.41892855  0.90682576  1
  Al  Al78  1  0.91924780  0.91679770  0.42670243  1
  Al  Al79  1  0.90680046  0.92900144  0.90816476  1
  Al  Al80  1  0.08254695  0.40899109  0.09136757  1
  Al  Al81  1  0.08732942  0.42255142  0.58229879  1
  Al  Al82  1  0.08461049  0.92832199  0.07497889  1
  Al  Al83  1  0.08947528  0.91176550  0.57902302  1
  Al  Al84  1  0.57707181  0.41583059  0.08552057  1
  Al  Al85  1  0.58374168  0.41223347  0.59063722  1
  Al  Al86  1  0.57672959  0.91880840  0.07760585  1
  Al  Al87  1  0.57867956  0.92125708  0.58233116  1
  Al  Al88  1  0.41833666  0.09212256  0.08951543  1
  Al  Al89  1  0.41359183  0.09232851  0.57986194  1
  Al  Al90  1  0.41914304  0.57883554  0.08426511  1
  Al  Al91  1  0.40654914  0.58742505  0.57626504  1
  Al  Al92  1  0.92885633  0.08995641  0.07831046  1
  Al  Al93  1  0.91382551  0.08533474  0.58098360  1
  Al  Al94  1  0.91904461  0.57645222  0.07883333  1
  Al  Al95  1  0.91313438  0.57350929  0.58399434  1
  Al  Al96  1  0.25446000  0.13859900  0.13834445  1
  Al  Al97  1  0.25214061  0.13423974  0.63183145  1
  Al  Al98  1  0.25427133  0.63358161  0.13382187  1
  Al  Al99  1  0.25032556  0.63059116  0.63178310  1
  Al  Al100  1  0.74915918  0.13868321  0.13664636  1
  Al  Al101  1  0.74796939  0.13642840  0.63616071  1
  Al  Al102  1  0.75236394  0.63437926  0.13947753  1
  Al  Al103  1  0.75085247  0.63345159  0.62909178  1
  Al  Al104  1  0.25406271  0.36353333  0.13735110  1
  Al  Al105  1  0.24927090  0.36886961  0.62912023  1
  Al  Al106  1  0.25271522  0.86362371  0.13435795  1
  Al  Al107  1  0.24915806  0.86587136  0.63161599  1
  Al  Al108  1  0.75299113  0.36228531  0.13813779  1
  Al  Al109  1  0.75239931  0.36664830  0.62876880  1
  Al  Al110  1  0.74730215  0.86535710  0.13849874  1
  Al  Al111  1  0.74666430  0.86543802  0.63532797  1
  Al  Al112  1  0.25221666  0.13590537  0.37001026  1
  Al  Al113  1  0.25341477  0.13196435  0.86234072  1
  Al  Al114  1  0.25153356  0.63574891  0.37258863  1
  Al  Al115  1  0.25178007  0.62805842  0.86537682  1
  Al  Al116  1  0.74490427  0.13477539  0.36493235  1
  Al  Al117  1  0.75109629  0.13064075  0.86364848  1
  Al  Al118  1  0.74982595  0.63649581  0.37302103  1
  Al  Al119  1  0.74761810  0.63190885  0.86118316  1
  Al  Al120  1  0.25182229  0.36103858  0.37301398  1
  Al  Al121  1  0.25254400  0.37011490  0.86087849  1
  Al  Al122  1  0.25005999  0.86290553  0.36818319  1
  Al  Al123  1  0.25060300  0.86904249  0.86468718  1
  Al  Al124  1  0.75440622  0.36108804  0.37313823  1
  Al  Al125  1  0.74933218  0.36478802  0.86271946  1
  Al  Al126  1  0.74542759  0.86381221  0.36670600  1
  Al  Al127  1  0.74992375  0.86889842  0.86194467  1
  Al  Al128  1  0.13542067  0.25363320  0.13630439  1
  Al  Al129  1  0.13928479  0.24838757  0.62873519  1
  Al  Al130  1  0.13782245  0.74503333  0.13340403  1
  Al  Al131  1  0.13965021  0.74645720  0.63211299  1
  Al  Al132  1  0.63320538  0.25035798  0.13597991  1
  Al  Al133  1  0.63659261  0.25414717  0.62986883  1
  Al  Al134  1  0.63514331  0.74921918  0.13675926  1
  Al  Al135  1  0.63623636  0.74584931  0.62986677  1
  Al  Al136  1  0.13442424  0.25047367  0.36957234  1
  Al  Al137  1  0.13887853  0.25013004  0.86328069  1
  Al  Al138  1  0.13799687  0.74652809  0.37058645  1
  Al  Al139  1  0.14179404  0.74592624  0.86450804  1
  Al  Al140  1  0.63363095  0.25000703  0.37182882  1
  Al  Al141  1  0.63705456  0.24903672  0.86550415  1
  Al  Al142  1  0.63408971  0.74783573  0.37142910  1
  Al  Al143  1  0.63511307  0.74826171  0.86296425  1
  Al  Al144  1  0.36566535  0.25108927  0.13350329  1
  Al  Al145  1  0.36193111  0.25131200  0.63128281  1
  Al  Al146  1  0.36485891  0.74752822  0.13236837  1
  Al  Al147  1  0.36124487  0.74461346  0.63333328  1
  Al  Al148  1  0.86724760  0.25130752  0.13466803  1
  Al  Al149  1  0.86481260  0.25097329  0.63424080  1
  Al  Al150  1  0.86460036  0.74579193  0.13560684  1
  Al  Al151  1  0.86547723  0.74794541  0.63628809  1
  Al  Al152  1  0.36586805  0.24717784  0.37341854  1
  Al  Al153  1  0.36232168  0.24981193  0.86721395  1
  Al  Al154  1  0.36431514  0.74571579  0.36847884  1
  Al  Al155  1  0.36390601  0.74644567  0.86636598  1
  Al  Al156  1  0.87119010  0.25278400  0.36558679  1
  Al  Al157  1  0.86354852  0.24910211  0.86546609  1
  Al  Al158  1  0.86593341  0.74650578  0.36600225  1
  Al  Al159  1  0.86009656  0.74497411  0.86232951  1
  Al  Al160  1  0.13624917  0.13733537  0.25584327  1
  Al  Al161  1  0.13561421  0.13511594  0.75211561  1
  Al  Al162  1  0.13665917  0.63510434  0.25680743  1
  Al  Al163  1  0.14036173  0.62727371  0.74665617  1
  Al  Al164  1  0.63321886  0.13591984  0.25430738  1
  Al  Al165  1  0.63460274  0.13728984  0.75139572  1
  Al  Al166  1  0.63097636  0.63777974  0.25291924  1
  Al  Al167  1  0.63030723  0.63455240  0.74839899  1
  Al  Al168  1  0.36583992  0.13494541  0.25930574  1
  Al  Al169  1  0.36378134  0.13262267  0.74724175  1
  Al  Al170  1  0.36753682  0.63223747  0.25333027  1
  Al  Al171  1  0.36649577  0.62969596  0.74819730  1
  Al  Al172  1  0.86641453  0.13668742  0.25641883  1
  Al  Al173  1  0.86745658  0.13493913  0.75268440  1
  Al  Al174  1  0.86522390  0.63354475  0.25490956  1
  Al  Al175  1  0.86355502  0.63248282  0.74515591  1
  Al  Al176  1  0.13432565  0.36235427  0.25290016  1
  Al  Al177  1  0.13823774  0.36800999  0.74769703  1
  Al  Al178  1  0.13798643  0.86265637  0.25359214  1
  Al  Al179  1  0.13857122  0.86513715  0.74922097  1
  Al  Al180  1  0.63379121  0.36334674  0.25077128  1
  Al  Al181  1  0.63540445  0.36527336  0.74813277  1
  Al  Al182  1  0.63377741  0.86502096  0.25540842  1
  Al  Al183  1  0.63571254  0.86481502  0.75175767  1
  Al  Al184  1  0.36377800  0.36763253  0.25364344  1
  Al  Al185  1  0.36405128  0.36889560  0.74369444  1
  Al  Al186  1  0.36439194  0.86348213  0.25511476  1
  Al  Al187  1  0.36211006  0.86725063  0.74834982  1
  Al  Al188  1  0.86911129  0.36257249  0.25182382  1
  Al  Al189  1  0.86388715  0.36428678  0.74589557  1
  Al  Al190  1  0.86406322  0.86277278  0.25380590  1
  Al  Al191  1  0.86214698  0.86476512  0.75167386  1
  Al  Al192  1  0.69083056  0.49986478  0.69034040  1
  Al  Al193  1  0.82719518  0.82302530  -0.00187511  1
  Al  Al194  1  0.17879976  0.17474615  -0.00013164  1
  Al  Al195  1  -0.00041316  0.82357852  0.83213678  1
  Al  Al196  1  0.67297926  0.17358543  -0.00233452  1
  Al  Al197  1  0.17814426  0.82220426  0.00342298  1
  Al  Al198  1  0.49844017  0.19234801  0.19396912  1
  Al  Al199  1  0.83055703  0.49644722  0.32683875  1
  Al  Al200  1  0.18383671  0.00014511  0.32820589  1
  Al  Al201  1  0.82438014  0.00100477  0.68237911  1
  Al  Al202  1  0.49879185  0.81869725  0.33060225  1
  Al  Al203  1  0.81942953  0.81784531  0.50184710  1
  Al  Al204  1  0.49881750  0.30607613  0.30843977  1
  Al  Al205  1  0.49958799  0.81729162  0.17438513  1
  Al  Al206  1  0.49896306  0.81867537  0.67192686  1
  Al  Al207  1  0.49931926  0.19123464  0.67835365  1
  Al  Al208  1  0.81722937  -0.00132230  0.33254074  1
  Al  Al209  1  0.81044328  0.49847601  0.80642091  1
  Al  Al210  1  0.17860274  0.49825348  0.32931475  1
  Al  Al211  1  0.00101310  0.31156206  0.82248374  1
  Al  Al212  1  0.00123980  0.82664777  0.17060968  1
  Al  Al213  1  0.17896590  0.49880839  0.17632738  1
  Al  Al214  1  0.83045725  0.32399503  -0.00136297  1
  Al  Al215  1  0.00094725  0.66852172  0.18626982  1
  Al  Al216  1  0.81644313  0.18865290  0.49929752  1
  Al  Al217  1  0.67849379  0.67145458  0.00081059  1
  Al  Al218  1  0.66955923  0.50128222  0.33119359  1
  Al  Al219  1  0.00224713  0.33041672  0.67157297  1
  Al  Al220  1  0.00211310  0.81554745  0.33163079  1
  Al  Al221  1  0.67114970  0.00127727  0.68411464  1
  Al  Al222  1  0.17483738  0.00202458  0.17387694  1
  Al  Al223  1  0.17829819  -0.00246276  0.67624087  1
  Al  Al224  1  0.31706731  0.81640465  0.49999577  1
  Al  Al225  1  0.49877713  0.82588156  0.82818563  1
  Al  Al226  1  0.00329863  0.67042572  0.67386387  1
  Al  Al227  1  0.00114419  0.82690035  0.67191248  1
  Al  Al228  1  0.67118001  0.32983241  0.00065093  1
  Al  Al229  1  0.00117040  0.17462295  0.68176246  1
  Al  Al230  1  0.00041914  0.67219127  0.82684733  1
  Al  Al231  1  0.49908439  0.31749754  0.81065213  1
  Al  Al232  1  0.18017787  0.32780861  -0.00092389  1
  Al  Al233  1  0.67829655  0.49896677  0.17323738  1
  Al  Al234  1  0.67001130  0.82575010  -0.00095677  1
  Al  Al235  1  0.66795065  0.00057697  0.18579357  1
  Al  Al236  1  0.00216028  0.18751771  0.18292169  1
  Al  Al237  1  0.32937557  0.00049015  0.19021936  1
  Al  Al238  1  0.82685762  0.00210301  0.17373123  1
  Au  Au239  1  0.65832398  0.00038709  0.17179570  1
  Au  Au240  1  0.82672019  0.65798962  -0.00389465  1
  Au  Au241  1  0.33431069  0.32259308  0.50251453  1
  Au  Au242  1  0.49957809  0.83825914  0.82468790  1
  Au  Au243  1  0.49648596  0.67029325  0.65905003  1
  Au  Au244  1  0.16373847  0.32546251  0.49992585  1
  Au  Au245  1  0.82071687  0.83889385  -0.00204561  1
  Au  Au246  1  0.16919112  0.83074968  0.00124398  1
  Au  Au247  1  0.67089895  0.84078731  0.49965152  1
  Au  Au248  1  0.32787713  0.16448073  -0.00183413  1
  Au  Au249  1  0.17302768  0.00047699  0.33761229  1
  Au  Au250  1  0.66994254  0.16232531  0.49828343  1
  Au  Au251  1  0.84144128  0.00773026  0.16589978  1
  Au  Au252  1  0.00067142  0.17786779  0.66903550  1
  Au  Au253  1  0.00190692  0.17877787  0.33055486  1
  Au  Au254  1  0.66193805  0.16972613  0.00247766  1
  Au  Au255  1  0.32812227  0.49736785  0.16743542  1
  Au  Au256  1  0.32998867  0.00132958  0.17314570  1
  Au  Au257  1  0.83646770  0.16393561  -0.00518287  1
  Au  Au258  1  0.16449419  0.66702798  -0.00121838  1
  Au  Au259  1  0.82770065  0.49596271  0.16205642  1
  Au  Au260  1  0.34197737  0.00074864  0.67279059  1
  Au  Au261  1  0.33240120  0.49777353  0.82928384  1
  Au  Au262  1  0.65351418  0.50229260  0.32426041  1
  Au  Au263  1  0.50073089  0.82954964  0.17760515  1
  Au  Au264  1  0.33507192  0.66682644  0.00013609  1
  Au  Au265  1  0.16165056  0.49781362  0.82220894  1
  Au  Au266  1  0.33041996  0.33428077  0.00003540  1
  Au  Au267  1  0.32563204  0.49949475  0.66144949  1
  Au  Au268  1  0.00277672  0.65555637  0.17532782  1
  Au  Au269  1  0.49790305  0.31720284  0.32149042  1
  Au  Au270  1  -0.00213026  0.83918679  0.82516149  1
  Au  Au271  1  0.17689769  0.00455739  0.83278376  1
  Au  Au272  1  0.82969344  0.33672987  -0.00343360  1
  Au  Au273  1  0.82496264  -0.00084800  0.34764684  1
  Au  Au274  1  0.32838088  0.50250665  0.33915855  1
  Au  Au275  1  0.00239353  0.84381208  0.16714065  1
  Au  Au276  1  0.67746319  0.49909688  0.68011832  1
  Au  Au277  1  0.67570223  0.33228333  0.50125703  1
  Au  Au278  1  0.33325764  0.83592793  -0.00412818  1
  Au  Au279  1  0.50174218  0.66306373  0.17707006  1
  Au  Au280  1  0.50416221  0.66158033  0.83132234  1
  Au  Au281  1  0.83832136  0.66988459  0.49954605  1
  Au  Au282  1  0.16965506  0.00011983  0.66769151  1
  Au  Au283  1  0.00248530  0.82342675  0.34665149  1
  Au  Au284  1  0.00381983  0.66028105  0.66412598  1
  Au  Au285  1  0.84206906  0.49579903  0.33450883  1
  Au  Au286  1  0.66456223  0.66747129  0.49946828  1
  Au  Au287  1  0.49814063  0.16952354  0.82481402  1
