# generated using pymatgen
data_Ca24Ti8Al207Au49
_symmetry_space_group_name_H-M   'P 1'
_cell_length_a   17.32552148
_cell_length_b   17.32290965
_cell_length_c   17.32558255
_cell_angle_alpha   89.99920866
_cell_angle_beta   89.99894989
_cell_angle_gamma   89.99741018
_symmetry_Int_Tables_number   1
_chemical_formula_structural   Ca24Ti8Al207Au49
_chemical_formula_sum   'Ca24 Ti8 Al207 Au49'
_cell_volume   5199.90011410
_cell_formula_units_Z   1
loop_
 _symmetry_equiv_pos_site_id
 _symmetry_equiv_pos_as_xyz
  1  'x, y, z'
loop_
 _atom_site_type_symbol
 _atom_site_label
 _atom_site_symmetry_multiplicity
 _atom_site_fract_x
 _atom_site_fract_y
 _atom_site_fract_z
 _atom_site_occupancy
  Ca  Ca0  1  0.25104508  -0.00129455  0.00247574  1
  Ca  Ca1  1  0.25457208  0.00232518  0.49451191  1
  Ca  Ca2  1  0.25306382  0.50074403  0.00153112  1
  Ca  Ca3  1  0.25460868  0.49507739  0.49826051  1
  Ca  Ca4  1  0.74465650  -0.00081560  -0.00342088  1
  Ca  Ca5  1  0.74913562  -0.00343200  0.50057671  1
  Ca  Ca6  1  0.74569493  0.50005782  0.00542148  1
  Ca  Ca7  1  0.74503053  0.50204852  0.49612414  1
  Ca  Ca8  1  -0.00517071  0.25184243  0.00244837  1
  Ca  Ca9  1  0.00098855  0.24604439  0.49584279  1
  Ca  Ca10  1  -0.00158911  0.75458839  0.00154895  1
  Ca  Ca11  1  -0.00204257  0.75627411  0.49960114  1
  Ca  Ca12  1  0.50462723  0.25073825  0.00369540  1
  Ca  Ca13  1  0.49861489  0.24756597  0.49787917  1
  Ca  Ca14  1  0.50156866  0.75168327  -0.00410868  1
  Ca  Ca15  1  0.50466698  0.75519314  0.50210238  1
  Ca  Ca16  1  0.00184291  -0.00165852  0.24800423  1
  Ca  Ca17  1  -0.00772182  0.00268307  0.75102320  1
  Ca  Ca18  1  -0.00212500  0.50070099  0.24523981  1
  Ca  Ca19  1  -0.00103875  0.49609037  0.75048063  1
  Ca  Ca20  1  0.50110578  0.00489200  0.25210427  1
  Ca  Ca21  1  0.50461790  -0.00102804  0.75021760  1
  Ca  Ca22  1  0.50209428  0.49883311  0.24447283  1
  Ca  Ca23  1  0.50251120  0.50003630  0.75251804  1
  Ti  Ti24  1  0.25110656  0.25143876  0.25069655  1
  Ti  Ti25  1  0.25088706  0.24890449  0.74955000  1
  Ti  Ti26  1  0.25202435  0.74922365  0.24910417  1
  Ti  Ti27  1  0.25383463  0.75111968  0.74961489  1
  Ti  Ti28  1  0.74891169  0.24931217  0.24913866  1
  Ti  Ti29  1  0.74897001  0.24962093  0.75087488  1
  Ti  Ti30  1  0.74829794  0.75242598  0.24753113  1
  Ti  Ti31  1  0.74764200  0.75164515  0.75096640  1
  Al  Al32  1  0.08204255  0.07995096  0.08111442  1
  Al  Al33  1  0.07276325  0.08163305  0.57562570  1
  Al  Al34  1  0.07934773  0.58507207  0.08371700  1
  Al  Al35  1  0.07857855  0.57352838  0.57610982  1
  Al  Al36  1  0.58001352  0.09084738  0.08227250  1
  Al  Al37  1  0.58354632  0.07994977  0.58378982  1
  Al  Al38  1  0.58945038  0.57522831  0.08634346  1
  Al  Al39  1  0.57841070  0.58794924  0.58951955  1
  Al  Al40  1  0.43136310  0.41099027  0.08869019  1
  Al  Al41  1  0.41385705  0.40979811  0.57893370  1
  Al  Al42  1  0.42116068  0.91333419  0.09109181  1
  Al  Al43  1  0.42669906  0.91101223  0.58726015  1
  Al  Al44  1  0.90028684  0.41522989  0.09028995  1
  Al  Al45  1  0.92135599  0.41848974  0.57916459  1
  Al  Al46  1  0.91434420  0.90338776  0.07833822  1
  Al  Al47  1  0.90023743  0.91777620  0.58257950  1
  Al  Al48  1  0.41191189  0.08857460  0.40868495  1
  Al  Al49  1  0.43327297  0.09195923  0.91563871  1
  Al  Al50  1  0.42025919  0.58126168  0.42247891  1
  Al  Al51  1  0.42275360  0.59652377  0.91629934  1
  Al  Al52  1  0.92347099  0.08439357  0.41387243  1
  Al  Al53  1  0.90740772  0.07561291  0.90855357  1
  Al  Al54  1  0.91195433  0.58185669  0.41683456  1
  Al  Al55  1  0.91882561  0.57768708  0.93155095  1
  Al  Al56  1  0.08543913  0.40969099  0.41798265  1
  Al  Al57  1  0.07526136  0.41704454  0.92135308  1
  Al  Al58  1  0.08127906  0.92473473  0.40939205  1
  Al  Al59  1  0.07229218  0.91706212  0.93279033  1
  Al  Al60  1  0.57784785  0.41770246  0.41044368  1
  Al  Al61  1  0.59144913  0.41129647  0.92510385  1
  Al  Al62  1  0.58165852  0.91615378  0.42192527  1
  Al  Al63  1  0.58969186  0.91536647  0.90628504  1
  Al  Al64  1  0.08306602  0.08442461  0.40407832  1
  Al  Al65  1  0.07191413  0.08503151  0.92500158  1
  Al  Al66  1  0.07853980  0.57664849  0.41724568  1
  Al  Al67  1  0.08177997  0.58215673  0.92579709  1
  Al  Al68  1  0.57388373  0.09032116  0.41637712  1
  Al  Al69  1  0.59143999  0.08756923  0.90738873  1
  Al  Al70  1  0.58219025  0.57874171  0.41446322  1
  Al  Al71  1  0.58052421  0.58427583  0.91751816  1
  Al  Al72  1  0.41598348  0.40512794  0.41740194  1
  Al  Al73  1  0.42868596  0.42304536  0.92311756  1
  Al  Al74  1  0.41422362  0.92481410  0.41037382  1
  Al  Al75  1  0.42957158  0.90908140  0.91693776  1
  Al  Al76  1  0.91771332  0.41987022  0.41180941  1
  Al  Al77  1  0.90990965  0.40748623  0.93022029  1
  Al  Al78  1  0.91402918  0.90998231  0.42190019  1
  Al  Al79  1  0.89953337  0.91393178  0.91598847  1
  Al  Al80  1  0.07242435  0.42035856  0.08154283  1
  Al  Al81  1  0.08459570  0.40942428  0.57547046  1
  Al  Al82  1  0.07733317  0.90455274  0.08988476  1
  Al  Al83  1  0.07732398  0.92397100  0.57484772  1
  Al  Al84  1  0.59489342  0.40990256  0.08831676  1
  Al  Al85  1  0.57470920  0.41999139  0.58080557  1
  Al  Al86  1  0.58099462  0.90915055  0.08299776  1
  Al  Al87  1  0.58690346  0.91077111  0.58857950  1
  Al  Al88  1  0.42379146  0.08444955  0.08878813  1
  Al  Al89  1  0.42024011  0.08648604  0.57588076  1
  Al  Al90  1  0.42110757  0.58430182  0.07622769  1
  Al  Al91  1  0.42214386  0.58980599  0.58438246  1
  Al  Al92  1  0.91801090  0.07904653  0.07782664  1
  Al  Al93  1  0.91114081  0.07665289  0.59224934  1
  Al  Al94  1  0.90434992  0.57852126  0.09099842  1
  Al  Al95  1  0.91447317  0.58379733  0.57494401  1
  Al  Al96  1  0.25351225  0.13472999  0.13914187  1
  Al  Al97  1  0.25324365  0.13058900  0.63733812  1
  Al  Al98  1  0.25137733  0.63141398  0.13684961  1
  Al  Al99  1  0.25550513  0.63599685  0.63849623  1
  Al  Al100  1  0.74984280  0.12993573  0.13527545  1
  Al  Al101  1  0.75320796  0.13203454  0.63787050  1
  Al  Al102  1  0.74863015  0.63577407  0.13470528  1
  Al  Al103  1  0.74627440  0.63220870  0.63869539  1
  Al  Al104  1  0.24812425  0.37183948  0.13775571  1
  Al  Al105  1  0.25300677  0.36372292  0.63707287  1
  Al  Al106  1  0.25415775  0.86312370  0.13560085  1
  Al  Al107  1  0.25248560  0.86665969  0.63016752  1
  Al  Al108  1  0.74904686  0.36821555  0.13414975  1
  Al  Al109  1  0.74987357  0.36953459  0.63853898  1
  Al  Al110  1  0.74752254  0.86680835  0.12833415  1
  Al  Al111  1  0.75288054  0.86903572  0.63656079  1
  Al  Al112  1  0.25274897  0.13647922  0.36373178  1
  Al  Al113  1  0.25110132  0.13387811  0.86319831  1
  Al  Al114  1  0.25081790  0.62984805  0.36207373  1
  Al  Al115  1  0.25223196  0.63521152  0.86257150  1
  Al  Al116  1  0.75150403  0.13450671  0.36415540  1
  Al  Al117  1  0.74941511  0.12970789  0.86366252  1
  Al  Al118  1  0.75030742  0.63692435  0.35962378  1
  Al  Al119  1  0.74921184  0.63709941  0.86474390  1
  Al  Al120  1  0.25482699  0.36779541  0.36178459  1
  Al  Al121  1  0.24996218  0.36505852  0.86479457  1
  Al  Al122  1  0.25334799  0.86477149  0.36683930  1
  Al  Al123  1  0.25494711  0.86742324  0.86375025  1
  Al  Al124  1  0.74704482  0.36309474  0.35867212  1
  Al  Al125  1  0.74679538  0.36389565  0.86996254  1
  Al  Al126  1  0.75044100  0.86905618  0.36286659  1
  Al  Al127  1  0.74880003  0.86715583  0.86974378  1
  Al  Al128  1  0.13693622  0.25088314  0.13827128  1
  Al  Al129  1  0.13705374  0.25070642  0.63379873  1
  Al  Al130  1  0.12987411  0.74636171  0.13776985  1
  Al  Al131  1  0.13704662  0.75226749  0.63335917  1
  Al  Al132  1  0.63655309  0.25432979  0.13450616  1
  Al  Al133  1  0.63651331  0.24411606  0.63669161  1
  Al  Al134  1  0.63064436  0.75485679  0.13515599  1
  Al  Al135  1  0.63067731  0.75558077  0.63963439  1
  Al  Al136  1  0.13176707  0.25132701  0.36236640  1
  Al  Al137  1  0.13514101  0.25268070  0.86493348  1
  Al  Al138  1  0.13832661  0.75294060  0.36296763  1
  Al  Al139  1  0.13665439  0.74850027  0.86275985  1
  Al  Al140  1  0.63343854  0.24705496  0.36216267  1
  Al  Al141  1  0.63591495  0.24796656  0.86487204  1
  Al  Al142  1  0.63468297  0.75463463  0.36134807  1
  Al  Al143  1  0.63459438  0.75218067  0.86595482  1
  Al  Al144  1  0.36551498  0.25259271  0.13936201  1
  Al  Al145  1  0.36462822  0.24934684  0.63493766  1
  Al  Al146  1  0.37193809  0.75108098  0.13839561  1
  Al  Al147  1  0.37218397  0.75367621  0.63740798  1
  Al  Al148  1  0.86076844  0.25367552  0.13084898  1
  Al  Al149  1  0.86283830  0.24901891  0.63494128  1
  Al  Al150  1  0.86634076  0.75509957  0.13332462  1
  Al  Al151  1  0.86225974  0.75373138  0.63632698  1
  Al  Al152  1  0.36715221  0.25170646  0.36333561  1
  Al  Al153  1  0.36776946  0.24670099  0.86429590  1
  Al  Al154  1  0.36588282  0.75370507  0.36384389  1
  Al  Al155  1  0.36772218  0.75145783  0.86420582  1
  Al  Al156  1  0.87019839  0.24936410  0.36118228  1
  Al  Al157  1  0.86017052  0.25346957  0.86595958  1
  Al  Al158  1  0.86244006  0.75280975  0.36259926  1
  Al  Al159  1  0.86121703  0.75466110  0.86550738  1
  Al  Al160  1  0.13497196  0.13555377  0.25315964  1
  Al  Al161  1  0.13606769  0.13431041  0.74877353  1
  Al  Al162  1  0.13705052  0.62868907  0.24875015  1
  Al  Al163  1  0.13612386  0.63478509  0.74657732  1
  Al  Al164  1  0.63602531  0.13195963  0.24880918  1
  Al  Al165  1  0.62909667  0.13287659  0.75397752  1
  Al  Al166  1  0.63145291  0.63528004  0.24304341  1
  Al  Al167  1  0.62758290  0.63930061  0.75097635  1
  Al  Al168  1  0.36879753  0.13418749  0.25632433  1
  Al  Al169  1  0.37325725  0.13581763  0.74846335  1
  Al  Al170  1  0.36843854  0.63057242  0.24889838  1
  Al  Al171  1  0.37422663  0.63685713  0.75040364  1
  Al  Al172  1  0.86456724  0.13577495  0.24864892  1
  Al  Al173  1  0.86255638  0.13243452  0.75208539  1
  Al  Al174  1  0.86412499  0.63621490  0.24237782  1
  Al  Al175  1  0.86406590  0.63776778  0.74624847  1
  Al  Al176  1  0.13526621  0.36935070  0.25324466  1
  Al  Al177  1  0.12966040  0.36327250  0.74910324  1
  Al  Al178  1  0.13688876  0.86275114  0.24610480  1
  Al  Al179  1  0.13853285  0.86557833  0.74628079  1
  Al  Al180  1  0.63235619  0.36710581  0.24299292  1
  Al  Al181  1  0.63636646  0.36311580  0.74940908  1
  Al  Al182  1  0.63403314  0.87134932  0.24731101  1
  Al  Al183  1  0.63820374  0.87010161  0.75373199  1
  Al  Al184  1  0.36675098  0.37197647  0.24683954  1
  Al  Al185  1  0.36569676  0.36530574  0.75330584  1
  Al  Al186  1  0.36945488  0.86680313  0.25164215  1
  Al  Al187  1  0.36621354  0.86986988  0.74557224  1
  Al  Al188  1  0.86220639  0.36598076  0.24806904  1
  Al  Al189  1  0.86776028  0.36401113  0.74860660  1
  Al  Al190  1  0.86563558  0.86672537  0.24439282  1
  Al  Al191  1  0.85947326  0.87185319  0.75431058  1
  Al  Al192  1  0.66736902  0.32667156  0.49982035  1
  Al  Al193  1  -0.00240640  0.82678789  0.67116731  1
  Al  Al194  1  0.32280067  0.00134014  0.18168230  1
  Al  Al195  1  0.82770657  -0.00229531  0.32057331  1
  Al  Al196  1  0.33518939  0.00383857  0.82533078  1
  Al  Al197  1  0.66896233  0.67274941  0.50023480  1
  Al  Al198  1  0.50017638  0.31851932  0.67505528  1
  Al  Al199  1  0.18167984  0.81884193  0.00044846  1
  Al  Al200  1  0.32439909  0.32844687  0.00090168  1
  Al  Al201  1  0.50145023  0.80971311  0.80486166  1
  Al  Al202  1  0.33014145  0.16984577  0.00169171  1
  Al  Al203  1  0.82467062  0.17827499  -0.00218673  1
  Al  Al204  1  0.50076792  0.31103536  0.30699850  1
  Al  Al205  1  0.82740539  0.50002806  0.82774530  1
  Al  Al206  1  0.17088355  0.16964802  0.49814386  1
  Al  Al207  1  0.67805160  0.17276194  0.50019533  1
  Al  Al208  1  0.32025263  0.68386674  0.00097440  1
  Al  Al209  1  0.17648597  0.49928657  0.82183028  1
  Al  Al210  1  0.50253948  0.31987694  0.82948035  1
  Al  Al211  1  0.67073714  0.50127307  0.82176338  1
  Al  Al212  1  -0.00220268  0.32675403  0.18124341  1
  Al  Al213  1  0.67383633  0.50023630  0.31496629  1
  Al  Al214  1  0.50157857  0.19203626  0.18969017  1
  Al  Al215  1  0.19169477  -0.00068446  0.31562605  1
  Al  Al216  1  0.67304962  0.18652992  0.00049670  1
  Al  Al217  1  0.82489724  0.50144274  0.31370950  1
  Al  Al218  1  0.17144494  0.67706599  0.49962843  1
  Al  Al219  1  0.32287826  0.18763124  0.49890629  1
  Al  Al220  1  0.16588862  -0.00254755  0.82644025  1
  Al  Al221  1  0.00004914  0.67322826  0.31922717  1
  Al  Al222  1  0.49698739  0.67975157  0.32247296  1
  Al  Al223  1  0.00023719  0.16909225  0.18423149  1
  Al  Al224  1  0.67290944  0.67861401  0.00050212  1
  Al  Al225  1  0.32807640  0.68164302  0.50036281  1
  Al  Al226  1  0.00017790  0.82900634  0.31656878  1
  Al  Al227  1  -0.00242319  0.17690606  0.82677425  1
  Al  Al228  1  0.68645032  0.00223316  0.68683663  1
  Al  Al229  1  0.68869813  0.82296216  0.50108729  1
  Al  Al230  1  0.17571829  0.17654948  0.00058062  1
  Al  Al231  1  0.82489722  0.68255706  0.00096306  1
  Al  Al232  1  0.82466791  0.32145225  0.49704924  1
  Al  Al233  1  0.82275823  0.68857145  0.49922002  1
  Al  Al234  1  -0.00117550  0.82927183  0.82832536  1
  Al  Al235  1  -0.00329261  0.66932114  0.82572477  1
  Al  Al236  1  0.32713728  0.50220666  0.67533933  1
  Al  Al237  1  -0.00103627  0.17677892  0.67381061  1
  Al  Al238  1  0.19309762  0.32000854  0.49775552  1
  Au  Au239  1  -0.00606702  0.67664045  0.15966959  1
  Au  Au240  1  0.66067195  0.00086808  0.16453862  1
  Au  Au241  1  -0.00508724  0.32501933  0.83824325  1
  Au  Au242  1  0.00014515  0.17485553  0.16804782  1
  Au  Au243  1  0.34086125  0.50047825  0.16566442  1
  Au  Au244  1  0.33385762  0.49897243  0.33856995  1
  Au  Au245  1  0.16257439  -0.00460107  0.16976951  1
  Au  Au246  1  0.16689260  0.49909654  0.83588419  1
  Au  Au247  1  0.00121093  0.32537729  0.66376681  1
  Au  Au248  1  -0.00681790  0.84315452  0.67222748  1
  Au  Au249  1  0.16724079  0.00486036  0.66063090  1
  Au  Au250  1  0.67485797  -0.00076505  0.67495962  1
  Au  Au251  1  0.50090147  0.68467443  0.67962698  1
  Au  Au252  1  0.33508684  0.00286013  0.18468998  1
  Au  Au253  1  0.33477926  -0.00050594  0.65882976  1
  Au  Au254  1  0.15373326  -0.00279852  0.83695851  1
  Au  Au255  1  0.66355378  0.00502423  0.33659825  1
  Au  Au256  1  0.34036683  0.32335753  0.00057191  1
  Au  Au257  1  -0.00021522  0.67857984  0.33541258  1
  Au  Au258  1  0.33570812  0.49989836  0.66646135  1
  Au  Au259  1  0.67224556  0.82906768  -0.00226795  1
  Au  Au260  1  0.16723992  0.83934022  0.49425593  1
  Au  Au261  1  0.34719465  0.00298121  0.83573101  1
  Au  Au262  1  -0.00040434  0.32618474  0.33118050  1
  Au  Au263  1  0.83638879  0.00111127  0.32893553  1
  Au  Au264  1  0.83288813  0.50098445  0.66527955  1
  Au  Au265  1  0.34512787  0.50480295  0.83194085  1
  Au  Au266  1  0.81974785  0.33721671  0.49643870  1
  Au  Au267  1  0.16628604  0.49848146  0.16474999  1
  Au  Au268  1  0.15751205  0.32421919  0.00507235  1
  Au  Au269  1  0.00237654  0.66145574  0.66499208  1
  Au  Au270  1  0.50322448  0.67605682  0.15797184  1
  Au  Au271  1  0.17052714  0.49527491  0.66085577  1
  Au  Au272  1  0.66118455  0.49815463  0.67095431  1
  Au  Au273  1  0.50075868  0.31947155  0.32147350  1
  Au  Au274  1  0.83358862  -0.00652790  0.16321482  1
  Au  Au275  1  0.82421777  0.16550143  -0.00449966  1
  Au  Au276  1  0.16681992  0.49726414  0.33147079  1
  Au  Au277  1  -0.00446152  0.67518890  0.84180799  1
  Au  Au278  1  0.81852211  0.67624382  0.49812416  1
  Au  Au279  1  0.82790534  0.15644199  0.50120426  1
  Au  Au280  1  0.17297456  0.67092116  0.00275010  1
  Au  Au281  1  0.17779945  0.66120484  0.50018545  1
  Au  Au282  1  0.82505003  0.49645935  0.84371620  1
  Au  Au283  1  0.49954392  0.67149124  0.33146411  1
  Au  Au284  1  0.50103816  0.83815722  0.32300614  1
  Au  Au285  1  0.33387808  0.83258955  0.00180007  1
  Au  Au286  1  0.50123414  0.17022931  0.67190023  1
  Au  Au287  1  0.34252947  0.83049187  0.49878455  1
