# generated using pymatgen
data_Ca24Ti8Al207Au49
_symmetry_space_group_name_H-M   'P 1'
_cell_length_a   17.31989104
_cell_length_b   17.32181737
_cell_length_c   17.31941030
_cell_angle_alpha   89.99933506
_cell_angle_beta   89.99894778
_cell_angle_gamma   89.99617025
_symmetry_Int_Tables_number   1
_chemical_formula_structural   Ca24Ti8Al207Au49
_chemical_formula_sum   'Ca24 Ti8 Al207 Au49'
_cell_volume   5196.03072806
_cell_formula_units_Z   1
loop_
 _symmetry_equiv_pos_site_id
 _symmetry_equiv_pos_as_xyz
  1  'x, y, z'
loop_
 _atom_site_type_symbol
 _atom_site_label
 _atom_site_symmetry_multiplicity
 _atom_site_fract_x
 _atom_site_fract_y
 _atom_site_fract_z
 _atom_site_occupancy
  Ca  Ca0  1  0.24795896  -0.00381106  0.00385971  1
  Ca  Ca1  1  0.24762013  0.00006179  0.49508389  1
  Ca  Ca2  1  0.24710130  0.50160154  -0.00224079  1
  Ca  Ca3  1  0.25059175  0.50004859  0.50010868  1
  Ca  Ca4  1  0.74353837  -0.00202537  -0.00053291  1
  Ca  Ca5  1  0.74559593  -0.00127318  0.50001722  1
  Ca  Ca6  1  0.75416472  0.50193237  -0.00306314  1
  Ca  Ca7  1  0.75215471  0.50075203  0.50290017  1
  Ca  Ca8  1  -0.00258092  0.25188208  0.00014167  1
  Ca  Ca9  1  0.00004341  0.24956774  0.49838437  1
  Ca  Ca10  1  -0.00147518  0.74936258  0.00289861  1
  Ca  Ca11  1  -0.00092752  0.75095046  0.49749771  1
  Ca  Ca12  1  0.50517134  0.24953454  0.00379723  1
  Ca  Ca13  1  0.49967322  0.24635877  0.49620423  1
  Ca  Ca14  1  0.50156427  0.75142660  -0.00582599  1
  Ca  Ca15  1  0.50263417  0.75063049  0.50672233  1
  Ca  Ca16  1  0.00170405  -0.00185753  0.25102740  1
  Ca  Ca17  1  0.00179870  -0.00327886  0.75353202  1
  Ca  Ca18  1  -0.00328445  0.50137812  0.25048279  1
  Ca  Ca19  1  -0.00264687  0.50215495  0.75635946  1
  Ca  Ca20  1  0.49861421  0.00636383  0.25224270  1
  Ca  Ca21  1  0.49979449  -0.00352452  0.75244867  1
  Ca  Ca22  1  0.50200405  0.49753102  0.25173285  1
  Ca  Ca23  1  0.50278721  0.50591536  0.75099232  1
  Ti  Ti24  1  0.24893422  0.24944925  0.25124834  1
  Ti  Ti25  1  0.25044721  0.24988287  0.74841939  1
  Ti  Ti26  1  0.24825995  0.75178125  0.24937533  1
  Ti  Ti27  1  0.25180092  0.75248426  0.75046687  1
  Ti  Ti28  1  0.75114878  0.25130979  0.25014314  1
  Ti  Ti29  1  0.75021181  0.25021737  0.75088958  1
  Ti  Ti30  1  0.75004438  0.74943915  0.24906445  1
  Ti  Ti31  1  0.74738067  0.75080978  0.75056129  1
  Al  Al32  1  0.08050087  0.07186754  0.09378158  1
  Al  Al33  1  0.08920076  0.07203517  0.58287261  1
  Al  Al34  1  0.07599142  0.58522628  0.09071421  1
  Al  Al35  1  0.07882892  0.57623269  0.57753950  1
  Al  Al36  1  0.58240154  0.08530858  0.08783037  1
  Al  Al37  1  0.58518661  0.07370340  0.57101606  1
  Al  Al38  1  0.59426416  0.58593452  0.06985227  1
  Al  Al39  1  0.59209376  0.59221667  0.59402210  1
  Al  Al40  1  0.42423901  0.41828640  0.08254286  1
  Al  Al41  1  0.41728196  0.42461592  0.58083176  1
  Al  Al42  1  0.41175016  0.92789144  0.08686816  1
  Al  Al43  1  0.41946188  0.91518161  0.58790578  1
  Al  Al44  1  0.91770108  0.41371701  0.08910337  1
  Al  Al45  1  0.90862561  0.42096069  0.58375237  1
  Al  Al46  1  0.92609368  0.90921962  0.08154183  1
  Al  Al47  1  0.92475281  0.91941758  0.57593357  1
  Al  Al48  1  0.41897230  0.08791051  0.40437316  1
  Al  Al49  1  0.42065825  0.07350771  0.92344687  1
  Al  Al50  1  0.42194894  0.57145879  0.43185528  1
  Al  Al51  1  0.41792243  0.57767310  0.90463401  1
  Al  Al52  1  0.91805101  0.10036356  0.41110005  1
  Al  Al53  1  0.91722913  0.09260952  0.91931948  1
  Al  Al54  1  0.90945297  0.58443883  0.40951163  1
  Al  Al55  1  0.90952049  0.58744901  0.92251911  1
  Al  Al56  1  0.07524228  0.40465423  0.41104487  1
  Al  Al57  1  0.07479360  0.41822288  0.90972966  1
  Al  Al58  1  0.09187416  0.91877556  0.41695674  1
  Al  Al59  1  0.09535390  0.91320321  0.91961992  1
  Al  Al60  1  0.58033297  0.41598269  0.41500444  1
  Al  Al61  1  0.58455568  0.41245840  0.91259926  1
  Al  Al62  1  0.59040068  0.92529852  0.41599286  1
  Al  Al63  1  0.58670175  0.91226969  0.90460068  1
  Al  Al64  1  0.08113144  0.08403338  0.40761034  1
  Al  Al65  1  0.08019549  0.07391800  0.90639404  1
  Al  Al66  1  0.07326302  0.58461017  0.41371783  1
  Al  Al67  1  0.07730402  0.57963839  0.91864652  1
  Al  Al68  1  0.58433176  0.08784365  0.40702244  1
  Al  Al69  1  0.59342366  0.07538164  0.91500389  1
  Al  Al70  1  0.59542541  0.58389462  0.43225788  1
  Al  Al71  1  0.58934839  0.58903680  0.91248649  1
  Al  Al72  1  0.42061122  0.41068188  0.41377380  1
  Al  Al73  1  0.42144117  0.41611577  0.90450077  1
  Al  Al74  1  0.41045252  0.92733347  0.41339501  1
  Al  Al75  1  0.42457933  0.91037322  0.90717975  1
  Al  Al76  1  0.91367862  0.41205146  0.40284587  1
  Al  Al77  1  0.91608095  0.41356917  0.91324061  1
  Al  Al78  1  0.92218992  0.91777329  0.41796147  1
  Al  Al79  1  0.91923145  0.91546503  0.92186580  1
  Al  Al80  1  0.07495788  0.41986663  0.09373736  1
  Al  Al81  1  0.08071161  0.41825248  0.57621647  1
  Al  Al82  1  0.08974889  0.90872136  0.08566746  1
  Al  Al83  1  0.09915642  0.91399154  0.58079533  1
  Al  Al84  1  0.58502353  0.41609571  0.07524004  1
  Al  Al85  1  0.59162959  0.42903542  0.58743304  1
  Al  Al86  1  0.58746740  0.92198766  0.07642149  1
  Al  Al87  1  0.58268603  0.91156813  0.58502182  1
  Al  Al88  1  0.41583676  0.08477058  0.09474056  1
  Al  Al89  1  0.41237161  0.07383329  0.57413140  1
  Al  Al90  1  0.42103005  0.57491175  0.07472650  1
  Al  Al91  1  0.42782812  0.59026805  0.59180538  1
  Al  Al92  1  0.91748162  0.09426606  0.07623394  1
  Al  Al93  1  0.91297654  0.08738594  0.56951580  1
  Al  Al94  1  0.91296040  0.59168891  0.08685648  1
  Al  Al95  1  0.90281591  0.57962873  0.58330381  1
  Al  Al96  1  0.24461318  0.13473086  0.13958303  1
  Al  Al97  1  0.24942262  0.12997686  0.63533217  1
  Al  Al98  1  0.24730726  0.63752930  0.13232231  1
  Al  Al99  1  0.25243845  0.63686731  0.63796335  1
  Al  Al100  1  0.75224665  0.13813290  0.13340116  1
  Al  Al101  1  0.75056278  0.13403978  0.63677268  1
  Al  Al102  1  0.75181187  0.63508335  0.12954302  1
  Al  Al103  1  0.74402422  0.63379043  0.63632328  1
  Al  Al104  1  0.24870069  0.36388017  0.13526018  1
  Al  Al105  1  0.25456062  0.36824850  0.63724245  1
  Al  Al106  1  0.24325623  0.86660678  0.13276204  1
  Al  Al107  1  0.24853793  0.87027829  0.63706352  1
  Al  Al108  1  0.75570101  0.36487130  0.13557337  1
  Al  Al109  1  0.74979725  0.36987022  0.63539971  1
  Al  Al110  1  0.75194837  0.86077687  0.12733317  1
  Al  Al111  1  0.74320594  0.86385948  0.63244530  1
  Al  Al112  1  0.25117948  0.13394037  0.36340865  1
  Al  Al113  1  0.24518317  0.13331680  0.86153733  1
  Al  Al114  1  0.24601119  0.63346640  0.36284403  1
  Al  Al115  1  0.25099868  0.63817485  0.86218584  1
  Al  Al116  1  0.75207423  0.13791860  0.36579961  1
  Al  Al117  1  0.74938332  0.13943668  0.87291710  1
  Al  Al118  1  0.75201700  0.62953236  0.36282727  1
  Al  Al119  1  0.74749752  0.63650428  0.86559190  1
  Al  Al120  1  0.24992029  0.36493087  0.36267087  1
  Al  Al121  1  0.25161085  0.36698906  0.86294273  1
  Al  Al122  1  0.24911696  0.86677227  0.36443360  1
  Al  Al123  1  0.24463702  0.86883660  0.86509937  1
  Al  Al124  1  0.75467002  0.37083232  0.36437656  1
  Al  Al125  1  0.75204649  0.36726639  0.86632883  1
  Al  Al126  1  0.74703115  0.86508104  0.36931089  1
  Al  Al127  1  0.74485857  0.86417836  0.86902995  1
  Al  Al128  1  0.13036221  0.25706907  0.13777135  1
  Al  Al129  1  0.13544818  0.24944068  0.63558542  1
  Al  Al130  1  0.13543089  0.75010973  0.12971417  1
  Al  Al131  1  0.13651592  0.75729440  0.63314435  1
  Al  Al132  1  0.63680927  0.24728972  0.13650890  1
  Al  Al133  1  0.63729600  0.24922031  0.63803515  1
  Al  Al134  1  0.63729851  0.75047903  0.12896376  1
  Al  Al135  1  0.62971423  0.74956208  0.63377910  1
  Al  Al136  1  0.13011935  0.24709981  0.36397323  1
  Al  Al137  1  0.13486838  0.25293747  0.86350295  1
  Al  Al138  1  0.13564269  0.75516067  0.36479104  1
  Al  Al139  1  0.13682697  0.75230136  0.87000451  1
  Al  Al140  1  0.63674691  0.24922081  0.36642561  1
  Al  Al141  1  0.63458907  0.25217622  0.86384731  1
  Al  Al142  1  0.63878667  0.74761691  0.37229135  1
  Al  Al143  1  0.63050684  0.74934505  0.86579293  1
  Al  Al144  1  0.36178680  0.24789841  0.13597676  1
  Al  Al145  1  0.36339608  0.24877355  0.63035224  1
  Al  Al146  1  0.36611038  0.75609074  0.13730682  1
  Al  Al147  1  0.37051432  0.75285182  0.63770803  1
  Al  Al148  1  0.86679634  0.25182453  0.13264098  1
  Al  Al149  1  0.86288700  0.25142116  0.62921490  1
  Al  Al150  1  0.86536123  0.74449753  0.13030869  1
  Al  Al151  1  0.86184054  0.75236169  0.63509997  1
  Al  Al152  1  0.36416052  0.24782053  0.36977373  1
  Al  Al153  1  0.36553676  0.25291195  0.86039864  1
  Al  Al154  1  0.36365609  0.75116828  0.36278359  1
  Al  Al155  1  0.37186347  0.75271262  0.86281085  1
  Al  Al156  1  0.86628561  0.25137808  0.36855082  1
  Al  Al157  1  0.86311378  0.25292211  0.87016425  1
  Al  Al158  1  0.86241911  0.75068037  0.36562123  1
  Al  Al159  1  0.86008041  0.74950792  0.87085158  1
  Al  Al160  1  0.13083336  0.13435051  0.25158754  1
  Al  Al161  1  0.13615042  0.13138023  0.74899314  1
  Al  Al162  1  0.13214150  0.63889468  0.24771762  1
  Al  Al163  1  0.13494762  0.63987438  0.74912433  1
  Al  Al164  1  0.63695667  0.13460631  0.25515811  1
  Al  Al165  1  0.63757949  0.12927355  0.75558016  1
  Al  Al166  1  0.63837524  0.63486064  0.24864411  1
  Al  Al167  1  0.62874989  0.63742200  0.74918566  1
  Al  Al168  1  0.36548002  0.13346127  0.25484845  1
  Al  Al169  1  0.36505400  0.13164454  0.74916235  1
  Al  Al170  1  0.36202856  0.63304757  0.24543216  1
  Al  Al171  1  0.37030598  0.63612690  0.75085006  1
  Al  Al172  1  0.86929858  0.13780768  0.25583920  1
  Al  Al173  1  0.86321947  0.13754435  0.75487048  1
  Al  Al174  1  0.86411742  0.63622400  0.24852167  1
  Al  Al175  1  0.85805502  0.63618126  0.74765767  1
  Al  Al176  1  0.12836202  0.36295265  0.25490462  1
  Al  Al177  1  0.13368035  0.36461995  0.75213108  1
  Al  Al178  1  0.13459162  0.86781991  0.24669930  1
  Al  Al179  1  0.13284544  0.86590500  0.75184377  1
  Al  Al180  1  0.63839475  0.36710648  0.25185705  1
  Al  Al181  1  0.63695792  0.36550613  0.75097519  1
  Al  Al182  1  0.63686596  0.86083121  0.25093692  1
  Al  Al183  1  0.63071746  0.86490225  0.75149625  1
  Al  Al184  1  0.36522582  0.36505610  0.25007860  1
  Al  Al185  1  0.36653943  0.37140761  0.75071225  1
  Al  Al186  1  0.36347375  0.86776678  0.25288436  1
  Al  Al187  1  0.36902226  0.86673931  0.74969111  1
  Al  Al188  1  0.87279715  0.36019978  0.25182799  1
  Al  Al189  1  0.86286849  0.36280363  0.75062976  1
  Al  Al190  1  0.86345569  0.86345044  0.25009282  1
  Al  Al191  1  0.86859360  0.86197833  0.75418120  1
  Al  Al192  1  0.68443797  0.31599461  -0.00033778  1
  Al  Al193  1  0.83027133  0.49904495  0.18513338  1
  Al  Al194  1  0.68316813  0.17216697  0.50021038  1
  Al  Al195  1  0.83028067  0.00042776  0.16766050  1
  Al  Al196  1  0.50226769  0.67609528  0.16961059  1
  Al  Al197  1  0.82693129  0.50139722  0.81788856  1
  Al  Al198  1  0.16625559  0.16628794  0.00042825  1
  Al  Al199  1  0.68078513  0.32826327  0.50154516  1
  Al  Al200  1  0.50167691  0.16995674  0.67033217  1
  Al  Al201  1  0.31705200  0.83050231  -0.00116789  1
  Al  Al202  1  0.67500086  -0.00073788  0.18615971  1
  Al  Al203  1  0.16905510  0.68536629  0.49960321  1
  Al  Al204  1  0.50005914  0.18013486  0.83030397  1
  Al  Al205  1  0.82354821  -0.00124510  0.67211830  1
  Al  Al206  1  0.32006686  0.00198674  0.82349662  1
  Al  Al207  1  0.81696938  0.00215898  0.83026013  1
  Al  Al208  1  0.00013732  0.18709425  0.18386060  1
  Al  Al209  1  0.32659264  0.67407172  0.50215775  1
  Al  Al210  1  0.50077183  0.67150296  0.33306608  1
  Al  Al211  1  -0.00214972  0.68311269  0.31213303  1
  Al  Al212  1  0.50022510  0.18246609  0.19070064  1
  Al  Al213  1  0.81235007  0.67667493  0.50005882  1
  Al  Al214  1  -0.00060875  0.16902713  0.67164276  1
  Al  Al215  1  0.18067926  0.50257488  0.82676638  1
  Al  Al216  1  0.18769595  0.00075803  0.31194467  1
  Al  Al217  1  -0.00322090  0.68027885  0.82727178  1
  Al  Al218  1  0.67475899  0.50080482  0.17568439  1
  Al  Al219  1  0.32953274  0.32719959  -0.00191979  1
  Al  Al220  1  0.17734386  0.50060110  0.18158115  1
  Al  Al221  1  0.00003014  0.81000904  0.18217434  1
  Al  Al222  1  0.30848551  0.00066109  0.19089381  1
  Al  Al223  1  0.50138547  0.33041454  0.68375020  1
  Al  Al224  1  0.67472016  0.50091213  0.81723384  1
  Al  Al225  1  0.50025980  0.83372896  0.32142141  1
  Al  Al226  1  -0.00229606  0.67546876  0.67021294  1
  Al  Al227  1  0.81685332  0.00077792  0.33006688  1
  Al  Al228  1  -0.00207532  0.32998767  0.68270959  1
  Al  Al229  1  0.00002120  0.18580896  0.82539172  1
  Al  Al230  1  0.16767785  0.33007553  0.00295933  1
  Al  Al231  1  0.17516640  0.17094400  0.49909553  1
  Al  Al232  1  0.32577670  0.17115708  0.00064628  1
  Al  Al233  1  0.17827629  0.32445023  0.49928526  1
  Al  Al234  1  0.50060239  0.30915728  0.31750071  1
  Al  Al235  1  0.32421358  0.50389835  0.32456849  1
  Al  Al236  1  0.17688233  0.49886134  0.67714813  1
  Al  Al237  1  0.31436904  0.82943263  0.50057835  1
  Al  Al238  1  0.32223102  0.67404601  -0.00306558  1
  Au  Au239  1  -0.00065008  0.17269885  0.17428943  1
  Au  Au240  1  0.15600175  0.67294925  0.00057287  1
  Au  Au241  1  0.82558905  0.00262060  0.84483330  1
  Au  Au242  1  -0.00312387  0.34514347  0.67690058  1
  Au  Au243  1  0.16932377  0.66813963  0.49772329  1
  Au  Au244  1  0.32559755  0.49821893  0.16121638  1
  Au  Au245  1  0.15678366  0.49763832  0.32858145  1
  Au  Au246  1  0.00359480  0.15378576  0.67231689  1
  Au  Au247  1  0.34084742  0.33013857  -0.00636197  1
  Au  Au248  1  0.82571033  0.00326958  0.34362086  1
  Au  Au249  1  0.82534040  0.00014152  0.15221799  1
  Au  Au250  1  0.66884900  0.32496318  0.50354686  1
  Au  Au251  1  0.33738413  0.50742051  0.67689074  1
  Au  Au252  1  0.16389331  0.34104335  -0.00199299  1
  Au  Au253  1  0.17246981  0.15073102  -0.00058754  1
  Au  Au254  1  0.32050913  -0.00032766  0.66731333  1
  Au  Au255  1  0.50119969  0.83764824  0.33326327  1
  Au  Au256  1  0.32759231  0.33538224  0.50164606  1
  Au  Au257  1  0.83496692  0.32732086  0.49725893  1
  Au  Au258  1  0.67840934  0.50036277  0.16331860  1
  Au  Au259  1  0.83616601  0.82279167  0.50033589  1
  Au  Au260  1  0.50351760  0.66808127  0.15471045  1
  Au  Au261  1  0.50227025  0.66853278  0.35030164  1
  Au  Au262  1  0.50081349  0.82582249  0.67683170  1
  Au  Au263  1  0.00465060  0.82952893  0.83862158  1
  Au  Au264  1  0.50235308  0.34489930  0.67516737  1
  Au  Au265  1  0.16707883  0.50130390  0.66795081  1
  Au  Au266  1  0.66011373  -0.00033135  0.67765381  1
  Au  Au267  1  0.32578839  0.16216432  0.49484757  1
  Au  Au268  1  0.50437163  0.32886620  0.17143357  1
  Au  Au269  1  0.66464835  0.82453924  -0.00388069  1
  Au  Au270  1  0.50017030  0.16326165  0.65546098  1
  Au  Au271  1  0.32836344  0.65843781  -0.00659927  1
  Au  Au272  1  0.50161949  0.84429586  0.16710415  1
  Au  Au273  1  0.00629996  0.83981620  0.66791730  1
  Au  Au274  1  0.83416360  0.32834150  0.00162347  1
  Au  Au275  1  0.50094733  0.67337902  0.82781195  1
  Au  Au276  1  0.32848097  -0.00030720  0.83281526  1
  Au  Au277  1  -0.00736687  0.65981012  0.67197631  1
  Au  Au278  1  0.83395196  0.81949075  0.00162359  1
  Au  Au279  1  0.33312235  0.50203764  0.33331686  1
  Au  Au280  1  0.50158375  0.16963846  0.84349289  1
  Au  Au281  1  0.33118338  0.83067737  0.49880802  1
  Au  Au282  1  0.66763781  0.82643684  0.49933852  1
  Au  Au283  1  0.00481960  0.83090154  0.32958762  1
  Au  Au284  1  0.33270099  0.83677464  0.00019673  1
  Au  Au285  1  0.82765604  -0.00070617  0.65633005  1
  Au  Au286  1  0.67595649  0.50103630  0.33907213  1
  Au  Au287  1  0.67504460  0.16589620  0.00311187  1
