# generated using pymatgen
data_Ca24Ti8Al207Au49
_symmetry_space_group_name_H-M   'P 1'
_cell_length_a   17.32020019
_cell_length_b   17.31934037
_cell_length_c   17.31927772
_cell_angle_alpha   90.00199463
_cell_angle_beta   89.99902506
_cell_angle_gamma   90.00063913
_symmetry_Int_Tables_number   1
_chemical_formula_structural   Ca24Ti8Al207Au49
_chemical_formula_sum   'Ca24 Ti8 Al207 Au49'
_cell_volume   5195.34066933
_cell_formula_units_Z   1
loop_
 _symmetry_equiv_pos_site_id
 _symmetry_equiv_pos_as_xyz
  1  'x, y, z'
loop_
 _atom_site_type_symbol
 _atom_site_label
 _atom_site_symmetry_multiplicity
 _atom_site_fract_x
 _atom_site_fract_y
 _atom_site_fract_z
 _atom_site_occupancy
  Ca  Ca0  1  0.25386251  0.00032075  0.00023539  1
  Ca  Ca1  1  0.25528098  0.00218799  0.49835353  1
  Ca  Ca2  1  0.25034045  0.50038261  -0.00130786  1
  Ca  Ca3  1  0.25354779  0.49820699  0.50173551  1
  Ca  Ca4  1  0.75361106  -0.00042591  -0.00620543  1
  Ca  Ca5  1  0.75025925  0.00015832  0.50640442  1
  Ca  Ca6  1  0.75001998  0.50174687  0.00094825  1
  Ca  Ca7  1  0.75140926  0.49905998  0.49750506  1
  Ca  Ca8  1  0.00160829  0.24959123  -0.00086079  1
  Ca  Ca9  1  0.00199076  0.24923145  0.49964077  1
  Ca  Ca10  1  -0.00048633  0.75106555  0.00280480  1
  Ca  Ca11  1  0.00159519  0.75150541  0.49925704  1
  Ca  Ca12  1  0.49556240  0.25223156  0.00059998  1
  Ca  Ca13  1  0.49716981  0.24728010  0.50235626  1
  Ca  Ca14  1  0.49825868  0.75229508  0.00481213  1
  Ca  Ca15  1  0.49393471  0.74952465  0.49746004  1
  Ca  Ca16  1  0.00588374  -0.00061797  0.25106222  1
  Ca  Ca17  1  0.00083188  0.00046021  0.74758911  1
  Ca  Ca18  1  0.00065584  0.49769682  0.24902149  1
  Ca  Ca19  1  0.00017459  0.49698531  0.74774526  1
  Ca  Ca20  1  0.49534327  -0.00173126  0.25400876  1
  Ca  Ca21  1  0.50077614  0.00129482  0.73915522  1
  Ca  Ca22  1  0.50066985  0.50013589  0.25050465  1
  Ca  Ca23  1  0.49754223  0.49799561  0.74387416  1
  Ti  Ti24  1  0.25088257  0.24998646  0.25024240  1
  Ti  Ti25  1  0.24921063  0.25113627  0.75038534  1
  Ti  Ti26  1  0.24981707  0.75178945  0.25005525  1
  Ti  Ti27  1  0.25003608  0.75014736  0.74918667  1
  Ti  Ti28  1  0.74928470  0.25183934  0.25207923  1
  Ti  Ti29  1  0.74967359  0.24857082  0.74792075  1
  Ti  Ti30  1  0.75077131  0.74923624  0.24746636  1
  Ti  Ti31  1  0.74879813  0.75251724  0.75187302  1
  Al  Al32  1  0.08288332  0.08516984  0.08657044  1
  Al  Al33  1  0.07768360  0.08794418  0.58495128  1
  Al  Al34  1  0.07697209  0.58350382  0.08587307  1
  Al  Al35  1  0.08690043  0.58410602  0.58253188  1
  Al  Al36  1  0.57033165  0.07798263  0.07765963  1
  Al  Al37  1  0.58889198  0.09022571  0.58720718  1
  Al  Al38  1  0.58403699  0.59984004  0.08728630  1
  Al  Al39  1  0.57414331  0.58005972  0.57923098  1
  Al  Al40  1  0.41272904  0.41286206  0.07509747  1
  Al  Al41  1  0.40412284  0.41620175  0.58693056  1
  Al  Al42  1  0.40905934  0.90870010  0.09299165  1
  Al  Al43  1  0.41221997  0.91895209  0.57562687  1
  Al  Al44  1  0.92327783  0.41378543  0.09332863  1
  Al  Al45  1  0.92765120  0.41205359  0.58782206  1
  Al  Al46  1  0.92097118  0.91866921  0.08653693  1
  Al  Al47  1  0.91563261  0.91912563  0.60058003  1
  Al  Al48  1  0.41378176  0.08861664  0.40980426  1
  Al  Al49  1  0.41839479  0.08031239  0.92135405  1
  Al  Al50  1  0.41393599  0.59151008  0.42324000  1
  Al  Al51  1  0.41442794  0.57661413  0.92581839  1
  Al  Al52  1  0.92423466  0.08824099  0.41481607  1
  Al  Al53  1  0.92127448  0.08201496  0.90282421  1
  Al  Al54  1  0.91074269  0.57985856  0.41042431  1
  Al  Al55  1  0.92165678  0.58145214  0.91823279  1
  Al  Al56  1  0.07732892  0.40761348  0.41587009  1
  Al  Al57  1  0.08147656  0.40896834  0.91584711  1
  Al  Al58  1  0.08386842  0.91427140  0.41265672  1
  Al  Al59  1  0.08016208  0.91026990  0.91152234  1
  Al  Al60  1  0.57935149  0.41649163  0.41678885  1
  Al  Al61  1  0.57347154  0.42082206  0.91834392  1
  Al  Al62  1  0.57142438  0.91980308  0.42642892  1
  Al  Al63  1  0.58606142  0.92070602  0.92269674  1
  Al  Al64  1  0.08290112  0.08843429  0.41270832  1
  Al  Al65  1  0.07749255  0.08991786  0.91036325  1
  Al  Al66  1  0.08035097  0.58580349  0.42137740  1
  Al  Al67  1  0.07795791  0.58242874  0.91803764  1
  Al  Al68  1  0.57554979  0.09396646  0.42507628  1
  Al  Al69  1  0.58083310  0.07756968  0.91473956  1
  Al  Al70  1  0.57980776  0.58320737  0.41632875  1
  Al  Al71  1  0.58829756  0.58497823  0.92970819  1
  Al  Al72  1  0.41266996  0.40760802  0.42570997  1
  Al  Al73  1  0.41127494  0.41196978  0.91647720  1
  Al  Al74  1  0.40399279  0.91486065  0.41329596  1
  Al  Al75  1  0.41290772  0.91374641  0.92987460  1
  Al  Al76  1  0.91850545  0.41788149  0.39717733  1
  Al  Al77  1  0.92548711  0.41505970  0.90975914  1
  Al  Al78  1  0.92747760  0.91698618  0.41405698  1
  Al  Al79  1  0.92061947  0.91579191  0.90472046  1
  Al  Al80  1  0.08046926  0.41304909  0.08672492  1
  Al  Al81  1  0.08620716  0.41002915  0.58922299  1
  Al  Al82  1  0.08391803  0.91553988  0.08473340  1
  Al  Al83  1  0.07890497  0.91020507  0.58567690  1
  Al  Al84  1  0.57687935  0.42726351  0.07615673  1
  Al  Al85  1  0.57541650  0.41769841  0.58019952  1
  Al  Al86  1  0.57103126  0.90362744  0.08787208  1
  Al  Al87  1  0.58981918  0.92566788  0.58605490  1
  Al  Al88  1  0.40719251  0.07361475  0.09226546  1
  Al  Al89  1  0.42178578  0.08629394  0.58102849  1
  Al  Al90  1  0.42368458  0.59473802  0.08790413  1
  Al  Al91  1  0.40649725  0.58360334  0.58574225  1
  Al  Al92  1  0.92331290  0.08167378  0.09090225  1
  Al  Al93  1  0.91520027  0.08217407  0.59560670  1
  Al  Al94  1  0.92026975  0.58735252  0.09049723  1
  Al  Al95  1  0.92268829  0.58318377  0.57464841  1
  Al  Al96  1  0.25226170  0.13657445  0.13182267  1
  Al  Al97  1  0.24680327  0.13795899  0.63512995  1
  Al  Al98  1  0.25255606  0.64018207  0.13753094  1
  Al  Al99  1  0.25419762  0.63048870  0.63422217  1
  Al  Al100  1  0.75238467  0.13801408  0.13808961  1
  Al  Al101  1  0.74702840  0.13333623  0.63401570  1
  Al  Al102  1  0.74939022  0.63134297  0.13614764  1
  Al  Al103  1  0.74935772  0.63930308  0.63530730  1
  Al  Al104  1  0.25210011  0.36316308  0.13203897  1
  Al  Al105  1  0.25176352  0.36573140  0.62897926  1
  Al  Al106  1  0.25505029  0.86601928  0.13481320  1
  Al  Al107  1  0.25071226  0.86613319  0.63373216  1
  Al  Al108  1  0.74967856  0.37137659  0.13999072  1
  Al  Al109  1  0.74895085  0.35932759  0.63277181  1
  Al  Al110  1  0.75272256  0.85848137  0.12900981  1
  Al  Al111  1  0.75089224  0.87221835  0.63907370  1
  Al  Al112  1  0.25176033  0.13120198  0.36402108  1
  Al  Al113  1  0.25204630  0.13410177  0.87041430  1
  Al  Al114  1  0.25532252  0.63474669  0.36166972  1
  Al  Al115  1  0.25028854  0.63637981  0.86436709  1
  Al  Al116  1  0.74644250  0.13870386  0.36894219  1
  Al  Al117  1  0.75078227  0.13429957  0.86236183  1
  Al  Al118  1  0.75065198  0.63421465  0.36043278  1
  Al  Al119  1  0.74920152  0.63706262  0.86697292  1
  Al  Al120  1  0.25250477  0.36204135  0.37022576  1
  Al  Al121  1  0.24940654  0.36369906  0.87056254  1
  Al  Al122  1  0.25289205  0.87092622  0.36177649  1
  Al  Al123  1  0.25384230  0.86858898  0.86242419  1
  Al  Al124  1  0.75274538  0.36376964  0.36690018  1
  Al  Al125  1  0.75246372  0.36125759  0.86065408  1
  Al  Al126  1  0.74804849  0.86785691  0.35650104  1
  Al  Al127  1  0.74955686  0.86589031  0.86806453  1
  Al  Al128  1  0.13595928  0.24974481  0.13017846  1
  Al  Al129  1  0.13525095  0.25369619  0.62974526  1
  Al  Al130  1  0.12943182  0.75433111  0.13729866  1
  Al  Al131  1  0.13613285  0.74978255  0.63435079  1
  Al  Al132  1  0.63285385  0.25006730  0.13810906  1
  Al  Al133  1  0.62764947  0.24423589  0.63263569  1
  Al  Al134  1  0.63701584  0.74633648  0.12931651  1
  Al  Al135  1  0.63580966  0.75330348  0.63573243  1
  Al  Al136  1  0.13788292  0.24789111  0.36957041  1
  Al  Al137  1  0.13676626  0.24949995  0.86991478  1
  Al  Al138  1  0.13475001  0.75195807  0.36258673  1
  Al  Al139  1  0.13607261  0.75499535  0.86255302  1
  Al  Al140  1  0.62935970  0.25173166  0.36653699  1
  Al  Al141  1  0.63586030  0.24772934  0.86118937  1
  Al  Al142  1  0.63492607  0.74639644  0.36307157  1
  Al  Al143  1  0.63541901  0.75131891  0.87177516  1
  Al  Al144  1  0.36605072  0.24851982  0.13243409  1
  Al  Al145  1  0.36781063  0.25160601  0.63419144  1
  Al  Al146  1  0.36898117  0.75462444  0.13657565  1
  Al  Al147  1  0.36064983  0.75059799  0.62856173  1
  Al  Al148  1  0.86554643  0.25435055  0.13710961  1
  Al  Al149  1  0.86615239  0.25077928  0.63149713  1
  Al  Al150  1  0.87225296  0.74724802  0.13614957  1
  Al  Al151  1  0.86548009  0.75330018  0.63715593  1
  Al  Al152  1  0.36955440  0.24692022  0.36342014  1
  Al  Al153  1  0.36349030  0.24977895  0.87002555  1
  Al  Al154  1  0.36396112  0.75497522  0.36800219  1
  Al  Al155  1  0.36500930  0.75202437  0.86557309  1
  Al  Al156  1  0.86676448  0.24931818  0.36728826  1
  Al  Al157  1  0.86779750  0.24292507  0.86461786  1
  Al  Al158  1  0.86489374  0.75162449  0.36232199  1
  Al  Al159  1  0.86628976  0.75666469  0.86795319  1
  Al  Al160  1  0.13573417  0.13461172  0.25179192  1
  Al  Al161  1  0.13390952  0.13765563  0.75313839  1
  Al  Al162  1  0.13355209  0.63598761  0.24925259  1
  Al  Al163  1  0.13614539  0.63419099  0.74786810  1
  Al  Al164  1  0.63175920  0.13647809  0.25689397  1
  Al  Al165  1  0.63342582  0.13180732  0.74184746  1
  Al  Al166  1  0.62887387  0.63527679  0.24611961  1
  Al  Al167  1  0.63679611  0.63738766  0.75108825  1
  Al  Al168  1  0.36259764  0.13205009  0.25214778  1
  Al  Al169  1  0.36312796  0.13796348  0.74745583  1
  Al  Al170  1  0.37062991  0.63881266  0.24793349  1
  Al  Al171  1  0.36397526  0.63639465  0.74731594  1
  Al  Al172  1  0.86505231  0.13603069  0.25520752  1
  Al  Al173  1  0.86449175  0.13465271  0.74466504  1
  Al  Al174  1  0.86460389  0.63102426  0.24896101  1
  Al  Al175  1  0.86510176  0.64167100  0.75365363  1
  Al  Al176  1  0.13822152  0.36163009  0.25012059  1
  Al  Al177  1  0.13774592  0.36629802  0.74618222  1
  Al  Al178  1  0.13237212  0.86702835  0.24901100  1
  Al  Al179  1  0.13299814  0.86516354  0.74775296  1
  Al  Al180  1  0.62890194  0.36458853  0.25385039  1
  Al  Al181  1  0.63445391  0.36161194  0.74504265  1
  Al  Al182  1  0.62848694  0.85806120  0.24148241  1
  Al  Al183  1  0.63202894  0.86579234  0.74740300  1
  Al  Al184  1  0.36904641  0.36403670  0.25129018  1
  Al  Al185  1  0.36229116  0.36405039  0.74500706  1
  Al  Al186  1  0.36774531  0.86722861  0.24815778  1
  Al  Al187  1  0.36800296  0.86337957  0.74652089  1
  Al  Al188  1  0.86445615  0.36888426  0.25129838  1
  Al  Al189  1  0.86712849  0.36108936  0.74737080  1
  Al  Al190  1  0.87020467  0.86253068  0.24894713  1
  Al  Al191  1  0.86850171  0.86455715  0.74876505  1
  Al  Al192  1  0.49855273  0.32536189  0.81808348  1
  Al  Al193  1  0.00094808  0.68594935  0.82608907  1
  Al  Al194  1  0.67309096  0.32843414  -0.00059213  1
  Al  Al195  1  0.82628794  -0.00064040  0.81055714  1
  Al  Al196  1  0.49941261  0.17045432  0.81076350  1
  Al  Al197  1  0.00030207  0.68407341  0.67422732  1
  Al  Al198  1  0.82929411  0.50311355  0.67678479  1
  Al  Al199  1  0.49830697  0.68046510  0.67302630  1
  Al  Al200  1  0.67641582  0.16996343  0.00115744  1
  Al  Al201  1  0.81793279  0.67509107  0.49752824  1
  Al  Al202  1  0.00243099  0.30843306  0.80952474  1
  Al  Al203  1  0.67124209  0.49816645  0.82913718  1
  Al  Al204  1  0.49862110  0.82140254  0.32547582  1
  Al  Al205  1  0.17204181  0.67090027  0.00195473  1
  Al  Al206  1  0.82429911  -0.00090072  0.17927930  1
  Al  Al207  1  0.17398106  0.50048822  0.17348818  1
  Al  Al208  1  0.18861383  0.67258302  0.49841078  1
  Al  Al209  1  0.82476217  0.83324362  0.49811646  1
  Al  Al210  1  0.18242831  0.82257509  0.49782951  1
  Al  Al211  1  0.82818155  0.32472441  -0.00031856  1
  Al  Al212  1  0.82564925  0.50030172  0.82676467  1
  Al  Al213  1  0.00023004  0.19221335  0.19261262  1
  Al  Al214  1  0.18899347  0.82731048  -0.00100041  1
  Al  Al215  1  0.32216787  0.18315759  0.49981108  1
  Al  Al216  1  0.50061271  0.67115188  0.83251853  1
  Al  Al217  1  0.32152045  0.00223194  0.67797324  1
  Al  Al218  1  0.17303680  0.49968376  0.81976945  1
  Al  Al219  1  0.49717740  0.17599464  0.18589155  1
  Al  Al220  1  0.17333667  0.00280725  0.82105025  1
  Al  Al221  1  0.67476384  -0.00018884  0.81529166  1
  Al  Al222  1  0.68330490  0.49916201  0.31912355  1
  Al  Al223  1  0.66899508  -0.00245670  0.17113892  1
  Al  Al224  1  0.67412939  0.82080177  0.49823143  1
  Al  Al225  1  0.67158892  0.50005886  0.67380070  1
  Al  Al226  1  0.32876521  0.49908736  0.81551130  1
  Al  Al227  1  0.67760557  0.31297519  0.50033118  1
  Al  Al228  1  0.81917401  0.67771258  0.00070886  1
  Al  Al229  1  0.32549152  0.68645374  0.00139522  1
  Al  Al230  1  0.81990235  0.17423832  0.50188538  1
  Al  Al231  1  0.17511533  0.49798593  0.33020297  1
  Al  Al232  1  0.00065784  0.18935215  0.68825784  1
  Al  Al233  1  -0.00221070  0.68181441  0.31513853  1
  Al  Al234  1  0.50012660  0.82948553  0.82263955  1
  Al  Al235  1  0.18848323  0.00068250  0.18068879  1
  Al  Al236  1  0.33073950  0.50095093  0.17479665  1
  Al  Al237  1  0.00143755  0.30744083  0.30741781  1
  Al  Al238  1  0.67066542  0.00204919  0.33333527  1
  Au  Au239  1  0.17481047  0.33577069  0.00372345  1
  Au  Au240  1  0.49867847  0.83076229  0.65461811  1
  Au  Au241  1  0.82875026  0.66403908  0.00055001  1
  Au  Au242  1  0.17250320  0.16708312  0.49993971  1
  Au  Au243  1  0.66291805  0.82263042  0.00155858  1
  Au  Au244  1  0.17571141  0.00120324  0.33624727  1
  Au  Au245  1  0.16532068  0.16945518  -0.00229127  1
  Au  Au246  1  0.50005230  0.83569113  0.83352557  1
  Au  Au247  1  0.84619495  -0.00049337  0.32562934  1
  Au  Au248  1  0.33701186  -0.00250708  0.82906487  1
  Au  Au249  1  0.16473680  0.00024234  0.82974663  1
  Au  Au250  1  0.17075196  0.83090789  0.49788407  1
  Au  Au251  1  0.67556571  0.49926441  0.33438696  1
  Au  Au252  1  0.50203289  0.33568942  0.16465648  1
  Au  Au253  1  0.17457354  0.33327726  0.49965144  1
  Au  Au254  1  0.66955420  0.50315218  0.15931108  1
  Au  Au255  1  0.49792107  0.66759554  0.32367070  1
  Au  Au256  1  0.66655253  0.32586157  0.50232192  1
  Au  Au257  1  -0.00016536  0.17871884  0.18175472  1
  Au  Au258  1  0.84017259  0.50001894  0.17891452  1
  Au  Au259  1  0.17973902  0.00087813  0.16587222  1
  Au  Au260  1  0.32789416  0.50165937  0.16217133  1
  Au  Au261  1  0.82769811  0.15974934  0.50232204  1
  Au  Au262  1  0.49672830  0.16022752  0.17961544  1
  Au  Au263  1  0.49978461  0.17007339  0.82771526  1
  Au  Au264  1  0.66617511  0.66937516  0.50385516  1
  Au  Au265  1  0.00006563  0.67171897  0.67052413  1
  Au  Au266  1  0.84004013  0.15747010  -0.00161894  1
  Au  Au267  1  0.16990582  0.00046527  0.66240804  1
  Au  Au268  1  0.83372207  0.84091867  -0.00196618  1
  Au  Au269  1  0.49620762  0.32422210  0.33721484  1
  Au  Au270  1  0.84333465  0.33825839  0.49433544  1
  Au  Au271  1  0.82524548  0.49724374  0.66136815  1
  Au  Au272  1  0.67280164  -0.00636048  0.15508932  1
  Au  Au273  1  0.33461724  0.17086793  0.00321329  1
  Au  Au274  1  0.49551421  0.33053931  0.66721179  1
  Au  Au275  1  0.66023765  0.17566677  0.00044676  1
  Au  Au276  1  0.50108942  0.65858784  0.82984008  1
  Au  Au277  1  0.84027808  0.83064971  0.50364571  1
  Au  Au278  1  0.49709840  0.83375553  0.32273138  1
  Au  Au279  1  -0.00245970  0.67431243  0.33060666  1
  Au  Au280  1  0.17021287  0.49770646  0.83178331  1
  Au  Au281  1  0.66881823  0.00712935  0.34963085  1
  Au  Au282  1  0.17737294  0.49947577  0.66565929  1
  Au  Au283  1  0.83240027  0.34051441  0.00014015  1
  Au  Au284  1  0.17261067  0.82216427  -0.00163291  1
  Au  Au285  1  0.33514208  0.49893693  0.33973682  1
  Au  Au286  1  0.16245188  0.49830212  0.32725624  1
  Au  Au287  1  -0.00061043  0.82755587  0.17434353  1
