# generated using pymatgen
data_Ca24Ti8Al207Au49
_symmetry_space_group_name_H-M   'P 1'
_cell_length_a   17.32029102
_cell_length_b   17.32285025
_cell_length_c   17.32311520
_cell_angle_alpha   89.99821588
_cell_angle_beta   89.99860236
_cell_angle_gamma   89.99798328
_symmetry_Int_Tables_number   1
_chemical_formula_structural   Ca24Ti8Al207Au49
_chemical_formula_sum   'Ca24 Ti8 Al207 Au49'
_cell_volume   5197.57217579
_cell_formula_units_Z   1
loop_
 _symmetry_equiv_pos_site_id
 _symmetry_equiv_pos_as_xyz
  1  'x, y, z'
loop_
 _atom_site_type_symbol
 _atom_site_label
 _atom_site_symmetry_multiplicity
 _atom_site_fract_x
 _atom_site_fract_y
 _atom_site_fract_z
 _atom_site_occupancy
  Ca  Ca0  1  0.24930122  -0.00133796  -0.00395970  1
  Ca  Ca1  1  0.25080657  0.00096238  0.50345708  1
  Ca  Ca2  1  0.25436602  0.50320919  -0.00335849  1
  Ca  Ca3  1  0.25141272  0.50092008  0.50015460  1
  Ca  Ca4  1  0.75067426  -0.00546833  -0.00240807  1
  Ca  Ca5  1  0.75091025  -0.00349464  0.50157251  1
  Ca  Ca6  1  0.74674917  0.50406422  0.00035495  1
  Ca  Ca7  1  0.74603181  0.50242496  0.49964880  1
  Ca  Ca8  1  0.00070492  0.24774786  -0.00351263  1
  Ca  Ca9  1  -0.00245594  0.24951161  0.49993210  1
  Ca  Ca10  1  0.00190176  0.75008250  -0.00423388  1
  Ca  Ca11  1  -0.00171340  0.75202027  0.50451056  1
  Ca  Ca12  1  0.49857221  0.25032582  -0.00350029  1
  Ca  Ca13  1  0.49870848  0.25490657  0.50305563  1
  Ca  Ca14  1  0.49941504  0.74691228  0.00025116  1
  Ca  Ca15  1  0.50196149  0.74586052  0.49594367  1
  Ca  Ca16  1  -0.00428122  0.00117731  0.24742775  1
  Ca  Ca17  1  0.00457969  -0.00240476  0.75265388  1
  Ca  Ca18  1  -0.00115322  0.49861984  0.25023754  1
  Ca  Ca19  1  0.00263937  0.50041507  0.75250807  1
  Ca  Ca20  1  0.50100638  -0.00534302  0.24618188  1
  Ca  Ca21  1  0.49466866  0.00034016  0.75184860  1
  Ca  Ca22  1  0.50081071  0.50473634  0.24764160  1
  Ca  Ca23  1  0.49819716  0.50021037  0.75682401  1
  Ti  Ti24  1  0.24957760  0.24860070  0.24924100  1
  Ti  Ti25  1  0.24932208  0.24967986  0.75064058  1
  Ti  Ti26  1  0.25165798  0.75100520  0.24806004  1
  Ti  Ti27  1  0.25167821  0.74924548  0.75203847  1
  Ti  Ti28  1  0.75083250  0.25117467  0.24838534  1
  Ti  Ti29  1  0.75063425  0.25224077  0.75150385  1
  Ti  Ti30  1  0.74907144  0.74897953  0.24895103  1
  Ti  Ti31  1  0.74993706  0.74846621  0.75067112  1
  Al  Al32  1  0.08119433  0.07895132  0.07340961  1
  Al  Al33  1  0.09085865  0.07403310  0.59279490  1
  Al  Al34  1  0.08932221  0.58385322  0.07763922  1
  Al  Al35  1  0.08473631  0.58332259  0.58664867  1
  Al  Al36  1  0.57861278  0.07618852  0.07727208  1
  Al  Al37  1  0.58276386  0.08736989  0.58317351  1
  Al  Al38  1  0.58438331  0.59675703  0.08323823  1
  Al  Al39  1  0.58558904  0.58651811  0.57541070  1
  Al  Al40  1  0.41551552  0.42320039  0.07206120  1
  Al  Al41  1  0.41727357  0.41400458  0.59378955  1
  Al  Al42  1  0.41588591  0.90801614  0.07987587  1
  Al  Al43  1  0.40533541  0.91508046  0.58048238  1
  Al  Al44  1  0.91046530  0.42383923  0.08519721  1
  Al  Al45  1  0.91334739  0.41576484  0.57675080  1
  Al  Al46  1  0.90857510  0.91347177  0.07599721  1
  Al  Al47  1  0.92124648  0.90823360  0.58640300  1
  Al  Al48  1  0.41910743  0.07655916  0.42433261  1
  Al  Al49  1  0.40701601  0.08427685  0.91651008  1
  Al  Al50  1  0.41505499  0.58371516  0.40991051  1
  Al  Al51  1  0.41247873  0.58915645  0.91311626  1
  Al  Al52  1  0.91019312  0.08461043  0.42361451  1
  Al  Al53  1  0.92621247  0.08689796  0.91257376  1
  Al  Al54  1  0.90734776  0.58240746  0.42279366  1
  Al  Al55  1  0.91131085  0.58045980  0.91555984  1
  Al  Al56  1  0.09445722  0.42130068  0.41877852  1
  Al  Al57  1  0.09001286  0.42163485  0.91010855  1
  Al  Al58  1  0.07946394  0.92255317  0.42812665  1
  Al  Al59  1  0.09471882  0.91872496  0.90944462  1
  Al  Al60  1  0.58162385  0.42815489  0.42073708  1
  Al  Al61  1  0.57776118  0.42065549  0.91705162  1
  Al  Al62  1  0.58876123  0.90900903  0.42129938  1
  Al  Al63  1  0.59327367  0.90744046  0.92190672  1
  Al  Al64  1  0.07914489  0.08061299  0.42520408  1
  Al  Al65  1  0.08867007  0.08323626  0.90345625  1
  Al  Al66  1  0.09161825  0.57859097  0.41868028  1
  Al  Al67  1  0.09540027  0.58376409  0.91280802  1
  Al  Al68  1  0.58727052  0.08100362  0.42264841  1
  Al  Al69  1  0.57863172  0.07505595  0.91947975  1
  Al  Al70  1  0.58742477  0.58974357  0.41418999  1
  Al  Al71  1  0.57825221  0.59195234  0.91873965  1
  Al  Al72  1  0.41418975  0.42593158  0.41631254  1
  Al  Al73  1  0.40751570  0.42095898  0.90974410  1
  Al  Al74  1  0.41427115  0.90794803  0.42420816  1
  Al  Al75  1  0.40788533  0.91540339  0.91820828  1
  Al  Al76  1  0.90818553  0.41405463  0.41991183  1
  Al  Al77  1  0.91400754  0.42104104  0.91235874  1
  Al  Al78  1  0.90994019  0.91585337  0.42707746  1
  Al  Al79  1  0.91750222  0.91226728  0.92012170  1
  Al  Al80  1  0.08342098  0.42161116  0.07637092  1
  Al  Al81  1  0.08770123  0.42238995  0.58105150  1
  Al  Al82  1  0.08977978  0.91460574  0.07022783  1
  Al  Al83  1  0.08413693  0.91237196  0.60097629  1
  Al  Al84  1  0.58256479  0.42804728  0.07717365  1
  Al  Al85  1  0.57728675  0.41270894  0.58827786  1
  Al  Al86  1  0.58738244  0.90302901  0.08146397  1
  Al  Al87  1  0.59118755  0.91357126  0.57662796  1
  Al  Al88  1  0.41320515  0.08614951  0.07504796  1
  Al  Al89  1  0.41645957  0.08078586  0.58818867  1
  Al  Al90  1  0.41985252  0.59456022  0.07764930  1
  Al  Al91  1  0.41382617  0.57887382  0.58375817  1
  Al  Al92  1  0.91917278  0.07604752  0.07745470  1
  Al  Al93  1  0.91662391  0.08525169  0.57957286  1
  Al  Al94  1  0.90853637  0.58162387  0.08414438  1
  Al  Al95  1  0.91632806  0.58765945  0.58484535  1
  Al  Al96  1  0.25001343  0.13565266  0.12504874  1
  Al  Al97  1  0.24903068  0.13077746  0.63424203  1
  Al  Al98  1  0.25173146  0.63533400  0.12450978  1
  Al  Al99  1  0.25496173  0.63375700  0.63781644  1
  Al  Al100  1  0.75040267  0.13436933  0.13308554  1
  Al  Al101  1  0.75475586  0.13512914  0.63510880  1
  Al  Al102  1  0.74917590  0.63091075  0.13341650  1
  Al  Al103  1  0.74627707  0.63268207  0.63421303  1
  Al  Al104  1  0.24824991  0.36769310  0.13433807  1
  Al  Al105  1  0.25480094  0.36656887  0.63572635  1
  Al  Al106  1  0.25159343  0.86414346  0.13179797  1
  Al  Al107  1  0.24835914  0.87127500  0.64216213  1
  Al  Al108  1  0.75084528  0.37293087  0.13565310  1
  Al  Al109  1  0.75074386  0.36781756  0.63722000  1
  Al  Al110  1  0.74607600  0.86081278  0.12777765  1
  Al  Al111  1  0.75228731  0.86543172  0.63557707  1
  Al  Al112  1  0.25242353  0.13096958  0.36910339  1
  Al  Al113  1  0.24744503  0.13594711  0.86879422  1
  Al  Al114  1  0.25309418  0.63572495  0.36486721  1
  Al  Al115  1  0.25259979  0.63818040  0.87258393  1
  Al  Al116  1  0.75149418  0.13648528  0.36756570  1
  Al  Al117  1  0.75327231  0.13655796  0.86457272  1
  Al  Al118  1  0.74863528  0.63381562  0.36744899  1
  Al  Al119  1  0.74822782  0.63326248  0.86712191  1
  Al  Al120  1  0.25085237  0.36553479  0.36559964  1
  Al  Al121  1  0.24960349  0.36794358  0.86461794  1
  Al  Al122  1  0.25502186  0.86828567  0.36607398  1
  Al  Al123  1  0.24464366  0.86545179  0.86582925  1
  Al  Al124  1  0.75242262  0.36722524  0.36357044  1
  Al  Al125  1  0.75029013  0.37347021  0.86384402  1
  Al  Al126  1  0.74737662  0.86314295  0.36564021  1
  Al  Al127  1  0.75016598  0.86114012  0.86833414  1
  Al  Al128  1  0.13702800  0.25177748  0.12918305  1
  Al  Al129  1  0.13871325  0.24731894  0.63862873  1
  Al  Al130  1  0.13816722  0.75009655  0.12910570  1
  Al  Al131  1  0.13653744  0.75281541  0.63965773  1
  Al  Al132  1  0.63882935  0.25034215  0.13580654  1
  Al  Al133  1  0.63019951  0.25300009  0.63705545  1
  Al  Al134  1  0.63693930  0.74699968  0.12772872  1
  Al  Al135  1  0.63249097  0.74352224  0.63663736  1
  Al  Al136  1  0.13639786  0.24779444  0.36532827  1
  Al  Al137  1  0.13232343  0.24824058  0.86744658  1
  Al  Al138  1  0.13855037  0.75141009  0.36563882  1
  Al  Al139  1  0.13463800  0.75102417  0.87212479  1
  Al  Al140  1  0.63749663  0.25005189  0.36308015  1
  Al  Al141  1  0.63704976  0.25283113  0.86242843  1
  Al  Al142  1  0.63527412  0.74621467  0.36305228  1
  Al  Al143  1  0.63471495  0.74857094  0.87003935  1
  Al  Al144  1  0.36306696  0.24668216  0.13491376  1
  Al  Al145  1  0.36560304  0.25084282  0.63395407  1
  Al  Al146  1  0.36643825  0.74634260  0.13112749  1
  Al  Al147  1  0.36276223  0.74882228  0.63043404  1
  Al  Al148  1  0.86137543  0.25324136  0.12762447  1
  Al  Al149  1  0.86559305  0.24888410  0.63817536  1
  Al  Al150  1  0.86286380  0.75126100  0.13380577  1
  Al  Al151  1  0.86450114  0.75099467  0.63432934  1
  Al  Al152  1  0.36105359  0.24883559  0.36986051  1
  Al  Al153  1  0.36252460  0.24791949  0.86318805  1
  Al  Al154  1  0.36334699  0.74974546  0.36916025  1
  Al  Al155  1  0.36917737  0.74321851  0.86679542  1
  Al  Al156  1  0.86637424  0.25041583  0.36260213  1
  Al  Al157  1  0.86696312  0.25303077  0.86990111  1
  Al  Al158  1  0.86374549  0.74942484  0.36589507  1
  Al  Al159  1  0.86685599  0.75445627  0.86831061  1
  Al  Al160  1  0.13897309  0.13376198  0.24896974  1
  Al  Al161  1  0.13670332  0.13016355  0.75388982  1
  Al  Al162  1  0.13975839  0.63640528  0.24979532  1
  Al  Al163  1  0.14068884  0.63546681  0.75539715  1
  Al  Al164  1  0.63899974  0.12885091  0.25069558  1
  Al  Al165  1  0.63505466  0.13705969  0.74802487  1
  Al  Al166  1  0.63271635  0.63627128  0.24163150  1
  Al  Al167  1  0.63123983  0.63151571  0.75929790  1
  Al  Al168  1  0.36082947  0.12909656  0.24956630  1
  Al  Al169  1  0.36296198  0.13409560  0.74649877  1
  Al  Al170  1  0.36405031  0.63808560  0.24479995  1
  Al  Al171  1  0.36577928  0.62928144  0.75631006  1
  Al  Al172  1  0.86166002  0.13637587  0.24914211  1
  Al  Al173  1  0.86749741  0.13557847  0.75498404  1
  Al  Al174  1  0.86135158  0.63075450  0.25048729  1
  Al  Al175  1  0.86110967  0.63431457  0.75299771  1
  Al  Al176  1  0.13412845  0.36643878  0.25416279  1
  Al  Al177  1  0.13452367  0.36585718  0.75615722  1
  Al  Al178  1  0.13657338  0.86682060  0.24989033  1
  Al  Al179  1  0.13235682  0.86361408  0.75253966  1
  Al  Al180  1  0.63617232  0.36661607  0.24705459  1
  Al  Al181  1  0.63612066  0.37243673  0.75014281  1
  Al  Al182  1  0.63758872  0.86638211  0.24649136  1
  Al  Al183  1  0.63767109  0.86109083  0.75072255  1
  Al  Al184  1  0.36290025  0.36283347  0.24871729  1
  Al  Al185  1  0.36173457  0.36916189  0.75145723  1
  Al  Al186  1  0.36408293  0.86707390  0.24735599  1
  Al  Al187  1  0.36233055  0.86308765  0.75486489  1
  Al  Al188  1  0.86655292  0.36862290  0.24738778  1
  Al  Al189  1  0.86816065  0.36770552  0.75681065  1
  Al  Al190  1  0.86233529  0.86330340  0.24808586  1
  Al  Al191  1  0.87112103  0.86135919  0.74971237  1
  Al  Al192  1  0.69172924  0.80463592  0.50168611  1
  Al  Al193  1  0.49999351  0.82657122  0.32742626  1
  Al  Al194  1  0.18298900  0.67511168  0.50254315  1
  Al  Al195  1  0.31007150  0.50041318  0.31328000  1
  Al  Al196  1  0.30969751  0.80812153  -0.00256708  1
  Al  Al197  1  0.67717406  0.17236873  -0.00155682  1
  Al  Al198  1  0.00068614  0.82718883  0.32915480  1
  Al  Al199  1  0.18034599  0.50007578  0.68614780  1
  Al  Al200  1  0.68744847  0.18145694  0.50230567  1
  Al  Al201  1  0.00043893  0.17259796  0.17077222  1
  Al  Al202  1  0.32258234  0.31617245  -0.00113929  1
  Al  Al203  1  0.00269619  0.82661453  0.16791701  1
  Al  Al204  1  0.00262150  0.17036650  0.68517469  1
  Al  Al205  1  0.49980927  0.33184141  0.32850496  1
  Al  Al206  1  0.81971311  -0.00202736  0.17296723  1
  Al  Al207  1  -0.00075980  0.32899381  0.17420251  1
  Al  Al208  1  0.50086940  0.80948430  0.17606032  1
  Al  Al209  1  0.82883715  -0.00221172  0.82980106  1
  Al  Al210  1  0.18187902  0.31967583  0.50204448  1
  Al  Al211  1  0.00131911  0.68398246  0.67412749  1
  Al  Al212  1  0.82412602  0.49943283  0.67740216  1
  Al  Al213  1  -0.00020706  0.67365765  0.82212995  1
  Al  Al214  1  0.82380419  -0.00114517  0.67383433  1
  Al  Al215  1  0.50092397  0.81761985  0.82890130  1
  Al  Al216  1  0.67967401  0.50175665  0.31562886  1
  Al  Al217  1  0.49903513  0.17944079  0.32486863  1
  Al  Al218  1  0.49917659  0.67551144  0.31177178  1
  Al  Al219  1  0.81540027  0.68645604  0.00018529  1
  Al  Al220  1  -0.00133243  0.17484666  0.32791579  1
  Al  Al221  1  0.50157187  0.67120196  0.68200803  1
  Al  Al222  1  0.49998608  0.17230398  0.82132884  1
  Al  Al223  1  -0.00050745  0.67047093  0.17219260  1
  Al  Al224  1  0.17573215  -0.00023076  0.17763503  1
  Al  Al225  1  0.00353177  0.32678494  0.67499645  1
  Al  Al226  1  0.82139852  -0.00065148  0.32776707  1
  Al  Al227  1  0.81429201  0.30637643  0.50126343  1
  Al  Al228  1  0.67530975  0.32671446  -0.00066565  1
  Al  Al229  1  0.00180614  0.67265270  0.33081696  1
  Al  Al230  1  0.81102099  0.68858048  0.49941925  1
  Al  Al231  1  0.31030312  0.00057747  0.81980173  1
  Al  Al232  1  0.50065654  0.17137388  0.17081709  1
  Al  Al233  1  0.49837452  0.32876344  0.81661910  1
  Al  Al234  1  0.49607613  0.82777866  0.67199763  1
  Al  Al235  1  0.49918880  0.32774922  0.17423909  1
  Al  Al236  1  0.18663349  0.83163254  0.50341756  1
  Al  Al237  1  0.67543467  -0.00081992  0.82297067  1
  Al  Al238  1  0.18063389  0.50098466  0.17966185  1
  Au  Au239  1  0.17003254  0.82953001  0.50661984  1
  Au  Au240  1  0.16729925  0.00137657  0.33482508  1
  Au  Au241  1  0.00118609  0.32754934  0.83906456  1
  Au  Au242  1  0.83673690  0.49720801  0.67738746  1
  Au  Au243  1  -0.00103747  0.33035397  0.66401374  1
  Au  Au244  1  0.16333555  0.17165388  0.50435065  1
  Au  Au245  1  -0.00359303  0.83872107  0.33170005  1
  Au  Au246  1  0.67213632  0.50410504  0.16552622  1
  Au  Au247  1  0.50000646  0.16403258  0.33181586  1
  Au  Au248  1  0.82845917  0.49891603  0.32673156  1
  Au  Au249  1  0.00003484  0.66294063  0.83068904  1
  Au  Au250  1  0.65978510  -0.00014093  0.67518142  1
  Au  Au251  1  0.66816110  0.33544766  0.49773834  1
  Au  Au252  1  0.00444259  0.33848933  0.33873885  1
  Au  Au253  1  0.33349668  0.67055136  0.49792189  1
  Au  Au254  1  0.67588109  0.17609718  0.50234565  1
  Au  Au255  1  0.16797447  0.49983344  0.18149406  1
  Au  Au256  1  0.50057054  0.82878535  0.83468175  1
  Au  Au257  1  0.82886142  0.16237757  -0.00232951  1
  Au  Au258  1  0.66392766  0.50136017  0.66776265  1
  Au  Au259  1  0.50015794  0.33075663  0.15824041  1
  Au  Au260  1  0.49813220  0.17945253  0.66646614  1
  Au  Au261  1  0.50131182  0.17551370  0.83346005  1
  Au  Au262  1  0.17246203  0.16545582  -0.00367206  1
  Au  Au263  1  0.33111539  0.33775409  0.49969472  1
  Au  Au264  1  0.82309029  0.67113888  -0.00000442  1
  Au  Au265  1  0.17041022  -0.00024428  0.16641784  1
  Au  Au266  1  0.00243709  0.16521778  0.67373341  1
  Au  Au267  1  0.49922272  0.66218142  0.67351112  1
  Au  Au268  1  0.32184159  -0.00092181  0.67255828  1
  Au  Au269  1  0.17881008  0.67896705  -0.00053623  1
  Au  Au270  1  0.32771722  0.49943029  0.67975508  1
  Au  Au271  1  0.67275057  -0.00366412  0.33588643  1
  Au  Au272  1  0.67072313  -0.00237261  0.16025481  1
  Au  Au273  1  0.33073567  0.00055496  0.16041313  1
  Au  Au274  1  0.17683062  0.33779211  -0.00328186  1
  Au  Au275  1  0.82299838  0.34274211  -0.00175479  1
  Au  Au276  1  0.34082391  0.50639630  0.16783953  1
  Au  Au277  1  -0.00199194  0.82976382  0.15676948  1
  Au  Au278  1  0.50073678  0.83172633  0.66115543  1
  Au  Au279  1  0.67139247  0.50447262  0.84101565  1
  Au  Au280  1  -0.00319646  0.16248046  0.32519360  1
  Au  Au281  1  0.81978337  0.68069441  0.50424599  1
  Au  Au282  1  0.33477440  -0.00523680  0.33633413  1
  Au  Au283  1  0.00164831  0.66002775  0.32829169  1
  Au  Au284  1  0.33080197  0.16728073  0.50271963  1
  Au  Au285  1  -0.00193350  0.32651829  0.16163305  1
  Au  Au286  1  0.00249821  0.83726414  0.82660589  1
  Au  Au287  1  0.83574214  -0.00231692  0.66995863  1
