# generated using pymatgen
data_Ca24Ti8Al207Au49
_symmetry_space_group_name_H-M   'P 1'
_cell_length_a   17.32082584
_cell_length_b   17.32087191
_cell_length_c   17.31927550
_cell_angle_alpha   89.99228229
_cell_angle_beta   90.00241740
_cell_angle_gamma   90.00001446
_symmetry_Int_Tables_number   1
_chemical_formula_structural   Ca24Ti8Al207Au49
_chemical_formula_sum   'Ca24 Ti8 Al207 Au49'
_cell_volume   5195.98706317
_cell_formula_units_Z   1
loop_
 _symmetry_equiv_pos_site_id
 _symmetry_equiv_pos_as_xyz
  1  'x, y, z'
loop_
 _atom_site_type_symbol
 _atom_site_label
 _atom_site_symmetry_multiplicity
 _atom_site_fract_x
 _atom_site_fract_y
 _atom_site_fract_z
 _atom_site_occupancy
  Ca  Ca0  1  0.24799136  0.00155507  -0.00266169  1
  Ca  Ca1  1  0.24758371  0.01043882  0.50384315  1
  Ca  Ca2  1  0.25006832  0.49830592  0.00316570  1
  Ca  Ca3  1  0.24684708  0.49214928  0.49557418  1
  Ca  Ca4  1  0.75077444  -0.00155427  -0.00105152  1
  Ca  Ca5  1  0.74993517  0.00501377  0.50245137  1
  Ca  Ca6  1  0.74764522  0.50130325  -0.00185102  1
  Ca  Ca7  1  0.75503965  0.49781329  0.49889405  1
  Ca  Ca8  1  -0.00169106  0.25654349  0.00206731  1
  Ca  Ca9  1  0.00494038  0.24892057  0.50004798  1
  Ca  Ca10  1  -0.00329311  0.74808157  0.00124569  1
  Ca  Ca11  1  0.00252329  0.74973306  0.50093551  1
  Ca  Ca12  1  0.49902736  0.25628055  0.00152736  1
  Ca  Ca13  1  0.49444888  0.24811870  0.50054076  1
  Ca  Ca14  1  0.50227986  0.74550051  0.00170753  1
  Ca  Ca15  1  0.49340807  0.75315383  0.49963562  1
  Ca  Ca16  1  0.00061079  0.00123990  0.24706931  1
  Ca  Ca17  1  0.00309364  0.00138697  0.74721850  1
  Ca  Ca18  1  0.00475258  0.49812467  0.24766360  1
  Ca  Ca19  1  0.00385164  0.50077299  0.75024318  1
  Ca  Ca20  1  0.50177816  0.00077086  0.24921662  1
  Ca  Ca21  1  0.49646410  0.00383947  0.74693226  1
  Ca  Ca22  1  0.49713522  0.49951428  0.24569547  1
  Ca  Ca23  1  0.49787804  0.49124782  0.75381052  1
  Ti  Ti24  1  0.24860170  0.25079478  0.24937986  1
  Ti  Ti25  1  0.24893916  0.24986194  0.74984294  1
  Ti  Ti26  1  0.24950467  0.74831539  0.24783409  1
  Ti  Ti27  1  0.24920173  0.74950668  0.75223010  1
  Ti  Ti28  1  0.75093878  0.25195690  0.25008755  1
  Ti  Ti29  1  0.75054173  0.24972071  0.75020654  1
  Ti  Ti30  1  0.75023821  0.74848310  0.24751469  1
  Ti  Ti31  1  0.75167993  0.74995173  0.75341182  1
  Al  Al32  1  0.07768560  0.08331514  0.08064991  1
  Al  Al33  1  0.09837743  0.08816757  0.58572800  1
  Al  Al34  1  0.08629086  0.57312924  0.09094758  1
  Al  Al35  1  0.08216972  0.57884524  0.58147519  1
  Al  Al36  1  0.58946959  0.08015855  0.09263422  1
  Al  Al37  1  0.58353516  0.08332399  0.59042940  1
  Al  Al38  1  0.58606484  0.58255567  0.07228814  1
  Al  Al39  1  0.57233969  0.57231006  0.57939075  1
  Al  Al40  1  0.41811296  0.41283133  0.09136076  1
  Al  Al41  1  0.40870157  0.40577602  0.59604485  1
  Al  Al42  1  0.42435722  0.91699115  0.07994404  1
  Al  Al43  1  0.40921672  0.93693174  0.58959690  1
  Al  Al44  1  0.92273523  0.41699475  0.09422697  1
  Al  Al45  1  0.92662360  0.40991459  0.58967040  1
  Al  Al46  1  0.91407587  0.91015294  0.08587239  1
  Al  Al47  1  0.91364636  0.92507991  0.59436444  1
  Al  Al48  1  0.41088037  0.09022898  0.42404042  1
  Al  Al49  1  0.41426565  0.07976425  0.90644698  1
  Al  Al50  1  0.41367379  0.57427310  0.40343042  1
  Al  Al51  1  0.41903664  0.57844939  0.90229996  1
  Al  Al52  1  0.92533177  0.08967130  0.41610052  1
  Al  Al53  1  0.92242144  0.08404963  0.91796124  1
  Al  Al54  1  0.92655527  0.57240456  0.41636844  1
  Al  Al55  1  0.91809216  0.58813972  0.91322593  1
  Al  Al56  1  0.09171608  0.41358790  0.40832038  1
  Al  Al57  1  0.09120919  0.41260400  0.92810163  1
  Al  Al58  1  0.07670112  0.92200881  0.42576076  1
  Al  Al59  1  0.08318762  0.91840583  0.91219921  1
  Al  Al60  1  0.57639114  0.42084604  0.42045903  1
  Al  Al61  1  0.57886111  0.41240521  0.91786875  1
  Al  Al62  1  0.58380233  0.91681312  0.41951042  1
  Al  Al63  1  0.58498429  0.91847223  0.92186096  1
  Al  Al64  1  0.08515349  0.09762421  0.42318237  1
  Al  Al65  1  0.08187674  0.08031889  0.90975480  1
  Al  Al66  1  0.09139073  0.57520739  0.40855596  1
  Al  Al67  1  0.07775587  0.58515002  0.91221208  1
  Al  Al68  1  0.57408680  0.07964912  0.42158202  1
  Al  Al69  1  0.57903402  0.08108962  0.91592122  1
  Al  Al70  1  0.57281173  0.57952530  0.41382095  1
  Al  Al71  1  0.57972407  0.58863855  0.91455352  1
  Al  Al72  1  0.40557623  0.41642937  0.41627149  1
  Al  Al73  1  0.41615323  0.41530430  0.90391641  1
  Al  Al74  1  0.42408430  0.92797215  0.41778285  1
  Al  Al75  1  0.40811397  0.92340842  0.91046438  1
  Al  Al76  1  0.92127467  0.41276209  0.41206619  1
  Al  Al77  1  0.92320053  0.42527348  0.92211428  1
  Al  Al78  1  0.92023462  0.92028826  0.41961603  1
  Al  Al79  1  0.91654175  0.91500947  0.92099341  1
  Al  Al80  1  0.09013441  0.41056792  0.09305673  1
  Al  Al81  1  0.08529082  0.40794260  0.58603490  1
  Al  Al82  1  0.07323111  0.90965018  0.08770953  1
  Al  Al83  1  0.08707423  0.92558029  0.59026403  1
  Al  Al84  1  0.58217913  0.41093587  0.08013021  1
  Al  Al85  1  0.57059565  0.40890295  0.59314642  1
  Al  Al86  1  0.58745505  0.91730970  0.08963569  1
  Al  Al87  1  0.59636006  0.92854774  0.58242027  1
  Al  Al88  1  0.42497802  0.08129528  0.08260164  1
  Al  Al89  1  0.40247066  0.09456635  0.58673674  1
  Al  Al90  1  0.41485458  0.57255001  0.08208438  1
  Al  Al91  1  0.40767225  0.56506844  0.59376235  1
  Al  Al92  1  0.91837354  0.07946787  0.08208671  1
  Al  Al93  1  0.91250985  0.08394231  0.58729178  1
  Al  Al94  1  0.91292344  0.57919027  0.08717477  1
  Al  Al95  1  0.92385602  0.57769915  0.58458044  1
  Al  Al96  1  0.24628087  0.13319711  0.13562269  1
  Al  Al97  1  0.25113928  0.13616494  0.63270725  1
  Al  Al98  1  0.24677037  0.63236065  0.13251698  1
  Al  Al99  1  0.25238464  0.62852282  0.64059067  1
  Al  Al100  1  0.74894497  0.13898671  0.13607010  1
  Al  Al101  1  0.75082657  0.13587646  0.63515299  1
  Al  Al102  1  0.75261461  0.63288845  0.13008982  1
  Al  Al103  1  0.75150173  0.63044264  0.64303891  1
  Al  Al104  1  0.24696184  0.36493859  0.13118969  1
  Al  Al105  1  0.25007975  0.36877276  0.63495606  1
  Al  Al106  1  0.25138308  0.87075873  0.13671552  1
  Al  Al107  1  0.25071637  0.86979273  0.63977284  1
  Al  Al108  1  0.75046227  0.36708522  0.13761986  1
  Al  Al109  1  0.75427987  0.36374123  0.63559153  1
  Al  Al110  1  0.74672508  0.86614487  0.13459576  1
  Al  Al111  1  0.75230076  0.86773185  0.63927302  1
  Al  Al112  1  0.24777207  0.14045482  0.36944975  1
  Al  Al113  1  0.25057692  0.13021400  0.86206804  1
  Al  Al114  1  0.24879184  0.62680221  0.36109563  1
  Al  Al115  1  0.25192792  0.63292263  0.86783260  1
  Al  Al116  1  0.74811960  0.13820241  0.36395235  1
  Al  Al117  1  0.74857691  0.13444999  0.86385295  1
  Al  Al118  1  0.75497700  0.62846436  0.36169199  1
  Al  Al119  1  0.75126194  0.63742013  0.87048703  1
  Al  Al120  1  0.24552749  0.36634779  0.36269914  1
  Al  Al121  1  0.25337616  0.36711137  0.86605330  1
  Al  Al122  1  0.24723653  0.86531848  0.36175527  1
  Al  Al123  1  0.25075931  0.87021724  0.86215967  1
  Al  Al124  1  0.75525520  0.37007202  0.35986492  1
  Al  Al125  1  0.74831425  0.36394325  0.86477585  1
  Al  Al126  1  0.75165368  0.86624796  0.36360424  1
  Al  Al127  1  0.74817466  0.86554781  0.86692385  1
  Al  Al128  1  0.13124220  0.25596355  0.13358135  1
  Al  Al129  1  0.13649653  0.24752637  0.63059483  1
  Al  Al130  1  0.13419539  0.74993401  0.13416303  1
  Al  Al131  1  0.13894184  0.74978504  0.63833254  1
  Al  Al132  1  0.63101061  0.25147630  0.13626727  1
  Al  Al133  1  0.63559202  0.25172627  0.63800980  1
  Al  Al134  1  0.63782857  0.74910631  0.13103639  1
  Al  Al135  1  0.63870619  0.74994255  0.63816712  1
  Al  Al136  1  0.13128235  0.25241499  0.36596614  1
  Al  Al137  1  0.13846879  0.25500094  0.86188826  1
  Al  Al138  1  0.13848946  0.74923995  0.36202692  1
  Al  Al139  1  0.13250329  0.74986416  0.86325904  1
  Al  Al140  1  0.63439070  0.25363840  0.36081009  1
  Al  Al141  1  0.63435524  0.25513308  0.86646428  1
  Al  Al142  1  0.63725955  0.75237998  0.36099108  1
  Al  Al143  1  0.63584728  0.74923228  0.87034646  1
  Al  Al144  1  0.36759349  0.25542196  0.13447322  1
  Al  Al145  1  0.36229808  0.25084690  0.63649868  1
  Al  Al146  1  0.36200306  0.74831350  0.13191303  1
  Al  Al147  1  0.36244940  0.74706397  0.64244952  1
  Al  Al148  1  0.86638722  0.25562682  0.13603947  1
  Al  Al149  1  0.87298842  0.24661215  0.63773957  1
  Al  Al150  1  0.86535654  0.74773285  0.13500775  1
  Al  Al151  1  0.86661684  0.75243413  0.63627728  1
  Al  Al152  1  0.36232511  0.24925561  0.36500975  1
  Al  Al153  1  0.36514621  0.25755422  0.86398399  1
  Al  Al154  1  0.36170768  0.74946888  0.36279857  1
  Al  Al155  1  0.36438401  0.74582412  0.86532942  1
  Al  Al156  1  0.87219873  0.25414530  0.36195265  1
  Al  Al157  1  0.86507677  0.25017138  0.86378388  1
  Al  Al158  1  0.86365095  0.75199844  0.36116202  1
  Al  Al159  1  0.86983425  0.74807430  0.86416944  1
  Al  Al160  1  0.13235126  0.13862172  0.25192166  1
  Al  Al161  1  0.13903985  0.12836916  0.74456080  1
  Al  Al162  1  0.13700493  0.62943940  0.24936229  1
  Al  Al163  1  0.13331646  0.63277721  0.75192972  1
  Al  Al164  1  0.63692058  0.13241203  0.24707210  1
  Al  Al165  1  0.63440648  0.13437536  0.74766353  1
  Al  Al166  1  0.63752022  0.63337941  0.24673963  1
  Al  Al167  1  0.63191017  0.63688656  0.75559441  1
  Al  Al168  1  0.36290322  0.13787966  0.24456361  1
  Al  Al169  1  0.36307992  0.13372866  0.74950761  1
  Al  Al170  1  0.36298425  0.63135820  0.25067727  1
  Al  Al171  1  0.36386809  0.62766204  0.75567543  1
  Al  Al172  1  0.86598615  0.13939717  0.25096422  1
  Al  Al173  1  0.86399110  0.12963697  0.74664658  1
  Al  Al174  1  0.86525136  0.62946233  0.24644195  1
  Al  Al175  1  0.87087625  0.63720859  0.75158182  1
  Al  Al176  1  0.13234433  0.36626445  0.24821399  1
  Al  Al177  1  0.13630478  0.36630416  0.74280550  1
  Al  Al178  1  0.13306983  0.86583843  0.24211201  1
  Al  Al179  1  0.13611236  0.87330119  0.75072587  1
  Al  Al180  1  0.63217749  0.36677882  0.24666224  1
  Al  Al181  1  0.63135179  0.36364858  0.75095193  1
  Al  Al182  1  0.63885147  0.87136328  0.25000669  1
  Al  Al183  1  0.63490596  0.86499854  0.74941404  1
  Al  Al184  1  0.36060448  0.36633396  0.25176993  1
  Al  Al185  1  0.36343740  0.36623954  0.74849291  1
  Al  Al186  1  0.36398564  0.86520906  0.24978244  1
  Al  Al187  1  0.36626349  0.86737365  0.75153472  1
  Al  Al188  1  0.87227485  0.36851247  0.24864756  1
  Al  Al189  1  0.86666319  0.36239054  0.74895334  1
  Al  Al190  1  0.86612854  0.86488777  0.24353089  1
  Al  Al191  1  0.86456025  0.87078497  0.75306369  1
  Al  Al192  1  0.32286940  0.82462742  0.00014089  1
  Al  Al193  1  0.66801702  0.18339298  0.00056416  1
  Al  Al194  1  -0.00125830  0.18635911  0.18346511  1
  Al  Al195  1  0.18274139  0.49829404  0.82188009  1
  Al  Al196  1  0.67726729  0.32844440  0.49945504  1
  Al  Al197  1  0.49838111  0.18509612  0.67193429  1
  Al  Al198  1  0.50197700  0.82199801  0.18324672  1
  Al  Al199  1  0.16898485  0.00235310  0.32516615  1
  Al  Al200  1  0.82669834  0.17843328  0.49801958  1
  Al  Al201  1  0.82529771  0.50040682  0.82221464  1
  Al  Al202  1  0.67311985  0.50014382  0.17325903  1
  Al  Al203  1  0.49682843  0.33107715  0.31914109  1
  Al  Al204  1  0.00296966  0.33474675  0.81724201  1
  Al  Al205  1  0.00152450  0.17698083  0.81486780  1
  Al  Al206  1  0.49887171  0.17507792  0.31914654  1
  Al  Al207  1  0.68185016  -0.00007448  0.81364042  1
  Al  Al208  1  0.49906718  0.68041290  0.32062990  1
  Al  Al209  1  0.68080958  0.82683558  0.50107871  1
  Al  Al210  1  0.00063776  0.67797131  0.17297305  1
  Al  Al211  1  0.31337229  0.49842440  0.18416038  1
  Al  Al212  1  0.17197651  0.67521999  0.00231260  1
  Al  Al213  1  0.17091992  0.18619858  -0.00227902  1
  Al  Al214  1  0.32996181  0.66472780  0.49982651  1
  Al  Al215  1  0.81684034  0.33484473  -0.00010239  1
  Al  Al216  1  0.49678685  0.66920154  0.68468648  1
  Al  Al217  1  0.82198298  0.00253413  0.32564327  1
  Al  Al218  1  0.17115238  0.82741165  0.50166594  1
  Al  Al219  1  0.32833320  0.17939716  -0.00096399  1
  Al  Al220  1  0.67092764  0.50011923  0.83036682  1
  Al  Al221  1  0.67590492  0.49708937  0.67314481  1
  Al  Al222  1  0.32587080  0.00448366  0.32232463  1
  Al  Al223  1  -0.00037659  0.82277685  0.67860582  1
  Al  Al224  1  0.17300473  0.67254285  0.49935720  1
  Al  Al225  1  0.82698478  0.17628531  0.00022815  1
  Al  Al226  1  0.82978913  0.67797147  0.49768839  1
  Al  Al227  1  0.32700942  0.83591586  0.50138653  1
  Al  Al228  1  0.49943495  0.19002560  0.82784232  1
  Al  Al229  1  0.50009361  0.66880424  0.16787582  1
  Al  Al230  1  0.81865861  0.81519623  0.00010690  1
  Al  Al231  1  0.31722973  0.31478395  0.50032706  1
  Al  Al232  1  0.81715153  0.00165037  0.17042233  1
  Al  Al233  1  0.00140679  0.82902878  0.31349151  1
  Al  Al234  1  0.00176254  0.67150794  0.32508750  1
  Al  Al235  1  0.49979088  0.81648234  0.82786294  1
  Al  Al236  1  0.50125393  0.82920006  0.66479983  1
  Al  Al237  1  0.66797103  0.66989986  0.49896345  1
  Al  Al238  1  0.67134380  0.17212266  0.49997096  1
  Au  Au239  1  0.32091097  0.85157821  0.50125267  1
  Au  Au240  1  0.84388000  0.32535372  0.50250798  1
  Au  Au241  1  0.00399864  0.16887634  0.66569934  1
  Au  Au242  1  0.17696029  0.49903093  0.66137286  1
  Au  Au243  1  0.66062882  0.00361795  0.32617616  1
  Au  Au244  1  0.49859368  0.82738936  0.84071815  1
  Au  Au245  1  0.49850313  0.17391064  0.82160919  1
  Au  Au246  1  0.49532013  0.32787354  0.33161024  1
  Au  Au247  1  0.84046619  0.00194241  0.82616027  1
  Au  Au248  1  0.00351317  0.32709544  0.32313363  1
  Au  Au249  1  0.33044694  0.83468053  -0.00024782  1
  Au  Au250  1  0.00332050  0.32822735  0.83324707  1
  Au  Au251  1  0.67678845  0.50181947  0.16133839  1
  Au  Au252  1  0.83839108  0.00635780  0.32278634  1
  Au  Au253  1  0.33112795  0.16263156  -0.00111535  1
  Au  Au254  1  0.66868871  0.50052321  0.33193282  1
  Au  Au255  1  0.00403391  0.66668737  0.67724512  1
  Au  Au256  1  0.49270838  0.65428738  0.67769114  1
  Au  Au257  1  0.33767427  0.66087116  -0.00501151  1
  Au  Au258  1  0.00422092  0.82778922  0.66844548  1
  Au  Au259  1  0.15559774  0.17894223  -0.00518676  1
  Au  Au260  1  0.83990796  0.49596288  0.67419808  1
  Au  Au261  1  0.32950511  0.34206080  -0.00124855  1
  Au  Au262  1  0.16627003  0.83218600  0.00056642  1
  Au  Au263  1  0.66100207  0.32582775  0.50358398  1
  Au  Au264  1  0.50355663  0.84593280  0.66081684  1
  Au  Au265  1  0.65228704  0.67628460  0.49860435  1
  Au  Au266  1  0.67342975  0.16704373  0.00068109  1
  Au  Au267  1  0.17028382  0.32225522  0.49906438  1
  Au  Au268  1  0.84337714  0.66813618  0.49578170  1
  Au  Au269  1  0.16304324  0.66671556  0.00013544  1
  Au  Au270  1  0.82800348  0.66546223  0.00031881  1
  Au  Au271  1  0.66611403  -0.00065075  0.82089675  1
  Au  Au272  1  0.50174953  0.17343415  0.17033885  1
  Au  Au273  1  0.49958795  0.82838418  0.33322499  1
  Au  Au274  1  0.83833957  0.49971815  0.32156333  1
  Au  Au275  1  -0.00120263  0.82249921  0.83661518  1
  Au  Au276  1  -0.00359443  0.17137630  0.17474263  1
  Au  Au277  1  0.17120295  0.00681985  0.34144893  1
  Au  Au278  1  0.67069848  0.82805724  0.00386376  1
  Au  Au279  1  0.00174699  0.82319971  0.32983587  1
  Au  Au280  1  0.83359708  0.33324909  0.00326688  1
  Au  Au281  1  0.82749838  0.84527126  0.50552907  1
  Au  Au282  1  0.32514783  0.64921399  0.49876044  1
  Au  Au283  1  0.17514415  0.00135236  0.82495036  1
  Au  Au284  1  0.17548674  0.49890162  0.83710614  1
  Au  Au285  1  0.34071240  -0.00103725  0.17324345  1
  Au  Au286  1  0.16694247  -0.00178386  0.16019523  1
  Au  Au287  1  0.66363614  0.49890751  0.67669613  1
