# generated using pymatgen
data_Ca24Ti8Al207Au49
_symmetry_space_group_name_H-M   'P 1'
_cell_length_a   17.32180506
_cell_length_b   17.32285183
_cell_length_c   17.32244111
_cell_angle_alpha   89.99758778
_cell_angle_beta   89.99852343
_cell_angle_gamma   90.00230429
_symmetry_Int_Tables_number   1
_chemical_formula_structural   Ca24Ti8Al207Au49
_chemical_formula_sum   'Ca24 Ti8 Al207 Au49'
_cell_volume   5197.82471683
_cell_formula_units_Z   1
loop_
 _symmetry_equiv_pos_site_id
 _symmetry_equiv_pos_as_xyz
  1  'x, y, z'
loop_
 _atom_site_type_symbol
 _atom_site_label
 _atom_site_symmetry_multiplicity
 _atom_site_fract_x
 _atom_site_fract_y
 _atom_site_fract_z
 _atom_site_occupancy
  Ca  Ca0  1  0.25215461  0.00031167  0.00147924  1
  Ca  Ca1  1  0.24716416  -0.00375202  0.50078838  1
  Ca  Ca2  1  0.25332970  0.49637403  -0.00117676  1
  Ca  Ca3  1  0.24985330  0.50307528  0.50061237  1
  Ca  Ca4  1  0.74635942  -0.00246129  0.00385997  1
  Ca  Ca5  1  0.74582059  -0.00296055  0.49769523  1
  Ca  Ca6  1  0.74712474  0.50499364  0.00191931  1
  Ca  Ca7  1  0.74864226  0.50238494  0.49430547  1
  Ca  Ca8  1  0.00194988  0.25015686  -0.00326525  1
  Ca  Ca9  1  0.00197737  0.25058336  0.50061898  1
  Ca  Ca10  1  -0.00218532  0.75293338  -0.00075674  1
  Ca  Ca11  1  0.00101745  0.75118555  0.49909579  1
  Ca  Ca12  1  0.49592140  0.25535760  0.00113141  1
  Ca  Ca13  1  0.49909433  0.24912673  0.49977284  1
  Ca  Ca14  1  0.49913002  0.74923180  0.00368256  1
  Ca  Ca15  1  0.50087953  0.75199620  0.49576272  1
  Ca  Ca16  1  0.00211418  -0.00476547  0.24441006  1
  Ca  Ca17  1  0.00317719  -0.00133843  0.74894460  1
  Ca  Ca18  1  -0.00112287  0.50460254  0.24807359  1
  Ca  Ca19  1  0.00245342  0.50425194  0.74713594  1
  Ca  Ca20  1  0.50129903  -0.00548964  0.25115993  1
  Ca  Ca21  1  0.49695328  -0.00055533  0.75226495  1
  Ca  Ca22  1  0.50221774  0.50265061  0.24659354  1
  Ca  Ca23  1  0.49267916  0.50371501  0.75714806  1
  Ti  Ti24  1  0.25090030  0.25123407  0.25008523  1
  Ti  Ti25  1  0.25034718  0.25004192  0.74969491  1
  Ti  Ti26  1  0.25106290  0.74995527  0.24883169  1
  Ti  Ti27  1  0.24996515  0.74973945  0.75231004  1
  Ti  Ti28  1  0.74847973  0.25136438  0.24896478  1
  Ti  Ti29  1  0.75040694  0.24877906  0.75092998  1
  Ti  Ti30  1  0.74890402  0.74933954  0.24931159  1
  Ti  Ti31  1  0.75122465  0.74888185  0.74915198  1
  Al  Al32  1  0.08877162  0.08095140  0.08737675  1
  Al  Al33  1  0.08965333  0.07176092  0.58575140  1
  Al  Al34  1  0.07907386  0.57969531  0.08190927  1
  Al  Al35  1  0.07873094  0.59595528  0.58718025  1
  Al  Al36  1  0.58776401  0.08499898  0.07622175  1
  Al  Al37  1  0.59319026  0.07573534  0.57813113  1
  Al  Al38  1  0.58644221  0.59001853  0.08634845  1
  Al  Al39  1  0.58523249  0.58098425  0.57705903  1
  Al  Al40  1  0.41063388  0.41778424  0.07417614  1
  Al  Al41  1  0.41537953  0.42115262  0.58335812  1
  Al  Al42  1  0.41403752  0.91337556  0.09626348  1
  Al  Al43  1  0.40795026  0.91683649  0.58163887  1
  Al  Al44  1  0.91618814  0.42543886  0.08264446  1
  Al  Al45  1  0.91915617  0.42126586  0.57882554  1
  Al  Al46  1  0.91536192  0.91313988  0.07878889  1
  Al  Al47  1  0.92172102  0.90910071  0.58358879  1
  Al  Al48  1  0.42065645  0.07468059  0.42137043  1
  Al  Al49  1  0.40845544  0.07766037  0.91652170  1
  Al  Al50  1  0.42553963  0.58638401  0.41443082  1
  Al  Al51  1  0.40891541  0.57704403  0.91957909  1
  Al  Al52  1  0.91784300  0.07536222  0.42102452  1
  Al  Al53  1  0.92116295  0.08331458  0.92373199  1
  Al  Al54  1  0.90162206  0.58959724  0.41745176  1
  Al  Al55  1  0.91624322  0.59591848  0.92479168  1
  Al  Al56  1  0.08232116  0.42403573  0.42244431  1
  Al  Al57  1  0.09094034  0.40542933  0.91243120  1
  Al  Al58  1  0.08942357  0.90889537  0.41903141  1
  Al  Al59  1  0.08653243  0.92225462  0.91174627  1
  Al  Al60  1  0.58945170  0.42411665  0.40948079  1
  Al  Al61  1  0.56759651  0.40940444  0.91865420  1
  Al  Al62  1  0.58447497  0.91321893  0.40714472  1
  Al  Al63  1  0.58519744  0.91680958  0.92062781  1
  Al  Al64  1  0.08496237  0.06991936  0.42160238  1
  Al  Al65  1  0.09224973  0.07917106  0.91406719  1
  Al  Al66  1  0.08091465  0.58489108  0.42647011  1
  Al  Al67  1  0.07832051  0.58069680  0.91597660  1
  Al  Al68  1  0.58925253  0.07552995  0.41493207  1
  Al  Al69  1  0.59309926  0.08457701  0.91867000  1
  Al  Al70  1  0.58918346  0.58560606  0.40625516  1
  Al  Al71  1  0.57938835  0.58863545  0.92779464  1
  Al  Al72  1  0.42182303  0.42177631  0.41910650  1
  Al  Al73  1  0.40621174  0.41220488  0.91078479  1
  Al  Al74  1  0.42030135  0.90699055  0.41051420  1
  Al  Al75  1  0.41159566  0.91945753  0.91342692  1
  Al  Al76  1  0.90630394  0.43026878  0.41342224  1
  Al  Al77  1  0.93007834  0.40769712  0.91511413  1
  Al  Al78  1  0.91973006  0.91228525  0.41950977  1
  Al  Al79  1  0.91614570  0.90801342  0.92241793  1
  Al  Al80  1  0.09393486  0.41106522  0.07366584  1
  Al  Al81  1  0.08137136  0.42109157  0.58350849  1
  Al  Al82  1  0.08507995  0.92247173  0.08782934  1
  Al  Al83  1  0.09040842  0.90830174  0.58666546  1
  Al  Al84  1  0.58171762  0.42328882  0.07880658  1
  Al  Al85  1  0.58204360  0.42211915  0.57955569  1
  Al  Al86  1  0.57754898  0.90691190  0.08705971  1
  Al  Al87  1  0.58727110  0.92049472  0.58072631  1
  Al  Al88  1  0.40809968  0.07530796  0.08520600  1
  Al  Al89  1  0.40674422  0.07230986  0.58641002  1
  Al  Al90  1  0.41443912  0.58641965  0.08090757  1
  Al  Al91  1  0.41781039  0.58096468  0.58214401  1
  Al  Al92  1  0.92334646  0.08020144  0.08081448  1
  Al  Al93  1  0.91819097  0.07479731  0.57868200  1
  Al  Al94  1  0.90833012  0.58887130  0.08478489  1
  Al  Al95  1  0.91590810  0.59948290  0.57949542  1
  Al  Al96  1  0.24966442  0.12986060  0.13431289  1
  Al  Al97  1  0.24921322  0.12879791  0.63382963  1
  Al  Al98  1  0.25294742  0.63663394  0.13186948  1
  Al  Al99  1  0.24981793  0.63223956  0.63832518  1
  Al  Al100  1  0.74558660  0.13471219  0.13157685  1
  Al  Al101  1  0.74841391  0.13454689  0.63528291  1
  Al  Al102  1  0.74534575  0.63686994  0.13336878  1
  Al  Al103  1  0.75426834  0.63711256  0.63456881  1
  Al  Al104  1  0.25006787  0.36582400  0.13080877  1
  Al  Al105  1  0.25074990  0.36980559  0.63500547  1
  Al  Al106  1  0.25470405  0.86626917  0.13115000  1
  Al  Al107  1  0.24823391  0.86975410  0.63859385  1
  Al  Al108  1  0.74773221  0.36699190  0.13411081  1
  Al  Al109  1  0.75309858  0.36572967  0.63751582  1
  Al  Al110  1  0.74801170  0.86352050  0.13410728  1
  Al  Al111  1  0.75053172  0.86146298  0.63458809  1
  Al  Al112  1  0.25096600  0.13368090  0.36971268  1
  Al  Al113  1  0.25059764  0.13630099  0.86576646  1
  Al  Al114  1  0.25023152  0.63298154  0.36277304  1
  Al  Al115  1  0.25330529  0.62988691  0.86548591  1
  Al  Al116  1  0.74805880  0.13293688  0.36431823  1
  Al  Al117  1  0.75019810  0.13784230  0.87109844  1
  Al  Al118  1  0.75071261  0.63126042  0.36247545  1
  Al  Al119  1  0.75322798  0.63469462  0.86196013  1
  Al  Al120  1  0.24948988  0.37057949  0.36879906  1
  Al  Al121  1  0.25373058  0.36726505  0.86766363  1
  Al  Al122  1  0.24849051  0.86499840  0.36315198  1
  Al  Al123  1  0.24965301  0.86323222  0.87138904  1
  Al  Al124  1  0.74854429  0.37292664  0.36225239  1
  Al  Al125  1  0.74856750  0.36401916  0.86517424  1
  Al  Al126  1  0.74635929  0.86460012  0.36306535  1
  Al  Al127  1  0.75213327  0.85931916  0.86649385  1
  Al  Al128  1  0.13775993  0.25484048  0.13470449  1
  Al  Al129  1  0.13813220  0.24849117  0.63214694  1
  Al  Al130  1  0.13773342  0.75311421  0.13157942  1
  Al  Al131  1  0.13891405  0.75192917  0.63746124  1
  Al  Al132  1  0.63502452  0.24886795  0.13744248  1
  Al  Al133  1  0.63496135  0.25329118  0.63527436  1
  Al  Al134  1  0.62807964  0.74941807  0.13899773  1
  Al  Al135  1  0.63362144  0.74840878  0.63338734  1
  Al  Al136  1  0.14016490  0.25216455  0.36982407  1
  Al  Al137  1  0.13726484  0.25435701  0.86790042  1
  Al  Al138  1  0.13646231  0.75167828  0.36218921  1
  Al  Al139  1  0.13074593  0.75009543  0.86507837  1
  Al  Al140  1  0.63727880  0.25428548  0.36248177  1
  Al  Al141  1  0.63414168  0.24790443  0.86491213  1
  Al  Al142  1  0.63511353  0.75045311  0.36313681  1
  Al  Al143  1  0.63415440  0.74491317  0.86564164  1
  Al  Al144  1  0.35921921  0.25155349  0.12827282  1
  Al  Al145  1  0.36065591  0.25084419  0.63094320  1
  Al  Al146  1  0.36782248  0.75131311  0.13179730  1
  Al  Al147  1  0.36526258  0.74914798  0.63705908  1
  Al  Al148  1  0.86410517  0.25114058  0.13659884  1
  Al  Al149  1  0.86600344  0.24948265  0.63430098  1
  Al  Al150  1  0.86299542  0.75181221  0.13369340  1
  Al  Al151  1  0.86607311  0.74816931  0.62727119  1
  Al  Al152  1  0.36228558  0.25030879  0.36822493  1
  Al  Al153  1  0.36418124  0.25422613  0.86752193  1
  Al  Al154  1  0.36603321  0.75439433  0.36203463  1
  Al  Al155  1  0.36146522  0.74802288  0.87175915  1
  Al  Al156  1  0.85978367  0.25075661  0.36506180  1
  Al  Al157  1  0.86694150  0.25014928  0.86692327  1
  Al  Al158  1  0.86089612  0.74815155  0.37152637  1
  Al  Al159  1  0.87087154  0.74964930  0.86362016  1
  Al  Al160  1  0.13996918  0.13714055  0.24727729  1
  Al  Al161  1  0.13783196  0.13084491  0.75140731  1
  Al  Al162  1  0.13750785  0.63179273  0.24759946  1
  Al  Al163  1  0.13083167  0.63617259  0.75213177  1
  Al  Al164  1  0.63757080  0.13107018  0.25395735  1
  Al  Al165  1  0.63567704  0.13436274  0.74942668  1
  Al  Al166  1  0.63661968  0.62826610  0.24961189  1
  Al  Al167  1  0.63052761  0.63705582  0.74935613  1
  Al  Al168  1  0.36085999  0.13505388  0.24655865  1
  Al  Al169  1  0.36613178  0.13775351  0.74901595  1
  Al  Al170  1  0.36694108  0.63727597  0.24784240  1
  Al  Al171  1  0.36754033  0.63395606  0.75261292  1
  Al  Al172  1  0.86264262  0.13623604  0.24954458  1
  Al  Al173  1  0.86666873  0.13602263  0.74946266  1
  Al  Al174  1  0.86321941  0.63679307  0.25146176  1
  Al  Al175  1  0.87167966  0.63823114  0.74676210  1
  Al  Al176  1  0.13732276  0.37114705  0.25050956  1
  Al  Al177  1  0.13489915  0.36383772  0.75205741  1
  Al  Al178  1  0.13851500  0.86586350  0.24324683  1
  Al  Al179  1  0.13843490  0.87179013  0.75371799  1
  Al  Al180  1  0.63589269  0.37109928  0.24859914  1
  Al  Al181  1  0.63383915  0.36222524  0.75348644  1
  Al  Al182  1  0.63138870  0.86417294  0.25047754  1
  Al  Al183  1  0.63739605  0.86242998  0.74973661  1
  Al  Al184  1  0.36163519  0.36408368  0.25101706  1
  Al  Al185  1  0.36348869  0.36973221  0.75308032  1
  Al  Al186  1  0.36730224  0.86546319  0.24549002  1
  Al  Al187  1  0.36242985  0.86403750  0.75060099  1
  Al  Al188  1  0.86391203  0.36656699  0.25027989  1
  Al  Al189  1  0.86567004  0.36439223  0.75283520  1
  Al  Al190  1  0.86335249  0.86062750  0.25051789  1
  Al  Al191  1  0.86714474  0.86059161  0.74694859  1
  Al  Al192  1  0.00021845  0.32119280  0.68304441  1
  Al  Al193  1  0.00250395  0.81127863  0.67996184  1
  Al  Al194  1  0.68671694  0.80853169  0.00128297  1
  Al  Al195  1  0.00430205  0.16982479  0.32965427  1
  Al  Al196  1  0.67236361  -0.00190288  0.81566146  1
  Al  Al197  1  0.17454044  -0.00084689  0.31419248  1
  Al  Al198  1  0.67141406  -0.00234474  0.18056234  1
  Al  Al199  1  0.32602723  -0.00138626  0.31630457  1
  Al  Al200  1  0.50054194  0.17207967  0.32975834  1
  Al  Al201  1  0.83327135  0.50002475  0.82533321  1
  Al  Al202  1  0.49892488  0.17349304  0.17815941  1
  Al  Al203  1  0.50211927  0.16916956  0.66673838  1
  Al  Al204  1  0.49736637  0.32981177  0.17088348  1
  Al  Al205  1  0.00033273  0.68129450  0.17537080  1
  Al  Al206  1  0.68340745  0.67300388  0.49772331  1
  Al  Al207  1  0.17699923  0.68976595  0.50050379  1
  Al  Al208  1  0.17627134  0.18353725  0.00136982  1
  Al  Al209  1  -0.00155734  0.33092158  0.32352123  1
  Al  Al210  1  0.00104901  0.82336167  0.31893184  1
  Al  Al211  1  0.32852973  0.67295087  0.49812015  1
  Al  Al212  1  0.66923953  0.31754801  -0.00003391  1
  Al  Al213  1  0.82088909  0.32386566  0.49731770  1
  Al  Al214  1  0.00323931  0.18340953  0.82393369  1
  Al  Al215  1  0.81865044  0.50244968  0.18619821  1
  Al  Al216  1  0.18334127  0.67767944  -0.00223420  1
  Al  Al217  1  0.80812924  0.69247366  -0.00104699  1
  Al  Al218  1  0.81105365  -0.00106596  0.67352441  1
  Al  Al219  1  0.49940647  0.82109007  0.82713470  1
  Al  Al220  1  -0.00082648  0.67075098  0.32963303  1
  Al  Al221  1  0.32172374  0.50022700  0.17701678  1
  Al  Al222  1  0.17916099  0.49675555  0.82336737  1
  Al  Al223  1  0.30840522  -0.00039056  0.81027832  1
  Al  Al224  1  0.50185800  0.68743525  0.31577270  1
  Al  Al225  1  0.66741065  0.49999302  0.83172594  1
  Al  Al226  1  0.49873445  0.82825053  0.67143328  1
  Al  Al227  1  0.82673931  0.32172102  -0.00017773  1
  Al  Al228  1  0.49917211  0.18035125  0.83103427  1
  Al  Al229  1  0.82723919  -0.00006393  0.17189464  1
  Al  Al230  1  0.31169972  0.82379308  0.50061850  1
  Al  Al231  1  0.67950131  0.50083104  0.67568416  1
  Al  Al232  1  0.81394547  -0.00159714  0.32788246  1
  Al  Al233  1  0.50011214  0.32757524  0.32514861  1
  Al  Al234  1  0.82686503  -0.00056602  0.82975109  1
  Al  Al235  1  0.00113198  0.17956516  0.17296713  1
  Al  Al236  1  0.67938762  0.82577542  0.49867099  1
  Al  Al237  1  0.67949599  0.18008768  0.49852461  1
  Al  Al238  1  0.49848051  0.32725823  0.68436538  1
  Au  Au239  1  0.33341119  0.16517178  0.50039708  1
  Au  Au240  1  0.33416882  0.33281966  0.49807918  1
  Au  Au241  1  0.00324787  0.16896986  0.83304737  1
  Au  Au242  1  0.17460971  0.50182864  0.83394075  1
  Au  Au243  1  0.82600705  -0.00409436  0.66555020  1
  Au  Au244  1  0.16722284  0.16422224  0.50019407  1
  Au  Au245  1  0.50197317  0.84031569  0.66918285  1
  Au  Au246  1  0.33443286  -0.00231391  0.32797089  1
  Au  Au247  1  0.82953053  0.16753958  0.50026946  1
  Au  Au248  1  0.66686006  -0.00243158  0.16850037  1
  Au  Au249  1  0.82842990  0.50794553  0.65587585  1
  Au  Au250  1  0.00194474  0.32925326  0.15476992  1
  Au  Au251  1  0.00208426  0.16282947  0.66145753  1
  Au  Au252  1  0.00235175  0.83695348  0.82587218  1
  Au  Au253  1  0.00576760  0.15402874  0.32351915  1
  Au  Au254  1  0.16635518  0.50605187  0.66817534  1
  Au  Au255  1  0.83066996  -0.00496618  0.32648644  1
  Au  Au256  1  0.49724770  0.16911610  0.16248024  1
  Au  Au257  1  0.17012107  0.66728623  -0.00036383  1
  Au  Au258  1  0.50095060  0.34311995  0.67847944  1
  Au  Au259  1  0.82913572  0.33327270  0.49887807  1
  Au  Au260  1  0.18019890  -0.00114238  0.68143506  1
  Au  Au261  1  0.16939260  0.50638686  0.33559861  1
  Au  Au262  1  0.84743294  0.50066470  0.83338359  1
  Au  Au263  1  0.16753721  0.33245883  0.50211112  1
  Au  Au264  1  0.34073360  0.50248094  0.32530068  1
  Au  Au265  1  0.50319570  0.66436880  0.66679707  1
  Au  Au266  1  0.82021847  -0.00214526  0.84626722  1
  Au  Au267  1  0.82973694  0.82244393  0.49931272  1
  Au  Au268  1  0.17129111  0.49855281  0.16412147  1
  Au  Au269  1  0.17144282  0.17174875  0.00128543  1
  Au  Au270  1  0.49742567  0.67660033  0.16819112  1
  Au  Au271  1  0.17165608  0.84238651  0.00047285  1
  Au  Au272  1  0.49911654  0.17279159  0.84537090  1
  Au  Au273  1  0.50268724  0.15418013  0.66226847  1
  Au  Au274  1  -0.00005236  0.66984399  0.82309283  1
  Au  Au275  1  0.33200058  0.50294517  0.67628783  1
  Au  Au276  1  -0.00286870  0.34604030  0.32953342  1
  Au  Au277  1  -0.00189160  0.33751710  0.67787342  1
  Au  Au278  1  0.49252250  0.67278688  0.84424860  1
  Au  Au279  1  0.82379433  0.16641381  0.00541752  1
  Au  Au280  1  0.66339621  0.33009131  0.49797510  1
  Au  Au281  1  0.33173268  0.17407580  0.00018532  1
  Au  Au282  1  0.67322180  0.81854251  -0.00106610  1
  Au  Au283  1  0.82382155  0.33380752  -0.00206769  1
  Au  Au284  1  0.65147768  0.49644385  0.83065598  1
  Au  Au285  1  0.67135142  0.49984698  0.17191031  1
  Au  Au286  1  -0.00093677  0.83084182  0.16844818  1
  Au  Au287  1  0.34049392  0.82658346  0.00209799  1
