# generated using pymatgen
data_Ca24Ti8Al207Au49
_symmetry_space_group_name_H-M   'P 1'
_cell_length_a   17.31661446
_cell_length_b   17.31710535
_cell_length_c   17.31961328
_cell_angle_alpha   89.99384676
_cell_angle_beta   90.00345800
_cell_angle_gamma   89.99621706
_symmetry_Int_Tables_number   1
_chemical_formula_structural   Ca24Ti8Al207Au49
_chemical_formula_sum   'Ca24 Ti8 Al207 Au49'
_cell_volume   5193.69537765
_cell_formula_units_Z   1
loop_
 _symmetry_equiv_pos_site_id
 _symmetry_equiv_pos_as_xyz
  1  'x, y, z'
loop_
 _atom_site_type_symbol
 _atom_site_label
 _atom_site_symmetry_multiplicity
 _atom_site_fract_x
 _atom_site_fract_y
 _atom_site_fract_z
 _atom_site_occupancy
  Ca  Ca0  1  0.24769653  0.00191113  -0.00348891  1
  Ca  Ca1  1  0.24275145  0.00520991  0.50285816  1
  Ca  Ca2  1  0.25138986  0.49854616  0.00105913  1
  Ca  Ca3  1  0.24601160  0.49726844  0.50214166  1
  Ca  Ca4  1  0.75507501  0.00237500  -0.00695171  1
  Ca  Ca5  1  0.75897219  0.00180669  0.50705183  1
  Ca  Ca6  1  0.75108241  0.49948864  -0.00031421  1
  Ca  Ca7  1  0.75610481  0.49870254  0.49647799  1
  Ca  Ca8  1  0.00054617  0.24662541  -0.00183372  1
  Ca  Ca9  1  0.00096349  0.24656646  0.50222049  1
  Ca  Ca10  1  -0.00306510  0.75245840  0.00209504  1
  Ca  Ca11  1  0.00199598  0.75453954  0.50089037  1
  Ca  Ca12  1  0.49981875  0.24920197  -0.00316255  1
  Ca  Ca13  1  0.49534050  0.24715135  0.50165643  1
  Ca  Ca14  1  0.49870270  0.74530815  -0.00510273  1
  Ca  Ca15  1  0.50065811  0.75252001  0.50474985  1
  Ca  Ca16  1  -0.00031326  0.00075932  0.25454039  1
  Ca  Ca17  1  0.00117181  0.00009389  0.74607257  1
  Ca  Ca18  1  0.00327110  0.49977072  0.24839805  1
  Ca  Ca19  1  0.00783161  0.50059609  0.74573765  1
  Ca  Ca20  1  0.49813021  0.00269016  0.24744696  1
  Ca  Ca21  1  0.50164653  0.00119252  0.75009504  1
  Ca  Ca22  1  0.49773895  0.49722080  0.24114098  1
  Ca  Ca23  1  0.49580336  0.50114338  0.75054014  1
  Ti  Ti24  1  0.24920488  0.25029856  0.24914616  1
  Ti  Ti25  1  0.24725708  0.24864901  0.75109667  1
  Ti  Ti26  1  0.24799979  0.74759732  0.24827869  1
  Ti  Ti27  1  0.25114467  0.75090410  0.75025964  1
  Ti  Ti28  1  0.75053547  0.24984695  0.24869312  1
  Ti  Ti29  1  0.75299624  0.24764906  0.75177668  1
  Ti  Ti30  1  0.75041076  0.74982038  0.24937386  1
  Ti  Ti31  1  0.74860356  0.75295468  0.75048003  1
  Al  Al32  1  0.08997274  0.08078709  0.08503043  1
  Al  Al33  1  0.08651229  0.08625029  0.58854059  1
  Al  Al34  1  0.08147319  0.58107780  0.08781690  1
  Al  Al35  1  0.09093162  0.57954821  0.58372141  1
  Al  Al36  1  0.58593872  0.09169601  0.07138956  1
  Al  Al37  1  0.58680837  0.07619551  0.58658826  1
  Al  Al38  1  0.57864018  0.57924652  0.07513495  1
  Al  Al39  1  0.58595804  0.60185311  0.58138443  1
  Al  Al40  1  0.41166277  0.42156156  0.08695517  1
  Al  Al41  1  0.40961393  0.40669657  0.58519415  1
  Al  Al42  1  0.41769997  0.92742074  0.07710747  1
  Al  Al43  1  0.42339729  0.91459594  0.59369550  1
  Al  Al44  1  0.91220433  0.41705799  0.08146225  1
  Al  Al45  1  0.91111669  0.40640613  0.57959613  1
  Al  Al46  1  0.92088133  0.92040150  0.07444677  1
  Al  Al47  1  0.92253464  0.91781879  0.58703697  1
  Al  Al48  1  0.40262984  0.09237477  0.42350752  1
  Al  Al49  1  0.41194493  0.08526878  0.91217074  1
  Al  Al50  1  0.41730393  0.56756418  0.42021120  1
  Al  Al51  1  0.40942447  0.59276396  0.91614377  1
  Al  Al52  1  0.91839588  0.09403916  0.41978418  1
  Al  Al53  1  0.90594194  0.08190023  0.91106249  1
  Al  Al54  1  0.92157659  0.58391697  0.41862309  1
  Al  Al55  1  0.92242997  0.58833493  0.92587679  1
  Al  Al56  1  0.08997272  0.41901598  0.41655670  1
  Al  Al57  1  0.09269677  0.41239896  0.91879237  1
  Al  Al58  1  0.08613139  0.91339972  0.42530443  1
  Al  Al59  1  0.07380168  0.91727413  0.90398937  1
  Al  Al60  1  0.58305506  0.42051098  0.42176993  1
  Al  Al61  1  0.58303328  0.40462749  0.92483027  1
  Al  Al62  1  0.59353858  0.91349327  0.43826092  1
  Al  Al63  1  0.58983949  0.91020075  0.91159339  1
  Al  Al64  1  0.08217034  0.08788202  0.42229871  1
  Al  Al65  1  0.08340867  0.08127254  0.91466770  1
  Al  Al66  1  0.09069047  0.58103504  0.41649122  1
  Al  Al67  1  0.08479221  0.58076488  0.91303076  1
  Al  Al68  1  0.57756791  0.08075009  0.42885889  1
  Al  Al69  1  0.58713269  0.09035391  0.91417340  1
  Al  Al70  1  0.59372878  0.58670130  0.42634560  1
  Al  Al71  1  0.57011242  0.59648293  0.91466703  1
  Al  Al72  1  0.40175924  0.40916174  0.42358209  1
  Al  Al73  1  0.41719059  0.42099368  0.92073771  1
  Al  Al74  1  0.41892537  0.93334003  0.43162313  1
  Al  Al75  1  0.41557438  0.92345116  0.90664772  1
  Al  Al76  1  0.91168719  0.40820494  0.42227436  1
  Al  Al77  1  0.92091480  0.40869526  0.92345675  1
  Al  Al78  1  0.92457755  0.91954588  0.42158206  1
  Al  Al79  1  0.91153621  0.91810270  0.90290936  1
  Al  Al80  1  0.09164773  0.41198111  0.07939967  1
  Al  Al81  1  0.08753198  0.41657729  0.58526496  1
  Al  Al82  1  0.08448837  0.92419212  0.09195580  1
  Al  Al83  1  0.08962679  0.91544795  0.59075625  1
  Al  Al84  1  0.58378106  0.40967065  0.08018303  1
  Al  Al85  1  0.57247566  0.41113305  0.57959421  1
  Al  Al86  1  0.58960184  0.91268479  0.06585817  1
  Al  Al87  1  0.58771858  0.90712467  0.59577676  1
  Al  Al88  1  0.41058957  0.08521139  0.07762977  1
  Al  Al89  1  0.40647570  0.08959718  0.58292257  1
  Al  Al90  1  0.40667127  0.58384647  0.07949331  1
  Al  Al91  1  0.42336209  0.57797182  0.58892092  1
  Al  Al92  1  0.91485764  0.08598323  0.07242260  1
  Al  Al93  1  0.91950851  0.09344619  0.58515088  1
  Al  Al94  1  0.91529408  0.58566315  0.08559725  1
  Al  Al95  1  0.92174046  0.58043664  0.57859373  1
  Al  Al96  1  0.24479684  0.13573826  0.13416926  1
  Al  Al97  1  0.24530568  0.13260819  0.63468684  1
  Al  Al98  1  0.24887093  0.62677547  0.13263331  1
  Al  Al99  1  0.24991835  0.63721118  0.63873990  1
  Al  Al100  1  0.75201895  0.13697427  0.13492456  1
  Al  Al101  1  0.75843691  0.13439933  0.63627912  1
  Al  Al102  1  0.74801203  0.63518204  0.13302405  1
  Al  Al103  1  0.74249224  0.64224707  0.63458372  1
  Al  Al104  1  0.24829292  0.36939599  0.13217932  1
  Al  Al105  1  0.24979261  0.36031554  0.63372297  1
  Al  Al106  1  0.24816786  0.86521270  0.13179618  1
  Al  Al107  1  0.24382657  0.86854470  0.63471067  1
  Al  Al108  1  0.74842411  0.36118837  0.12679220  1
  Al  Al109  1  0.75568539  0.35980249  0.63641917  1
  Al  Al110  1  0.75040941  0.86299057  0.12634498  1
  Al  Al111  1  0.74913308  0.86246453  0.62977768  1
  Al  Al112  1  0.24851308  0.13665231  0.36934553  1
  Al  Al113  1  0.24594716  0.12756245  0.86153648  1
  Al  Al114  1  0.24796490  0.63164082  0.36500310  1
  Al  Al115  1  0.24801868  0.63725568  0.86967570  1
  Al  Al116  1  0.75341901  0.13747706  0.36584640  1
  Al  Al117  1  0.75487645  0.12937442  0.86371717  1
  Al  Al118  1  0.74613908  0.63671845  0.36913943  1
  Al  Al119  1  0.74541841  0.63788148  0.86316658  1
  Al  Al120  1  0.24947744  0.36296536  0.36713596  1
  Al  Al121  1  0.24547758  0.36266465  0.87214375  1
  Al  Al122  1  0.24384652  0.86335418  0.36580968  1
  Al  Al123  1  0.25347213  0.87165524  0.86232837  1
  Al  Al124  1  0.75452248  0.36392197  0.36534654  1
  Al  Al125  1  0.75140326  0.36040107  0.87345626  1
  Al  Al126  1  0.74995586  0.86149226  0.37101972  1
  Al  Al127  1  0.74913247  0.87054773  0.86502575  1
  Al  Al128  1  0.13712395  0.25251676  0.12956637  1
  Al  Al129  1  0.13023990  0.24178124  0.63306132  1
  Al  Al130  1  0.13831777  0.74377686  0.13271415  1
  Al  Al131  1  0.13577186  0.75152854  0.63852501  1
  Al  Al132  1  0.63462815  0.24921029  0.13204956  1
  Al  Al133  1  0.63653113  0.24722207  0.63692748  1
  Al  Al134  1  0.63767773  0.75033270  0.12833760  1
  Al  Al135  1  0.62777639  0.75405788  0.63758929  1
  Al  Al136  1  0.13514348  0.24564003  0.36768095  1
  Al  Al137  1  0.13247759  0.24473398  0.86508308  1
  Al  Al138  1  0.13572807  0.74740108  0.36224081  1
  Al  Al139  1  0.13606663  0.75408081  0.86076705  1
  Al  Al140  1  0.63498926  0.24732177  0.36604544  1
  Al  Al141  1  0.63592456  0.25044070  0.86514116  1
  Al  Al142  1  0.63359111  0.75087853  0.36916059  1
  Al  Al143  1  0.63579113  0.75374755  0.87015939  1
  Al  Al144  1  0.36070018  0.25108135  0.13323821  1
  Al  Al145  1  0.36071229  0.24577108  0.63303570  1
  Al  Al146  1  0.35975966  0.74427464  0.13216661  1
  Al  Al147  1  0.37026625  0.75583616  0.63786402  1
  Al  Al148  1  0.86422304  0.24844819  0.12735695  1
  Al  Al149  1  0.87067154  0.24498233  0.63373739  1
  Al  Al150  1  0.86513645  0.75342682  0.13384737  1
  Al  Al151  1  0.86538385  0.75266178  0.63578836  1
  Al  Al152  1  0.36250427  0.24824239  0.36796137  1
  Al  Al153  1  0.36211213  0.25253684  0.86459778  1
  Al  Al154  1  0.36223742  0.75220547  0.36216814  1
  Al  Al155  1  0.36599888  0.74376369  0.86516353  1
  Al  Al156  1  0.86758221  0.24746518  0.36917880  1
  Al  Al157  1  0.86788342  0.24480693  0.87075318  1
  Al  Al158  1  0.86483097  0.74817523  0.36855895  1
  Al  Al159  1  0.86552960  0.76024987  0.86426607  1
  Al  Al160  1  0.13455773  0.13830781  0.25046523  1
  Al  Al161  1  0.13084986  0.12945739  0.74843406  1
  Al  Al162  1  0.13785582  0.62643278  0.24981174  1
  Al  Al163  1  0.13619607  0.62989805  0.75151862  1
  Al  Al164  1  0.62983252  0.13894583  0.24854500  1
  Al  Al165  1  0.63854229  0.13398572  0.75226379  1
  Al  Al166  1  0.63820159  0.63404151  0.24882673  1
  Al  Al167  1  0.62545536  0.63999851  0.75255666  1
  Al  Al168  1  0.36608747  0.13832955  0.25026985  1
  Al  Al169  1  0.36237644  0.13413149  0.75117991  1
  Al  Al170  1  0.36145219  0.63039320  0.24701079  1
  Al  Al171  1  0.36893601  0.63584875  0.74868629  1
  Al  Al172  1  0.86524508  0.13827255  0.25314062  1
  Al  Al173  1  0.87045225  0.13242007  0.75060320  1
  Al  Al174  1  0.86395581  0.63588239  0.25189061  1
  Al  Al175  1  0.86483680  0.63994385  0.75085385  1
  Al  Al176  1  0.13844448  0.36743683  0.25104055  1
  Al  Al177  1  0.13789910  0.36685513  0.74871504  1
  Al  Al178  1  0.13472618  0.86385866  0.24487447  1
  Al  Al179  1  0.13682130  0.87157834  0.75009187  1
  Al  Al180  1  0.63785774  0.36454472  0.24939236  1
  Al  Al181  1  0.63909386  0.36402288  0.75270272  1
  Al  Al182  1  0.63673699  0.85950237  0.25011749  1
  Al  Al183  1  0.63305754  0.86624711  0.75044736  1
  Al  Al184  1  0.36152657  0.36522928  0.24719117  1
  Al  Al185  1  0.36075068  0.36356226  0.75025220  1
  Al  Al186  1  0.36149107  0.86376874  0.24754121  1
  Al  Al187  1  0.36592020  0.86677323  0.75044405  1
  Al  Al188  1  0.86425567  0.35962736  0.24863846  1
  Al  Al189  1  0.86738981  0.35944064  0.75299867  1
  Al  Al190  1  0.86094998  0.86453564  0.24979017  1
  Al  Al191  1  0.86118932  0.87374969  0.74992834  1
  Al  Al192  1  0.00262746  0.31436627  0.32867187  1
  Al  Al193  1  0.00036408  0.82049010  0.68919664  1
  Al  Al194  1  0.49731478  0.32298627  0.33187541  1
  Al  Al195  1  0.83244052  0.50054549  0.83067044  1
  Al  Al196  1  0.67340173  -0.00011590  0.33321066  1
  Al  Al197  1  0.31682489  0.49842088  0.67341943  1
  Al  Al198  1  0.33141703  0.67358982  0.50186094  1
  Al  Al199  1  0.49852220  0.31721107  0.68276095  1
  Al  Al200  1  0.49930878  0.83422376  0.33307257  1
  Al  Al201  1  0.81633545  0.68404799  -0.00133882  1
  Al  Al202  1  0.82283879  0.67973412  0.50252656  1
  Al  Al203  1  0.49919556  0.66990471  0.33228637  1
  Al  Al204  1  0.68548316  0.17082751  0.50299179  1
  Al  Al205  1  0.00024492  0.68349964  0.18192227  1
  Al  Al206  1  0.67971381  0.50301496  0.32332691  1
  Al  Al207  1  0.68690884  0.32650711  0.50099728  1
  Al  Al208  1  0.49896913  0.18051782  0.81652604  1
  Al  Al209  1  0.17473014  0.68470940  0.50097700  1
  Al  Al210  1  0.31579705  0.18305380  -0.00347815  1
  Al  Al211  1  0.49969268  0.82886433  0.16877440  1
  Al  Al212  1  0.31430761  0.49802624  0.31334620  1
  Al  Al213  1  0.49854070  0.32036653  0.17347536  1
  Al  Al214  1  0.31960781  0.50148676  0.82641038  1
  Al  Al215  1  0.49899975  0.81360724  0.81702723  1
  Al  Al216  1  0.31508711  0.00196159  0.17315481  1
  Al  Al217  1  -0.00152453  0.16866660  0.18316341  1
  Al  Al218  1  0.82923844  0.00135743  0.17235045  1
  Al  Al219  1  0.83164580  0.00089036  0.32834719  1
  Al  Al220  1  0.31441166  -0.00019243  0.68339079  1
  Al  Al221  1  0.69453851  0.19198619  -0.00274777  1
  Al  Al222  1  0.18282952  0.31159528  0.50138604  1
  Al  Al223  1  0.81936847  0.49866154  0.18041615  1
  Al  Al224  1  0.49838312  0.67162654  0.17249288  1
  Al  Al225  1  0.16844820  0.00125449  0.31549970  1
  Al  Al226  1  0.68633755  -0.00114570  0.68287010  1
  Al  Al227  1  -0.00096501  0.32184789  0.67788128  1
  Al  Al228  1  0.16755587  0.82333937  -0.00242500  1
  Al  Al229  1  0.00021486  0.81973806  0.32165336  1
  Al  Al230  1  0.00120164  0.32568342  0.17167645  1
  Al  Al231  1  0.32455678  0.00026379  0.32607721  1
  Al  Al232  1  0.33008037  0.81787940  -0.00279103  1
  Al  Al233  1  -0.00031352  0.68859347  0.82037562  1
  Al  Al234  1  0.67123193  -0.00047071  0.16702591  1
  Al  Al235  1  0.82637816  0.50030758  0.67316279  1
  Al  Al236  1  0.66843662  0.49972637  0.66756913  1
  Al  Al237  1  0.66872354  0.50095502  0.83206110  1
  Al  Al238  1  0.31196978  0.83154435  0.50091437  1
  Au  Au239  1  0.17220876  -0.00156454  0.82631650  1
  Au  Au240  1  0.32968922  0.00028735  0.67591397  1
  Au  Au241  1  0.49728506  0.33003203  0.83127261  1
  Au  Au242  1  0.49840616  0.16035201  0.33496056  1
  Au  Au243  1  0.33302738  0.83439188  -0.00489600  1
  Au  Au244  1  0.67968859  0.00020212  0.34881751  1
  Au  Au245  1  0.49897915  0.82884580  0.82479568  1
  Au  Au246  1  0.32815013  0.83761967  0.50232763  1
  Au  Au247  1  0.00126906  0.33065572  0.66921489  1
  Au  Au248  1  0.82029446  0.66726813  0.50106189  1
  Au  Au249  1  0.67434637  0.00220972  0.83240854  1
  Au  Au250  1  0.82289813  0.31980389  0.00056078  1
  Au  Au251  1  0.17934563  0.32853731  0.50010283  1
  Au  Au252  1  -0.00092560  0.16699885  0.16670890  1
  Au  Au253  1  0.50019083  0.84440802  0.34551539  1
  Au  Au254  1  0.67373493  0.50100813  0.65162024  1
  Au  Au255  1  -0.00224428  0.83621447  0.17326461  1
  Au  Au256  1  0.32418738  0.65806266  0.50332696  1
  Au  Au257  1  0.67755323  -0.00050206  0.15136880  1
  Au  Au258  1  0.00218309  0.33094440  0.33099803  1
  Au  Au259  1  0.16982463  0.49649969  0.17363817  1
  Au  Au260  1  -0.00274660  0.16046350  0.82564445  1
  Au  Au261  1  0.49690242  0.33915490  0.32648816  1
  Au  Au262  1  0.16997862  -0.00008160  0.33195221  1
  Au  Au263  1  0.00547917  0.32616392  0.83460454  1
  Au  Au264  1  0.17104057  0.49721266  0.82425491  1
  Au  Au265  1  0.32592291  0.33365921  0.00209061  1
  Au  Au266  1  0.31701443  0.49523817  0.33029691  1
  Au  Au267  1  -0.00102251  0.68389071  0.83662584  1
  Au  Au268  1  0.50120331  0.65405311  0.32679985  1
  Au  Au269  1  0.15495965  0.83365688  -0.00265536  1
  Au  Au270  1  0.00622759  0.66751864  0.33044407  1
  Au  Au271  1  0.49764994  0.17131181  0.15929312  1
  Au  Au272  1  0.49794503  0.67589466  0.67451987  1
  Au  Au273  1  0.17434070  0.65876106  0.00213223  1
  Au  Au274  1  0.50337615  0.82589206  0.15263836  1
  Au  Au275  1  0.84824109  0.50096367  0.82466294  1
  Au  Au276  1  0.50213953  0.16917440  0.66452393  1
  Au  Au277  1  0.82825338  0.83461192  -0.00444821  1
  Au  Au278  1  0.00355593  0.67216441  0.66037173  1
  Au  Au279  1  0.83925195  0.49830831  0.32848656  1
  Au  Au280  1  0.82695420  0.83646197  0.50004153  1
  Au  Au281  1  0.66619864  0.67619883  -0.00108664  1
  Au  Au282  1  0.65642244  0.50179415  0.84212554  1
  Au  Au283  1  0.67106968  0.49770956  0.15857586  1
  Au  Au284  1  0.67093257  0.32008106  0.50071905  1
  Au  Au285  1  0.67061011  0.50041114  0.33153355  1
  Au  Au286  1  0.83561063  0.00309151  0.67204689  1
  Au  Au287  1  0.16889147  0.17203596  -0.00178389  1
