# generated using pymatgen
data_Ca24Ti8Al207Au49
_symmetry_space_group_name_H-M   'P 1'
_cell_length_a   17.32615542
_cell_length_b   17.32324806
_cell_length_c   17.32571909
_cell_angle_alpha   89.99730009
_cell_angle_beta   89.99521899
_cell_angle_gamma   90.00356404
_symmetry_Int_Tables_number   1
_chemical_formula_structural   Ca24Ti8Al207Au49
_chemical_formula_sum   'Ca24 Ti8 Al207 Au49'
_cell_volume   5200.23291664
_cell_formula_units_Z   1
loop_
 _symmetry_equiv_pos_site_id
 _symmetry_equiv_pos_as_xyz
  1  'x, y, z'
loop_
 _atom_site_type_symbol
 _atom_site_label
 _atom_site_symmetry_multiplicity
 _atom_site_fract_x
 _atom_site_fract_y
 _atom_site_fract_z
 _atom_site_occupancy
  Ca  Ca0  1  0.25064189  0.00470743  -0.00192032  1
  Ca  Ca1  1  0.25397385  0.00474618  0.50041788  1
  Ca  Ca2  1  0.25435706  0.49346530  0.00013661  1
  Ca  Ca3  1  0.24957951  0.49706025  0.49919517  1
  Ca  Ca4  1  0.74752498  -0.00291066  -0.00284267  1
  Ca  Ca5  1  0.75022024  -0.00254541  0.50591606  1
  Ca  Ca6  1  0.74944695  0.50428077  -0.00331713  1
  Ca  Ca7  1  0.74821386  0.50019323  0.50034518  1
  Ca  Ca8  1  0.00166945  0.24537729  -0.00211509  1
  Ca  Ca9  1  0.00027157  0.24692801  0.50159018  1
  Ca  Ca10  1  -0.00444479  0.74994639  -0.00238241  1
  Ca  Ca11  1  -0.00173570  0.75003878  0.50111511  1
  Ca  Ca12  1  0.49729832  0.24669745  0.00077332  1
  Ca  Ca13  1  0.50195813  0.24905331  0.50217405  1
  Ca  Ca14  1  0.50298252  0.75100380  -0.00004026  1
  Ca  Ca15  1  0.50140048  0.75231286  0.50041408  1
  Ca  Ca16  1  0.00283401  0.00085091  0.25419332  1
  Ca  Ca17  1  -0.00069880  0.00059502  0.74973113  1
  Ca  Ca18  1  -0.00051048  0.50061945  0.25707671  1
  Ca  Ca19  1  -0.00452441  0.50343713  0.74814917  1
  Ca  Ca20  1  0.50030804  -0.00042070  0.25037435  1
  Ca  Ca21  1  0.50033048  -0.00562729  0.74849681  1
  Ca  Ca22  1  0.49664906  0.49955715  0.25021863  1
  Ca  Ca23  1  0.50232666  0.50444056  0.74606998  1
  Ti  Ti24  1  0.25096943  0.24836698  0.24688152  1
  Ti  Ti25  1  0.24986958  0.24700510  0.75344380  1
  Ti  Ti26  1  0.25038149  0.75153080  0.25140763  1
  Ti  Ti27  1  0.24916768  0.75288179  0.74938975  1
  Ti  Ti28  1  0.74871677  0.25051711  0.24973718  1
  Ti  Ti29  1  0.74988148  0.24976251  0.74995971  1
  Ti  Ti30  1  0.74914970  0.74926560  0.25169424  1
  Ti  Ti31  1  0.75111755  0.75081063  0.74823596  1
  Al  Al32  1  0.08756312  0.08911801  0.07248173  1
  Al  Al33  1  0.08555058  0.08892213  0.58197254  1
  Al  Al34  1  0.07497282  0.57661211  0.07968052  1
  Al  Al35  1  0.08149961  0.58132226  0.58424502  1
  Al  Al36  1  0.57926744  0.08288812  0.07899242  1
  Al  Al37  1  0.58197129  0.08277626  0.58126981  1
  Al  Al38  1  0.58406893  0.58538372  0.08180172  1
  Al  Al39  1  0.58688481  0.58268771  0.58950550  1
  Al  Al40  1  0.41701165  0.40003941  0.08764651  1
  Al  Al41  1  0.42027965  0.42078476  0.57418081  1
  Al  Al42  1  0.41730895  0.91971075  0.09829220  1
  Al  Al43  1  0.42517343  0.91467605  0.58677510  1
  Al  Al44  1  0.91853368  0.41624723  0.08110589  1
  Al  Al45  1  0.90951388  0.42062346  0.57962378  1
  Al  Al46  1  0.92001299  0.91466555  0.07889456  1
  Al  Al47  1  0.90885166  0.91070491  0.59111229  1
  Al  Al48  1  0.41078375  0.08825703  0.41865667  1
  Al  Al49  1  0.41429245  0.08265272  0.92088093  1
  Al  Al50  1  0.41928211  0.58536453  0.41796169  1
  Al  Al51  1  0.42434679  0.57964846  0.91632594  1
  Al  Al52  1  0.92056641  0.07940733  0.42564577  1
  Al  Al53  1  0.92308290  0.09136172  0.91232700  1
  Al  Al54  1  0.91787069  0.59487615  0.41763373  1
  Al  Al55  1  0.91342255  0.59428892  0.91648200  1
  Al  Al56  1  0.08183497  0.41591087  0.41919705  1
  Al  Al57  1  0.08436195  0.41238935  0.91830960  1
  Al  Al58  1  0.07783665  0.91988178  0.42036775  1
  Al  Al59  1  0.08493117  0.92837576  0.90649281  1
  Al  Al60  1  0.57837875  0.40997244  0.41208159  1
  Al  Al61  1  0.58168785  0.42449962  0.91736743  1
  Al  Al62  1  0.58050285  0.90710393  0.41356180  1
  Al  Al63  1  0.58233428  0.91210857  0.91213408  1
  Al  Al64  1  0.09316538  0.09130418  0.42437746  1
  Al  Al65  1  0.08759408  0.09059454  0.90946701  1
  Al  Al66  1  0.07768070  0.58552459  0.41222848  1
  Al  Al67  1  0.07397071  0.58217446  0.91444172  1
  Al  Al68  1  0.58098244  0.08307910  0.42246108  1
  Al  Al69  1  0.58400786  0.07765549  0.91970663  1
  Al  Al70  1  0.57935054  0.58387353  0.41890157  1
  Al  Al71  1  0.58641739  0.58575342  0.91304836  1
  Al  Al72  1  0.41925595  0.40729235  0.40967979  1
  Al  Al73  1  0.41148592  0.40964866  0.92670849  1
  Al  Al74  1  0.42278203  0.91380387  0.40962372  1
  Al  Al75  1  0.42372220  0.91621153  0.90930803  1
  Al  Al76  1  0.91977716  0.41249472  0.42092268  1
  Al  Al77  1  0.91897502  0.41493693  0.91970180  1
  Al  Al78  1  0.91190125  0.90897605  0.42769000  1
  Al  Al79  1  0.92116653  0.91624123  0.91912835  1
  Al  Al80  1  0.08495552  0.41303809  0.08069955  1
  Al  Al81  1  0.08675317  0.42088613  0.57888715  1
  Al  Al82  1  0.07580777  0.92569094  0.08488435  1
  Al  Al83  1  0.07235902  0.91349677  0.58702024  1
  Al  Al84  1  0.57603531  0.41146484  0.09005027  1
  Al  Al85  1  0.58698607  0.42267276  0.58488495  1
  Al  Al86  1  0.57668457  0.90862613  0.08424291  1
  Al  Al87  1  0.58342990  0.91024499  0.58829030  1
  Al  Al88  1  0.40854852  0.08200532  0.08817005  1
  Al  Al89  1  0.41559080  0.08787017  0.57852780  1
  Al  Al90  1  0.42521821  0.57805991  0.08037524  1
  Al  Al91  1  0.42248999  0.58704076  0.58021557  1
  Al  Al92  1  0.91378346  0.08840823  0.07199718  1
  Al  Al93  1  0.91383714  0.07521231  0.59216293  1
  Al  Al94  1  0.91176694  0.59025692  0.07491124  1
  Al  Al95  1  0.91113981  0.58553205  0.58176833  1
  Al  Al96  1  0.25372219  0.13479242  0.12967536  1
  Al  Al97  1  0.24924450  0.13221378  0.63495568  1
  Al  Al98  1  0.24972674  0.63449483  0.13725036  1
  Al  Al99  1  0.24868178  0.63998162  0.63585746  1
  Al  Al100  1  0.75009739  0.13438580  0.13642533  1
  Al  Al101  1  0.75122616  0.12628290  0.63840618  1
  Al  Al102  1  0.74990599  0.63718265  0.13161015  1
  Al  Al103  1  0.74771013  0.63832276  0.63402907  1
  Al  Al104  1  0.25393551  0.36319006  0.12807826  1
  Al  Al105  1  0.25137655  0.36130582  0.63498635  1
  Al  Al106  1  0.25863946  0.87168644  0.14028591  1
  Al  Al107  1  0.24888742  0.86741972  0.63854038  1
  Al  Al108  1  0.74888829  0.36426446  0.13835582  1
  Al  Al109  1  0.74544068  0.36531411  0.63448490  1
  Al  Al110  1  0.74724500  0.86493369  0.13662548  1
  Al  Al111  1  0.75271767  0.86932826  0.63378403  1
  Al  Al112  1  0.25366907  0.13214836  0.36435279  1
  Al  Al113  1  0.24945837  0.13063002  0.87134072  1
  Al  Al114  1  0.24973432  0.63852427  0.36420815  1
  Al  Al115  1  0.25115745  0.63717137  0.86247304  1
  Al  Al116  1  0.74865253  0.13379642  0.36309812  1
  Al  Al117  1  0.75328528  0.13480356  0.86591025  1
  Al  Al118  1  0.74860344  0.63152562  0.36588048  1
  Al  Al119  1  0.74996012  0.63966821  0.86986204  1
  Al  Al120  1  0.25485553  0.36350251  0.36240282  1
  Al  Al121  1  0.25033757  0.36098407  0.87265334  1
  Al  Al122  1  0.25057021  0.87110300  0.36414377  1
  Al  Al123  1  0.24826574  0.87289981  0.86158813  1
  Al  Al124  1  0.74807246  0.37159374  0.36157382  1
  Al  Al125  1  0.74818958  0.36389294  0.86664518  1
  Al  Al126  1  0.74924115  0.86160458  0.37186353  1
  Al  Al127  1  0.75138982  0.86348911  0.86145632  1
  Al  Al128  1  0.13867427  0.24858823  0.12692471  1
  Al  Al129  1  0.13746366  0.24457997  0.63722892  1
  Al  Al130  1  0.13780717  0.75230280  0.13495073  1
  Al  Al131  1  0.12752768  0.75248321  0.63592275  1
  Al  Al132  1  0.62798684  0.25154253  0.13835097  1
  Al  Al133  1  0.63571431  0.24911486  0.63662844  1
  Al  Al134  1  0.63373935  0.75098997  0.13722602  1
  Al  Al135  1  0.63743467  0.75539806  0.62810128  1
  Al  Al136  1  0.13994934  0.24509490  0.36491881  1
  Al  Al137  1  0.13478969  0.24470722  0.87311230  1
  Al  Al138  1  0.12826127  0.75075589  0.36594859  1
  Al  Al139  1  0.13489991  0.75418285  0.86343804  1
  Al  Al140  1  0.63464169  0.25453978  0.36460107  1
  Al  Al141  1  0.63431562  0.24737347  0.86461809  1
  Al  Al142  1  0.63529594  0.75280607  0.37030994  1
  Al  Al143  1  0.63379843  0.75274709  0.86234324  1
  Al  Al144  1  0.36852583  0.24907140  0.13265174  1
  Al  Al145  1  0.36305056  0.24327310  0.63777044  1
  Al  Al146  1  0.36710062  0.75462456  0.14076893  1
  Al  Al147  1  0.36610367  0.75498976  0.63738255  1
  Al  Al148  1  0.86258294  0.24916876  0.12866464  1
  Al  Al149  1  0.86246989  0.24678853  0.63548849  1
  Al  Al150  1  0.86411819  0.74654318  0.13610816  1
  Al  Al151  1  0.86934741  0.75498306  0.63321557  1
  Al  Al152  1  0.36535478  0.24863303  0.35925528  1
  Al  Al153  1  0.36295600  0.24662569  0.87191466  1
  Al  Al154  1  0.36528282  0.75454656  0.36319170  1
  Al  Al155  1  0.36392416  0.75610028  0.86179871  1
  Al  Al156  1  0.86251831  0.24838430  0.36538204  1
  Al  Al157  1  0.86458060  0.24768257  0.86876295  1
  Al  Al158  1  0.86881508  0.75081219  0.36518802  1
  Al  Al159  1  0.86535663  0.75167829  0.86296328  1
  Al  Al160  1  0.13684721  0.13467395  0.24855965  1
  Al  Al161  1  0.13623943  0.13045529  0.75808499  1
  Al  Al162  1  0.13355067  0.63457527  0.25290686  1
  Al  Al163  1  0.13430884  0.63561110  0.74801219  1
  Al  Al164  1  0.63411876  0.13108564  0.24809588  1
  Al  Al165  1  0.63670031  0.13410110  0.74954612  1
  Al  Al166  1  0.63486512  0.63730654  0.25291505  1
  Al  Al167  1  0.63617897  0.63889048  0.74751055  1
  Al  Al168  1  0.36567095  0.12935009  0.24733562  1
  Al  Al169  1  0.36082793  0.12859624  0.75464708  1
  Al  Al170  1  0.36487212  0.63089526  0.25168702  1
  Al  Al171  1  0.36606141  0.63455884  0.74840006  1
  Al  Al172  1  0.86907766  0.14022730  0.24902521  1
  Al  Al173  1  0.86540511  0.13495205  0.75128883  1
  Al  Al174  1  0.86425041  0.63373290  0.25741537  1
  Al  Al175  1  0.86388222  0.63788355  0.74542169  1
  Al  Al176  1  0.13904366  0.36121478  0.24654993  1
  Al  Al177  1  0.13944976  0.36120730  0.75463440  1
  Al  Al178  1  0.13588881  0.86795994  0.25361479  1
  Al  Al179  1  0.12939932  0.86791414  0.74990035  1
  Al  Al180  1  0.62925837  0.36396809  0.25193756  1
  Al  Al181  1  0.63426660  0.36539665  0.74968593  1
  Al  Al182  1  0.63345740  0.86565986  0.25242909  1
  Al  Al183  1  0.63291796  0.86296139  0.74568076  1
  Al  Al184  1  0.36630373  0.36536614  0.24617867  1
  Al  Al185  1  0.36068297  0.36480756  0.75163963  1
  Al  Al186  1  0.37025524  0.86865808  0.25336462  1
  Al  Al187  1  0.36735453  0.86955012  0.74989394  1
  Al  Al188  1  0.86463329  0.36564433  0.25046791  1
  Al  Al189  1  0.86416897  0.36231419  0.74992710  1
  Al  Al190  1  0.86294228  0.86259805  0.25331272  1
  Al  Al191  1  0.87125874  0.86573825  0.74513818  1
  Al  Al192  1  0.68349579  0.17234404  0.00046000  1
  Al  Al193  1  0.49886917  0.17347502  0.67969291  1
  Al  Al194  1  0.82001929  -0.00194482  0.33293400  1
  Al  Al195  1  0.32968967  0.67012330  0.00059319  1
  Al  Al196  1  0.00007251  0.32426572  0.66922245  1
  Al  Al197  1  0.67804870  0.50226770  0.81054476  1
  Al  Al198  1  0.50145602  0.18282890  0.32142424  1
  Al  Al199  1  0.83080809  -0.00061796  0.81719961  1
  Al  Al200  1  0.32990866  0.30489806  0.49955818  1
  Al  Al201  1  0.81589816  0.31708555  0.49880983  1
  Al  Al202  1  0.00069404  0.17706401  0.17360309  1
  Al  Al203  1  0.82529454  0.50173824  0.17361478  1
  Al  Al204  1  0.00060550  0.31147003  0.82647042  1
  Al  Al205  1  0.68300649  0.18084622  0.50073815  1
  Al  Al206  1  0.17938349  0.49964478  0.17371859  1
  Al  Al207  1  0.81940396  0.68907713  0.49974884  1
  Al  Al208  1  0.17998979  0.49816677  0.32875322  1
  Al  Al209  1  0.17478002  0.31437624  0.49943756  1
  Al  Al210  1  0.00038129  0.17280570  0.68602606  1
  Al  Al211  1  0.00024833  0.82514287  0.18400057  1
  Al  Al212  1  0.17433099  0.00029319  0.67471766  1
  Al  Al213  1  0.49777637  0.32813476  0.67113358  1
  Al  Al214  1  0.17059737  0.83259771  0.00011134  1
  Al  Al215  1  0.49988844  0.68628672  0.32663256  1
  Al  Al216  1  0.49896669  0.68534092  0.82548418  1
  Al  Al217  1  0.67831141  0.32865470  0.00188797  1
  Al  Al218  1  0.18332431  0.49880294  0.67946331  1
  Al  Al219  1  0.17473449  0.82227328  0.50248551  1
  Al  Al220  1  0.82566798  0.81716208  0.00023818  1
  Al  Al221  1  0.67499031  -0.00214371  0.81780414  1
  Al  Al222  1  0.50199001  0.68654229  0.67310921  1
  Al  Al223  1  -0.00157741  0.66860477  0.18397786  1
  Al  Al224  1  0.17365911  0.67182322  -0.00262288  1
  Al  Al225  1  0.49700812  0.32300344  0.82636219  1
  Al  Al226  1  0.82900315  0.50180273  0.82878691  1
  Al  Al227  1  0.32136799  0.67798054  0.50020947  1
  Al  Al228  1  0.00225517  0.31903190  0.32152321  1
  Al  Al229  1  0.82346166  -0.00020265  0.16804245  1
  Al  Al230  1  -0.00068609  0.68478321  0.81562240  1
  Al  Al231  1  0.49945903  0.68197008  0.17428983  1
  Al  Al232  1  0.32931646  0.82710725  0.00197695  1
  Al  Al233  1  0.33056422  0.83058669  0.50027440  1
  Al  Al234  1  0.32263817  0.49737280  0.82469071  1
  Al  Al235  1  0.67383862  0.81951492  -0.00087689  1
  Al  Al236  1  0.17693205  0.00316762  0.17482397  1
  Al  Al237  1  0.81004134  0.50062140  0.67667937  1
  Al  Al238  1  0.66948140  0.49995062  0.17898862  1
  Au  Au239  1  0.66431617  -0.00140920  0.33556000  1
  Au  Au240  1  0.33053045  0.49873162  0.83438807  1
  Au  Au241  1  0.83557017  0.00154715  0.17031920  1
  Au  Au242  1  0.33792069  -0.00011588  0.32585055  1
  Au  Au243  1  0.33056626  0.50259222  0.66050196  1
  Au  Au244  1  0.83190363  -0.00008524  0.32975833  1
  Au  Au245  1  0.83711113  0.50059034  0.33770957  1
  Au  Au246  1  0.17479227  0.32507395  -0.00023425  1
  Au  Au247  1  0.67467539  0.83225526  0.50081512  1
  Au  Au248  1  0.50188908  0.15892373  0.82712285  1
  Au  Au249  1  0.00348382  0.33558336  0.66573534  1
  Au  Au250  1  0.32632389  0.17267478  0.00122479  1
  Au  Au251  1  0.16666182  0.50177307  0.17372244  1
  Au  Au252  1  0.00004287  0.33310022  0.17342640  1
  Au  Au253  1  0.17257347  0.65894134  0.49787505  1
  Au  Au254  1  0.16993832  0.66068800  0.00187663  1
  Au  Au255  1  0.50132369  0.17954477  0.33792687  1
  Au  Au256  1  0.33705857  0.49695583  0.16379514  1
  Au  Au257  1  0.17797220  0.00502204  0.16226588  1
  Au  Au258  1  0.33087646  0.50040282  0.33734494  1
  Au  Au259  1  0.00236897  0.17173849  0.33980962  1
  Au  Au260  1  0.83157423  0.16664531  0.50630014  1
  Au  Au261  1  0.16166407  0.00017743  0.67744384  1
  Au  Au262  1  0.66610940  0.33079196  0.50072349  1
  Au  Au263  1  0.66853546  -0.00040534  0.66839903  1
  Au  Au264  1  0.83027410  0.00283608  0.83331300  1
  Au  Au265  1  0.83351110  0.32291280  -0.00061518  1
  Au  Au266  1  0.67568389  0.67015108  0.00025676  1
  Au  Au267  1  0.17033501  0.00283062  0.33652844  1
  Au  Au268  1  0.65836253  0.49977262  0.32713478  1
  Au  Au269  1  0.66617834  0.32543630  0.00043714  1
  Au  Au270  1  -0.00204007  0.67261201  0.66686076  1
  Au  Au271  1  0.67352163  0.66337570  0.50089276  1
  Au  Au272  1  0.00067520  0.83298602  0.82448709  1
  Au  Au273  1  -0.00046247  0.32395540  0.82491859  1
  Au  Au274  1  -0.00257349  0.82796359  0.33484866  1
  Au  Au275  1  0.17031726  0.83427790  0.50265984  1
  Au  Au276  1  0.33698518  0.00026682  0.66648712  1
  Au  Au277  1  0.82817111  0.50569375  0.16193161  1
  Au  Au278  1  0.50106600  0.33459367  0.82996033  1
  Au  Au279  1  -0.00151560  0.67503016  0.16807630  1
  Au  Au280  1  0.32830450  0.32176652  0.50075587  1
  Au  Au281  1  0.65981216  -0.00336404  0.16565001  1
  Au  Au282  1  0.34111403  0.83450232  0.00262679  1
  Au  Au283  1  0.15958630  0.83534867  -0.00514270  1
  Au  Au284  1  0.32570958  -0.00085289  0.83448480  1
  Au  Au285  1  0.49837457  0.17467695  0.16299970  1
  Au  Au286  1  0.00083561  0.17014857  0.16317285  1
  Au  Au287  1  0.15911346  0.50112652  0.82503594  1
