# generated using pymatgen
data_Ca24Ti8Al207Au49
_symmetry_space_group_name_H-M   'P 1'
_cell_length_a   17.31914836
_cell_length_b   17.31902716
_cell_length_c   17.32008500
_cell_angle_alpha   89.99843217
_cell_angle_beta   89.99906082
_cell_angle_gamma   90.00042772
_symmetry_Int_Tables_number   1
_chemical_formula_structural   Ca24Ti8Al207Au49
_chemical_formula_sum   'Ca24 Ti8 Al207 Au49'
_cell_volume   5195.17336122
_cell_formula_units_Z   1
loop_
 _symmetry_equiv_pos_site_id
 _symmetry_equiv_pos_as_xyz
  1  'x, y, z'
loop_
 _atom_site_type_symbol
 _atom_site_label
 _atom_site_symmetry_multiplicity
 _atom_site_fract_x
 _atom_site_fract_y
 _atom_site_fract_z
 _atom_site_occupancy
  Ca  Ca0  1  0.24312094  -0.00252036  0.00174896  1
  Ca  Ca1  1  0.24547147  -0.00114831  0.49559374  1
  Ca  Ca2  1  0.23678290  0.50438388  -0.00097795  1
  Ca  Ca3  1  0.24530063  0.50301532  0.50124544  1
  Ca  Ca4  1  0.75031609  -0.00216231  -0.00004172  1
  Ca  Ca5  1  0.74905367  0.00145411  0.50176636  1
  Ca  Ca6  1  0.75588760  0.50263836  0.00036243  1
  Ca  Ca7  1  0.74910379  0.49903183  0.50134305  1
  Ca  Ca8  1  0.00003901  0.24947930  0.00053246  1
  Ca  Ca9  1  -0.00277312  0.24664818  0.50292651  1
  Ca  Ca10  1  -0.00060077  0.74760580  0.00313877  1
  Ca  Ca11  1  0.00078412  0.75120021  0.49461228  1
  Ca  Ca12  1  0.50198754  0.24784893  -0.00514094  1
  Ca  Ca13  1  0.50519229  0.25156495  0.50399464  1
  Ca  Ca14  1  0.50428929  0.75274429  0.00019465  1
  Ca  Ca15  1  0.50271033  0.75357858  0.50132932  1
  Ca  Ca16  1  0.00392577  -0.00441428  0.24598085  1
  Ca  Ca17  1  -0.00255457  -0.00115905  0.74995865  1
  Ca  Ca18  1  0.00092286  0.50457582  0.24080969  1
  Ca  Ca19  1  -0.00217890  0.50152675  0.75882212  1
  Ca  Ca20  1  0.50082516  0.00074774  0.24695519  1
  Ca  Ca21  1  0.50161478  0.00132324  0.75224582  1
  Ca  Ca22  1  0.50038054  0.49874417  0.25041305  1
  Ca  Ca23  1  0.50310127  0.49706343  0.75117212  1
  Ti  Ti24  1  0.24662294  0.24932357  0.24977300  1
  Ti  Ti25  1  0.24887749  0.24963295  0.74980749  1
  Ti  Ti26  1  0.24863377  0.74925577  0.24788817  1
  Ti  Ti27  1  0.24848040  0.74977330  0.75042787  1
  Ti  Ti28  1  0.75105654  0.24709862  0.24935162  1
  Ti  Ti29  1  0.75049651  0.24914890  0.74938542  1
  Ti  Ti30  1  0.75100583  0.75162583  0.24779639  1
  Ti  Ti31  1  0.75088570  0.75030879  0.75029316  1
  Al  Al32  1  0.09339984  0.08333346  0.08670429  1
  Al  Al33  1  0.07002933  0.08548409  0.58542561  1
  Al  Al34  1  0.08274119  0.59086983  0.08507011  1
  Al  Al35  1  0.07865126  0.59238394  0.59061673  1
  Al  Al36  1  0.59164306  0.07484310  0.08449000  1
  Al  Al37  1  0.58579137  0.08520106  0.58678795  1
  Al  Al38  1  0.59675202  0.59023468  0.07681522  1
  Al  Al39  1  0.58085759  0.58174197  0.58259617  1
  Al  Al40  1  0.42206016  0.42583471  0.07827021  1
  Al  Al41  1  0.42671407  0.40842240  0.58604250  1
  Al  Al42  1  0.41750629  0.92012412  0.08477969  1
  Al  Al43  1  0.42433527  0.91520903  0.59150999  1
  Al  Al44  1  0.91821974  0.42110013  0.07137629  1
  Al  Al45  1  0.91867824  0.41658682  0.58588159  1
  Al  Al46  1  0.91414698  0.90308268  0.08688661  1
  Al  Al47  1  0.91435551  0.92401556  0.58821027  1
  Al  Al48  1  0.41545522  0.07816411  0.40540879  1
  Al  Al49  1  0.42163635  0.08754330  0.91067479  1
  Al  Al50  1  0.41587339  0.58063817  0.42479681  1
  Al  Al51  1  0.41862047  0.58122732  0.92150044  1
  Al  Al52  1  0.92368460  0.08630295  0.41755119  1
  Al  Al53  1  0.92214193  0.08233283  0.91993458  1
  Al  Al54  1  0.92355308  0.59264315  0.41245110  1
  Al  Al55  1  0.91407873  0.59340609  0.91510197  1
  Al  Al56  1  0.08282188  0.41964816  0.41645644  1
  Al  Al57  1  0.07603139  0.41509988  0.91811214  1
  Al  Al58  1  0.08891501  0.91453722  0.40294670  1
  Al  Al59  1  0.08055078  0.91924532  0.91865866  1
  Al  Al60  1  0.59090007  0.41298662  0.42499823  1
  Al  Al61  1  0.58993337  0.40707989  0.91731352  1
  Al  Al62  1  0.57682850  0.92135301  0.41844971  1
  Al  Al63  1  0.59306848  0.91227272  0.92361257  1
  Al  Al64  1  0.08505735  0.07870255  0.40044772  1
  Al  Al65  1  0.08942444  0.08874379  0.92197997  1
  Al  Al66  1  0.08132021  0.59049168  0.40805677  1
  Al  Al67  1  0.07874146  0.58957757  0.91881546  1
  Al  Al68  1  0.58100539  0.08370637  0.41692152  1
  Al  Al69  1  0.58179004  0.08617027  0.91343072  1
  Al  Al70  1  0.58211312  0.57668548  0.42536539  1
  Al  Al71  1  0.59329570  0.59108685  0.92089459  1
  Al  Al72  1  0.42232787  0.41902135  0.42501721  1
  Al  Al73  1  0.42625605  0.42108669  0.91447265  1
  Al  Al74  1  0.41515984  0.92274080  0.40589203  1
  Al  Al75  1  0.42201928  0.92398737  0.92175820  1
  Al  Al76  1  0.92142235  0.41765158  0.42140003  1
  Al  Al77  1  0.91625276  0.41172070  0.91242294  1
  Al  Al78  1  0.92678924  0.91478750  0.41288190  1
  Al  Al79  1  0.91023099  0.90639000  0.92554378  1
  Al  Al80  1  0.08727412  0.42685936  0.08186374  1
  Al  Al81  1  0.07902762  0.41657062  0.58603502  1
  Al  Al82  1  0.08367501  0.91306615  0.09367884  1
  Al  Al83  1  0.07775456  0.91825257  0.57561688  1
  Al  Al84  1  0.59094784  0.41320430  0.07451292  1
  Al  Al85  1  0.58565032  0.40487263  0.58519822  1
  Al  Al86  1  0.60138603  0.91328341  0.08444120  1
  Al  Al87  1  0.58104641  0.91231619  0.59163869  1
  Al  Al88  1  0.41590156  0.07715080  0.08247088  1
  Al  Al89  1  0.42425183  0.08033462  0.58576519  1
  Al  Al90  1  0.41678086  0.58535593  0.08093656  1
  Al  Al91  1  0.41903534  0.58482987  0.58072619  1
  Al  Al92  1  0.91965182  0.07828985  0.08300819  1
  Al  Al93  1  0.91026650  0.08538107  0.59232139  1
  Al  Al94  1  0.91645325  0.59659986  0.07959155  1
  Al  Al95  1  0.92109968  0.59183839  0.59187342  1
  Al  Al96  1  0.24094492  0.13146870  0.13557518  1
  Al  Al97  1  0.24794039  0.13276881  0.63657507  1
  Al  Al98  1  0.24209220  0.63373660  0.13189186  1
  Al  Al99  1  0.24453609  0.63720363  0.63831725  1
  Al  Al100  1  0.75090330  0.12802509  0.13605494  1
  Al  Al101  1  0.74854798  0.12970360  0.63810296  1
  Al  Al102  1  0.75092450  0.63959365  0.12621242  1
  Al  Al103  1  0.75327527  0.63553546  0.63898395  1
  Al  Al104  1  0.24530590  0.36418356  0.13583102  1
  Al  Al105  1  0.24424238  0.36365590  0.63963844  1
  Al  Al106  1  0.24362155  0.86548893  0.13700424  1
  Al  Al107  1  0.24537638  0.86752021  0.63911397  1
  Al  Al108  1  0.75119166  0.36406545  0.13564891  1
  Al  Al109  1  0.74819941  0.36438192  0.63945269  1
  Al  Al110  1  0.75163333  0.86514043  0.12935237  1
  Al  Al111  1  0.75262774  0.86851171  0.63665746  1
  Al  Al112  1  0.24455689  0.12735910  0.36125178  1
  Al  Al113  1  0.24745806  0.13794181  0.86483796  1
  Al  Al114  1  0.24595776  0.63044458  0.36033414  1
  Al  Al115  1  0.24566966  0.63528238  0.86253040  1
  Al  Al116  1  0.74744535  0.13206882  0.36436758  1
  Al  Al117  1  0.75323367  0.13647705  0.86375609  1
  Al  Al118  1  0.75423803  0.63950396  0.36145761  1
  Al  Al119  1  0.75082560  0.63854345  0.86897892  1
  Al  Al120  1  0.24405492  0.36825895  0.36318740  1
  Al  Al121  1  0.24783848  0.36225247  0.85874618  1
  Al  Al122  1  0.24766484  0.87006081  0.36073192  1
  Al  Al123  1  0.24840185  0.86116421  0.86424584  1
  Al  Al124  1  0.74737756  0.36060038  0.36496547  1
  Al  Al125  1  0.74704533  0.36258063  0.86164556  1
  Al  Al126  1  0.74768420  0.86912938  0.36265114  1
  Al  Al127  1  0.75240886  0.86117680  0.86736825  1
  Al  Al128  1  0.12782991  0.24842994  0.13824394  1
  Al  Al129  1  0.12728032  0.24958649  0.63462173  1
  Al  Al130  1  0.13088171  0.74565584  0.13555768  1
  Al  Al131  1  0.12752854  0.74787696  0.63702207  1
  Al  Al132  1  0.63989011  0.25154259  0.13290006  1
  Al  Al133  1  0.63741081  0.24751677  0.63042272  1
  Al  Al134  1  0.63555486  0.75321217  0.12992638  1
  Al  Al135  1  0.63297493  0.74924959  0.63709513  1
  Al  Al136  1  0.13484187  0.24685955  0.36379013  1
  Al  Al137  1  0.13253844  0.24992099  0.86533120  1
  Al  Al138  1  0.13595106  0.75052181  0.36081010  1
  Al  Al139  1  0.12992694  0.74337537  0.86818295  1
  Al  Al140  1  0.63653482  0.24858030  0.36857800  1
  Al  Al141  1  0.63073711  0.25025039  0.86404588  1
  Al  Al142  1  0.63733514  0.75047076  0.36121265  1
  Al  Al143  1  0.63661785  0.75106892  0.86987337  1
  Al  Al144  1  0.36023990  0.24551966  0.13805540  1
  Al  Al145  1  0.36576988  0.25059416  0.63632965  1
  Al  Al146  1  0.36888446  0.74958930  0.13720441  1
  Al  Al147  1  0.36756326  0.75039505  0.63646093  1
  Al  Al148  1  0.86993373  0.24762578  0.13581139  1
  Al  Al149  1  0.87031157  0.24988567  0.63627950  1
  Al  Al150  1  0.86207287  0.75068878  0.12542091  1
  Al  Al151  1  0.87052501  0.74794302  0.63443214  1
  Al  Al152  1  0.36083710  0.25154411  0.36144437  1
  Al  Al153  1  0.37205427  0.24714837  0.86360587  1
  Al  Al154  1  0.36019160  0.74897499  0.36086428  1
  Al  Al155  1  0.36819408  0.74873880  0.86390688  1
  Al  Al156  1  0.86569791  0.24687505  0.36619454  1
  Al  Al157  1  0.86777330  0.25074297  0.86302303  1
  Al  Al158  1  0.86673552  0.75403708  0.36514484  1
  Al  Al159  1  0.86671945  0.74690952  0.87016794  1
  Al  Al160  1  0.12997372  0.13185265  0.25012622  1
  Al  Al161  1  0.13243672  0.13504181  0.74739649  1
  Al  Al162  1  0.13300881  0.63027519  0.24566398  1
  Al  Al163  1  0.12775445  0.63658339  0.75174511  1
  Al  Al164  1  0.63633203  0.13211155  0.24926177  1
  Al  Al165  1  0.63433992  0.13567176  0.75079322  1
  Al  Al166  1  0.63719119  0.63756713  0.24204903  1
  Al  Al167  1  0.63220392  0.63559185  0.75273575  1
  Al  Al168  1  0.36213913  0.13264219  0.25158980  1
  Al  Al169  1  0.36651914  0.13411158  0.75222413  1
  Al  Al170  1  0.36449744  0.63306719  0.24498761  1
  Al  Al171  1  0.36978893  0.63727229  0.74868863  1
  Al  Al172  1  0.87294475  0.13535481  0.24942723  1
  Al  Al173  1  0.86856282  0.13281498  0.74398193  1
  Al  Al174  1  0.86772061  0.64119258  0.24117436  1
  Al  Al175  1  0.86906219  0.63794228  0.75381032  1
  Al  Al176  1  0.13138108  0.36994180  0.24791763  1
  Al  Al177  1  0.12552452  0.36237322  0.75090094  1
  Al  Al178  1  0.13281610  0.86618332  0.25081471  1
  Al  Al179  1  0.13139415  0.86262785  0.75104558  1
  Al  Al180  1  0.63470463  0.36288387  0.25245385  1
  Al  Al181  1  0.62663152  0.36119979  0.74819702  1
  Al  Al182  1  0.63823080  0.87031364  0.24406059  1
  Al  Al183  1  0.63664442  0.86374526  0.74721544  1
  Al  Al184  1  0.36283860  0.36747476  0.25187397  1
  Al  Al185  1  0.37157758  0.36103029  0.75132578  1
  Al  Al186  1  0.36363913  0.86633262  0.24913196  1
  Al  Al187  1  0.36717603  0.86334607  0.74812106  1
  Al  Al188  1  0.86667529  0.36199730  0.24936238  1
  Al  Al189  1  0.86994288  0.36301412  0.75009265  1
  Al  Al190  1  0.86503597  0.86508395  0.24726395  1
  Al  Al191  1  0.86809327  0.86129117  0.74882028  1
  Al  Al192  1  0.49980972  0.32755350  0.17385699  1
  Al  Al193  1  0.32141460  0.32601130  0.50145175  1
  Al  Al194  1  0.49996643  0.17899675  0.32330333  1
  Al  Al195  1  0.17152503  0.81765408  0.00076305  1
  Al  Al196  1  -0.00000817  0.31405741  0.32051380  1
  Al  Al197  1  0.17860455  -0.00000499  0.82180519  1
  Al  Al198  1  0.17400578  0.81988864  0.49898319  1
  Al  Al199  1  0.68023969  0.67483635  0.49989632  1
  Al  Al200  1  0.31560657  0.67547092  0.50010643  1
  Al  Al201  1  0.32593022  0.83390319  0.49950860  1
  Al  Al202  1  0.66908498  0.82731824  0.49979950  1
  Al  Al203  1  0.31306851  0.17020829  0.00098785  1
  Al  Al204  1  0.32656653  0.16861052  0.49691487  1
  Al  Al205  1  0.50101325  0.16961455  0.17078959  1
  Al  Al206  1  0.32571510  0.82930439  0.00130550  1
  Al  Al207  1  0.67782171  0.17875807  0.00021706  1
  Al  Al208  1  0.50054519  0.18915985  0.68649421  1
  Al  Al209  1  0.00032802  0.18284946  0.81626913  1
  Al  Al210  1  0.50095783  0.82602150  0.31725413  1
  Al  Al211  1  0.31990700  -0.00039923  0.67675977  1
  Al  Al212  1  0.81899478  0.17280419  0.50165729  1
  Al  Al213  1  -0.00163802  0.82112282  0.82501932  1
  Al  Al214  1  0.83237759  -0.00244404  0.81850305  1
  Al  Al215  1  0.31045185  0.00032076  0.18659684  1
  Al  Al216  1  0.50040318  0.66845986  0.32590307  1
  Al  Al217  1  -0.00161426  0.80830774  0.18902050  1
  Al  Al218  1  0.82330641  0.50032070  0.82409518  1
  Al  Al219  1  0.67247740  0.50170744  0.32519094  1
  Al  Al220  1  0.67500770  -0.00080740  0.82085824  1
  Al  Al221  1  0.67643112  0.49789718  0.67649568  1
  Al  Al222  1  0.50304655  0.82324501  0.82083313  1
  Al  Al223  1  0.32429987  0.49781708  0.67162227  1
  Al  Al224  1  0.16697657  0.17530032  0.49883736  1
  Al  Al225  1  0.31195133  0.49960284  0.17699796  1
  Al  Al226  1  0.16926584  0.49908423  0.82655817  1
  Al  Al227  1  0.00071887  0.69255278  0.30688039  1
  Al  Al228  1  0.32567699  0.33074113  -0.00329808  1
  Al  Al229  1  0.82378282  0.49841344  0.32832051  1
  Al  Al230  1  0.32435689  0.50030644  0.82711366  1
  Al  Al231  1  0.16979522  0.31782568  0.00064671  1
  Al  Al232  1  0.81148108  0.33139934  0.50144537  1
  Al  Al233  1  0.82520000  0.82696289  0.49871678  1
  Al  Al234  1  0.30941324  0.67311559  -0.00144340  1
  Al  Al235  1  0.82914342  0.00367782  0.32063325  1
  Al  Al236  1  0.81292968  0.32088804  -0.00126454  1
  Al  Al237  1  0.82809712  0.50247461  0.16858408  1
  Al  Al238  1  0.67453364  0.49877959  0.17079266  1
  Au  Au239  1  0.34040416  0.49459086  0.67349696  1
  Au  Au240  1  0.15562503  0.50293246  0.67804389  1
  Au  Au241  1  0.50305587  0.83717198  0.83020755  1
  Au  Au242  1  0.32703287  0.50087787  0.16860334  1
  Au  Au243  1  0.84003358  0.50291270  0.67656055  1
  Au  Au244  1  0.50080604  0.32603583  0.82853978  1
  Au  Au245  1  0.66924742  0.16977566  -0.00164239  1
  Au  Au246  1  0.66351506  -0.00097725  0.32406705  1
  Au  Au247  1  0.67578411  0.49948529  0.84210185  1
  Au  Au248  1  0.31889588  0.34622650  -0.00602550  1
  Au  Au249  1  0.66619009  0.49878392  0.66933991  1
  Au  Au250  1  0.16331544  0.16352887  0.49769663  1
  Au  Au251  1  0.34129146  0.82748394  0.49647325  1
  Au  Au252  1  0.32407841  -0.00095673  0.17636101  1
  Au  Au253  1  0.82624556  -0.00279257  0.83461754  1
  Au  Au254  1  0.66870489  0.17179086  0.49874771  1
  Au  Au255  1  0.16047964  0.50117259  0.32082716  1
  Au  Au256  1  0.15582951  0.00026181  0.67208184  1
  Au  Au257  1  0.34325505  0.17331058  0.49426793  1
  Au  Au258  1  0.33071374  -0.00036525  0.67026086  1
  Au  Au259  1  0.50127219  0.17398375  0.67850332  1
  Au  Au260  1  0.82779590  0.32547811  0.50176343  1
  Au  Au261  1  0.50037204  0.67890767  0.65991974  1
  Au  Au262  1  0.83803585  0.50430144  0.32112917  1
  Au  Au263  1  0.00306700  0.17051039  0.82769114  1
  Au  Au264  1  0.32594340  0.67806684  -0.00214275  1
  Au  Au265  1  0.50151000  0.66006092  0.82915646  1
  Au  Au266  1  0.32805130  0.49748933  0.34108513  1
  Au  Au267  1  0.32737350  -0.00105424  0.83299294  1
  Au  Au268  1  0.50489702  0.83797933  0.16753463  1
  Au  Au269  1  0.00043822  0.32165150  0.33584985  1
  Au  Au270  1  0.17370512  0.33961530  0.50245036  1
  Au  Au271  1  0.50572306  0.66901659  0.16103543  1
  Au  Au272  1  0.00273752  0.16028696  0.17327770  1
  Au  Au273  1  -0.00033148  0.33668936  0.16023165  1
  Au  Au274  1  0.67281398  -0.00274552  0.66972553  1
  Au  Au275  1  -0.00052106  0.82415328  0.66364243  1
  Au  Au276  1  -0.00380679  0.82089653  0.83759222  1
  Au  Au277  1  0.82876778  0.83843146  0.50291628  1
  Au  Au278  1  0.50095935  0.32214491  0.15768729  1
  Au  Au279  1  0.83922640  -0.00163422  0.32551653  1
  Au  Au280  1  0.50248153  0.32614418  0.34386819  1
  Au  Au281  1  0.32998578  0.16754182  -0.00007849  1
  Au  Au282  1  0.83468895  0.17448575  0.00255669  1
  Au  Au283  1  -0.00113508  0.32423351  0.67435492  1
  Au  Au284  1  0.82558706  -0.00393437  0.16464586  1
  Au  Au285  1  0.16592847  0.66914766  0.49983110  1
  Au  Au286  1  0.50016125  0.67470087  0.34170741  1
  Au  Au287  1  0.82861855  0.66313288  0.50124566  1
