# generated using pymatgen
data_Ca24Ti8Al207Au49
_symmetry_space_group_name_H-M   'P 1'
_cell_length_a   17.32077894
_cell_length_b   17.32318641
_cell_length_c   17.32150895
_cell_angle_alpha   90.00088452
_cell_angle_beta   90.00002269
_cell_angle_gamma   90.00215478
_symmetry_Int_Tables_number   1
_chemical_formula_structural   Ca24Ti8Al207Au49
_chemical_formula_sum   'Ca24 Ti8 Al207 Au49'
_cell_volume   5197.33750531
_cell_formula_units_Z   1
loop_
 _symmetry_equiv_pos_site_id
 _symmetry_equiv_pos_as_xyz
  1  'x, y, z'
loop_
 _atom_site_type_symbol
 _atom_site_label
 _atom_site_symmetry_multiplicity
 _atom_site_fract_x
 _atom_site_fract_y
 _atom_site_fract_z
 _atom_site_occupancy
  Ca  Ca0  1  0.25070115  -0.00147797  0.00025831  1
  Ca  Ca1  1  0.25132206  0.00045549  0.50234987  1
  Ca  Ca2  1  0.25485068  0.49933862  0.00099009  1
  Ca  Ca3  1  0.25493797  0.49854355  0.49863316  1
  Ca  Ca4  1  0.74917012  -0.00120788  0.00160068  1
  Ca  Ca5  1  0.74927859  0.00146929  0.49850311  1
  Ca  Ca6  1  0.75079162  0.49636652  -0.00106723  1
  Ca  Ca7  1  0.75088743  0.49691393  0.50190015  1
  Ca  Ca8  1  0.00334336  0.25620054  -0.00019826  1
  Ca  Ca9  1  -0.00480574  0.25734082  0.49987714  1
  Ca  Ca10  1  0.00630904  0.74983502  -0.00007839  1
  Ca  Ca11  1  -0.00324343  0.74852210  0.49840442  1
  Ca  Ca12  1  0.49747344  0.25493641  -0.00412155  1
  Ca  Ca13  1  0.49983038  0.25289564  0.50370541  1
  Ca  Ca14  1  0.49814151  0.74708536  -0.00287986  1
  Ca  Ca15  1  0.49659361  0.75104810  0.49788191  1
  Ca  Ca16  1  0.00475703  0.00117976  0.25062607  1
  Ca  Ca17  1  0.00547375  0.00262195  0.75031803  1
  Ca  Ca18  1  -0.00449952  0.50249921  0.24625381  1
  Ca  Ca19  1  -0.00294911  0.49768559  0.74879573  1
  Ca  Ca20  1  0.49495153  -0.00244414  0.25070534  1
  Ca  Ca21  1  0.49677643  -0.00122928  0.74966990  1
  Ca  Ca22  1  0.49998354  0.50068142  0.25171543  1
  Ca  Ca23  1  0.50008000  0.50146969  0.75060837  1
  Ti  Ti24  1  0.25070738  0.24800150  0.25098624  1
  Ti  Ti25  1  0.25075037  0.24810235  0.74887965  1
  Ti  Ti26  1  0.25166016  0.75170019  0.25080278  1
  Ti  Ti27  1  0.25320645  0.75184751  0.75104868  1
  Ti  Ti28  1  0.74965604  0.25218232  0.25130258  1
  Ti  Ti29  1  0.74839051  0.25098248  0.74895197  1
  Ti  Ti30  1  0.74929087  0.74856464  0.24992493  1
  Ti  Ti31  1  0.74774585  0.74812308  0.75191948  1
  Al  Al32  1  0.10100135  0.08642637  0.08208266  1
  Al  Al33  1  0.10080653  0.08718915  0.58599025  1
  Al  Al34  1  0.07943876  0.57620347  0.07798943  1
  Al  Al35  1  0.07237787  0.57772380  0.57307920  1
  Al  Al36  1  0.57725971  0.07002030  0.07278667  1
  Al  Al37  1  0.58692345  0.08661958  0.58399219  1
  Al  Al38  1  0.58715937  0.58030388  0.08441813  1
  Al  Al39  1  0.57985213  0.58239600  0.59399268  1
  Al  Al40  1  0.41878009  0.42391054  0.07989597  1
  Al  Al41  1  0.41514775  0.41989666  0.58094016  1
  Al  Al42  1  0.41157481  0.91251129  0.09845279  1
  Al  Al43  1  0.41090281  0.92220168  0.59068341  1
  Al  Al44  1  0.91472861  0.41765719  0.09102000  1
  Al  Al45  1  0.90824086  0.40887606  0.59301584  1
  Al  Al46  1  0.92428411  0.92217024  0.08279918  1
  Al  Al47  1  0.92167458  0.92736508  0.57747470  1
  Al  Al48  1  0.40277202  0.07726291  0.41546056  1
  Al  Al49  1  0.41225115  0.08146879  0.91522312  1
  Al  Al50  1  0.41572628  0.57898552  0.41114231  1
  Al  Al51  1  0.40749482  0.58595719  0.91250850  1
  Al  Al52  1  0.90606060  0.08574399  0.42437740  1
  Al  Al53  1  0.91831590  0.07936258  0.92088549  1
  Al  Al54  1  0.91258870  0.57529210  0.41322883  1
  Al  Al55  1  0.89524941  0.58240139  0.91788969  1
  Al  Al56  1  0.08507176  0.41899173  0.42104218  1
  Al  Al57  1  0.08023657  0.41053966  0.92275978  1
  Al  Al58  1  0.08563460  0.92411740  0.41523934  1
  Al  Al59  1  0.08744835  0.92549265  0.91087831  1
  Al  Al60  1  0.59441435  0.41355088  0.42180524  1
  Al  Al61  1  0.58739695  0.42180533  0.91016940  1
  Al  Al62  1  0.57712975  0.91830066  0.41764366  1
  Al  Al63  1  0.58468396  0.92446244  0.91042781  1
  Al  Al64  1  0.09942576  0.08419803  0.42547805  1
  Al  Al65  1  0.09711456  0.08506254  0.91956254  1
  Al  Al66  1  0.08073835  0.57711698  0.41427345  1
  Al  Al67  1  0.08191478  0.57645638  0.92182961  1
  Al  Al68  1  0.59019253  0.08192945  0.42539045  1
  Al  Al69  1  0.58589681  0.07935220  0.90686713  1
  Al  Al70  1  0.57748729  0.57603222  0.41656380  1
  Al  Al71  1  0.58970898  0.57966918  0.90850224  1
  Al  Al72  1  0.40671608  0.41978524  0.41834154  1
  Al  Al73  1  0.41739696  0.42478799  0.91015585  1
  Al  Al74  1  0.41026657  0.92041042  0.40570269  1
  Al  Al75  1  0.41085011  0.92110582  0.91735104  1
  Al  Al76  1  0.90133190  0.41540713  0.41915364  1
  Al  Al77  1  0.91016984  0.42191734  0.90844694  1
  Al  Al78  1  0.92096924  0.92148862  0.41814980  1
  Al  Al79  1  0.92430220  0.92161284  0.91750276  1
  Al  Al80  1  0.07919232  0.40728131  0.08558331  1
  Al  Al81  1  0.07251406  0.40618741  0.58496111  1
  Al  Al82  1  0.08764258  0.92657469  0.08839536  1
  Al  Al83  1  0.09622702  0.92743747  0.59090642  1
  Al  Al84  1  0.58799696  0.42416063  0.08196075  1
  Al  Al85  1  0.59188842  0.41453135  0.58297256  1
  Al  Al86  1  0.57122270  0.91214242  0.09314444  1
  Al  Al87  1  0.57937608  0.92294435  0.58127438  1
  Al  Al88  1  0.40205300  0.07253890  0.08442039  1
  Al  Al89  1  0.40651547  0.08182695  0.58788749  1
  Al  Al90  1  0.41150528  0.58721083  0.07578030  1
  Al  Al91  1  0.42062527  0.58387194  0.59162044  1
  Al  Al92  1  0.92016610  0.07957523  0.08094209  1
  Al  Al93  1  0.91120856  0.08923815  0.57965153  1
  Al  Al94  1  0.89988843  0.58000707  0.08245677  1
  Al  Al95  1  0.91134677  0.57105636  0.58684747  1
  Al  Al96  1  0.24917243  0.13283163  0.13298153  1
  Al  Al97  1  0.25007361  0.13396873  0.63059650  1
  Al  Al98  1  0.25582620  0.63374917  0.13386310  1
  Al  Al99  1  0.25390454  0.63724186  0.63275046  1
  Al  Al100  1  0.75202564  0.13721724  0.13533438  1
  Al  Al101  1  0.75173307  0.13752415  0.63262930  1
  Al  Al102  1  0.75067282  0.63330642  0.12880842  1
  Al  Al103  1  0.75128787  0.62396939  0.64063160  1
  Al  Al104  1  0.25231696  0.36570437  0.13680509  1
  Al  Al105  1  0.24949290  0.36338773  0.63556701  1
  Al  Al106  1  0.25257888  0.86977324  0.13321495  1
  Al  Al107  1  0.25308931  0.86736556  0.63360384  1
  Al  Al108  1  0.75432507  0.36672122  0.13494095  1
  Al  Al109  1  0.74942284  0.37193796  0.63671587  1
  Al  Al110  1  0.74886388  0.86540611  0.13568178  1
  Al  Al111  1  0.74700866  0.86322414  0.63739492  1
  Al  Al112  1  0.25179013  0.12900432  0.36667665  1
  Al  Al113  1  0.24457564  0.13000316  0.86578376  1
  Al  Al114  1  0.25711957  0.63557916  0.36784785  1
  Al  Al115  1  0.25848527  0.63313634  0.86598896  1
  Al  Al116  1  0.75048908  0.13246872  0.36639059  1
  Al  Al117  1  0.74750657  0.12912129  0.86260991  1
  Al  Al118  1  0.75262038  0.62610808  0.36222512  1
  Al  Al119  1  0.74776415  0.63041885  0.86646326  1
  Al  Al120  1  0.24927064  0.36368516  0.36446018  1
  Al  Al121  1  0.25472404  0.36318671  0.86250313  1
  Al  Al122  1  0.25352479  0.87409380  0.36391427  1
  Al  Al123  1  0.25184536  0.86458638  0.87135200  1
  Al  Al124  1  0.75112773  0.37183366  0.36222273  1
  Al  Al125  1  0.75108750  0.37096570  0.86202227  1
  Al  Al126  1  0.74790897  0.86923708  0.36166959  1
  Al  Al127  1  0.74618446  0.86765879  0.86627431  1
  Al  Al128  1  0.13804395  0.24784877  0.13615727  1
  Al  Al129  1  0.13902597  0.24938713  0.62811487  1
  Al  Al130  1  0.14165866  0.75333271  0.13374492  1
  Al  Al131  1  0.13921239  0.75210568  0.63664539  1
  Al  Al132  1  0.63572050  0.25395453  0.13787257  1
  Al  Al133  1  0.63136082  0.25507890  0.63701874  1
  Al  Al134  1  0.63693743  0.74854859  0.13370048  1
  Al  Al135  1  0.63482546  0.74241361  0.64157252  1
  Al  Al136  1  0.13966941  0.24468994  0.37110099  1
  Al  Al137  1  0.13838608  0.24900918  0.86290700  1
  Al  Al138  1  0.14073170  0.75339662  0.36490401  1
  Al  Al139  1  0.14065711  0.75130450  0.86630868  1
  Al  Al140  1  0.63505438  0.25706838  0.36717526  1
  Al  Al141  1  0.63689079  0.25130856  0.85906790  1
  Al  Al142  1  0.63660667  0.75038628  0.36230572  1
  Al  Al143  1  0.62998964  0.74340069  0.86390148  1
  Al  Al144  1  0.36520776  0.25169376  0.13672695  1
  Al  Al145  1  0.36930736  0.24602097  0.63527380  1
  Al  Al146  1  0.36321325  0.75351622  0.13227754  1
  Al  Al147  1  0.36476634  0.74906852  0.63089414  1
  Al  Al148  1  0.86875323  0.25418193  0.13919191  1
  Al  Al149  1  0.86444703  0.25426086  0.63748696  1
  Al  Al150  1  0.85958183  0.74557165  0.13436644  1
  Al  Al151  1  0.85904984  0.74648645  0.63994946  1
  Al  Al152  1  0.36341527  0.24839587  0.36409248  1
  Al  Al153  1  0.36415469  0.24547362  0.86386379  1
  Al  Al154  1  0.36336662  0.75627600  0.36894562  1
  Al  Al155  1  0.36840541  0.75152191  0.86842484  1
  Al  Al156  1  0.86414283  0.25215392  0.36541045  1
  Al  Al157  1  0.86046204  0.25043312  0.86154388  1
  Al  Al158  1  0.86137467  0.74661407  0.36213798  1
  Al  Al159  1  0.85860343  0.74493877  0.86580459  1
  Al  Al160  1  0.13982935  0.12675213  0.24862091  1
  Al  Al161  1  0.13723134  0.13017143  0.74527563  1
  Al  Al162  1  0.14184431  0.63618766  0.25081301  1
  Al  Al163  1  0.14046495  0.63642658  0.75291096  1
  Al  Al164  1  0.63487578  0.13747673  0.25413757  1
  Al  Al165  1  0.63621743  0.13197313  0.74572256  1
  Al  Al166  1  0.63624177  0.63356797  0.24959738  1
  Al  Al167  1  0.63511090  0.62700060  0.75293025  1
  Al  Al168  1  0.36292002  0.13043587  0.24867234  1
  Al  Al169  1  0.36005704  0.13015255  0.74585328  1
  Al  Al170  1  0.36490351  0.63307718  0.24909330  1
  Al  Al171  1  0.37097835  0.63917280  0.75143561  1
  Al  Al172  1  0.86597019  0.13703844  0.25305219  1
  Al  Al173  1  0.86583358  0.13252751  0.75127820  1
  Al  Al174  1  0.85993681  0.62661174  0.24730620  1
  Al  Al175  1  0.86036648  0.62697727  0.75277740  1
  Al  Al176  1  0.13359419  0.35930615  0.24908537  1
  Al  Al177  1  0.13347922  0.36304208  0.74785621  1
  Al  Al178  1  0.14147278  0.87334266  0.24907168  1
  Al  Al179  1  0.14262264  0.87170074  0.75078776  1
  Al  Al180  1  0.63051305  0.36680088  0.25265415  1
  Al  Al181  1  0.63776757  0.37488921  0.74921312  1
  Al  Al182  1  0.62741713  0.86292113  0.24998956  1
  Al  Al183  1  0.63343551  0.86777726  0.75251895  1
  Al  Al184  1  0.36712944  0.36756213  0.25249214  1
  Al  Al185  1  0.36531662  0.36440742  0.74720633  1
  Al  Al186  1  0.36806079  0.86453394  0.24879570  1
  Al  Al187  1  0.36583014  0.86500714  0.74872375  1
  Al  Al188  1  0.86291435  0.37027332  0.24874539  1
  Al  Al189  1  0.86230043  0.36998783  0.74842533  1
  Al  Al190  1  0.86508902  0.86259298  0.25093821  1
  Al  Al191  1  0.86205435  0.86712944  0.75281389  1
  Al  Al192  1  0.31808794  0.17936755  -0.00087546  1
  Al  Al193  1  0.18677628  0.49790184  0.82809564  1
  Al  Al194  1  0.67413962  0.32834636  -0.00233726  1
  Al  Al195  1  0.17196147  0.67845825  0.49828150  1
  Al  Al196  1  0.50149100  0.81571293  0.67616873  1
  Al  Al197  1  0.31326370  -0.00159984  0.81503036  1
  Al  Al198  1  0.49952759  0.17622191  0.33193258  1
  Al  Al199  1  0.00364013  0.17092834  0.82644073  1
  Al  Al200  1  0.00263939  0.82511632  0.82540523  1
  Al  Al201  1  0.82650424  -0.00021232  0.17747700  1
  Al  Al202  1  0.69093234  0.19617800  0.49928802  1
  Al  Al203  1  -0.00069197  0.67308618  0.32625993  1
  Al  Al204  1  0.18667650  0.67852656  -0.00008384  1
  Al  Al205  1  0.67394911  0.82837935  0.50083022  1
  Al  Al206  1  0.17719909  0.49788519  0.17287795  1
  Al  Al207  1  0.67483961  0.66955170  0.50040058  1
  Al  Al208  1  0.18408784  0.49966149  0.32685954  1
  Al  Al209  1  -0.00226882  0.32741597  0.81652905  1
  Al  Al210  1  0.49853623  0.68587790  0.16605549  1
  Al  Al211  1  0.00017426  0.66990374  0.17510832  1
  Al  Al212  1  0.00333296  0.17182025  0.33438322  1
  Al  Al213  1  0.00137028  0.18747488  0.66795806  1
  Al  Al214  1  0.00241236  0.82652374  0.32799026  1
  Al  Al215  1  0.16934351  0.50205558  0.67113391  1
  Al  Al216  1  -0.00103776  0.82444461  0.66886097  1
  Al  Al217  1  0.49912872  0.68063633  0.32394774  1
  Al  Al218  1  0.82708287  0.67075366  0.50164435  1
  Al  Al219  1  0.00337302  0.82716363  0.17579403  1
  Al  Al220  1  0.31654891  0.31691946  0.50106216  1
  Al  Al221  1  0.66949590  0.82232321  -0.00031169  1
  Al  Al222  1  0.50105865  0.32792901  0.81952085  1
  Al  Al223  1  0.80780297  0.31270325  0.50108927  1
  Al  Al224  1  0.82274878  0.00041455  0.67991358  1
  Al  Al225  1  0.18327183  0.31059091  0.00040081  1
  Al  Al226  1  -0.00165322  0.67109535  0.67305300  1
  Al  Al227  1  -0.00326401  0.33329729  0.31813218  1
  Al  Al228  1  0.67788317  0.17353593  -0.00088742  1
  Al  Al229  1  0.68966899  0.49977362  0.18179841  1
  Al  Al230  1  0.00356899  0.17957592  0.17234339  1
  Al  Al231  1  0.82908090  0.32448116  -0.00074180  1
  Al  Al232  1  0.49937564  0.17399057  0.16684591  1
  Al  Al233  1  0.82802994  0.82634220  0.49987531  1
  Al  Al234  1  0.49894063  0.17305354  0.82074694  1
  Al  Al235  1  -0.00115357  0.66748060  0.82488017  1
  Al  Al236  1  0.32463014  0.50187737  0.68574964  1
  Al  Al237  1  0.67140301  0.00025434  0.17755220  1
  Al  Al238  1  0.83184051  0.81943166  0.00030162  1
  Au  Au239  1  0.00569073  0.17215961  0.15787603  1
  Au  Au240  1  0.00316275  0.16670296  0.34930019  1
  Au  Au241  1  0.67398279  0.50000334  0.67439241  1
  Au  Au242  1  0.17814221  0.66352798  0.00076655  1
  Au  Au243  1  0.82776014  0.00024493  0.66840837  1
  Au  Au244  1  0.65952801  0.83509477  0.00104493  1
  Au  Au245  1  0.66182092  0.17141552  -0.00271418  1
  Au  Au246  1  0.50309007  0.33782194  0.16506853  1
  Au  Au247  1  0.32895174  0.33971203  -0.00438058  1
  Au  Au248  1  -0.00457462  0.34805451  0.32521461  1
  Au  Au249  1  0.00414023  0.17424519  0.83865590  1
  Au  Au250  1  0.49957285  0.66190290  0.82705062  1
  Au  Au251  1  0.49989368  0.33616573  0.66877447  1
  Au  Au252  1  0.49783724  0.34037264  0.33835495  1
  Au  Au253  1  0.84838493  0.82285067  0.00071407  1
  Au  Au254  1  0.17000958  0.49697341  0.65585196  1
  Au  Au255  1  0.16554038  0.49589623  0.17719138  1
  Au  Au256  1  0.66416622  -0.00162665  0.32617384  1
  Au  Au257  1  0.49865387  0.16256814  0.34064119  1
  Au  Au258  1  0.33276780  0.50203886  0.17465513  1
  Au  Au259  1  0.67716299  0.65854689  -0.00252099  1
  Au  Au260  1  0.49838706  0.83048993  0.32763793  1
  Au  Au261  1  -0.00832991  0.67328553  0.16083223  1
  Au  Au262  1  0.50101613  0.82311944  0.66098288  1
  Au  Au263  1  0.16674519  0.83466357  0.49971401  1
  Au  Au264  1  0.67470878  0.49977396  0.32893759  1
  Au  Au265  1  0.49757321  0.16245165  0.67295275  1
  Au  Au266  1  0.68262286  0.18111082  0.50159741  1
  Au  Au267  1  0.66688946  -0.00168796  0.67580281  1
  Au  Au268  1  0.83550035  0.00017345  0.32625332  1
  Au  Au269  1  -0.00795343  0.66734127  0.84054391  1
  Au  Au270  1  0.83824183  0.17541795  0.00110271  1
  Au  Au271  1  0.82341528  -0.00207307  0.83871236  1
  Au  Au272  1  0.65934501  0.67630592  0.50120922  1
  Au  Au273  1  0.17484828  0.49335084  0.83945577  1
  Au  Au274  1  0.49888532  0.66959722  0.17101819  1
  Au  Au275  1  0.31769316  0.16672067  0.00130439  1
  Au  Au276  1  0.33770307  0.66466717  0.50095342  1
  Au  Au277  1  0.49833916  0.83455790  0.83391137  1
  Au  Au278  1  0.00281711  0.17562984  0.65690912  1
  Au  Au279  1  0.33869038  0.82708885  0.00280818  1
  Au  Au280  1  0.33131820  0.84020909  0.49944545  1
  Au  Au281  1  0.17755191  0.00114332  0.32613867  1
  Au  Au282  1  0.49692016  0.15874492  0.16156677  1
  Au  Au283  1  0.16661951  0.32404490  0.49909786  1
  Au  Au284  1  0.00407263  0.83982111  0.67207987  1
  Au  Au285  1  0.16626961  0.83999498  0.00068088  1
  Au  Au286  1  0.16494152  0.66835148  0.49854192  1
  Au  Au287  1  0.32310144  0.16781913  0.50041679  1
