# generated using pymatgen
data_Ca24Ti8Al207Au49
_symmetry_space_group_name_H-M   'P 1'
_cell_length_a   17.32306468
_cell_length_b   17.32258783
_cell_length_c   17.32106167
_cell_angle_alpha   89.99806408
_cell_angle_beta   90.00048857
_cell_angle_gamma   89.99784946
_symmetry_Int_Tables_number   1
_chemical_formula_structural   Ca24Ti8Al207Au49
_chemical_formula_sum   'Ca24 Ti8 Al207 Au49'
_cell_volume   5197.70953708
_cell_formula_units_Z   1
loop_
 _symmetry_equiv_pos_site_id
 _symmetry_equiv_pos_as_xyz
  1  'x, y, z'
loop_
 _atom_site_type_symbol
 _atom_site_label
 _atom_site_symmetry_multiplicity
 _atom_site_fract_x
 _atom_site_fract_y
 _atom_site_fract_z
 _atom_site_occupancy
  Ca  Ca0  1  0.24955804  0.00087314  -0.00439996  1
  Ca  Ca1  1  0.25370731  -0.00359824  0.50319858  1
  Ca  Ca2  1  0.25006454  0.49768572  -0.00125897  1
  Ca  Ca3  1  0.25125845  0.50251197  0.49506041  1
  Ca  Ca4  1  0.75157033  0.00449135  0.00118308  1
  Ca  Ca5  1  0.75485976  0.00176964  0.50007927  1
  Ca  Ca6  1  0.74974418  0.49677818  -0.00005666  1
  Ca  Ca7  1  0.74881669  0.49686178  0.50339809  1
  Ca  Ca8  1  0.00020378  0.24688737  -0.00094823  1
  Ca  Ca9  1  -0.00190707  0.25037694  0.49959506  1
  Ca  Ca10  1  0.00268776  0.75233771  0.00014185  1
  Ca  Ca11  1  0.00260717  0.75514286  0.50276396  1
  Ca  Ca12  1  0.49933232  0.24810526  -0.00289594  1
  Ca  Ca13  1  0.49931871  0.25088481  0.49961486  1
  Ca  Ca14  1  0.49688906  0.75756078  0.00047883  1
  Ca  Ca15  1  0.49686383  0.75041621  0.49919397  1
  Ca  Ca16  1  -0.00133801  -0.00378087  0.25348368  1
  Ca  Ca17  1  0.00150059  0.00017873  0.74913885  1
  Ca  Ca18  1  -0.00028263  0.50408132  0.25182913  1
  Ca  Ca19  1  -0.00333964  0.49993497  0.74584040  1
  Ca  Ca20  1  0.49933299  0.00281075  0.25358221  1
  Ca  Ca21  1  0.49708564  0.00116136  0.74885335  1
  Ca  Ca22  1  0.50012851  0.49782053  0.25473536  1
  Ca  Ca23  1  0.50228811  0.49612856  0.74611781  1
  Ti  Ti24  1  0.25132529  0.24952900  0.24952409  1
  Ti  Ti25  1  0.24952862  0.24617322  0.74946984  1
  Ti  Ti26  1  0.25039014  0.75096372  0.24956020  1
  Ti  Ti27  1  0.24858242  0.75325706  0.75018336  1
  Ti  Ti28  1  0.74898383  0.25057313  0.25379622  1
  Ti  Ti29  1  0.74964305  0.24904528  0.74745095  1
  Ti  Ti30  1  0.74906824  0.74963914  0.25084519  1
  Ti  Ti31  1  0.75157542  0.75010718  0.74809493  1
  Al  Al32  1  0.08969881  0.09150244  0.07482932  1
  Al  Al33  1  0.08008479  0.07632652  0.58515846  1
  Al  Al34  1  0.07776940  0.59075892  0.08760628  1
  Al  Al35  1  0.07812540  0.59332584  0.58785952  1
  Al  Al36  1  0.58278858  0.08350247  0.08181711  1
  Al  Al37  1  0.57875548  0.09458623  0.58051208  1
  Al  Al38  1  0.57969219  0.57623839  0.09315167  1
  Al  Al39  1  0.58407326  0.57081809  0.58949249  1
  Al  Al40  1  0.41826047  0.41597728  0.08374424  1
  Al  Al41  1  0.42792784  0.40885348  0.57843362  1
  Al  Al42  1  0.41752361  0.92303380  0.07988412  1
  Al  Al43  1  0.40586757  0.91513412  0.59212763  1
  Al  Al44  1  0.92383386  0.42319792  0.07591268  1
  Al  Al45  1  0.91103121  0.42214088  0.58837931  1
  Al  Al46  1  0.92569090  0.91731576  0.08648543  1
  Al  Al47  1  0.91685360  0.90875714  0.58803213  1
  Al  Al48  1  0.42750182  0.08597430  0.41803060  1
  Al  Al49  1  0.41060483  0.08273730  0.90512937  1
  Al  Al50  1  0.41396380  0.58372379  0.40583462  1
  Al  Al51  1  0.42483800  0.58723211  0.92371704  1
  Al  Al52  1  0.91713037  0.08802877  0.41103034  1
  Al  Al53  1  0.91810347  0.08758890  0.90729481  1
  Al  Al54  1  0.92091529  0.58081774  0.41355428  1
  Al  Al55  1  0.92013390  0.57723871  0.90678374  1
  Al  Al56  1  0.07694333  0.40792319  0.41292159  1
  Al  Al57  1  0.08270250  0.39985612  0.91826222  1
  Al  Al58  1  0.08699204  0.91182765  0.42496926  1
  Al  Al59  1  0.07935269  0.92059351  0.91124648  1
  Al  Al60  1  0.58153737  0.41234319  0.40813799  1
  Al  Al61  1  0.58257226  0.40955476  0.91070082  1
  Al  Al62  1  0.58085857  0.92299938  0.41656765  1
  Al  Al63  1  0.57289752  0.91380970  0.91267334  1
  Al  Al64  1  0.07523842  0.08694978  0.41186017  1
  Al  Al65  1  0.08336453  0.09508332  0.91195266  1
  Al  Al66  1  0.07955730  0.59096753  0.41993661  1
  Al  Al67  1  0.07547986  0.58624368  0.91889706  1
  Al  Al68  1  0.58690571  0.09832966  0.41782308  1
  Al  Al69  1  0.57648861  0.08630507  0.91489715  1
  Al  Al70  1  0.57633020  0.57532339  0.40586060  1
  Al  Al71  1  0.57973577  0.57696460  0.91238671  1
  Al  Al72  1  0.41715320  0.41200094  0.40796598  1
  Al  Al73  1  0.42503670  0.40206759  0.91886627  1
  Al  Al74  1  0.41265648  0.91209406  0.42855985  1
  Al  Al75  1  0.41263764  0.91887271  0.89978226  1
  Al  Al76  1  0.91799303  0.41182692  0.41203501  1
  Al  Al77  1  0.92062221  0.41624121  0.90926712  1
  Al  Al78  1  0.91289744  0.91517450  0.42396699  1
  Al  Al79  1  0.91757207  0.92420794  0.90419028  1
  Al  Al80  1  0.08731884  0.40742422  0.07554345  1
  Al  Al81  1  0.07574988  0.42361731  0.57817625  1
  Al  Al82  1  0.08060629  0.91425147  0.08800183  1
  Al  Al83  1  0.08600478  0.90525018  0.58829598  1
  Al  Al84  1  0.58621840  0.41635645  0.08604459  1
  Al  Al85  1  0.58732836  0.41153109  0.59248631  1
  Al  Al86  1  0.58205749  0.92407235  0.07948822  1
  Al  Al87  1  0.56970760  0.91798989  0.58253798  1
  Al  Al88  1  0.41543860  0.08455705  0.08057438  1
  Al  Al89  1  0.41744669  0.08125562  0.59346276  1
  Al  Al90  1  0.41658630  0.58395050  0.08660910  1
  Al  Al91  1  0.42207573  0.58342432  0.57357387  1
  Al  Al92  1  0.92150929  0.08055576  0.07242669  1
  Al  Al93  1  0.91788114  0.07980836  0.58334636  1
  Al  Al94  1  0.92528350  0.58349840  0.09363826  1
  Al  Al95  1  0.91621788  0.58432618  0.59771452  1
  Al  Al96  1  0.24716362  0.13879291  0.13047400  1
  Al  Al97  1  0.25121156  0.12642346  0.64012497  1
  Al  Al98  1  0.25387936  0.63422508  0.13765267  1
  Al  Al99  1  0.24635731  0.63949637  0.63389033  1
  Al  Al100  1  0.74836705  0.13729906  0.13977268  1
  Al  Al101  1  0.74987089  0.13857438  0.63109237  1
  Al  Al102  1  0.74629147  0.63515117  0.13988864  1
  Al  Al103  1  0.75335187  0.63286316  0.63421548  1
  Al  Al104  1  0.24893470  0.36349488  0.13559061  1
  Al  Al105  1  0.24890573  0.35895523  0.63748051  1
  Al  Al106  1  0.24930673  0.86152541  0.12853713  1
  Al  Al107  1  0.25064910  0.86945423  0.63466223  1
  Al  Al108  1  0.74771153  0.36294558  0.13952235  1
  Al  Al109  1  0.74947728  0.36444963  0.63063147  1
  Al  Al110  1  0.75077752  0.86242926  0.13602223  1
  Al  Al111  1  0.75525390  0.86477646  0.63437956  1
  Al  Al112  1  0.25126533  0.13872565  0.36383501  1
  Al  Al113  1  0.25116502  0.13215741  0.86337967  1
  Al  Al114  1  0.25267675  0.63412129  0.36362867  1
  Al  Al115  1  0.25003856  0.64083672  0.86486671  1
  Al  Al116  1  0.74639690  0.13967831  0.37481181  1
  Al  Al117  1  0.74945178  0.13552446  0.85922665  1
  Al  Al118  1  0.74496173  0.63237463  0.36266401  1
  Al  Al119  1  0.75071191  0.63509658  0.85765564  1
  Al  Al120  1  0.25353211  0.36368459  0.36309026  1
  Al  Al121  1  0.24500321  0.35641921  0.86901721  1
  Al  Al122  1  0.24881236  0.86407417  0.36946343  1
  Al  Al123  1  0.24853850  0.87262456  0.86390757  1
  Al  Al124  1  0.74679768  0.36581235  0.37253679  1
  Al  Al125  1  0.75022504  0.36123434  0.86201420  1
  Al  Al126  1  0.74964932  0.86276460  0.36739337  1
  Al  Al127  1  0.75672600  0.86253718  0.86141988  1
  Al  Al128  1  0.13248441  0.25000893  0.13214762  1
  Al  Al129  1  0.12761363  0.24456458  0.63849630  1
  Al  Al130  1  0.13633445  0.74803057  0.13139000  1
  Al  Al131  1  0.13474104  0.75559404  0.63266901  1
  Al  Al132  1  0.63334889  0.24910472  0.13834646  1
  Al  Al133  1  0.63573028  0.25094745  0.62710471  1
  Al  Al134  1  0.62897313  0.74968649  0.14026169  1
  Al  Al135  1  0.63777646  0.75149502  0.63515656  1
  Al  Al136  1  0.13413966  0.25200045  0.36688341  1
  Al  Al137  1  0.13388512  0.24338227  0.86616888  1
  Al  Al138  1  0.13748402  0.75066336  0.37014665  1
  Al  Al139  1  0.13578020  0.75396951  0.86684809  1
  Al  Al140  1  0.63197927  0.25213188  0.37162617  1
  Al  Al141  1  0.62900411  0.24807827  0.86086445  1
  Al  Al142  1  0.62959037  0.74625914  0.36485142  1
  Al  Al143  1  0.63587326  0.75121262  0.86168120  1
  Al  Al144  1  0.36738473  0.25096269  0.13489400  1
  Al  Al145  1  0.36568839  0.24490036  0.63562179  1
  Al  Al146  1  0.37121751  0.74849937  0.13713849  1
  Al  Al147  1  0.36141390  0.75553666  0.63188586  1
  Al  Al148  1  0.86551593  0.24933186  0.13578018  1
  Al  Al149  1  0.86867699  0.24807573  0.63059914  1
  Al  Al150  1  0.86507824  0.74800635  0.13521222  1
  Al  Al151  1  0.87037038  0.75268648  0.63530839  1
  Al  Al152  1  0.37086928  0.25184623  0.36403765  1
  Al  Al153  1  0.37054884  0.24486924  0.86449702  1
  Al  Al154  1  0.36389412  0.74960433  0.36334257  1
  Al  Al155  1  0.36609698  0.75885246  0.86535915  1
  Al  Al156  1  0.86337076  0.24883530  0.37265895  1
  Al  Al157  1  0.86583244  0.24639323  0.86338365  1
  Al  Al158  1  0.86314451  0.75180087  0.36813322  1
  Al  Al159  1  0.86815347  0.74791683  0.86328232  1
  Al  Al160  1  0.13545808  0.13545115  0.25344009  1
  Al  Al161  1  0.13137264  0.12960143  0.75162848  1
  Al  Al162  1  0.13481224  0.63653158  0.24930144  1
  Al  Al163  1  0.12800944  0.64236849  0.74731340  1
  Al  Al164  1  0.63093525  0.13855290  0.25978328  1
  Al  Al165  1  0.62412107  0.14136107  0.74399740  1
  Al  Al166  1  0.62783058  0.63434382  0.25265106  1
  Al  Al167  1  0.63362345  0.63286501  0.74420401  1
  Al  Al168  1  0.36661765  0.13608810  0.25315087  1
  Al  Al169  1  0.36896232  0.13365709  0.74913879  1
  Al  Al170  1  0.36828042  0.63191674  0.25230139  1
  Al  Al171  1  0.36428766  0.63896987  0.75037392  1
  Al  Al172  1  0.86490015  0.13850819  0.25675356  1
  Al  Al173  1  0.86986393  0.13648352  0.75017965  1
  Al  Al174  1  0.86501157  0.63505429  0.25227734  1
  Al  Al175  1  0.87127670  0.63724133  0.74516646  1
  Al  Al176  1  0.13385944  0.36242927  0.25465961  1
  Al  Al177  1  0.13515224  0.36030301  0.74992528  1
  Al  Al178  1  0.13727083  0.86411845  0.25015222  1
  Al  Al179  1  0.13658581  0.87226625  0.74713986  1
  Al  Al180  1  0.62877972  0.36213872  0.25730665  1
  Al  Al181  1  0.63570384  0.36312976  0.74587955  1
  Al  Al182  1  0.63482500  0.86575079  0.25390890  1
  Al  Al183  1  0.63454650  0.86664834  0.74967643  1
  Al  Al184  1  0.36793127  0.36677195  0.25151593  1
  Al  Al185  1  0.36428099  0.36093777  0.75373551  1
  Al  Al186  1  0.36467376  0.86516781  0.25091005  1
  Al  Al187  1  0.36194662  0.87136024  0.74999653  1
  Al  Al188  1  0.86535728  0.36045084  0.25827312  1
  Al  Al189  1  0.86369690  0.36296411  0.74391776  1
  Al  Al190  1  0.86451658  0.86476260  0.25256322  1
  Al  Al191  1  0.86876024  0.86501120  0.74625833  1
  Al  Al192  1  0.49568823  0.82345273  0.32487211  1
  Al  Al193  1  0.31984432  0.00086732  0.17623437  1
  Al  Al194  1  0.82638142  0.49893024  0.81037166  1
  Al  Al195  1  0.32303022  0.32442614  0.49969172  1
  Al  Al196  1  0.17769589  0.49852730  0.17144796  1
  Al  Al197  1  0.49908020  0.18006586  0.17917687  1
  Al  Al198  1  0.33095263  0.49723582  0.66892356  1
  Al  Al199  1  0.67657742  0.49726383  0.81567935  1
  Al  Al200  1  0.82625284  0.00081364  0.68396680  1
  Al  Al201  1  0.81917655  0.17463108  -0.00116848  1
  Al  Al202  1  0.67068106  0.67127377  0.00066233  1
  Al  Al203  1  0.00050623  0.68423501  0.31338759  1
  Al  Al204  1  -0.00075907  0.30996733  0.81828384  1
  Al  Al205  1  0.18083477  0.49989092  0.32867746  1
  Al  Al206  1  -0.00034718  0.17171677  0.18305983  1
  Al  Al207  1  0.32273505  0.31729256  0.00079535  1
  Al  Al208  1  0.82935616  0.00208231  0.17230579  1
  Al  Al209  1  0.49995170  0.30881379  0.68740407  1
  Al  Al210  1  0.68725586  -0.00315219  0.83049863  1
  Al  Al211  1  0.81468662  0.49806639  0.32476781  1
  Al  Al212  1  0.17272420  0.50256921  0.67377180  1
  Al  Al213  1  0.68250192  0.82726994  0.50089288  1
  Al  Al214  1  0.67552105  0.31875667  -0.00037833  1
  Al  Al215  1  0.49755648  0.81989020  0.68745876  1
  Al  Al216  1  0.00212544  0.82146934  0.81117219  1
  Al  Al217  1  0.33200052  0.49795188  0.83117623  1
  Al  Al218  1  0.82890518  0.83113791  -0.00360054  1
  Al  Al219  1  0.66839683  0.66751251  0.49740816  1
  Al  Al220  1  0.66878802  0.00401869  0.67186131  1
  Al  Al221  1  0.83196685  0.68045543  0.50269147  1
  Al  Al222  1  0.00088280  0.80983060  0.18622106  1
  Al  Al223  1  0.67281480  0.82752343  -0.00131943  1
  Al  Al224  1  -0.00087831  0.32707708  0.18458764  1
  Al  Al225  1  0.49986401  0.68877581  0.81618802  1
  Al  Al226  1  0.17317779  0.17969095  0.50173763  1
  Al  Al227  1  0.82713839  0.49767118  0.17127675  1
  Al  Al228  1  0.67630404  0.49756100  0.19198700  1
  Al  Al229  1  0.82969220  0.66745029  0.00070668  1
  Al  Al230  1  0.81827978  0.00048967  0.32622072  1
  Al  Al231  1  0.67609052  0.00100440  0.18209997  1
  Al  Al232  1  0.17247735  -0.00079526  0.32301661  1
  Al  Al233  1  0.32131787  0.67965014  -0.00152576  1
  Al  Al234  1  0.32215693  0.67931020  0.49569854  1
  Al  Al235  1  0.82938259  0.32898467  -0.00019386  1
  Al  Al236  1  0.32946682  0.16974723  0.50122697  1
  Al  Al237  1  0.32952741  0.00057726  0.33153382  1
  Al  Al238  1  0.17023307  0.49836790  0.83131737  1
  Au  Au239  1  -0.00176843  0.83013265  0.33551806  1
  Au  Au240  1  0.16555527  0.50052453  0.33608440  1
  Au  Au241  1  0.17102211  0.49999369  0.15555624  1
  Au  Au242  1  0.82672034  0.49856768  0.32928412  1
  Au  Au243  1  0.66321042  0.32873524  0.49860832  1
  Au  Au244  1  0.33924727  0.49843240  0.17957170  1
  Au  Au245  1  0.50128216  0.83528879  0.16808713  1
  Au  Au246  1  0.33026331  0.67083379  0.00037188  1
  Au  Au247  1  0.17482102  0.00059372  0.33551052  1
  Au  Au248  1  0.66988262  0.17071813  -0.00038699  1
  Au  Au249  1  0.49790601  0.16762594  0.17722682  1
  Au  Au250  1  0.83362314  0.33121234  0.50254740  1
  Au  Au251  1  0.82750700  0.16320991  0.50109058  1
  Au  Au252  1  0.32091148  0.16328881  -0.00280938  1
  Au  Au253  1  -0.00133020  0.34270540  0.17809795  1
  Au  Au254  1  0.84501136  0.66419162  0.00086123  1
  Au  Au255  1  0.34842210  0.49726944  0.83484583  1
  Au  Au256  1  0.84724371  0.67461905  0.50333301  1
  Au  Au257  1  0.66739630  0.49722366  0.82668797  1
  Au  Au258  1  0.17290945  0.00464805  0.83449392  1
  Au  Au259  1  0.33435380  0.83645426  -0.00418922  1
  Au  Au260  1  0.67179005  -0.00255703  0.83628716  1
  Au  Au261  1  -0.00026185  0.67445718  0.82136273  1
  Au  Au262  1  0.17506462  -0.00329290  0.66625853  1
  Au  Au263  1  -0.00108061  0.15728296  0.17538242  1
  Au  Au264  1  0.16562720  0.68057231  0.50311570  1
  Au  Au265  1  0.50194137  0.67295289  0.66149681  1
  Au  Au266  1  0.50032214  0.68176444  0.83215730  1
  Au  Au267  1  0.66885628  0.00723884  0.33184071  1
  Au  Au268  1  0.49859752  0.66496323  0.18107331  1
  Au  Au269  1  0.17376615  0.00215438  0.15881477  1
  Au  Au270  1  0.32603331  0.49416936  0.65306060  1
  Au  Au271  1  0.67205818  0.00437789  0.65954388  1
  Au  Au272  1  0.31989190  0.32968426  0.00211149  1
  Au  Au273  1  0.15406898  0.49597163  0.82690747  1
  Au  Au274  1  0.16288835  0.83483548  -0.00301031  1
  Au  Au275  1  0.17003603  0.16380553  0.50061490  1
  Au  Au276  1  0.83254756  0.84195892  0.00143973  1
  Au  Au277  1  0.49837375  0.17602604  0.81964923  1
  Au  Au278  1  0.16500058  0.66930939  -0.00006035  1
  Au  Au279  1  -0.00093046  0.16514610  0.67700718  1
  Au  Au280  1  0.00020254  0.33638816  0.67248483  1
  Au  Au281  1  0.17295185  0.34035521  0.50277683  1
  Au  Au282  1  0.33142428  0.67144193  0.49783749  1
  Au  Au283  1  0.67055569  0.83907295  0.50281978  1
  Au  Au284  1  0.66349641  0.65263754  0.49659257  1
  Au  Au285  1  0.49784186  0.83172718  0.33409159  1
  Au  Au286  1  0.65422350  0.67285103  0.00526230  1
  Au  Au287  1  0.50178325  0.33294275  0.17736482  1
