# generated using pymatgen
data_Ca24Ti8Al207Au49
_symmetry_space_group_name_H-M   'P 1'
_cell_length_a   17.32278193
_cell_length_b   17.32071156
_cell_length_c   17.32156246
_cell_angle_alpha   90.00094487
_cell_angle_beta   89.99958873
_cell_angle_gamma   90.00326811
_symmetry_Int_Tables_number   1
_chemical_formula_structural   Ca24Ti8Al207Au49
_chemical_formula_sum   'Ca24 Ti8 Al207 Au49'
_cell_volume   5197.21198416
_cell_formula_units_Z   1
loop_
 _symmetry_equiv_pos_site_id
 _symmetry_equiv_pos_as_xyz
  1  'x, y, z'
loop_
 _atom_site_type_symbol
 _atom_site_label
 _atom_site_symmetry_multiplicity
 _atom_site_fract_x
 _atom_site_fract_y
 _atom_site_fract_z
 _atom_site_occupancy
  Ca  Ca0  1  0.25337012  -0.00522129  -0.00036515  1
  Ca  Ca1  1  0.24714156  -0.00056784  0.50015498  1
  Ca  Ca2  1  0.25217323  0.50425537  -0.00129727  1
  Ca  Ca3  1  0.24784465  0.50159155  0.50010479  1
  Ca  Ca4  1  0.74751372  -0.00143458  0.00172170  1
  Ca  Ca5  1  0.75043485  -0.00053006  0.49727478  1
  Ca  Ca6  1  0.74753426  0.50343634  0.00263987  1
  Ca  Ca7  1  0.75108625  0.50052746  0.49728629  1
  Ca  Ca8  1  -0.00186043  0.25432192  0.00444700  1
  Ca  Ca9  1  0.00259999  0.24585894  0.49533279  1
  Ca  Ca10  1  -0.00451426  0.74399975  0.00146602  1
  Ca  Ca11  1  0.00030438  0.75069849  0.49803526  1
  Ca  Ca12  1  0.50122811  0.25374582  -0.00162592  1
  Ca  Ca13  1  0.50057875  0.24765140  0.50153595  1
  Ca  Ca14  1  0.50535431  0.74444969  0.00066339  1
  Ca  Ca15  1  0.50135736  0.74845378  0.49898944  1
  Ca  Ca16  1  0.00004962  0.00043810  0.25474369  1
  Ca  Ca17  1  0.00121303  -0.00063681  0.74402271  1
  Ca  Ca18  1  -0.00090510  0.50396976  0.25137041  1
  Ca  Ca19  1  0.00130230  0.49998888  0.74556086  1
  Ca  Ca20  1  0.50105384  0.00176824  0.24838192  1
  Ca  Ca21  1  0.49972469  -0.00048784  0.74899107  1
  Ca  Ca22  1  0.50469833  0.49837179  0.24669952  1
  Ca  Ca23  1  0.50229374  0.50311435  0.75439693  1
  Ti  Ti24  1  0.24940468  0.25006512  0.25167604  1
  Ti  Ti25  1  0.25040365  0.24912009  0.74837363  1
  Ti  Ti26  1  0.24884189  0.74974287  0.25100437  1
  Ti  Ti27  1  0.25099661  0.75087546  0.74833354  1
  Ti  Ti28  1  0.75017869  0.25097949  0.24950952  1
  Ti  Ti29  1  0.74816282  0.25148952  0.75058615  1
  Ti  Ti30  1  0.74999494  0.74934413  0.24975325  1
  Ti  Ti31  1  0.74886131  0.74924691  0.75085747  1
  Al  Al32  1  0.07790993  0.08605238  0.09716287  1
  Al  Al33  1  0.08800704  0.07673467  0.58495328  1
  Al  Al34  1  0.07612557  0.59341004  0.08525394  1
  Al  Al35  1  0.08662364  0.58500984  0.57165237  1
  Al  Al36  1  0.58605352  0.07455712  0.09133197  1
  Al  Al37  1  0.58433025  0.09506827  0.58103391  1
  Al  Al38  1  0.58876478  0.58819222  0.08020206  1
  Al  Al39  1  0.58541865  0.58518229  0.58065121  1
  Al  Al40  1  0.42574797  0.42847935  0.07916494  1
  Al  Al41  1  0.41879824  0.41685131  0.58529398  1
  Al  Al42  1  0.42682435  0.91312779  0.08987461  1
  Al  Al43  1  0.41707965  0.91023122  0.58292929  1
  Al  Al44  1  0.90899146  0.41957861  0.10001468  1
  Al  Al45  1  0.92599007  0.41644698  0.58890965  1
  Al  Al46  1  0.91058550  0.91123118  0.08333097  1
  Al  Al47  1  0.91020415  0.91476226  0.57669114  1
  Al  Al48  1  0.42059226  0.08089848  0.41939519  1
  Al  Al49  1  0.42175567  0.08306805  0.91845705  1
  Al  Al50  1  0.40929406  0.58597465  0.42304107  1
  Al  Al51  1  0.41352478  0.58488579  0.91373362  1
  Al  Al52  1  0.91776857  0.09224327  0.41224251  1
  Al  Al53  1  0.91973883  0.07393451  0.92212582  1
  Al  Al54  1  0.91461345  0.59712875  0.40943916  1
  Al  Al55  1  0.90907462  0.57867035  0.92507085  1
  Al  Al56  1  0.07896895  0.40777669  0.41400575  1
  Al  Al57  1  0.07935580  0.42917589  0.91508209  1
  Al  Al58  1  0.08374585  0.91003966  0.41996549  1
  Al  Al59  1  0.08478835  0.92004661  0.92052074  1
  Al  Al60  1  0.58591176  0.42118720  0.40904415  1
  Al  Al61  1  0.59370683  0.41820660  0.91422702  1
  Al  Al62  1  0.58687168  0.91865191  0.41762987  1
  Al  Al63  1  0.58103884  0.90664727  0.91576285  1
  Al  Al64  1  0.07753842  0.08794825  0.41056484  1
  Al  Al65  1  0.08129627  0.07563412  0.91805020  1
  Al  Al66  1  0.08009108  0.59875903  0.41302035  1
  Al  Al67  1  0.09959569  0.58683183  0.92512321  1
  Al  Al68  1  0.59072288  0.08717679  0.41953118  1
  Al  Al69  1  0.57708687  0.08119795  0.91860418  1
  Al  Al70  1  0.59553731  0.57843966  0.41931600  1
  Al  Al71  1  0.59102122  0.58293212  0.91604946  1
  Al  Al72  1  0.42325751  0.41721722  0.42005302  1
  Al  Al73  1  0.41932158  0.42627873  0.91053297  1
  Al  Al74  1  0.41267974  0.91556643  0.42036043  1
  Al  Al75  1  0.42601362  0.91340202  0.91090877  1
  Al  Al76  1  0.92298810  0.41544751  0.40513394  1
  Al  Al77  1  0.91316354  0.42101193  0.91916520  1
  Al  Al78  1  0.91478135  0.90730926  0.41897157  1
  Al  Al79  1  0.90560053  0.91241674  0.92573647  1
  Al  Al80  1  0.06799689  0.41473430  0.09034924  1
  Al  Al81  1  0.08093153  0.41115368  0.58201106  1
  Al  Al82  1  0.07781637  0.92094606  0.08473569  1
  Al  Al83  1  0.09429054  0.91514271  0.57993948  1
  Al  Al84  1  0.59207004  0.41540488  0.07700203  1
  Al  Al85  1  0.58028057  0.41723274  0.58731290  1
  Al  Al86  1  0.58783278  0.91239772  0.09238395  1
  Al  Al87  1  0.57901537  0.91053644  0.58002433  1
  Al  Al88  1  0.42409654  0.08007845  0.08216366  1
  Al  Al89  1  0.42323668  0.08731040  0.58815273  1
  Al  Al90  1  0.42014619  0.58636274  0.08145890  1
  Al  Al91  1  0.41082639  0.58842922  0.58220213  1
  Al  Al92  1  0.92275357  0.08589391  0.09359602  1
  Al  Al93  1  0.91704745  0.07822660  0.57490872  1
  Al  Al94  1  0.91248945  0.58402029  0.09597196  1
  Al  Al95  1  0.90916578  0.58771374  0.57243281  1
  Al  Al96  1  0.25014769  0.13724028  0.14072133  1
  Al  Al97  1  0.24743498  0.13669157  0.62906734  1
  Al  Al98  1  0.24796227  0.63774487  0.13661997  1
  Al  Al99  1  0.25335793  0.63714928  0.63450797  1
  Al  Al100  1  0.74646030  0.13381226  0.13676127  1
  Al  Al101  1  0.74695388  0.13930389  0.63470733  1
  Al  Al102  1  0.75153487  0.63067789  0.13302736  1
  Al  Al103  1  0.75161974  0.63550204  0.63484561  1
  Al  Al104  1  0.24827500  0.36206435  0.13696118  1
  Al  Al105  1  0.25153630  0.36315565  0.63500603  1
  Al  Al106  1  0.24698114  0.86261405  0.13648483  1
  Al  Al107  1  0.24434303  0.86615532  0.63196362  1
  Al  Al108  1  0.75185674  0.37119852  0.13573959  1
  Al  Al109  1  0.74293189  0.36579207  0.63496771  1
  Al  Al110  1  0.75101800  0.86558419  0.13426048  1
  Al  Al111  1  0.75024937  0.86131708  0.62865378  1
  Al  Al112  1  0.24768584  0.13703938  0.37021352  1
  Al  Al113  1  0.24842816  0.13008134  0.86078609  1
  Al  Al114  1  0.24798786  0.63005812  0.36378103  1
  Al  Al115  1  0.25325489  0.63780369  0.86215041  1
  Al  Al116  1  0.75318965  0.13111869  0.36178390  1
  Al  Al117  1  0.74845780  0.13001100  0.86340293  1
  Al  Al118  1  0.75173902  0.63349473  0.36396487  1
  Al  Al119  1  0.74676388  0.63778231  0.87262604  1
  Al  Al120  1  0.24552469  0.36856628  0.36323425  1
  Al  Al121  1  0.25068279  0.36415717  0.86446652  1
  Al  Al122  1  0.24918102  0.86388741  0.36689963  1
  Al  Al123  1  0.24589638  0.86974343  0.86132754  1
  Al  Al124  1  0.74592787  0.36792293  0.36160894  1
  Al  Al125  1  0.74634409  0.36558117  0.87049514  1
  Al  Al126  1  0.75099506  0.86583215  0.36878557  1
  Al  Al127  1  0.75045521  0.86685591  0.86644669  1
  Al  Al128  1  0.12842242  0.25251572  0.13843412  1
  Al  Al129  1  0.13205611  0.25005988  0.63623833  1
  Al  Al130  1  0.13162580  0.74191457  0.13500725  1
  Al  Al131  1  0.13081769  0.75289973  0.63471928  1
  Al  Al132  1  0.63891080  0.25519715  0.13661589  1
  Al  Al133  1  0.62846931  0.25010320  0.63751638  1
  Al  Al134  1  0.63820791  0.74907808  0.13632936  1
  Al  Al135  1  0.63490040  0.74950712  0.63600717  1
  Al  Al136  1  0.12851992  0.24811287  0.36132275  1
  Al  Al137  1  0.13406296  0.25058842  0.86123862  1
  Al  Al138  1  0.13577421  0.74987853  0.36618068  1
  Al  Al139  1  0.13577531  0.74782497  0.86379051  1
  Al  Al140  1  0.63856802  0.24450352  0.36270915  1
  Al  Al141  1  0.63670006  0.25296699  0.86643270  1
  Al  Al142  1  0.63626266  0.75321180  0.36331563  1
  Al  Al143  1  0.63153133  0.74776632  0.86603236  1
  Al  Al144  1  0.36457895  0.24958341  0.13791489  1
  Al  Al145  1  0.37012934  0.24775120  0.63754974  1
  Al  Al146  1  0.36554213  0.75121397  0.13864882  1
  Al  Al147  1  0.36582162  0.74923637  0.63604968  1
  Al  Al148  1  0.86596738  0.25391284  0.13744031  1
  Al  Al149  1  0.86435355  0.25115089  0.63684069  1
  Al  Al150  1  0.86136453  0.74647377  0.13116561  1
  Al  Al151  1  0.86697714  0.75036179  0.63322257  1
  Al  Al152  1  0.36501488  0.24567825  0.36418158  1
  Al  Al153  1  0.36300124  0.24889909  0.86314276  1
  Al  Al154  1  0.36526439  0.74924261  0.36560220  1
  Al  Al155  1  0.37139688  0.75025635  0.86161142  1
  Al  Al156  1  0.86643886  0.25130245  0.35973456  1
  Al  Al157  1  0.86348131  0.25455679  0.86656621  1
  Al  Al158  1  0.86242162  0.74677820  0.36732373  1
  Al  Al159  1  0.86140362  0.75004003  0.87433608  1
  Al  Al160  1  0.13033314  0.13608405  0.25050471  1
  Al  Al161  1  0.13491701  0.12959571  0.74619712  1
  Al  Al162  1  0.12983951  0.63566046  0.25401934  1
  Al  Al163  1  0.13614483  0.63753090  0.74604882  1
  Al  Al164  1  0.63734036  0.12908837  0.25201171  1
  Al  Al165  1  0.63418554  0.13568365  0.74898886  1
  Al  Al166  1  0.64080196  0.62856223  0.24751554  1
  Al  Al167  1  0.63341665  0.63222957  0.75386467  1
  Al  Al168  1  0.36361073  0.12759027  0.25350175  1
  Al  Al169  1  0.36472649  0.13218371  0.74674906  1
  Al  Al170  1  0.36288616  0.63583756  0.25216970  1
  Al  Al171  1  0.37155227  0.63360406  0.75316530  1
  Al  Al172  1  0.86810578  0.13422204  0.24750988  1
  Al  Al173  1  0.86468764  0.13680666  0.75228639  1
  Al  Al174  1  0.86718631  0.63546112  0.24737887  1
  Al  Al175  1  0.86367880  0.63921472  0.75131427  1
  Al  Al176  1  0.12795327  0.36528014  0.25308789  1
  Al  Al177  1  0.13407478  0.36493305  0.74750479  1
  Al  Al178  1  0.13353259  0.86294421  0.24993709  1
  Al  Al179  1  0.13315561  0.86819483  0.74662173  1
  Al  Al180  1  0.63832653  0.37274640  0.24710553  1
  Al  Al181  1  0.63635296  0.37115277  0.75134784  1
  Al  Al182  1  0.63890563  0.87000767  0.24859379  1
  Al  Al183  1  0.63666927  0.86479832  0.75397623  1
  Al  Al184  1  0.36456415  0.36417547  0.25419233  1
  Al  Al185  1  0.36564207  0.36568156  0.74996336  1
  Al  Al186  1  0.36172074  0.86963404  0.24937295  1
  Al  Al187  1  0.36340186  0.86655240  0.75036406  1
  Al  Al188  1  0.86762584  0.36735850  0.24902029  1
  Al  Al189  1  0.86246353  0.36544028  0.74885751  1
  Al  Al190  1  0.86282441  0.86363058  0.25245691  1
  Al  Al191  1  0.86279195  0.86150963  0.74866764  1
  Al  Al192  1  0.33185399  0.82550047  -0.00060715  1
  Al  Al193  1  0.82055201  0.49990906  0.67030664  1
  Al  Al194  1  0.50021477  0.82157614  0.68744353  1
  Al  Al195  1  0.67212823  0.00017030  0.67469285  1
  Al  Al196  1  -0.00203646  0.81054445  0.17042686  1
  Al  Al197  1  0.50147986  0.17595944  0.18166249  1
  Al  Al198  1  0.49913915  0.17579890  0.81606132  1
  Al  Al199  1  0.50130272  0.32948155  0.17026410  1
  Al  Al200  1  -0.00205210  0.17943877  0.67556580  1
  Al  Al201  1  0.50274200  0.31944968  0.32322606  1
  Al  Al202  1  0.50191358  0.32865415  0.82220931  1
  Al  Al203  1  -0.00097102  0.32557633  0.81767760  1
  Al  Al204  1  0.32615834  0.50056539  0.17973202  1
  Al  Al205  1  0.32627564  0.32322127  0.49930038  1
  Al  Al206  1  -0.00239936  0.82771277  0.82283898  1
  Al  Al207  1  -0.00087813  0.81255479  0.32719715  1
  Al  Al208  1  0.19010797  0.50145709  0.82181001  1
  Al  Al209  1  0.30894936  0.81034486  0.50161724  1
  Al  Al210  1  0.82585070  0.00061144  0.67802562  1
  Al  Al211  1  0.17074787  0.33015777  0.00009330  1
  Al  Al212  1  0.81175581  0.50159902  0.82617158  1
  Al  Al213  1  0.32990588  0.32818411  0.00029830  1
  Al  Al214  1  0.18980786  0.69059841  0.50018894  1
  Al  Al215  1  0.49931585  0.82789706  0.31038301  1
  Al  Al216  1  0.68360121  0.81540991  0.00061158  1
  Al  Al217  1  0.32750895  0.17268118  0.00036364  1
  Al  Al218  1  0.81500471  0.17368999  0.49899486  1
  Al  Al219  1  0.68782642  0.68014167  0.49912731  1
  Al  Al220  1  0.17907056  -0.00082395  0.17599633  1
  Al  Al221  1  0.17421429  -0.00069117  0.32824353  1
  Al  Al222  1  0.83153286  0.32828109  0.49878390  1
  Al  Al223  1  0.50196537  0.68350096  0.17459561  1
  Al  Al224  1  0.66978820  0.18043350  0.00185610  1
  Al  Al225  1  0.31573216  -0.00040635  0.67540399  1
  Al  Al226  1  0.67138426  0.31305268  0.49813892  1
  Al  Al227  1  0.50303248  0.66977317  0.32754323  1
  Al  Al228  1  0.17274298  0.81083018  0.00149177  1
  Al  Al229  1  0.82082269  0.00284487  0.17757062  1
  Al  Al230  1  0.81879820  0.50065199  0.31603455  1
  Al  Al231  1  0.17321586  0.31847368  0.49899705  1
  Al  Al232  1  0.17062703  0.17096183  0.00301176  1
  Al  Al233  1  0.16869717  0.50000748  0.67030572  1
  Al  Al234  1  0.16966749  0.50083294  0.17649725  1
  Al  Al235  1  0.82806006  0.18021086  0.00139405  1
  Al  Al236  1  0.31545456  0.67242397  0.00042323  1
  Al  Al237  1  0.32385152  0.50128926  0.68518251  1
  Al  Al238  1  0.00105845  0.66538433  0.82565069  1
  Au  Au239  1  0.50734372  0.65439467  0.32811353  1
  Au  Au240  1  0.16927086  0.50458864  0.16069956  1
  Au  Au241  1  0.00033309  0.16685228  0.83640676  1
  Au  Au242  1  0.84793953  0.32245050  0.49905367  1
  Au  Au243  1  0.65496838  0.17375599  0.00388851  1
  Au  Au244  1  -0.00235944  0.82656127  0.17617935  1
  Au  Au245  1  0.49888557  0.32244639  0.67344361  1
  Au  Au246  1  0.82391562  0.34382284  0.00481080  1
  Au  Au247  1  0.33978706  0.33798272  0.00066628  1
  Au  Au248  1  0.84231414  0.17246803  0.00296675  1
  Au  Au249  1  0.83403689  -0.00136937  0.82836507  1
  Au  Au250  1  0.32344766  0.00131683  0.33764966  1
  Au  Au251  1  0.00193824  0.65230978  0.83534496  1
  Au  Au252  1  0.67144985  0.50117832  0.16761677  1
  Au  Au253  1  0.66557752  0.50312207  0.67588140  1
  Au  Au254  1  0.16434259  -0.00053742  0.82020999  1
  Au  Au255  1  0.32564746  0.81489751  0.50080943  1
  Au  Au256  1  0.00017421  0.83441842  0.65783699  1
  Au  Au257  1  0.49913363  0.84072947  0.32144531  1
  Au  Au258  1  0.17501475  0.15422922  0.00576171  1
  Au  Au259  1  0.50305794  0.67302647  0.83681727  1
  Au  Au260  1  0.50297277  0.17022806  0.33186236  1
  Au  Au261  1  0.66296438  0.32775857  0.49750752  1
  Au  Au262  1  0.66907805  0.00117282  0.65891191  1
  Au  Au263  1  0.83722010  -0.00158140  0.33265036  1
  Au  Au264  1  0.34858830  0.82003354  -0.00039205  1
  Au  Au265  1  0.66982664  0.82498807  0.00205073  1
  Au  Au266  1  0.16617247  0.82682200  0.00267314  1
  Au  Au267  1  0.33624121  0.49665091  0.33095574  1
  Au  Au268  1  -0.00226773  0.16996213  0.66169685  1
  Au  Au269  1  0.83116846  0.50203048  0.32736873  1
  Au  Au270  1  -0.00362118  0.83519176  0.83718726  1
  Au  Au271  1  0.16215604  0.50114149  0.34040461  1
  Au  Au272  1  0.82889607  0.00018239  0.16826251  1
  Au  Au273  1  0.67475706  0.82624555  0.49914363  1
  Au  Au274  1  0.32729359  -0.00027046  0.66321804  1
  Au  Au275  1  -0.00186284  0.34109629  0.82452391  1
  Au  Au276  1  0.16604603  0.16826680  0.49741508  1
  Au  Au277  1  0.32904199  -0.00097261  0.16268706  1
  Au  Au278  1  0.83255730  0.50154708  0.67355242  1
  Au  Au279  1  0.32854224  0.50135050  0.67315749  1
  Au  Au280  1  0.33146630  -0.00021668  0.83829870  1
  Au  Au281  1  0.66485492  -0.00148372  0.83652190  1
  Au  Au282  1  0.66930734  0.00070882  0.32632890  1
  Au  Au283  1  0.82786909  0.67040365  0.00472712  1
  Au  Au284  1  0.50064134  0.67605579  0.66211344  1
  Au  Au285  1  0.33906786  0.17487902  0.50281368  1
  Au  Au286  1  0.15979483  0.33624365  -0.00014525  1
  Au  Au287  1  -0.00020578  0.66721123  0.65659585  1
