# generated using pymatgen
data_Ca24Ti8Al207Au49
_symmetry_space_group_name_H-M   'P 1'
_cell_length_a   17.32385035
_cell_length_b   17.32278881
_cell_length_c   17.31962920
_cell_angle_alpha   90.00048623
_cell_angle_beta   90.00347499
_cell_angle_gamma   89.99975514
_symmetry_Int_Tables_number   1
_chemical_formula_structural   Ca24Ti8Al207Au49
_chemical_formula_sum   'Ca24 Ti8 Al207 Au49'
_cell_volume   5197.57570224
_cell_formula_units_Z   1
loop_
 _symmetry_equiv_pos_site_id
 _symmetry_equiv_pos_as_xyz
  1  'x, y, z'
loop_
 _atom_site_type_symbol
 _atom_site_label
 _atom_site_symmetry_multiplicity
 _atom_site_fract_x
 _atom_site_fract_y
 _atom_site_fract_z
 _atom_site_occupancy
  Ca  Ca0  1  0.25056848  -0.00000123  0.00019643  1
  Ca  Ca1  1  0.25494398  0.00079993  0.49671285  1
  Ca  Ca2  1  0.25494954  0.49717199  0.00096412  1
  Ca  Ca3  1  0.25258036  0.49887822  0.49502521  1
  Ca  Ca4  1  0.75086904  -0.00119265  0.00199576  1
  Ca  Ca5  1  0.74806075  -0.00185314  0.49871868  1
  Ca  Ca6  1  0.74662026  0.50058784  -0.00469053  1
  Ca  Ca7  1  0.74570611  0.50248200  0.50299234  1
  Ca  Ca8  1  0.00162679  0.25326314  0.00203195  1
  Ca  Ca9  1  -0.00216156  0.25529686  0.49838016  1
  Ca  Ca10  1  0.00069230  0.74737297  -0.00207793  1
  Ca  Ca11  1  -0.00176361  0.74734166  0.50150295  1
  Ca  Ca12  1  0.49806988  0.25525930  0.00136551  1
  Ca  Ca13  1  0.50731572  0.25524724  0.49966116  1
  Ca  Ca14  1  0.49963598  0.74202676  0.00355449  1
  Ca  Ca15  1  0.50534301  0.74142671  0.49479938  1
  Ca  Ca16  1  -0.00035152  0.00575845  0.24737691  1
  Ca  Ca17  1  0.00394621  -0.00239629  0.74907649  1
  Ca  Ca18  1  -0.00058865  0.49677459  0.25006643  1
  Ca  Ca19  1  -0.00188540  0.49993192  0.75326489  1
  Ca  Ca20  1  0.50129960  0.00188861  0.24796455  1
  Ca  Ca21  1  0.49527082  0.00034793  0.74761436  1
  Ca  Ca22  1  0.50307872  0.49722921  0.25186472  1
  Ca  Ca23  1  0.50031264  0.50344161  0.75138775  1
  Ti  Ti24  1  0.25097668  0.25263941  0.24861474  1
  Ti  Ti25  1  0.25268137  0.25235154  0.75233413  1
  Ti  Ti26  1  0.25202020  0.74721183  0.24830107  1
  Ti  Ti27  1  0.24955951  0.74810906  0.75279635  1
  Ti  Ti28  1  0.74849763  0.25066166  0.25083680  1
  Ti  Ti29  1  0.74698564  0.25312584  0.74949484  1
  Ti  Ti30  1  0.74776174  0.74890086  0.25016724  1
  Ti  Ti31  1  0.75004046  0.74801297  0.74937042  1
  Al  Al32  1  0.07883515  0.08878623  0.08388103  1
  Al  Al33  1  0.08071085  0.07186009  0.58061399  1
  Al  Al34  1  0.08675102  0.57915822  0.07758447  1
  Al  Al35  1  0.07336167  0.58130398  0.58525291  1
  Al  Al36  1  0.57577827  0.08508779  0.09119851  1
  Al  Al37  1  0.59076408  0.09539157  0.58061985  1
  Al  Al38  1  0.58122823  0.58389694  0.09575521  1
  Al  Al39  1  0.59090353  0.58961387  0.58662473  1
  Al  Al40  1  0.41672958  0.41094516  0.08341893  1
  Al  Al41  1  0.42999939  0.42090684  0.57829879  1
  Al  Al42  1  0.41536508  0.91618173  0.08526409  1
  Al  Al43  1  0.42178915  0.91674998  0.57498102  1
  Al  Al44  1  0.92732314  0.41515914  0.09017110  1
  Al  Al45  1  0.91616288  0.41826170  0.58547749  1
  Al  Al46  1  0.91359495  0.92607302  0.08792471  1
  Al  Al47  1  0.91794514  0.90771986  0.58774021  1
  Al  Al48  1  0.42553934  0.08589932  0.41529527  1
  Al  Al49  1  0.41542858  0.08605066  0.91241903  1
  Al  Al50  1  0.41545610  0.57660517  0.40927423  1
  Al  Al51  1  0.41864711  0.58566557  0.91737960  1
  Al  Al52  1  0.91656972  0.08460977  0.41550469  1
  Al  Al53  1  0.92659570  0.08510525  0.91934964  1
  Al  Al54  1  0.90510068  0.58711351  0.42296065  1
  Al  Al55  1  0.90757308  0.57741318  0.91350648  1
  Al  Al56  1  0.08218316  0.41759107  0.40386148  1
  Al  Al57  1  0.08496773  0.40559221  0.91778698  1
  Al  Al58  1  0.07563167  0.92149746  0.41584584  1
  Al  Al59  1  0.08457023  0.91416163  0.91495902  1
  Al  Al60  1  0.58884042  0.41354137  0.40765937  1
  Al  Al61  1  0.57688839  0.42073746  0.90279415  1
  Al  Al62  1  0.57923570  0.91478078  0.41820424  1
  Al  Al63  1  0.57452537  0.91816408  0.92341515  1
  Al  Al64  1  0.07942205  0.08142356  0.41391682  1
  Al  Al65  1  0.08415295  0.08919829  0.91650444  1
  Al  Al66  1  0.08456872  0.57361852  0.41255687  1
  Al  Al67  1  0.08514710  0.58282158  0.91927968  1
  Al  Al68  1  0.58664002  0.09768129  0.41935066  1
  Al  Al69  1  0.56966759  0.08866399  0.91417095  1
  Al  Al70  1  0.59448725  0.58019578  0.41148102  1
  Al  Al71  1  0.58203903  0.58384192  0.90440442  1
  Al  Al72  1  0.42315311  0.41627055  0.40422804  1
  Al  Al73  1  0.41519640  0.41084720  0.91842922  1
  Al  Al74  1  0.42028391  0.91275190  0.41666164  1
  Al  Al75  1  0.41310251  0.91867376  0.92062458  1
  Al  Al76  1  0.91753563  0.41729174  0.41354855  1
  Al  Al77  1  0.92145966  0.41709499  0.90534415  1
  Al  Al78  1  0.91588552  0.91516281  0.42036728  1
  Al  Al79  1  0.92775311  0.91756034  0.91975831  1
  Al  Al80  1  0.08887071  0.40680439  0.08270446  1
  Al  Al81  1  0.07600263  0.42114079  0.58676818  1
  Al  Al82  1  0.08019012  0.92087541  0.07941738  1
  Al  Al83  1  0.07568078  0.91315826  0.59464949  1
  Al  Al84  1  0.57936596  0.42148675  0.09811769  1
  Al  Al85  1  0.59160431  0.41360009  0.58027015  1
  Al  Al86  1  0.57998213  0.91785901  0.08655934  1
  Al  Al87  1  0.58459798  0.91782863  0.58017722  1
  Al  Al88  1  0.41837316  0.08539717  0.08697440  1
  Al  Al89  1  0.42722174  0.08442506  0.57797020  1
  Al  Al90  1  0.41833714  0.58663963  0.08191426  1
  Al  Al91  1  0.42978370  0.59076953  0.58767203  1
  Al  Al92  1  0.91789036  0.08478167  0.09662948  1
  Al  Al93  1  0.91761597  0.07719997  0.57645565  1
  Al  Al94  1  0.91480352  0.57939801  0.07699994  1
  Al  Al95  1  0.90930088  0.59079670  0.58426462  1
  Al  Al96  1  0.24794267  0.13894005  0.13399612  1
  Al  Al97  1  0.25150776  0.13956066  0.64035524  1
  Al  Al98  1  0.25501329  0.62901285  0.13373463  1
  Al  Al99  1  0.24873329  0.63754466  0.63571523  1
  Al  Al100  1  0.75185880  0.13092927  0.13623108  1
  Al  Al101  1  0.74448654  0.13846724  0.63610806  1
  Al  Al102  1  0.74159601  0.63085836  0.13443551  1
  Al  Al103  1  0.75007247  0.63371857  0.63302158  1
  Al  Al104  1  0.25177938  0.36738452  0.13000197  1
  Al  Al105  1  0.25303686  0.36363902  0.63617631  1
  Al  Al106  1  0.25252943  0.86109086  0.12916727  1
  Al  Al107  1  0.25148183  0.86026201  0.63986272  1
  Al  Al108  1  0.73873239  0.36868692  0.13890032  1
  Al  Al109  1  0.74549099  0.36512056  0.63176977  1
  Al  Al110  1  0.74607748  0.86869587  0.13629391  1
  Al  Al111  1  0.75002822  0.86203242  0.63497524  1
  Al  Al112  1  0.25243031  0.13524626  0.36105718  1
  Al  Al113  1  0.25193438  0.13972417  0.86775232  1
  Al  Al114  1  0.25205550  0.63100949  0.36586421  1
  Al  Al115  1  0.25183604  0.63356168  0.86545334  1
  Al  Al116  1  0.74319754  0.13515751  0.36627198  1
  Al  Al117  1  0.74920083  0.14317282  0.86688816  1
  Al  Al118  1  0.74746294  0.62900213  0.36652079  1
  Al  Al119  1  0.74520938  0.62804912  0.86152920  1
  Al  Al120  1  0.25219684  0.36911011  0.36470009  1
  Al  Al121  1  0.25206761  0.36364685  0.87129266  1
  Al  Al122  1  0.25050052  0.86643510  0.36050731  1
  Al  Al123  1  0.24924785  0.86073104  0.87078639  1
  Al  Al124  1  0.74716775  0.36979970  0.36867439  1
  Al  Al125  1  0.74773782  0.37055555  0.86399921  1
  Al  Al126  1  0.74885538  0.86522460  0.36562582  1
  Al  Al127  1  0.74668454  0.85907301  0.86436474  1
  Al  Al128  1  0.13625680  0.25697223  0.13125956  1
  Al  Al129  1  0.13706918  0.25737935  0.63562909  1
  Al  Al130  1  0.13674608  0.74714447  0.13506921  1
  Al  Al131  1  0.13229199  0.74886844  0.63568759  1
  Al  Al132  1  0.63315545  0.24583794  0.13817279  1
  Al  Al133  1  0.62969441  0.25297231  0.63441750  1
  Al  Al134  1  0.62996270  0.74828480  0.13564538  1
  Al  Al135  1  0.63448257  0.74061114  0.63058666  1
  Al  Al136  1  0.13764706  0.25442978  0.36676223  1
  Al  Al137  1  0.13688408  0.25470578  0.87242463  1
  Al  Al138  1  0.13633838  0.74619802  0.36302349  1
  Al  Al139  1  0.12928016  0.75059398  0.86542271  1
  Al  Al140  1  0.63456629  0.25474089  0.36627494  1
  Al  Al141  1  0.62953959  0.25384879  0.86486753  1
  Al  Al142  1  0.63745534  0.74172033  0.36721623  1
  Al  Al143  1  0.63417536  0.74310267  0.86943726  1
  Al  Al144  1  0.36484059  0.25380470  0.13344845  1
  Al  Al145  1  0.37316934  0.25289231  0.63626126  1
  Al  Al146  1  0.36962829  0.74649621  0.13256109  1
  Al  Al147  1  0.36628183  0.74431388  0.63696558  1
  Al  Al148  1  0.86080430  0.25394468  0.13460289  1
  Al  Al149  1  0.86104014  0.25715885  0.63225939  1
  Al  Al150  1  0.86117676  0.74708712  0.13675121  1
  Al  Al151  1  0.86216814  0.74704757  0.63130623  1
  Al  Al152  1  0.36813828  0.25642909  0.36059515  1
  Al  Al153  1  0.36860959  0.25564710  0.87003392  1
  Al  Al154  1  0.36538895  0.74432128  0.36204527  1
  Al  Al155  1  0.36363583  0.74456068  0.87502750  1
  Al  Al156  1  0.86063850  0.25172012  0.36784682  1
  Al  Al157  1  0.86445776  0.25477929  0.86396481  1
  Al  Al158  1  0.86012362  0.74687754  0.36847508  1
  Al  Al159  1  0.86894420  0.74901934  0.86285181  1
  Al  Al160  1  0.13495035  0.13925949  0.24994600  1
  Al  Al161  1  0.13752799  0.13948982  0.75443286  1
  Al  Al162  1  0.13760761  0.63117167  0.25196640  1
  Al  Al163  1  0.13445903  0.63476641  0.75518780  1
  Al  Al164  1  0.63531430  0.13098264  0.24916907  1
  Al  Al165  1  0.62902037  0.14057276  0.75063362  1
  Al  Al166  1  0.63629129  0.62886710  0.24948454  1
  Al  Al167  1  0.63197456  0.63494558  0.75064901  1
  Al  Al168  1  0.36838211  0.13887663  0.24692686  1
  Al  Al169  1  0.37276594  0.14197361  0.75464647  1
  Al  Al170  1  0.36578966  0.62986471  0.24743029  1
  Al  Al171  1  0.36959718  0.63635011  0.75433831  1
  Al  Al172  1  0.86320815  0.13629638  0.25150955  1
  Al  Al173  1  0.86107877  0.13907508  0.74823244  1
  Al  Al174  1  0.85999140  0.63222249  0.25251428  1
  Al  Al175  1  0.86208863  0.63295228  0.75362039  1
  Al  Al176  1  0.13705648  0.36610115  0.24994104  1
  Al  Al177  1  0.13558005  0.36434521  0.75869887  1
  Al  Al178  1  0.13582370  0.86196777  0.24636545  1
  Al  Al179  1  0.13310037  0.86279145  0.75202865  1
  Al  Al180  1  0.63245892  0.36682580  0.25589860  1
  Al  Al181  1  0.62985136  0.36570049  0.75233284  1
  Al  Al182  1  0.63569417  0.86957287  0.24809120  1
  Al  Al183  1  0.63412582  0.85929272  0.74758986  1
  Al  Al184  1  0.36330427  0.37128065  0.24827384  1
  Al  Al185  1  0.37344021  0.36366261  0.75413389  1
  Al  Al186  1  0.36576877  0.86175862  0.24644867  1
  Al  Al187  1  0.36502685  0.85955863  0.75654528  1
  Al  Al188  1  0.86052303  0.36779349  0.25068021  1
  Al  Al189  1  0.86132972  0.36720516  0.75301661  1
  Al  Al190  1  0.86250376  0.86272298  0.24802632  1
  Al  Al191  1  0.87016517  0.86016641  0.74781036  1
  Al  Al192  1  0.81896833  0.49748321  0.17470997  1
  Al  Al193  1  0.50231087  0.18991827  0.30925555  1
  Al  Al194  1  0.32909024  0.17582446  0.49934372  1
  Al  Al195  1  0.32777219  0.33129722  0.49690800  1
  Al  Al196  1  -0.00005154  0.17785851  0.66760126  1
  Al  Al197  1  0.67234096  0.16993969  0.00073703  1
  Al  Al198  1  -0.00222694  0.66939789  0.32780615  1
  Al  Al199  1  0.82265751  0.83090903  0.00129669  1
  Al  Al200  1  0.81600584  0.67324194  -0.00212064  1
  Al  Al201  1  0.33300213  0.00093957  0.67507448  1
  Al  Al202  1  0.32550707  0.81843344  0.49904135  1
  Al  Al203  1  0.50220447  0.82028810  0.31926632  1
  Al  Al204  1  0.17890836  0.66709341  0.49907563  1
  Al  Al205  1  0.17844831  -0.00137259  0.31863896  1
  Al  Al206  1  0.32042423  0.00085175  0.18098711  1
  Al  Al207  1  0.67364681  0.49988546  0.68438115  1
  Al  Al208  1  0.32381336  0.17782737  0.00118649  1
  Al  Al209  1  0.82114929  -0.00087109  0.31636244  1
  Al  Al210  1  -0.00179360  0.82238456  0.32401327  1
  Al  Al211  1  0.17121089  0.17401471  0.50240122  1
  Al  Al212  1  0.32605596  0.50164611  0.67689446  1
  Al  Al213  1  0.66846435  0.00175686  0.82859790  1
  Al  Al214  1  0.49964551  0.81024752  0.67257017  1
  Al  Al215  1  0.49917454  0.80937283  0.82721078  1
  Al  Al216  1  0.16954607  0.82896403  0.50123125  1
  Al  Al217  1  0.32272001  0.49882526  0.82902767  1
  Al  Al218  1  0.49927657  0.31287338  0.18948577  1
  Al  Al219  1  -0.00103428  0.32718958  0.69032286  1
  Al  Al220  1  0.50174581  0.66738364  0.31647199  1
  Al  Al221  1  0.67858055  0.81793351  0.49673045  1
  Al  Al222  1  0.17495844  -0.00039751  0.68352966  1
  Al  Al223  1  0.82854667  0.00008127  0.82862672  1
  Al  Al224  1  -0.00039730  0.19305999  0.18229163  1
  Al  Al225  1  0.82590438  -0.00104236  0.67178681  1
  Al  Al226  1  0.17240478  0.49992026  0.68239420  1
  Al  Al227  1  0.82529747  0.50001943  0.68212897  1
  Al  Al228  1  -0.00164524  0.32090789  0.30900134  1
  Al  Al229  1  0.81204346  0.17946430  0.50177518  1
  Al  Al230  1  0.00079974  0.19115748  0.82496747  1
  Al  Al231  1  -0.00000121  0.68049345  0.17193183  1
  Al  Al232  1  0.18092928  0.49835126  0.17653844  1
  Al  Al233  1  -0.00251417  0.68455202  0.68225191  1
  Al  Al234  1  0.83091438  0.32556889  -0.00089574  1
  Al  Al235  1  0.66875384  0.33163168  -0.00044466  1
  Al  Al236  1  0.31840659  0.00039668  0.82547029  1
  Al  Al237  1  0.18868825  0.67792881  -0.00011186  1
  Al  Al238  1  0.67331498  0.00073906  0.67189547  1
  Au  Au239  1  0.33124865  0.82291334  0.00227094  1
  Au  Au240  1  -0.00379081  0.66195806  0.82973246  1
  Au  Au241  1  0.33634369  0.18000486  -0.00012298  1
  Au  Au242  1  0.66159062  0.34803268  -0.00153604  1
  Au  Au243  1  0.66563896  0.65719288  0.00016992  1
  Au  Au244  1  0.17311537  0.00241706  0.16265608  1
  Au  Au245  1  0.34035562  0.32824302  0.49621456  1
  Au  Au246  1  0.16286929  0.82288061  0.00192213  1
  Au  Au247  1  0.83870497  0.82512918  0.00252078  1
  Au  Au248  1  0.50055212  0.82415918  0.66221664  1
  Au  Au249  1  0.34167851  0.00018515  0.32945887  1
  Au  Au250  1  0.49898214  0.82538714  0.17169156  1
  Au  Au251  1  0.65987552  0.17266087  0.00078028  1
  Au  Au252  1  0.17358586  0.84538444  0.50455466  1
  Au  Au253  1  0.82711963  0.49927453  0.16529175  1
  Au  Au254  1  -0.00171817  0.84420344  0.17700924  1
  Au  Au255  1  0.32567894  0.00110016  0.65961313  1
  Au  Au256  1  0.84465351  0.00138409  0.82229876  1
  Au  Au257  1  0.34090539  0.50042295  0.17464267  1
  Au  Au258  1  0.16792384  0.66093036  0.49903640  1
  Au  Au259  1  0.81907070  0.16387780  0.50134613  1
  Au  Au260  1  0.33563359  0.50272415  0.66349361  1
  Au  Au261  1  0.83503397  0.16129834  0.00382633  1
  Au  Au262  1  0.49607555  0.82251805  0.83780661  1
  Au  Au263  1  0.66288115  0.82930352  0.00183563  1
  Au  Au264  1  0.16711302  -0.00100404  0.32426877  1
  Au  Au265  1  0.16861567  0.00194114  0.83305642  1
  Au  Au266  1  0.82301901  0.33945035  0.50048919  1
  Au  Au267  1  0.83702751  0.33652968  -0.00081793  1
  Au  Au268  1  0.00112144  0.82979900  0.81939763  1
  Au  Au269  1  -0.00063451  0.66368496  0.17001422  1
  Au  Au270  1  0.66895433  0.82563019  0.49905276  1
  Au  Au271  1  0.17717697  0.15793901  0.50269572  1
  Au  Au272  1  0.50118615  0.16811048  0.67537773  1
  Au  Au273  1  0.65261538  0.00224812  0.82253602  1
  Au  Au274  1  0.34324305  0.67044722  0.49796172  1
  Au  Au275  1  0.50364362  0.33547714  0.67610046  1
  Au  Au276  1  0.83488296  0.81951497  0.50093823  1
  Au  Au277  1  0.66204972  0.00178854  0.33507471  1
  Au  Au278  1  -0.00065168  0.17619713  0.32979626  1
  Au  Au279  1  0.16924265  0.49869672  0.17147482  1
  Au  Au280  1  0.16461735  0.18142446  0.00226556  1
  Au  Au281  1  0.82265178  0.50108065  0.33283772  1
  Au  Au282  1  0.83689710  -0.00249208  0.32246262  1
  Au  Au283  1  0.16339369  0.34273921  0.50040062  1
  Au  Au284  1  0.50184826  0.18399930  0.32502752  1
  Au  Au285  1  0.16890621  0.49544553  0.83554876  1
  Au  Au286  1  0.67342948  0.00169537  0.16492219  1
  Au  Au287  1  -0.00073861  0.16313873  0.67618723  1
