# generated using pymatgen
data_Ca24Ti8Al207Au49
_symmetry_space_group_name_H-M   'P 1'
_cell_length_a   17.32094638
_cell_length_b   17.32197038
_cell_length_c   17.32317266
_cell_angle_alpha   89.99965540
_cell_angle_beta   89.99854536
_cell_angle_gamma   90.00291773
_symmetry_Int_Tables_number   1
_chemical_formula_structural   Ca24Ti8Al207Au49
_chemical_formula_sum   'Ca24 Ti8 Al207 Au49'
_cell_volume   5197.52207262
_cell_formula_units_Z   1
loop_
 _symmetry_equiv_pos_site_id
 _symmetry_equiv_pos_as_xyz
  1  'x, y, z'
loop_
 _atom_site_type_symbol
 _atom_site_label
 _atom_site_symmetry_multiplicity
 _atom_site_fract_x
 _atom_site_fract_y
 _atom_site_fract_z
 _atom_site_occupancy
  Ca  Ca0  1  0.25684286  0.00046025  0.00027411  1
  Ca  Ca1  1  0.25284474  0.00148639  0.50160841  1
  Ca  Ca2  1  0.25672086  0.50137997  0.00347865  1
  Ca  Ca3  1  0.24918202  0.49350404  0.49370136  1
  Ca  Ca4  1  0.74786916  0.00153509  -0.00136346  1
  Ca  Ca5  1  0.75194381  0.00257435  0.49830421  1
  Ca  Ca6  1  0.75091595  0.49758757  0.00776338  1
  Ca  Ca7  1  0.75319484  0.49374288  0.49602744  1
  Ca  Ca8  1  -0.00391574  0.25313693  0.00173120  1
  Ca  Ca9  1  -0.00192672  0.25236843  0.49841982  1
  Ca  Ca10  1  -0.00229125  0.74245467  0.00271246  1
  Ca  Ca11  1  -0.00395154  0.74777064  0.49790502  1
  Ca  Ca12  1  0.50142460  0.25053940  0.00239868  1
  Ca  Ca13  1  0.50109845  0.24912907  0.49542997  1
  Ca  Ca14  1  0.50324372  0.74701057  0.00683691  1
  Ca  Ca15  1  0.50115329  0.75063282  0.49541582  1
  Ca  Ca16  1  -0.00319873  -0.00031807  0.25197633  1
  Ca  Ca17  1  -0.00240724  0.00205318  0.74797311  1
  Ca  Ca18  1  -0.00136075  0.49839753  0.25069765  1
  Ca  Ca19  1  0.00264772  0.49983136  0.75158851  1
  Ca  Ca20  1  0.50064657  0.00372805  0.25067994  1
  Ca  Ca21  1  0.50289143  0.01040592  0.75234613  1
  Ca  Ca22  1  0.50054295  0.49634089  0.24706754  1
  Ca  Ca23  1  0.49819279  0.49621667  0.75717022  1
  Ti  Ti24  1  0.25090301  0.25248921  0.25035207  1
  Ti  Ti25  1  0.24798647  0.25028830  0.74926156  1
  Ti  Ti26  1  0.24903857  0.74632671  0.24972345  1
  Ti  Ti27  1  0.24601951  0.74897890  0.75150502  1
  Ti  Ti28  1  0.75000812  0.25149488  0.25095919  1
  Ti  Ti29  1  0.75184685  0.24990188  0.74995239  1
  Ti  Ti30  1  0.75201938  0.74766154  0.24949476  1
  Ti  Ti31  1  0.75382180  0.75018188  0.75158754  1
  Al  Al32  1  0.07302753  0.08725855  0.09290786  1
  Al  Al33  1  0.07680768  0.08558745  0.57910946  1
  Al  Al34  1  0.07698577  0.58871086  0.08691236  1
  Al  Al35  1  0.08795312  0.58798886  0.56933254  1
  Al  Al36  1  0.58791148  0.09277186  0.07667419  1
  Al  Al37  1  0.58587360  0.09360847  0.58934637  1
  Al  Al38  1  0.59182013  0.58035205  0.09140256  1
  Al  Al39  1  0.58011052  0.57270930  0.56872110  1
  Al  Al40  1  0.42341303  0.40602257  0.08326358  1
  Al  Al41  1  0.40380436  0.40941189  0.57592266  1
  Al  Al42  1  0.41913742  0.91601791  0.08156493  1
  Al  Al43  1  0.42475924  0.93405382  0.57739882  1
  Al  Al44  1  0.91141094  0.42395485  0.09328672  1
  Al  Al45  1  0.91428532  0.40327288  0.57746898  1
  Al  Al46  1  0.91386284  0.91387774  0.08172097  1
  Al  Al47  1  0.90998657  0.92544161  0.58499076  1
  Al  Al48  1  0.41839985  0.08646049  0.41699053  1
  Al  Al49  1  0.42185889  0.09300720  0.91186593  1
  Al  Al50  1  0.41914359  0.57579964  0.41429929  1
  Al  Al51  1  0.40574914  0.57646246  0.91972758  1
  Al  Al52  1  0.91076360  0.08279853  0.41098003  1
  Al  Al53  1  0.91121729  0.08348083  0.92128523  1
  Al  Al54  1  0.92314563  0.57472732  0.41391707  1
  Al  Al55  1  0.90272534  0.58388403  0.92373037  1
  Al  Al56  1  0.08257081  0.41769763  0.40939794  1
  Al  Al57  1  0.07963581  0.41901704  0.91705119  1
  Al  Al58  1  0.07484144  0.91746928  0.41461181  1
  Al  Al59  1  0.07586867  0.91860971  0.92357289  1
  Al  Al60  1  0.57932054  0.40821253  0.40580657  1
  Al  Al61  1  0.58388821  0.41753804  0.92892722  1
  Al  Al62  1  0.58663802  0.92137528  0.40944801  1
  Al  Al63  1  0.57902423  0.92782981  0.92013248  1
  Al  Al64  1  0.07928809  0.08460794  0.41694756  1
  Al  Al65  1  0.07501126  0.07919295  0.92132681  1
  Al  Al66  1  0.09466493  0.58036142  0.40994653  1
  Al  Al67  1  0.08222428  0.58077307  0.92440915  1
  Al  Al68  1  0.58921196  0.08417955  0.41604862  1
  Al  Al69  1  0.58519634  0.09506442  0.91312439  1
  Al  Al70  1  0.58306199  0.57749692  0.41182414  1
  Al  Al71  1  0.58701645  0.57898314  0.93025316  1
  Al  Al72  1  0.41462643  0.40309762  0.41275048  1
  Al  Al73  1  0.40849605  0.41451658  0.92097960  1
  Al  Al74  1  0.42815384  0.92592061  0.40880026  1
  Al  Al75  1  0.41812598  0.92215866  0.92047160  1
  Al  Al76  1  0.91879081  0.40605300  0.41344178  1
  Al  Al77  1  0.91102593  0.42399739  0.91072955  1
  Al  Al78  1  0.91394446  0.91929691  0.40975455  1
  Al  Al79  1  0.90935547  0.91710100  0.92062573  1
  Al  Al80  1  0.07694736  0.41810330  0.08518224  1
  Al  Al81  1  0.07356652  0.41253063  0.57780466  1
  Al  Al82  1  0.07686033  0.91944973  0.08407604  1
  Al  Al83  1  0.07491714  0.92064596  0.57797536  1
  Al  Al84  1  0.58880633  0.41094971  0.09405182  1
  Al  Al85  1  0.57909293  0.41346614  0.57204306  1
  Al  Al86  1  0.57961540  0.92174687  0.08188682  1
  Al  Al87  1  0.58750422  0.93047818  0.57873093  1
  Al  Al88  1  0.42128422  0.08753270  0.07756871  1
  Al  Al89  1  0.42365670  0.09642024  0.59055190  1
  Al  Al90  1  0.42142311  0.58496884  0.07985152  1
  Al  Al91  1  0.41357785  0.56696792  0.57752147  1
  Al  Al92  1  0.91423126  0.09112458  0.08625913  1
  Al  Al93  1  0.90983921  0.08496374  0.58832775  1
  Al  Al94  1  0.90732073  0.58764059  0.08863870  1
  Al  Al95  1  0.92616554  0.57450281  0.57773232  1
  Al  Al96  1  0.25296389  0.14280840  0.13956508  1
  Al  Al97  1  0.25012091  0.13128739  0.63920408  1
  Al  Al98  1  0.25104177  0.63185998  0.13662765  1
  Al  Al99  1  0.24484231  0.63545858  0.63610280  1
  Al  Al100  1  0.74474037  0.13836679  0.13599060  1
  Al  Al101  1  0.75327061  0.13242267  0.63603445  1
  Al  Al102  1  0.75591050  0.62999990  0.13697020  1
  Al  Al103  1  0.75201033  0.63283315  0.63894932  1
  Al  Al104  1  0.25479515  0.36649897  0.13845896  1
  Al  Al105  1  0.25051424  0.36113608  0.63512299  1
  Al  Al106  1  0.24946302  0.86188872  0.13714184  1
  Al  Al107  1  0.24574463  0.86895788  0.63810999  1
  Al  Al108  1  0.75024994  0.36617477  0.13792237  1
  Al  Al109  1  0.75284196  0.36165078  0.62746952  1
  Al  Al110  1  0.75548919  0.86600089  0.13532016  1
  Al  Al111  1  0.75255764  0.87120161  0.63719379  1
  Al  Al112  1  0.24988056  0.14115003  0.36419482  1
  Al  Al113  1  0.24929145  0.13895048  0.86143926  1
  Al  Al114  1  0.24632126  0.62521696  0.36399790  1
  Al  Al115  1  0.25201696  0.63316149  0.86582723  1
  Al  Al116  1  0.75239515  0.13978595  0.36479214  1
  Al  Al117  1  0.74981411  0.13669631  0.86243187  1
  Al  Al118  1  0.75264347  0.62313803  0.35793808  1
  Al  Al119  1  0.75655400  0.62863386  0.86614936  1
  Al  Al120  1  0.25064704  0.36763896  0.36059850  1
  Al  Al121  1  0.25419737  0.36541482  0.86356738  1
  Al  Al122  1  0.24618387  0.86130783  0.36375503  1
  Al  Al123  1  0.24964562  0.86237208  0.86284243  1
  Al  Al124  1  0.75119215  0.36893542  0.36500901  1
  Al  Al125  1  0.75160824  0.36677429  0.86440395  1
  Al  Al126  1  0.75248221  0.86425018  0.36349906  1
  Al  Al127  1  0.75352178  0.86503469  0.86449749  1
  Al  Al128  1  0.12807333  0.25778023  0.13852489  1
  Al  Al129  1  0.12947697  0.25211900  0.63450737  1
  Al  Al130  1  0.12904186  0.74626745  0.13784788  1
  Al  Al131  1  0.13069282  0.74699694  0.63482068  1
  Al  Al132  1  0.62895525  0.25359904  0.13965099  1
  Al  Al133  1  0.63566468  0.25090840  0.63480864  1
  Al  Al134  1  0.63924344  0.74655484  0.13659140  1
  Al  Al135  1  0.63890474  0.74855092  0.63715471  1
  Al  Al136  1  0.13094196  0.25549088  0.36343474  1
  Al  Al137  1  0.12847078  0.25228535  0.86385213  1
  Al  Al138  1  0.13495619  0.74008677  0.36732801  1
  Al  Al139  1  0.12911339  0.74965359  0.86629946  1
  Al  Al140  1  0.63108245  0.25574671  0.36181839  1
  Al  Al141  1  0.63438437  0.24405217  0.86606568  1
  Al  Al142  1  0.63886924  0.74619185  0.36032527  1
  Al  Al143  1  0.64085328  0.74770908  0.86490128  1
  Al  Al144  1  0.37212409  0.25557632  0.13693208  1
  Al  Al145  1  0.36229510  0.24815709  0.63047553  1
  Al  Al146  1  0.36402087  0.74615462  0.13310862  1
  Al  Al147  1  0.36085501  0.74674782  0.63658237  1
  Al  Al148  1  0.86802755  0.25253887  0.13793013  1
  Al  Al149  1  0.86715767  0.24877332  0.63010941  1
  Al  Al150  1  0.87119081  0.74401056  0.13835177  1
  Al  Al151  1  0.87175395  0.74942181  0.64094633  1
  Al  Al152  1  0.36853065  0.25364816  0.36694307  1
  Al  Al153  1  0.36584579  0.24983096  0.86493905  1
  Al  Al154  1  0.36206819  0.74351691  0.36340404  1
  Al  Al155  1  0.36228391  0.74781944  0.86421318  1
  Al  Al156  1  0.86615059  0.25460436  0.36927643  1
  Al  Al157  1  0.86958967  0.25053797  0.86471481  1
  Al  Al158  1  0.86511276  0.74427306  0.36057171  1
  Al  Al159  1  0.86986428  0.74649294  0.86472982  1
  Al  Al160  1  0.13338533  0.13671011  0.24725110  1
  Al  Al161  1  0.12757767  0.13753006  0.74721070  1
  Al  Al162  1  0.12995005  0.63185359  0.25132749  1
  Al  Al163  1  0.12742888  0.63660899  0.75676500  1
  Al  Al164  1  0.62893281  0.13932112  0.25207353  1
  Al  Al165  1  0.63336701  0.13782741  0.74614662  1
  Al  Al166  1  0.63854228  0.62526756  0.24661050  1
  Al  Al167  1  0.63917169  0.63272925  0.75647037  1
  Al  Al168  1  0.37370240  0.14136802  0.25187806  1
  Al  Al169  1  0.37000555  0.14054532  0.74948923  1
  Al  Al170  1  0.36285470  0.62555897  0.25206006  1
  Al  Al171  1  0.36442998  0.63331329  0.75274134  1
  Al  Al172  1  0.86370160  0.13596947  0.24977973  1
  Al  Al173  1  0.87078070  0.13838271  0.74750333  1
  Al  Al174  1  0.87092652  0.62737021  0.24810837  1
  Al  Al175  1  0.87022576  0.63166157  0.75237792  1
  Al  Al176  1  0.13029953  0.36918093  0.25255760  1
  Al  Al177  1  0.13058409  0.36473799  0.75303653  1
  Al  Al178  1  0.13320564  0.86354510  0.24842888  1
  Al  Al179  1  0.12611914  0.86217053  0.74831720  1
  Al  Al180  1  0.63598925  0.37003985  0.24774100  1
  Al  Al181  1  0.63605381  0.36370025  0.75468965  1
  Al  Al182  1  0.63763726  0.86521612  0.24715328  1
  Al  Al183  1  0.63964763  0.86478645  0.74935369  1
  Al  Al184  1  0.37015689  0.36720311  0.25157514  1
  Al  Al185  1  0.36738763  0.36243378  0.75102067  1
  Al  Al186  1  0.36406665  0.86355781  0.24907971  1
  Al  Al187  1  0.36270811  0.86452459  0.74768083  1
  Al  Al188  1  0.86875639  0.36571774  0.25086136  1
  Al  Al189  1  0.86837914  0.36032770  0.74959363  1
  Al  Al190  1  0.86629487  0.86630588  0.25063742  1
  Al  Al191  1  0.86909806  0.86530916  0.75005224  1
  Al  Al192  1  0.81981689  0.00187436  0.17780043  1
  Al  Al193  1  0.82934093  0.67713052  0.50195384  1
  Al  Al194  1  0.50073193  0.67840943  0.18238059  1
  Al  Al195  1  0.67300632  0.67371552  0.49760625  1
  Al  Al196  1  0.81149343  0.17913536  0.00078358  1
  Al  Al197  1  0.50127890  0.81808516  0.31782059  1
  Al  Al198  1  0.18305476  0.49899619  0.82638327  1
  Al  Al199  1  0.82246775  0.80796446  0.00141209  1
  Al  Al200  1  0.17102415  0.81630268  0.49999259  1
  Al  Al201  1  0.82617652  0.00179710  0.81620424  1
  Al  Al202  1  0.18902647  0.32885246  0.00089765  1
  Al  Al203  1  0.69226411  0.67639037  0.00205413  1
  Al  Al204  1  0.32412942  0.49743308  0.68672999  1
  Al  Al205  1  0.67123986  0.82955757  -0.00099641  1
  Al  Al206  1  0.18478752  0.67521823  0.00183803  1
  Al  Al207  1  0.32991900  0.82965154  0.49953256  1
  Al  Al208  1  0.50117387  0.67043468  0.83390534  1
  Al  Al209  1  0.69187181  0.00280507  0.31697084  1
  Al  Al210  1  0.67798795  0.31127240  0.00203960  1
  Al  Al211  1  0.17042935  0.82652146  0.00190323  1
  Al  Al212  1  0.32366826  0.81557145  -0.00070044  1
  Al  Al213  1  0.17223363  0.00072667  0.18081198  1
  Al  Al214  1  0.18156915  0.17562560  0.50045369  1
  Al  Al215  1  0.82593045  0.82867154  0.50014892  1
  Al  Al216  1  0.50207083  0.83075688  0.67007303  1
  Al  Al217  1  0.67174113  0.82818190  0.49914941  1
  Al  Al218  1  0.82956128  0.49522679  0.68043589  1
  Al  Al219  1  0.67329020  0.00195547  0.82002763  1
  Al  Al220  1  0.32124934  0.00205926  0.32404145  1
  Al  Al221  1  0.50128060  0.82708810  0.82872449  1
  Al  Al222  1  0.16927430  0.17578252  0.00317007  1
  Al  Al223  1  -0.00026893  0.81597388  0.31715716  1
  Al  Al224  1  0.49987981  0.66673360  0.66854724  1
  Al  Al225  1  0.17495812  0.50153049  0.17652511  1
  Al  Al226  1  0.32562192  0.18638616  0.00049436  1
  Al  Al227  1  0.17135170  -0.00007839  0.82147780  1
  Al  Al228  1  0.82861141  0.33126583  0.00099614  1
  Al  Al229  1  0.32897721  0.00383653  0.17166876  1
  Al  Al230  1  0.16730331  0.49675150  0.66820329  1
  Al  Al231  1  0.50135841  0.31638455  0.83154002  1
  Al  Al232  1  -0.00207557  0.18598261  0.31540512  1
  Al  Al233  1  0.68079527  0.18310946  0.49937911  1
  Al  Al234  1  0.66821026  0.49838540  0.68208446  1
  Al  Al235  1  0.31439072  0.67044219  0.50026701  1
  Al  Al236  1  0.49798880  0.31615245  0.67076698  1
  Al  Al237  1  0.32834662  0.00276789  0.82155599  1
  Al  Al238  1  0.17960340  0.33002280  0.49713955  1
  Au  Au239  1  -0.00175059  0.17621374  0.66602768  1
  Au  Au240  1  0.67874420  0.00459212  0.67025319  1
  Au  Au241  1  0.17708729  0.49668116  0.65398634  1
  Au  Au242  1  0.67769077  0.49864065  0.84434226  1
  Au  Au243  1  0.16256343  0.50376294  0.17708674  1
  Au  Au244  1  0.50023745  0.17844368  0.16446643  1
  Au  Au245  1  -0.00311802  0.33857772  0.82535430  1
  Au  Au246  1  0.50315747  0.84582241  0.67649030  1
  Au  Au247  1  0.82357961  0.66159429  0.49779670  1
  Au  Au248  1  -0.00282729  0.17035198  0.83554626  1
  Au  Au249  1  -0.00093246  0.82328053  0.16708927  1
  Au  Au250  1  0.32823158  0.82768364  -0.00081283  1
  Au  Au251  1  0.17392562  0.33702626  0.00138196  1
  Au  Au252  1  0.66111510  0.00440879  0.17159539  1
  Au  Au253  1  0.82853463  0.16999679  0.49882239  1
  Au  Au254  1  0.33478229  0.17551154  0.49992133  1
  Au  Au255  1  -0.00210173  0.17067389  0.32316395  1
  Au  Au256  1  0.50282224  0.17568008  0.33378600  1
  Au  Au257  1  0.16707434  0.00029640  0.66125926  1
  Au  Au258  1  0.50115271  0.32871235  0.84199147  1
  Au  Au259  1  0.67450921  0.33091438  0.49430442  1
  Au  Au260  1  0.00443495  0.66787810  0.66302650  1
  Au  Au261  1  0.17346013  -0.00152720  0.33959818  1
  Au  Au262  1  0.49864363  0.66317742  0.65280018  1
  Au  Au263  1  -0.00410706  0.32818740  0.17178030  1
  Au  Au264  1  0.66652454  0.49661303  0.32204876  1
  Au  Au265  1  0.83243912  0.00077277  0.17992581  1
  Au  Au266  1  -0.00250459  0.83057055  0.83792696  1
  Au  Au267  1  0.49648480  0.67047396  0.84940466  1
  Au  Au268  1  -0.00510393  0.83726658  0.66895839  1
  Au  Au269  1  0.84507934  0.49301814  0.67425525  1
  Au  Au270  1  0.83610183  0.49319719  0.32425849  1
  Au  Au271  1  0.49549355  0.32235503  0.65579037  1
  Au  Au272  1  0.17319480  -0.00445565  0.83775401  1
  Au  Au273  1  0.33858164  0.49647133  0.16317743  1
  Au  Au274  1  0.66607497  0.49719918  0.66491650  1
  Au  Au275  1  0.16946968  0.17902707  0.49892495  1
  Au  Au276  1  0.17491864  0.15937668  0.00523658  1
  Au  Au277  1  0.50052749  0.67020730  0.33170049  1
  Au  Au278  1  0.17918125  0.50402385  0.83756489  1
  Au  Au279  1  -0.00489056  0.66043201  0.83741446  1
  Au  Au280  1  0.50144111  0.82970900  0.16995721  1
  Au  Au281  1  0.33848238  0.00638840  0.67267402  1
  Au  Au282  1  0.32089469  0.65480806  0.49959270  1
  Au  Au283  1  0.15500764  0.82131662  0.49816980  1
  Au  Au284  1  0.34290866  0.83972029  0.49429414  1
  Au  Au285  1  0.00276515  0.66676536  0.32873965  1
  Au  Au286  1  0.32832518  0.49372494  0.33242339  1
  Au  Au287  1  0.17451985  0.00203590  0.16820338  1
