# generated using pymatgen
data_Ca24Ti8Al207Au49
_symmetry_space_group_name_H-M   'P 1'
_cell_length_a   17.32589842
_cell_length_b   17.32463659
_cell_length_c   17.32473662
_cell_angle_alpha   89.99859321
_cell_angle_beta   89.99854988
_cell_angle_gamma   89.99915095
_symmetry_Int_Tables_number   1
_chemical_formula_structural   Ca24Ti8Al207Au49
_chemical_formula_sum   'Ca24 Ti8 Al207 Au49'
_cell_volume   5200.27772278
_cell_formula_units_Z   1
loop_
 _symmetry_equiv_pos_site_id
 _symmetry_equiv_pos_as_xyz
  1  'x, y, z'
loop_
 _atom_site_type_symbol
 _atom_site_label
 _atom_site_symmetry_multiplicity
 _atom_site_fract_x
 _atom_site_fract_y
 _atom_site_fract_z
 _atom_site_occupancy
  Ca  Ca0  1  0.25522819  0.00284999  0.00264287  1
  Ca  Ca1  1  0.24833082  0.00140488  0.49828926  1
  Ca  Ca2  1  0.24923048  0.49776518  0.00024278  1
  Ca  Ca3  1  0.24820624  0.50087438  0.50082537  1
  Ca  Ca4  1  0.74441471  0.00459458  0.00291907  1
  Ca  Ca5  1  0.74280404  0.00214401  0.49533771  1
  Ca  Ca6  1  0.74375362  0.49529987  -0.00409332  1
  Ca  Ca7  1  0.74823872  0.49834935  0.49844337  1
  Ca  Ca8  1  0.00067872  0.24747161  0.00147113  1
  Ca  Ca9  1  -0.00112455  0.24388353  0.49780775  1
  Ca  Ca10  1  -0.00176523  0.74449696  0.00083870  1
  Ca  Ca11  1  -0.00063055  0.75033975  0.49714719  1
  Ca  Ca12  1  0.50038105  0.24762509  0.00018256  1
  Ca  Ca13  1  0.50129350  0.24717968  0.50006256  1
  Ca  Ca14  1  0.49827641  0.75173861  0.00093613  1
  Ca  Ca15  1  0.50167544  0.75280380  0.49777247  1
  Ca  Ca16  1  0.00079369  0.00164161  0.25507067  1
  Ca  Ca17  1  0.00025115  0.00082754  0.74405081  1
  Ca  Ca18  1  -0.00700063  0.49684567  0.25125438  1
  Ca  Ca19  1  -0.00251933  0.50173760  0.74789054  1
  Ca  Ca20  1  0.50161180  0.00259311  0.25157170  1
  Ca  Ca21  1  0.49778716  0.00312910  0.75076947  1
  Ca  Ca22  1  0.50452003  0.49892778  0.25184373  1
  Ca  Ca23  1  0.50193605  0.49686150  0.75211645  1
  Ti  Ti24  1  0.25216097  0.24705760  0.24856996  1
  Ti  Ti25  1  0.25205365  0.24919320  0.75003026  1
  Ti  Ti26  1  0.25084328  0.75293398  0.25144950  1
  Ti  Ti27  1  0.25034283  0.74949040  0.74790713  1
  Ti  Ti28  1  0.74794276  0.24946324  0.25070803  1
  Ti  Ti29  1  0.74842527  0.24993666  0.74992554  1
  Ti  Ti30  1  0.74834953  0.75051441  0.25258731  1
  Ti  Ti31  1  0.75015519  0.74801436  0.74795164  1
  Al  Al32  1  0.08720362  0.08526952  0.08683832  1
  Al  Al33  1  0.09513324  0.08225416  0.57977854  1
  Al  Al34  1  0.08007066  0.57706625  0.08074330  1
  Al  Al35  1  0.08356080  0.58472854  0.57945855  1
  Al  Al36  1  0.57775102  0.08950566  0.09314570  1
  Al  Al37  1  0.58219490  0.09706984  0.57592827  1
  Al  Al38  1  0.58572394  0.58026422  0.08428208  1
  Al  Al39  1  0.58923850  0.57498720  0.58093789  1
  Al  Al40  1  0.42108703  0.41514686  0.08042917  1
  Al  Al41  1  0.42673720  0.40879557  0.59434107  1
  Al  Al42  1  0.41614638  0.92442255  0.09304298  1
  Al  Al43  1  0.41794728  0.91756890  0.58159159  1
  Al  Al44  1  0.91409981  0.41760069  0.08964303  1
  Al  Al45  1  0.91239231  0.42169702  0.57930014  1
  Al  Al46  1  0.92148158  0.92779082  0.08544447  1
  Al  Al47  1  0.92246602  0.91497534  0.57224250  1
  Al  Al48  1  0.42325641  0.08688388  0.40945679  1
  Al  Al49  1  0.41604889  0.09282084  0.92668927  1
  Al  Al50  1  0.42462314  0.58218966  0.41885034  1
  Al  Al51  1  0.42631255  0.57783662  0.91419357  1
  Al  Al52  1  0.91760464  0.08394699  0.41574531  1
  Al  Al53  1  0.91518120  0.09369475  0.92418319  1
  Al  Al54  1  0.90618515  0.58607973  0.41551948  1
  Al  Al55  1  0.91491429  0.57474437  0.90655402  1
  Al  Al56  1  0.07587925  0.42233273  0.41961816  1
  Al  Al57  1  0.08502267  0.42168712  0.91844128  1
  Al  Al58  1  0.09140077  0.92001391  0.41879442  1
  Al  Al59  1  0.07677996  0.92114119  0.91757813  1
  Al  Al60  1  0.58971277  0.41742008  0.41261956  1
  Al  Al61  1  0.58809042  0.41373950  0.90540488  1
  Al  Al62  1  0.58643808  0.91652335  0.40925857  1
  Al  Al63  1  0.57723966  0.90991546  0.91165660  1
  Al  Al64  1  0.09004493  0.08320038  0.41610444  1
  Al  Al65  1  0.07879043  0.08518233  0.92102117  1
  Al  Al66  1  0.08062106  0.58714054  0.41977707  1
  Al  Al67  1  0.08357088  0.57818614  0.91607641  1
  Al  Al68  1  0.58764290  0.08849831  0.41066858  1
  Al  Al69  1  0.57748216  0.08734727  0.91879582  1
  Al  Al70  1  0.59072041  0.58086641  0.41077650  1
  Al  Al71  1  0.58901476  0.57838061  0.90886278  1
  Al  Al72  1  0.42734819  0.41737509  0.41775752  1
  Al  Al73  1  0.42484548  0.40765135  0.91083899  1
  Al  Al74  1  0.42097182  0.91402681  0.41184443  1
  Al  Al75  1  0.42425210  0.91221647  0.91696772  1
  Al  Al76  1  0.91013016  0.42271309  0.41516301  1
  Al  Al77  1  0.90955212  0.42201734  0.91434090  1
  Al  Al78  1  0.91492021  0.92093342  0.41703427  1
  Al  Al79  1  0.92419043  0.92141830  0.91753665  1
  Al  Al80  1  0.07779381  0.41744739  0.08478703  1
  Al  Al81  1  0.07964511  0.42060033  0.58107801  1
  Al  Al82  1  0.08292649  0.92533132  0.08701833  1
  Al  Al83  1  0.09246896  0.91843902  0.58032586  1
  Al  Al84  1  0.58525925  0.41639901  0.08343197  1
  Al  Al85  1  0.58542821  0.41027060  0.59297005  1
  Al  Al86  1  0.57810740  0.92044432  0.08787877  1
  Al  Al87  1  0.57825420  0.91405323  0.57340441  1
  Al  Al88  1  0.41267648  0.08799097  0.09137170  1
  Al  Al89  1  0.42127117  0.09046517  0.58968752  1
  Al  Al90  1  0.42496784  0.57806887  0.08331030  1
  Al  Al91  1  0.42007902  0.57538619  0.57811707  1
  Al  Al92  1  0.90961111  0.08790629  0.08204971  1
  Al  Al93  1  0.92320479  0.08829022  0.57494223  1
  Al  Al94  1  0.91417772  0.57278882  0.09094952  1
  Al  Al95  1  0.90684849  0.58574162  0.57872899  1
  Al  Al96  1  0.25425067  0.12982428  0.13202273  1
  Al  Al97  1  0.25482064  0.13425364  0.63224346  1
  Al  Al98  1  0.25122052  0.63597370  0.13920636  1
  Al  Al99  1  0.24911107  0.63018285  0.63609501  1
  Al  Al100  1  0.74332640  0.13705162  0.13075717  1
  Al  Al101  1  0.74256788  0.14010334  0.62682369  1
  Al  Al102  1  0.74871928  0.63373804  0.13829466  1
  Al  Al103  1  0.75108137  0.63305467  0.63005094  1
  Al  Al104  1  0.25345420  0.35995688  0.13491529  1
  Al  Al105  1  0.25281239  0.36805222  0.63737370  1
  Al  Al106  1  0.25192723  0.87379015  0.13954473  1
  Al  Al107  1  0.25144842  0.87162114  0.63227521  1
  Al  Al108  1  0.74979047  0.36423923  0.13622791  1
  Al  Al109  1  0.74877902  0.36295928  0.63538410  1
  Al  Al110  1  0.74409573  0.86460190  0.13618906  1
  Al  Al111  1  0.74917762  0.86509838  0.63385793  1
  Al  Al112  1  0.25234881  0.13398900  0.36819700  1
  Al  Al113  1  0.25367463  0.13676233  0.86923706  1
  Al  Al114  1  0.24966311  0.63736471  0.36329290  1
  Al  Al115  1  0.25110656  0.63625606  0.86224178  1
  Al  Al116  1  0.74362807  0.13595642  0.37110123  1
  Al  Al117  1  0.74368012  0.13777017  0.86860087  1
  Al  Al118  1  0.74718615  0.63605438  0.36915284  1
  Al  Al119  1  0.74881398  0.63028199  0.86202710  1
  Al  Al120  1  0.25175747  0.36079998  0.36352816  1
  Al  Al121  1  0.25360270  0.36243256  0.86446260  1
  Al  Al122  1  0.24617712  0.86975091  0.36746914  1
  Al  Al123  1  0.25123353  0.86494449  0.86319231  1
  Al  Al124  1  0.74463814  0.36358290  0.36423071  1
  Al  Al125  1  0.74769362  0.36636425  0.86398082  1
  Al  Al126  1  0.74746624  0.86601176  0.36584897  1
  Al  Al127  1  0.74805115  0.86657699  0.86429212  1
  Al  Al128  1  0.13917911  0.24331701  0.13182573  1
  Al  Al129  1  0.13524129  0.24537660  0.63335528  1
  Al  Al130  1  0.13570740  0.75381892  0.14002389  1
  Al  Al131  1  0.13735445  0.75417210  0.63324862  1
  Al  Al132  1  0.62764262  0.24666561  0.13994857  1
  Al  Al133  1  0.62863483  0.25213877  0.63798815  1
  Al  Al134  1  0.63501459  0.74932126  0.14004308  1
  Al  Al135  1  0.63750757  0.74751645  0.63459382  1
  Al  Al136  1  0.13681409  0.24252393  0.36412272  1
  Al  Al137  1  0.13795543  0.24744556  0.86773454  1
  Al  Al138  1  0.13528914  0.75536192  0.36389731  1
  Al  Al139  1  0.13634165  0.74783896  0.86179564  1
  Al  Al140  1  0.62795433  0.24463026  0.36417313  1
  Al  Al141  1  0.62611511  0.25080685  0.86265043  1
  Al  Al142  1  0.62915860  0.75049861  0.36390044  1
  Al  Al143  1  0.63757461  0.75144724  0.86378263  1
  Al  Al144  1  0.37060581  0.24309461  0.13158959  1
  Al  Al145  1  0.36842048  0.24895861  0.63558052  1
  Al  Al146  1  0.36414092  0.75196136  0.13830267  1
  Al  Al147  1  0.36153041  0.75214372  0.63677600  1
  Al  Al148  1  0.86196322  0.24530411  0.13337755  1
  Al  Al149  1  0.86856579  0.24875388  0.63673113  1
  Al  Al150  1  0.86539778  0.75174893  0.13851905  1
  Al  Al151  1  0.86434362  0.74769676  0.62904521  1
  Al  Al152  1  0.37098570  0.24411773  0.36255224  1
  Al  Al153  1  0.37094856  0.24937072  0.86444179  1
  Al  Al154  1  0.37050437  0.75500744  0.36275766  1
  Al  Al155  1  0.36530915  0.75263271  0.86257907  1
  Al  Al156  1  0.86177044  0.24676873  0.36342945  1
  Al  Al157  1  0.86163500  0.24907537  0.86539152  1
  Al  Al158  1  0.86080398  0.74826900  0.36941926  1
  Al  Al159  1  0.86306195  0.74530305  0.86462074  1
  Al  Al160  1  0.14160368  0.12755084  0.25000732  1
  Al  Al161  1  0.14003431  0.13484043  0.74447679  1
  Al  Al162  1  0.13572587  0.63675593  0.25136866  1
  Al  Al163  1  0.12983495  0.63617367  0.74658825  1
  Al  Al164  1  0.63582071  0.12916200  0.25279332  1
  Al  Al165  1  0.62797101  0.13760251  0.74944816  1
  Al  Al166  1  0.63108356  0.63314534  0.25470285  1
  Al  Al167  1  0.63714788  0.63221777  0.75286063  1
  Al  Al168  1  0.36692241  0.13166343  0.24615839  1
  Al  Al169  1  0.37076188  0.13643771  0.74842495  1
  Al  Al170  1  0.37241010  0.63820043  0.25211538  1
  Al  Al171  1  0.36279819  0.62812994  0.75111299  1
  Al  Al172  1  0.86034582  0.13474441  0.24927689  1
  Al  Al173  1  0.86100575  0.13780535  0.74859694  1
  Al  Al174  1  0.86106256  0.63425120  0.25052390  1
  Al  Al175  1  0.86486724  0.63068862  0.74802362  1
  Al  Al176  1  0.13630842  0.35991007  0.25123427  1
  Al  Al177  1  0.13464250  0.36201648  0.74529016  1
  Al  Al178  1  0.13600701  0.87430177  0.25045740  1
  Al  Al179  1  0.13815381  0.86633298  0.74642338  1
  Al  Al180  1  0.62837538  0.36351469  0.25194201  1
  Al  Al181  1  0.63144699  0.36423496  0.75247510  1
  Al  Al182  1  0.63364748  0.87131796  0.25511468  1
  Al  Al183  1  0.63558261  0.86550988  0.75133421  1
  Al  Al184  1  0.37367873  0.35797986  0.24954343  1
  Al  Al185  1  0.36832729  0.36483226  0.74968069  1
  Al  Al186  1  0.36568717  0.86936296  0.25102270  1
  Al  Al187  1  0.36394086  0.86767172  0.74888491  1
  Al  Al188  1  0.86218681  0.36384890  0.24964336  1
  Al  Al189  1  0.86102224  0.37017796  0.75009815  1
  Al  Al190  1  0.86247543  0.86550260  0.25168674  1
  Al  Al191  1  0.86445352  0.86156784  0.75024732  1
  Al  Al192  1  0.82521489  0.00548732  0.83141214  1
  Al  Al193  1  0.00002421  0.31774061  0.17663833  1
  Al  Al194  1  0.17307301  0.67195737  0.00174689  1
  Al  Al195  1  0.32690746  0.67117628  0.49952007  1
  Al  Al196  1  0.17840571  0.82821982  0.00134707  1
  Al  Al197  1  0.31760109  0.00133076  0.31715759  1
  Al  Al198  1  0.00061594  0.82914449  0.33254955  1
  Al  Al199  1  -0.00300992  0.67530646  0.32196711  1
  Al  Al200  1  0.31665126  0.82386102  0.49887768  1
  Al  Al201  1  0.32916082  0.00204076  0.82448810  1
  Al  Al202  1  0.32777861  0.49784110  0.17284888  1
  Al  Al203  1  0.17134988  0.00189372  0.81769368  1
  Al  Al204  1  0.67119249  0.67771705  -0.00031726  1
  Al  Al205  1  0.49949778  0.82194450  0.18685087  1
  Al  Al206  1  -0.00024698  0.82149967  0.17672311  1
  Al  Al207  1  0.66681060  0.00217826  0.67243196  1
  Al  Al208  1  0.81652328  0.00172264  0.32665668  1
  Al  Al209  1  0.80862612  0.49969281  0.31327002  1
  Al  Al210  1  -0.00231276  0.32618552  0.32934686  1
  Al  Al211  1  0.00221951  0.17267141  0.31812963  1
  Al  Al212  1  0.17257773  0.31418129  0.49897376  1
  Al  Al213  1  0.67121668  0.31714932  0.50031616  1
  Al  Al214  1  0.50151429  0.68563889  0.82747681  1
  Al  Al215  1  0.68024560  0.81640905  0.49872211  1
  Al  Al216  1  0.68622746  0.49870331  0.19004353  1
  Al  Al217  1  0.32844090  0.67737347  0.00032216  1
  Al  Al218  1  0.82786897  0.00064676  0.67374570  1
  Al  Al219  1  0.82041104  0.83085894  0.00098315  1
  Al  Al220  1  0.67268094  0.31701308  -0.00029865  1
  Al  Al221  1  0.81603848  0.00137787  0.17462803  1
  Al  Al222  1  0.17553972  0.68776663  0.49869325  1
  Al  Al223  1  0.00046550  0.17447276  0.81907488  1
  Al  Al224  1  0.32972123  0.83036185  0.00359225  1
  Al  Al225  1  0.32154745  0.49980665  0.32936352  1
  Al  Al226  1  0.18254858  0.49931702  0.81925051  1
  Al  Al227  1  -0.00013900  0.32811276  0.82014791  1
  Al  Al228  1  0.82523218  0.66569533  0.00180760  1
  Al  Al229  1  0.00012458  0.81880877  0.82498401  1
  Al  Al230  1  0.32312914  0.32271498  -0.00049356  1
  Al  Al231  1  0.82411461  0.31981071  0.49905909  1
  Al  Al232  1  0.68067386  0.49793788  0.68663850  1
  Al  Al233  1  0.49847237  0.67441749  0.67886792  1
  Al  Al234  1  0.50051283  0.82722813  0.68444445  1
  Al  Al235  1  0.32996390  0.31817464  0.50042357  1
  Al  Al236  1  0.17397080  0.49772636  0.17857237  1
  Al  Al237  1  0.00176576  0.82295976  0.66896968  1
  Al  Al238  1  0.82825670  0.32109515  0.00052418  1
  Au  Au239  1  0.65579971  0.82681963  0.00246179  1
  Au  Au240  1  0.49780089  0.17575814  0.82722556  1
  Au  Au241  1  0.82912492  0.82582248  0.49694923  1
  Au  Au242  1  -0.00040885  0.83350505  0.17235530  1
  Au  Au243  1  0.65920671  0.00247599  0.66088581  1
  Au  Au244  1  0.82492624  0.33368925  0.00103350  1
  Au  Au245  1  0.00076597  0.67010947  0.83626389  1
  Au  Au246  1  0.50142196  0.66896752  0.66356979  1
  Au  Au247  1  0.50330870  0.32238115  0.33320080  1
  Au  Au248  1  0.00781399  0.16186543  0.66900174  1
  Au  Au249  1  0.33752621  0.33392896  0.50218483  1
  Au  Au250  1  0.83579063  0.00073503  0.65813491  1
  Au  Au251  1  0.82496197  0.17180576  0.49717056  1
  Au  Au252  1  0.50117706  0.67701024  0.33612165  1
  Au  Au253  1  -0.00512534  0.33047581  0.66037160  1
  Au  Au254  1  0.67924861  0.49882720  0.17438196  1
  Au  Au255  1  0.66832672  0.16878123  0.00230535  1
  Au  Au256  1  0.15701924  0.50163678  0.32607762  1
  Au  Au257  1  0.67549024  0.66537817  0.49924107  1
  Au  Au258  1  0.83646601  0.00135445  0.83513260  1
  Au  Au259  1  -0.00410191  0.66991814  0.66110356  1
  Au  Au260  1  0.50197400  0.67403763  0.16731303  1
  Au  Au261  1  0.32714096  0.00234969  0.66155479  1
  Au  Au262  1  0.50016554  0.32369518  0.16601544  1
  Au  Au263  1  0.66752683  0.00061085  0.17672736  1
  Au  Au264  1  0.17696534  0.16407247  -0.00139513  1
  Au  Au265  1  0.15457253  0.00201984  0.82088641  1
  Au  Au266  1  0.16390435  0.50084807  0.67245274  1
  Au  Au267  1  0.17571380  0.00161310  0.17495105  1
  Au  Au268  1  -0.00002983  0.65910551  0.17385761  1
  Au  Au269  1  0.15943981  0.32467988  0.49631895  1
  Au  Au270  1  0.00367105  0.83460947  0.67329900  1
  Au  Au271  1  0.33259602  0.49570100  0.83416554  1
  Au  Au272  1  0.33033230  0.16156229  0.49860872  1
  Au  Au273  1  -0.00030447  0.33098539  0.83638259  1
  Au  Au274  1  0.16782875  0.33266616  0.00280962  1
  Au  Au275  1  0.33760959  0.00140263  0.83831910  1
  Au  Au276  1  0.82713886  0.50020251  0.67385434  1
  Au  Au277  1  0.66233563  0.00021244  0.83611951  1
  Au  Au278  1  0.33348515  0.49730694  0.66698169  1
  Au  Au279  1  0.83518081  0.83871983  0.00222612  1
  Au  Au280  1  0.16177785  0.82978046  -0.00258382  1
  Au  Au281  1  0.82447810  0.64993815  -0.00211548  1
  Au  Au282  1  0.33548072  0.31888757  -0.00030940  1
  Au  Au283  1  0.32907146  0.82740879  0.49842816  1
  Au  Au284  1  0.33314751  0.66175701  -0.00109583  1
  Au  Au285  1  0.33762422  0.49938384  0.32386908  1
  Au  Au286  1  0.33266435  0.00111404  0.32449523  1
  Au  Au287  1  -0.00280204  0.16939386  0.16867444  1
