# generated using pymatgen
data_Ca24Ti8Al207Au49
_symmetry_space_group_name_H-M   'P 1'
_cell_length_a   17.32264382
_cell_length_b   17.32298492
_cell_length_c   17.32106666
_cell_angle_alpha   90.00099102
_cell_angle_beta   89.99641445
_cell_angle_gamma   90.00068869
_symmetry_Int_Tables_number   1
_chemical_formula_structural   Ca24Ti8Al207Au49
_chemical_formula_sum   'Ca24 Ti8 Al207 Au49'
_cell_volume   5197.70389942
_cell_formula_units_Z   1
loop_
 _symmetry_equiv_pos_site_id
 _symmetry_equiv_pos_as_xyz
  1  'x, y, z'
loop_
 _atom_site_type_symbol
 _atom_site_label
 _atom_site_symmetry_multiplicity
 _atom_site_fract_x
 _atom_site_fract_y
 _atom_site_fract_z
 _atom_site_occupancy
  Ca  Ca0  1  0.24677955  0.00243564  -0.00154652  1
  Ca  Ca1  1  0.24429669  0.00431276  0.50115939  1
  Ca  Ca2  1  0.24940931  0.49961462  -0.00349201  1
  Ca  Ca3  1  0.24887290  0.49339723  0.49953637  1
  Ca  Ca4  1  0.75120045  0.00030334  -0.00078066  1
  Ca  Ca5  1  0.75143962  0.00050019  0.49708872  1
  Ca  Ca6  1  0.75299661  0.50189592  0.00118847  1
  Ca  Ca7  1  0.75117988  0.50034473  0.49884662  1
  Ca  Ca8  1  0.00570724  0.24899502  -0.00037739  1
  Ca  Ca9  1  0.00035459  0.25126818  0.49941506  1
  Ca  Ca10  1  -0.00029489  0.74958387  -0.00395849  1
  Ca  Ca11  1  0.00007321  0.74288919  0.50538695  1
  Ca  Ca12  1  0.49742543  0.25364146  0.00108016  1
  Ca  Ca13  1  0.49742990  0.25371192  0.49821586  1
  Ca  Ca14  1  0.50055135  0.74960804  -0.00230075  1
  Ca  Ca15  1  0.50317767  0.74455844  0.50129606  1
  Ca  Ca16  1  0.00024380  0.00202776  0.25625145  1
  Ca  Ca17  1  0.00312538  -0.00025235  0.75143449  1
  Ca  Ca18  1  -0.00417597  0.49542388  0.25633871  1
  Ca  Ca19  1  0.00129449  0.50214178  0.74625309  1
  Ca  Ca20  1  0.49874570  0.00418230  0.25266288  1
  Ca  Ca21  1  0.49815482  -0.00096233  0.75108481  1
  Ca  Ca22  1  0.50344623  0.49800596  0.25414285  1
  Ca  Ca23  1  0.49874354  0.50439669  0.74473007  1
  Ti  Ti24  1  0.25038654  0.24959261  0.25039411  1
  Ti  Ti25  1  0.24969516  0.25025628  0.75044152  1
  Ti  Ti26  1  0.25027479  0.75060101  0.25019246  1
  Ti  Ti27  1  0.24983979  0.74994144  0.75053707  1
  Ti  Ti28  1  0.74991927  0.25131259  0.25431351  1
  Ti  Ti29  1  0.75145050  0.25030217  0.74581989  1
  Ti  Ti30  1  0.74928388  0.74853970  0.25215266  1
  Ti  Ti31  1  0.74956045  0.74969768  0.74814899  1
  Al  Al32  1  0.09002954  0.09054775  0.07314155  1
  Al  Al33  1  0.08451465  0.09021233  0.59003482  1
  Al  Al34  1  0.08265736  0.57524259  0.07402071  1
  Al  Al35  1  0.08304190  0.59146635  0.58637457  1
  Al  Al36  1  0.57766982  0.07650403  0.08129131  1
  Al  Al37  1  0.57826340  0.07899962  0.57705838  1
  Al  Al38  1  0.59133980  0.57400420  0.09336420  1
  Al  Al39  1  0.58493890  0.59107848  0.58522485  1
  Al  Al40  1  0.42191018  0.41281025  0.08137269  1
  Al  Al41  1  0.40577472  0.41723615  0.58091372  1
  Al  Al42  1  0.41581485  0.92459013  0.07991226  1
  Al  Al43  1  0.42525032  0.92361821  0.58305944  1
  Al  Al44  1  0.91485431  0.41391004  0.09055303  1
  Al  Al45  1  0.91530205  0.42231902  0.58954349  1
  Al  Al46  1  0.91045593  0.92634799  0.07742481  1
  Al  Al47  1  0.91726864  0.90839625  0.57493169  1
  Al  Al48  1  0.40816755  0.09423805  0.41903252  1
  Al  Al49  1  0.40850243  0.08622800  0.92139686  1
  Al  Al50  1  0.42621718  0.56688551  0.43114527  1
  Al  Al51  1  0.41468628  0.58802213  0.90610151  1
  Al  Al52  1  0.91551615  0.07905476  0.40810785  1
  Al  Al53  1  0.92908077  0.08309580  0.90368201  1
  Al  Al54  1  0.91151931  0.57866467  0.41619349  1
  Al  Al55  1  0.92290076  0.58971382  0.90390137  1
  Al  Al56  1  0.08791109  0.41498547  0.42118772  1
  Al  Al57  1  0.08439848  0.41275687  0.92065283  1
  Al  Al58  1  0.09124312  0.92445488  0.42013564  1
  Al  Al59  1  0.08642731  0.92479333  0.90698936  1
  Al  Al60  1  0.58123274  0.41674812  0.40348212  1
  Al  Al61  1  0.57799921  0.42382884  0.92303596  1
  Al  Al62  1  0.60036471  0.92279001  0.41426628  1
  Al  Al63  1  0.58604742  0.91818849  0.90589496  1
  Al  Al64  1  0.08506856  0.08466083  0.41337284  1
  Al  Al65  1  0.09178141  0.08890905  0.90753591  1
  Al  Al66  1  0.08813599  0.58392490  0.42477696  1
  Al  Al67  1  0.07999792  0.59002322  0.91081677  1
  Al  Al68  1  0.58788743  0.08127065  0.41057120  1
  Al  Al69  1  0.58579389  0.07455271  0.90645692  1
  Al  Al70  1  0.60154565  0.57852100  0.42224965  1
  Al  Al71  1  0.57221527  0.58763952  0.91031649  1
  Al  Al72  1  0.41559883  0.40288550  0.41710156  1
  Al  Al73  1  0.41103101  0.42079458  0.91846087  1
  Al  Al74  1  0.41836051  0.93163110  0.42147335  1
  Al  Al75  1  0.41943017  0.91837190  0.91578172  1
  Al  Al76  1  0.91409546  0.42113542  0.41294313  1
  Al  Al77  1  0.91712180  0.41788527  0.91717623  1
  Al  Al78  1  0.89828972  0.91772972  0.41579644  1
  Al  Al79  1  0.92147502  0.92164717  0.91297899  1
  Al  Al80  1  0.08047395  0.40826537  0.08048826  1
  Al  Al81  1  0.08640795  0.41131890  0.58064260  1
  Al  Al82  1  0.08280155  0.92609124  0.07103894  1
  Al  Al83  1  0.08217844  0.91677219  0.58366249  1
  Al  Al84  1  0.58683868  0.41818483  0.09820348  1
  Al  Al85  1  0.57798322  0.42734917  0.57488979  1
  Al  Al86  1  0.58200846  0.92105339  0.08132338  1
  Al  Al87  1  0.58525931  0.91296236  0.57925400  1
  Al  Al88  1  0.40544191  0.08675851  0.07874870  1
  Al  Al89  1  0.40827988  0.08719137  0.57571814  1
  Al  Al90  1  0.42050206  0.57796942  0.07352065  1
  Al  Al91  1  0.42037638  0.58002296  0.59546066  1
  Al  Al92  1  0.92361834  0.07959822  0.08905054  1
  Al  Al93  1  0.92648245  0.08885238  0.58561331  1
  Al  Al94  1  0.91158158  0.57132482  0.08267040  1
  Al  Al95  1  0.91536077  0.58581051  0.59348594  1
  Al  Al96  1  0.24919769  0.13511941  0.13189940  1
  Al  Al97  1  0.24920726  0.13671447  0.63549826  1
  Al  Al98  1  0.25145919  0.63303722  0.13547545  1
  Al  Al99  1  0.25087355  0.63488309  0.63723893  1
  Al  Al100  1  0.74506181  0.13556661  0.13798002  1
  Al  Al101  1  0.75390553  0.13546708  0.62873921  1
  Al  Al102  1  0.74794573  0.63321117  0.13520999  1
  Al  Al103  1  0.74997900  0.63494116  0.63420144  1
  Al  Al104  1  0.25143331  0.36459192  0.13403745  1
  Al  Al105  1  0.24883993  0.36161481  0.63052414  1
  Al  Al106  1  0.25076184  0.86525964  0.12921968  1
  Al  Al107  1  0.24843801  0.86247928  0.63808065  1
  Al  Al108  1  0.74619565  0.36735759  0.13931328  1
  Al  Al109  1  0.75275173  0.36323376  0.62946755  1
  Al  Al110  1  0.74761000  0.86399325  0.13124470  1
  Al  Al111  1  0.75084518  0.86280987  0.62774103  1
  Al  Al112  1  0.25136234  0.13460875  0.36821137  1
  Al  Al113  1  0.24554120  0.13467370  0.86617255  1
  Al  Al114  1  0.24668417  0.63463405  0.36755079  1
  Al  Al115  1  0.25030154  0.63641880  0.86152818  1
  Al  Al116  1  0.75060548  0.13596990  0.37052240  1
  Al  Al117  1  0.74724285  0.13525865  0.86078005  1
  Al  Al118  1  0.74855087  0.62887974  0.36689347  1
  Al  Al119  1  0.75429686  0.63506575  0.86402610  1
  Al  Al120  1  0.25247081  0.36269344  0.37045136  1
  Al  Al121  1  0.25134633  0.36243572  0.86468897  1
  Al  Al122  1  0.25064704  0.87170466  0.36487664  1
  Al  Al123  1  0.24850264  0.86161742  0.86926992  1
  Al  Al124  1  0.74726369  0.36879296  0.37004331  1
  Al  Al125  1  0.75409478  0.36524413  0.86249955  1
  Al  Al126  1  0.75055325  0.86462746  0.37087074  1
  Al  Al127  1  0.74921507  0.86114634  0.86717165  1
  Al  Al128  1  0.13561829  0.24448876  0.13516407  1
  Al  Al129  1  0.13119184  0.24954381  0.63579815  1
  Al  Al130  1  0.13510960  0.75656211  0.13592082  1
  Al  Al131  1  0.13476480  0.74559458  0.63564176  1
  Al  Al132  1  0.63626689  0.25275468  0.13947799  1
  Al  Al133  1  0.63598343  0.24996849  0.62764163  1
  Al  Al134  1  0.63089468  0.74915379  0.13873479  1
  Al  Al135  1  0.63379340  0.74787124  0.62849500  1
  Al  Al136  1  0.13642986  0.25476622  0.36898931  1
  Al  Al137  1  0.13109945  0.24352907  0.86604503  1
  Al  Al138  1  0.13779029  0.74881463  0.36628452  1
  Al  Al139  1  0.13235314  0.74724429  0.86199656  1
  Al  Al140  1  0.63229156  0.25308075  0.36919060  1
  Al  Al141  1  0.63479937  0.25507624  0.86303916  1
  Al  Al142  1  0.63927664  0.74565310  0.37489938  1
  Al  Al143  1  0.63205005  0.74647572  0.86399363  1
  Al  Al144  1  0.36085285  0.24829733  0.12959226  1
  Al  Al145  1  0.36264616  0.25156686  0.62835891  1
  Al  Al146  1  0.36827576  0.75288051  0.13727068  1
  Al  Al147  1  0.37216923  0.73983426  0.63662418  1
  Al  Al148  1  0.86147065  0.25047348  0.13936812  1
  Al  Al149  1  0.86992085  0.25068886  0.63254221  1
  Al  Al150  1  0.86011272  0.75053685  0.13243513  1
  Al  Al151  1  0.86570549  0.74673894  0.63415523  1
  Al  Al152  1  0.36576142  0.25157516  0.36929569  1
  Al  Al153  1  0.36313423  0.24626260  0.87028565  1
  Al  Al154  1  0.36575623  0.74811846  0.36488972  1
  Al  Al155  1  0.36969425  0.75010215  0.86205064  1
  Al  Al156  1  0.86171271  0.25243376  0.37305014  1
  Al  Al157  1  0.86603169  0.24664313  0.85807174  1
  Al  Al158  1  0.86152736  0.75113514  0.36731406  1
  Al  Al159  1  0.86502632  0.74709006  0.86549658  1
  Al  Al160  1  0.13799743  0.13564172  0.25518612  1
  Al  Al161  1  0.13292745  0.13607622  0.75107809  1
  Al  Al162  1  0.13694344  0.63731773  0.24908111  1
  Al  Al163  1  0.12899375  0.63546669  0.74781685  1
  Al  Al164  1  0.63449888  0.13613419  0.26018792  1
  Al  Al165  1  0.63290219  0.13883631  0.74916190  1
  Al  Al166  1  0.63683639  0.63179222  0.25178483  1
  Al  Al167  1  0.63273579  0.63757347  0.74568950  1
  Al  Al168  1  0.36373661  0.13770438  0.25604919  1
  Al  Al169  1  0.36511893  0.13968483  0.74943867  1
  Al  Al170  1  0.36653485  0.63703637  0.24950492  1
  Al  Al171  1  0.36742926  0.63483297  0.75047652  1
  Al  Al172  1  0.86304838  0.13617913  0.25418735  1
  Al  Al173  1  0.86826317  0.13497789  0.74625508  1
  Al  Al174  1  0.86138381  0.63482041  0.25412199  1
  Al  Al175  1  0.86583528  0.63355793  0.74723179  1
  Al  Al176  1  0.13803197  0.36236172  0.25014805  1
  Al  Al177  1  0.13483582  0.36211207  0.74829822  1
  Al  Al178  1  0.13719637  0.86653118  0.25452077  1
  Al  Al179  1  0.13461967  0.86409944  0.75102484  1
  Al  Al180  1  0.63733673  0.37016965  0.25565068  1
  Al  Al181  1  0.63437491  0.36318116  0.74430065  1
  Al  Al182  1  0.63936191  0.86272573  0.25608674  1
  Al  Al183  1  0.63571628  0.86132547  0.75133153  1
  Al  Al184  1  0.36459626  0.36217203  0.25368095  1
  Al  Al185  1  0.36264133  0.36414540  0.74525951  1
  Al  Al186  1  0.36408731  0.86592437  0.25212650  1
  Al  Al187  1  0.36766335  0.86306294  0.74884495  1
  Al  Al188  1  0.86207237  0.36658722  0.25748040  1
  Al  Al189  1  0.86569711  0.37058281  0.74548775  1
  Al  Al190  1  0.86166875  0.86482777  0.25373985  1
  Al  Al191  1  0.86283996  0.86161570  0.74974630  1
  Al  Al192  1  0.68294910  0.49960219  0.66885992  1
  Al  Al193  1  0.32823462  0.49893430  0.32973803  1
  Al  Al194  1  0.18192906  0.31178409  -0.00044073  1
  Al  Al195  1  0.82122713  0.32516404  0.00126556  1
  Al  Al196  1  0.32375928  0.49950353  0.17238143  1
  Al  Al197  1  -0.00114662  0.31746329  0.18442034  1
  Al  Al198  1  0.50082519  0.82124239  0.67855204  1
  Al  Al199  1  0.81362761  0.49892629  0.18793031  1
  Al  Al200  1  -0.00236173  0.83421193  0.17289595  1
  Al  Al201  1  0.32542800  0.00037211  0.67264748  1
  Al  Al202  1  0.16760152  0.00144760  0.18352505  1
  Al  Al203  1  0.82488649  0.00090875  0.18640501  1
  Al  Al204  1  0.50134857  0.83040843  0.32581977  1
  Al  Al205  1  0.32549393  0.00141903  0.18250517  1
  Al  Al206  1  0.50358535  0.66661647  0.32803881  1
  Al  Al207  1  0.18377067  0.18447377  0.50110711  1
  Al  Al208  1  0.67815590  0.50052792  0.82378358  1
  Al  Al209  1  0.17189442  0.49959972  0.82730523  1
  Al  Al210  1  0.82898593  -0.00185714  0.66911333  1
  Al  Al211  1  -0.00012737  0.18216350  0.32049065  1
  Al  Al212  1  0.81811830  0.68083327  0.49915062  1
  Al  Al213  1  0.17311346  0.81634027  0.50137187  1
  Al  Al214  1  0.31933305  0.66859699  0.49988681  1
  Al  Al215  1  -0.00158708  0.66877543  0.17088967  1
  Al  Al216  1  0.18833644  0.49885580  0.67203030  1
  Al  Al217  1  0.00005728  0.67294115  0.32968090  1
  Al  Al218  1  -0.00103925  0.81933100  0.82391656  1
  Al  Al219  1  0.00003397  0.81588481  0.67250858  1
  Al  Al220  1  0.49602185  0.17725361  0.82579638  1
  Al  Al221  1  -0.00132344  0.32013528  0.82198743  1
  Al  Al222  1  0.50058787  0.32673819  0.67262783  1
  Al  Al223  1  0.00050808  0.83106085  0.33551883  1
  Al  Al224  1  0.17386402  0.49961570  0.32234614  1
  Al  Al225  1  0.17280354  0.00002790  0.68395989  1
  Al  Al226  1  0.81585775  -0.00024316  0.82560712  1
  Al  Al227  1  0.30834098  -0.00130788  0.82713052  1
  Al  Al228  1  0.49696949  0.17153998  0.17831750  1
  Al  Al229  1  0.83331275  0.16806079  -0.00289243  1
  Al  Al230  1  0.66941550  0.00059207  0.19242330  1
  Al  Al231  1  0.17338253  0.67887398  -0.00011794  1
  Al  Al232  1  0.66895840  0.17937993  -0.00190000  1
  Al  Al233  1  0.50029381  0.32644802  0.18886148  1
  Al  Al234  1  0.32671085  0.67902532  -0.00134864  1
  Al  Al235  1  0.32885824  0.82724679  0.50136331  1
  Al  Al236  1  0.67146503  0.00014410  0.69044595  1
  Al  Al237  1  0.32452110  0.49927845  0.81250153  1
  Al  Al238  1  0.67492096  0.67547683  -0.00040499  1
  Au  Au239  1  0.83096177  0.33965097  0.50146585  1
  Au  Au240  1  0.49551769  0.17095014  0.66024172  1
  Au  Au241  1  -0.00100373  0.82862272  0.35251968  1
  Au  Au242  1  0.82888607  0.66808774  0.50059628  1
  Au  Au243  1  0.67032380  0.16495921  0.49913245  1
  Au  Au244  1  0.33600853  0.50115626  0.17529347  1
  Au  Au245  1  0.17427446  0.00187281  0.16776150  1
  Au  Au246  1  0.84868232  0.17289825  -0.00518323  1
  Au  Au247  1  0.67609926  0.82777446  0.49946519  1
  Au  Au248  1  0.32889573  0.32378605  -0.00014489  1
  Au  Au249  1  0.83392436  0.83449861  -0.00512365  1
  Au  Au250  1  0.50419697  0.65544493  0.33985934  1
  Au  Au251  1  0.49972435  0.66448005  0.16284993  1
  Au  Au252  1  0.67572295  0.00031992  0.17618968  1
  Au  Au253  1  0.16339709  0.82889385  -0.00708014  1
  Au  Au254  1  0.49496195  0.17679109  0.16219464  1
  Au  Au255  1  0.66545308  0.16293054  -0.00349607  1
  Au  Au256  1  0.67226997  0.34423971  0.00456594  1
  Au  Au257  1  0.83973724  0.66680561  -0.00137974  1
  Au  Au258  1  -0.00306876  0.83850024  0.15738400  1
  Au  Au259  1  0.15991354  0.49496573  0.17174932  1
  Au  Au260  1  0.00116422  0.33179097  0.33427484  1
  Au  Au261  1  0.50204533  0.82115698  0.83201427  1
  Au  Au262  1  0.83960661  0.50107439  0.82124132  1
  Au  Au263  1  0.49835960  0.33574684  0.66428230  1
  Au  Au264  1  -0.00039712  0.32381975  0.66578994  1
  Au  Au265  1  0.00316872  0.16939975  0.17131440  1
  Au  Au266  1  -0.00159540  0.65346223  0.17625453  1
  Au  Au267  1  0.66947919  0.83982088  -0.00274088  1
  Au  Au268  1  0.17014061  0.17464176  0.49993745  1
  Au  Au269  1  0.17214790  0.50011075  0.66895424  1
  Au  Au270  1  0.33432991  0.82832409  0.00134604  1
  Au  Au271  1  0.32503372  0.65297806  0.50401261  1
  Au  Au272  1  0.49770720  0.83179777  0.16170049  1
  Au  Au273  1  0.49991209  0.17764741  0.33966100  1
  Au  Au274  1  0.83858810  0.16632010  0.49855944  1
  Au  Au275  1  0.66417619  0.66306537  0.00003206  1
  Au  Au276  1  0.49763793  0.33337202  0.83650182  1
  Au  Au277  1  0.49850901  0.82068439  0.66604073  1
  Au  Au278  1  0.50220441  0.84511051  0.33390336  1
  Au  Au279  1  0.32501426  0.00179148  0.82594265  1
  Au  Au280  1  0.49834689  0.16803731  0.83402697  1
  Au  Au281  1  0.66359448  0.33650991  0.49612092  1
  Au  Au282  1  0.32150638  0.84291220  0.50183080  1
  Au  Au283  1  0.00061636  0.32892042  0.83074465  1
  Au  Au284  1  0.84142059  -0.00251018  0.67138490  1
  Au  Au285  1  0.66172826  0.50376963  0.82154692  1
  Au  Au286  1  0.66466513  -0.00005280  0.67482252  1
  Au  Au287  1  0.32472472  0.00485940  0.33252088  1
