# generated using pymatgen
data_Ca24Ti8Al207Au49
_symmetry_space_group_name_H-M   'P 1'
_cell_length_a   17.32360467
_cell_length_b   17.32587452
_cell_length_c   17.32411930
_cell_angle_alpha   90.00038108
_cell_angle_beta   90.00242616
_cell_angle_gamma   89.99921233
_symmetry_Int_Tables_number   1
_chemical_formula_structural   Ca24Ti8Al207Au49
_chemical_formula_sum   'Ca24 Ti8 Al207 Au49'
_cell_volume   5199.77551288
_cell_formula_units_Z   1
loop_
 _symmetry_equiv_pos_site_id
 _symmetry_equiv_pos_as_xyz
  1  'x, y, z'
loop_
 _atom_site_type_symbol
 _atom_site_label
 _atom_site_symmetry_multiplicity
 _atom_site_fract_x
 _atom_site_fract_y
 _atom_site_fract_z
 _atom_site_occupancy
  Ca  Ca0  1  0.25312402  -0.00074485  -0.00276089  1
  Ca  Ca1  1  0.25158701  0.00193444  0.50112741  1
  Ca  Ca2  1  0.24956321  0.50084279  0.00517188  1
  Ca  Ca3  1  0.25149007  0.49799530  0.49618446  1
  Ca  Ca4  1  0.74703182  -0.00064406  -0.00150128  1
  Ca  Ca5  1  0.74779244  0.00434070  0.50103495  1
  Ca  Ca6  1  0.75119340  0.50141255  -0.00430159  1
  Ca  Ca7  1  0.74630620  0.49834586  0.49671036  1
  Ca  Ca8  1  0.00330323  0.24981569  -0.00474465  1
  Ca  Ca9  1  -0.00343362  0.24693376  0.50007288  1
  Ca  Ca10  1  0.00032661  0.75107038  0.00157326  1
  Ca  Ca11  1  -0.00214102  0.75050936  0.49714186  1
  Ca  Ca12  1  0.49769291  0.24399918  0.00024661  1
  Ca  Ca13  1  0.50082578  0.24881430  0.49900733  1
  Ca  Ca14  1  0.49832200  0.75214312  0.00060349  1
  Ca  Ca15  1  0.50141230  0.75227979  0.49563953  1
  Ca  Ca16  1  -0.00286968  -0.00181391  0.25338553  1
  Ca  Ca17  1  0.00189412  -0.00053891  0.75022630  1
  Ca  Ca18  1  0.00031871  0.50359312  0.25484711  1
  Ca  Ca19  1  -0.00316876  0.49892473  0.75503420  1
  Ca  Ca20  1  0.50152056  0.00194710  0.25481682  1
  Ca  Ca21  1  0.49912659  0.00455654  0.75142940  1
  Ca  Ca22  1  0.49976430  0.50006584  0.25266059  1
  Ca  Ca23  1  0.50179805  0.49664452  0.75121066  1
  Ti  Ti24  1  0.25301126  0.24993183  0.25082602  1
  Ti  Ti25  1  0.25143886  0.24823328  0.75031304  1
  Ti  Ti26  1  0.25062017  0.74945632  0.25047549  1
  Ti  Ti27  1  0.25070452  0.75235225  0.75054550  1
  Ti  Ti28  1  0.74857011  0.24936321  0.25099091  1
  Ti  Ti29  1  0.74900942  0.24771815  0.74984431  1
  Ti  Ti30  1  0.74942901  0.75010235  0.25051413  1
  Ti  Ti31  1  0.74816383  0.75188399  0.74947845  1
  Al  Al32  1  0.08662892  0.07942749  0.07525226  1
  Al  Al33  1  0.08636294  0.07992936  0.59007451  1
  Al  Al34  1  0.08587272  0.58409219  0.08250956  1
  Al  Al35  1  0.08742299  0.58908761  0.57486982  1
  Al  Al36  1  0.58061403  0.07881079  0.08308517  1
  Al  Al37  1  0.58633628  0.08567347  0.58517837  1
  Al  Al38  1  0.58158423  0.57772906  0.08639993  1
  Al  Al39  1  0.58344103  0.57862723  0.57648862  1
  Al  Al40  1  0.41473173  0.41814172  0.08623292  1
  Al  Al41  1  0.43270995  0.40704740  0.57971250  1
  Al  Al42  1  0.42129945  0.91662176  0.07996658  1
  Al  Al43  1  0.41600072  0.92571336  0.58364907  1
  Al  Al44  1  0.91272230  0.42314672  0.07927627  1
  Al  Al45  1  0.91411345  0.41669038  0.57804104  1
  Al  Al46  1  0.91707313  0.91931687  0.08391449  1
  Al  Al47  1  0.91339008  0.92162089  0.58848932  1
  Al  Al48  1  0.41638218  0.08736835  0.41035555  1
  Al  Al49  1  0.41104630  0.08891289  0.90987213  1
  Al  Al50  1  0.41068111  0.57820401  0.41043933  1
  Al  Al51  1  0.41763898  0.59120987  0.92768120  1
  Al  Al52  1  0.91257758  0.07800423  0.41546862  1
  Al  Al53  1  0.91570029  0.08496514  0.91242833  1
  Al  Al54  1  0.91093052  0.57482796  0.40963120  1
  Al  Al55  1  0.91170803  0.57419236  0.91237630  1
  Al  Al56  1  0.08380170  0.41924372  0.41828459  1
  Al  Al57  1  0.07713783  0.40999487  0.91466456  1
  Al  Al58  1  0.08089449  0.91945002  0.41803963  1
  Al  Al59  1  0.09370092  0.92142549  0.91060419  1
  Al  Al60  1  0.59103873  0.41315515  0.41664820  1
  Al  Al61  1  0.58641939  0.41861688  0.91054880  1
  Al  Al62  1  0.58798195  0.91436451  0.42055778  1
  Al  Al63  1  0.58523380  0.92709562  0.91358719  1
  Al  Al64  1  0.08300392  0.08089789  0.42101403  1
  Al  Al65  1  0.09330160  0.08126516  0.90951060  1
  Al  Al66  1  0.09090245  0.58568975  0.41879043  1
  Al  Al67  1  0.08215863  0.58123720  0.92411484  1
  Al  Al68  1  0.58123811  0.08985476  0.41443022  1
  Al  Al69  1  0.57814530  0.08635010  0.90895800  1
  Al  Al70  1  0.59151424  0.57699294  0.41075545  1
  Al  Al71  1  0.58786585  0.57773928  0.91287192  1
  Al  Al72  1  0.41825243  0.41900176  0.41278126  1
  Al  Al73  1  0.42083240  0.41121606  0.92343446  1
  Al  Al74  1  0.41448676  0.92624652  0.41356311  1
  Al  Al75  1  0.40910652  0.92501258  0.91484907  1
  Al  Al76  1  0.90502648  0.41664987  0.41322263  1
  Al  Al77  1  0.91567308  0.41280153  0.90785339  1
  Al  Al78  1  0.91142322  0.92189746  0.41370246  1
  Al  Al79  1  0.91704340  0.92192153  0.91616611  1
  Al  Al80  1  0.08502790  0.42214157  0.07557736  1
  Al  Al81  1  0.07881187  0.41717694  0.57559608  1
  Al  Al82  1  0.08436671  0.92076755  0.07767562  1
  Al  Al83  1  0.08874778  0.92144594  0.59044789  1
  Al  Al84  1  0.58306360  0.41939896  0.08610616  1
  Al  Al85  1  0.58995499  0.40722512  0.58154169  1
  Al  Al86  1  0.58009171  0.92004539  0.08813166  1
  Al  Al87  1  0.59048546  0.91436213  0.58162656  1
  Al  Al88  1  0.41273792  0.08788770  0.07504355  1
  Al  Al89  1  0.41470994  0.08398353  0.58645704  1
  Al  Al90  1  0.40862059  0.58383924  0.08483009  1
  Al  Al91  1  0.42366451  0.58224253  0.57312264  1
  Al  Al92  1  0.91549044  0.07763275  0.08036209  1
  Al  Al93  1  0.91705217  0.07858847  0.58701487  1
  Al  Al94  1  0.91589630  0.57989090  0.08472347  1
  Al  Al95  1  0.91886796  0.57780988  0.58172738  1
  Al  Al96  1  0.25551265  0.13484839  0.13434023  1
  Al  Al97  1  0.24843332  0.13376963  0.63954849  1
  Al  Al98  1  0.24966713  0.63694703  0.13088373  1
  Al  Al99  1  0.24578358  0.63721599  0.63138109  1
  Al  Al100  1  0.74988555  0.13354496  0.13744357  1
  Al  Al101  1  0.74668575  0.13039177  0.63771619  1
  Al  Al102  1  0.75177524  0.63527974  0.13430599  1
  Al  Al103  1  0.74847777  0.63667389  0.62737438  1
  Al  Al104  1  0.25328427  0.36512517  0.13586422  1
  Al  Al105  1  0.24800695  0.36208511  0.63674501  1
  Al  Al106  1  0.25320057  0.86410304  0.13518634  1
  Al  Al107  1  0.24678585  0.86851052  0.63747554  1
  Al  Al108  1  0.75213348  0.36828695  0.13955445  1
  Al  Al109  1  0.74651254  0.35998380  0.63338820  1
  Al  Al110  1  0.75206193  0.86274862  0.13054850  1
  Al  Al111  1  0.74812731  0.87172015  0.63549113  1
  Al  Al112  1  0.25232488  0.12838982  0.36381847  1
  Al  Al113  1  0.25549969  0.12942949  0.86196452  1
  Al  Al114  1  0.25008781  0.63047134  0.36309791  1
  Al  Al115  1  0.25103084  0.63910536  0.87054656  1
  Al  Al116  1  0.74800373  0.13092195  0.36565326  1
  Al  Al117  1  0.74709784  0.13205510  0.86197571  1
  Al  Al118  1  0.74820024  0.63438128  0.36642214  1
  Al  Al119  1  0.74985924  0.63369637  0.86502928  1
  Al  Al120  1  0.25182214  0.36827738  0.36434212  1
  Al  Al121  1  0.25548302  0.36042783  0.86400399  1
  Al  Al122  1  0.24771287  0.87046893  0.36421215  1
  Al  Al123  1  0.24978534  0.87104902  0.86385101  1
  Al  Al124  1  0.74594742  0.36788950  0.36488429  1
  Al  Al125  1  0.74887111  0.36848816  0.85967032  1
  Al  Al126  1  0.74798461  0.86828567  0.36653033  1
  Al  Al127  1  0.74688911  0.86712186  0.86790289  1
  Al  Al128  1  0.13892944  0.24776926  0.13443215  1
  Al  Al129  1  0.13467369  0.24681036  0.63880798  1
  Al  Al130  1  0.13091388  0.74596878  0.13762349  1
  Al  Al131  1  0.13539099  0.75021134  0.63801020  1
  Al  Al132  1  0.63561718  0.25049209  0.13690171  1
  Al  Al133  1  0.62820673  0.24754861  0.63913962  1
  Al  Al134  1  0.63635344  0.74817753  0.13450053  1
  Al  Al135  1  0.63752426  0.75351784  0.63039042  1
  Al  Al136  1  0.13850037  0.24883433  0.36274920  1
  Al  Al137  1  0.13374902  0.24651299  0.86346609  1
  Al  Al138  1  0.13428955  0.74581879  0.36458327  1
  Al  Al139  1  0.13743445  0.75050466  0.86413956  1
  Al  Al140  1  0.63076299  0.25268571  0.36511069  1
  Al  Al141  1  0.63293710  0.24639686  0.86523385  1
  Al  Al142  1  0.63421929  0.75021946  0.36897696  1
  Al  Al143  1  0.63445976  0.75310020  0.86626818  1
  Al  Al144  1  0.36542073  0.24971234  0.13301617  1
  Al  Al145  1  0.37034950  0.24511114  0.63600688  1
  Al  Al146  1  0.36457848  0.74643714  0.13626897  1
  Al  Al147  1  0.36498389  0.75259236  0.63398207  1
  Al  Al148  1  0.86269305  0.24692997  0.13508705  1
  Al  Al149  1  0.86379149  0.25074436  0.63758227  1
  Al  Al150  1  0.86850228  0.74993310  0.13651920  1
  Al  Al151  1  0.86268155  0.74986663  0.63318257  1
  Al  Al152  1  0.37193746  0.24840882  0.36403022  1
  Al  Al153  1  0.36693409  0.24503321  0.87156309  1
  Al  Al154  1  0.36880103  0.74786741  0.36380514  1
  Al  Al155  1  0.36549111  0.75119583  0.86480027  1
  Al  Al156  1  0.86061182  0.25018320  0.36172422  1
  Al  Al157  1  0.86861431  0.24831921  0.86236736  1
  Al  Al158  1  0.86431057  0.74855067  0.36459158  1
  Al  Al159  1  0.86018023  0.75170995  0.86808143  1
  Al  Al160  1  0.13894582  0.13564905  0.25216054  1
  Al  Al161  1  0.13865769  0.12771262  0.75440162  1
  Al  Al162  1  0.13457619  0.62979083  0.25002786  1
  Al  Al163  1  0.13829744  0.63393266  0.75046198  1
  Al  Al164  1  0.63275067  0.13487576  0.25624595  1
  Al  Al165  1  0.63001897  0.13065717  0.74938847  1
  Al  Al166  1  0.63108869  0.63713450  0.25419347  1
  Al  Al167  1  0.63798819  0.63412046  0.75226987  1
  Al  Al168  1  0.36746306  0.13241397  0.25440351  1
  Al  Al169  1  0.37204751  0.13525114  0.75334839  1
  Al  Al170  1  0.36839095  0.63504516  0.25197216  1
  Al  Al171  1  0.36301318  0.63876501  0.74809465  1
  Al  Al172  1  0.86280043  0.12856811  0.25199892  1
  Al  Al173  1  0.86467550  0.13175532  0.74907175  1
  Al  Al174  1  0.86466269  0.63142793  0.25107563  1
  Al  Al175  1  0.86044198  0.63315368  0.75140518  1
  Al  Al176  1  0.13914163  0.36980033  0.25047234  1
  Al  Al177  1  0.13266017  0.36246795  0.75266139  1
  Al  Al178  1  0.13547005  0.86277922  0.25214164  1
  Al  Al179  1  0.13676497  0.86955462  0.75136643  1
  Al  Al180  1  0.63378381  0.36789503  0.25619316  1
  Al  Al181  1  0.63344114  0.36388120  0.74960233  1
  Al  Al182  1  0.63452193  0.86432905  0.25617924  1
  Al  Al183  1  0.63516645  0.87276505  0.74777308  1
  Al  Al184  1  0.36619260  0.36555815  0.25511126  1
  Al  Al185  1  0.36808628  0.35868124  0.74618222  1
  Al  Al186  1  0.36474446  0.86713982  0.25433500  1
  Al  Al187  1  0.36576778  0.86864280  0.75378016  1
  Al  Al188  1  0.86149169  0.37257073  0.25346587  1
  Al  Al189  1  0.86490166  0.36719036  0.75504142  1
  Al  Al190  1  0.86053072  0.86950594  0.25077545  1
  Al  Al191  1  0.86319149  0.86435338  0.74620160  1
  Al  Al192  1  0.49972270  0.31332099  0.81764649  1
  Al  Al193  1  0.17182206  0.49806245  0.82842570  1
  Al  Al194  1  -0.00022037  0.82553173  0.67398251  1
  Al  Al195  1  -0.00232178  0.67111519  0.81820932  1
  Al  Al196  1  0.49792105  0.82417268  0.67445420  1
  Al  Al197  1  0.67704951  0.67471783  0.00282212  1
  Al  Al198  1  0.67729769  0.32539738  0.00033747  1
  Al  Al199  1  0.81732794  0.82477984  0.50073206  1
  Al  Al200  1  0.31644046  0.67416181  0.49741442  1
  Al  Al201  1  -0.00074929  0.32668249  0.32835805  1
  Al  Al202  1  0.18033277  0.32447398  -0.00160250  1
  Al  Al203  1  0.31911883  0.17466725  0.49987324  1
  Al  Al204  1  -0.00160389  0.17326334  0.32999487  1
  Al  Al205  1  0.32142846  0.50077893  0.18765459  1
  Al  Al206  1  0.00333326  0.17032473  0.17390864  1
  Al  Al207  1  0.50008377  0.67452934  0.82403543  1
  Al  Al208  1  0.00045167  0.17209254  0.68380784  1
  Al  Al209  1  0.32885833  0.50290765  0.83204324  1
  Al  Al210  1  0.67883161  0.50180282  0.18855982  1
  Al  Al211  1  0.50037120  0.81957776  0.18199386  1
  Al  Al212  1  0.32700351  0.82985178  0.49869628  1
  Al  Al213  1  0.31560093  0.00169562  0.68626952  1
  Al  Al214  1  0.82740621  0.17061354  0.50170430  1
  Al  Al215  1  0.33124483  0.49851796  0.66980252  1
  Al  Al216  1  0.67536315  0.49711812  0.67993546  1
  Al  Al217  1  -0.00129020  0.32823928  0.67966208  1
  Al  Al218  1  0.00036056  0.82760397  0.82708763  1
  Al  Al219  1  0.67585732  0.16823587  -0.00014317  1
  Al  Al220  1  0.17549045  -0.00089102  0.18105866  1
  Al  Al221  1  0.32973215  -0.00003605  0.18037964  1
  Al  Al222  1  0.32735821  0.81866512  -0.00002455  1
  Al  Al223  1  0.17515494  0.82044143  0.00063870  1
  Al  Al224  1  0.17085983  0.50212568  0.67242533  1
  Al  Al225  1  0.81809504  -0.00407854  0.81625308  1
  Al  Al226  1  0.16982794  0.81368827  0.49993687  1
  Al  Al227  1  0.67593153  0.18943741  0.50069486  1
  Al  Al228  1  0.32972041  0.32738783  0.50022048  1
  Al  Al229  1  0.81828415  0.49877465  0.67673106  1
  Al  Al230  1  0.17661806  0.31706964  0.49918329  1
  Al  Al231  1  0.00035489  0.32946088  0.17045677  1
  Al  Al232  1  0.81072222  0.32162779  0.49841263  1
  Al  Al233  1  0.82272319  0.32366154  -0.00216394  1
  Al  Al234  1  0.50007020  0.32499435  0.18095410  1
  Al  Al235  1  0.68037788  -0.00132163  0.18476083  1
  Al  Al236  1  0.49999017  0.17183540  0.17924689  1
  Al  Al237  1  0.18744801  0.17151961  -0.00208385  1
  Al  Al238  1  -0.00372189  0.82132027  0.32345125  1
  Au  Au239  1  -0.00091247  0.66650378  0.16773025  1
  Au  Au240  1  0.67455519  0.00071331  0.67089632  1
  Au  Au241  1  0.49929236  0.17159701  0.67115422  1
  Au  Au242  1  0.16849545  0.16878868  0.50344610  1
  Au  Au243  1  0.66316867  0.67421910  0.49747944  1
  Au  Au244  1  0.82537293  0.50197437  0.17733359  1
  Au  Au245  1  0.50131862  0.66225382  0.33108595  1
  Au  Au246  1  0.67282029  0.00119170  0.33562472  1
  Au  Au247  1  0.32850049  0.66945833  0.49764350  1
  Au  Au248  1  0.49897914  0.83767241  0.33089102  1
  Au  Au249  1  0.66461016  0.50212280  0.67591623  1
  Au  Au250  1  0.00036317  0.32470172  0.66726526  1
  Au  Au251  1  0.17790829  0.49889919  0.33549880  1
  Au  Au252  1  0.82783263  -0.00152686  0.17522755  1
  Au  Au253  1  0.00190588  0.34428807  0.17679670  1
  Au  Au254  1  0.50009820  0.66577951  0.83270563  1
  Au  Au255  1  0.50135609  0.32757832  0.33145521  1
  Au  Au256  1  0.66542786  0.83938181  0.00081978  1
  Au  Au257  1  0.82885707  0.65981851  0.49605831  1
  Au  Au258  1  0.17195731  0.00140773  0.33092931  1
  Au  Au259  1  0.00022209  0.66563853  0.33613906  1
  Au  Au260  1  0.00051768  0.67729606  0.65519488  1
  Au  Au261  1  0.50003655  0.83291967  0.66584944  1
  Au  Au262  1  0.34486658  0.48986497  0.66369921  1
  Au  Au263  1  0.82742074  -0.00122331  0.82470184  1
  Au  Au264  1  0.49765495  0.67182028  0.16293114  1
  Au  Au265  1  0.83283056  0.66506417  -0.00146667  1
  Au  Au266  1  0.32956131  0.32287162  0.00405314  1
  Au  Au267  1  -0.00007805  0.67192968  0.83497155  1
  Au  Au268  1  0.00377968  0.17144179  0.83265674  1
  Au  Au269  1  0.66707754  0.33366590  0.00010440  1
  Au  Au270  1  0.33336493  -0.00136524  0.16815761  1
  Au  Au271  1  0.66839059  0.66593031  0.00061843  1
  Au  Au272  1  0.00396584  0.83517174  0.16816417  1
  Au  Au273  1  0.50246912  0.66799053  0.66747341  1
  Au  Au274  1  0.49910176  0.84074304  0.83104262  1
  Au  Au275  1  -0.00300007  0.83183676  0.33020627  1
  Au  Au276  1  0.15972799  0.49729397  0.66863020  1
  Au  Au277  1  0.83539317  0.83206266  -0.00049588  1
  Au  Au278  1  0.32346131  0.50376814  0.84831887  1
  Au  Au279  1  0.17579288  0.50013330  0.16694369  1
  Au  Au280  1  0.17211494  0.83042903  0.50254566  1
  Au  Au281  1  0.17753333  0.67154322  -0.00018494  1
  Au  Au282  1  0.82273713  0.84058044  0.50239081  1
  Au  Au283  1  0.49959628  0.32901605  0.82474149  1
  Au  Au284  1  0.83046767  0.49885983  0.68054346  1
  Au  Au285  1  0.83095310  0.33261194  -0.00257506  1
  Au  Au286  1  -0.00098132  0.15889889  0.17033532  1
  Au  Au287  1  0.82695703  0.16236290  -0.00000802  1
