# generated using pymatgen
data_Ca24Ti8Al207Au49
_symmetry_space_group_name_H-M   'P 1'
_cell_length_a   17.31740016
_cell_length_b   17.31766073
_cell_length_c   17.31877154
_cell_angle_alpha   89.99673730
_cell_angle_beta   90.00200947
_cell_angle_gamma   89.99982935
_symmetry_Int_Tables_number   1
_chemical_formula_structural   Ca24Ti8Al207Au49
_chemical_formula_sum   'Ca24 Ti8 Al207 Au49'
_cell_volume   5193.84520592
_cell_formula_units_Z   1
loop_
 _symmetry_equiv_pos_site_id
 _symmetry_equiv_pos_as_xyz
  1  'x, y, z'
loop_
 _atom_site_type_symbol
 _atom_site_label
 _atom_site_symmetry_multiplicity
 _atom_site_fract_x
 _atom_site_fract_y
 _atom_site_fract_z
 _atom_site_occupancy
  Ca  Ca0  1  0.24550481  0.00000476  -0.00174033  1
  Ca  Ca1  1  0.24880019  0.00125098  0.49885121  1
  Ca  Ca2  1  0.24918857  0.49783965  0.00376637  1
  Ca  Ca3  1  0.25479305  0.49970276  0.49856099  1
  Ca  Ca4  1  0.75217718  -0.00269143  -0.00243654  1
  Ca  Ca5  1  0.75583849  0.00212256  0.50121083  1
  Ca  Ca6  1  0.75031801  0.50328137  -0.00078027  1
  Ca  Ca7  1  0.75280727  0.49806424  0.50391400  1
  Ca  Ca8  1  -0.00505053  0.24734489  0.00202253  1
  Ca  Ca9  1  -0.00506154  0.25129225  0.49668037  1
  Ca  Ca10  1  -0.00478929  0.75500269  -0.00310699  1
  Ca  Ca11  1  -0.00282978  0.74947638  0.50077798  1
  Ca  Ca12  1  0.50398400  0.25300765  0.00036339  1
  Ca  Ca13  1  0.50388913  0.25234453  0.49833374  1
  Ca  Ca14  1  0.50305781  0.75152902  -0.00292230  1
  Ca  Ca15  1  0.50046427  0.74524108  0.50097328  1
  Ca  Ca16  1  -0.00416372  0.00018298  0.25130188  1
  Ca  Ca17  1  -0.00716178  0.00028058  0.75164373  1
  Ca  Ca18  1  -0.00112387  0.49879486  0.25082790  1
  Ca  Ca19  1  -0.00272326  0.49860208  0.74561241  1
  Ca  Ca20  1  0.50252888  0.00190218  0.25118931  1
  Ca  Ca21  1  0.50473977  0.00036810  0.75403649  1
  Ca  Ca22  1  0.50234909  0.49763669  0.25185309  1
  Ca  Ca23  1  0.50318637  0.50018024  0.75116060  1
  Ti  Ti24  1  0.24695831  0.25011217  0.25138689  1
  Ti  Ti25  1  0.24916047  0.24816901  0.74945515  1
  Ti  Ti26  1  0.24894274  0.74903155  0.25200728  1
  Ti  Ti27  1  0.24985597  0.75069013  0.75202890  1
  Ti  Ti28  1  0.75193558  0.25105466  0.24979492  1
  Ti  Ti29  1  0.75075356  0.24942657  0.75016630  1
  Ti  Ti30  1  0.75230798  0.74954932  0.24878498  1
  Ti  Ti31  1  0.74969752  0.75090329  0.75076742  1
  Al  Al32  1  0.07460848  0.08056572  0.08020433  1
  Al  Al33  1  0.07979622  0.08477733  0.57373755  1
  Al  Al34  1  0.08330464  0.59169086  0.07697517  1
  Al  Al35  1  0.07472240  0.57836953  0.58006054  1
  Al  Al36  1  0.58430415  0.08607943  0.08458102  1
  Al  Al37  1  0.60287802  0.08141970  0.58701988  1
  Al  Al38  1  0.59242836  0.58867033  0.07605996  1
  Al  Al39  1  0.58498531  0.57759726  0.58783274  1
  Al  Al40  1  0.42762650  0.41098265  0.09014010  1
  Al  Al41  1  0.42467648  0.41959544  0.57232982  1
  Al  Al42  1  0.41559509  0.92763082  0.07432670  1
  Al  Al43  1  0.42876346  0.92195802  0.57497485  1
  Al  Al44  1  0.91908789  0.41190340  0.09161832  1
  Al  Al45  1  0.90656487  0.40736559  0.58744015  1
  Al  Al46  1  0.90960860  0.90873768  0.09279216  1
  Al  Al47  1  0.90733922  0.92122671  0.58707886  1
  Al  Al48  1  0.39882256  0.08517429  0.41192060  1
  Al  Al49  1  0.42533319  0.07560956  0.92273377  1
  Al  Al50  1  0.41016404  0.58718177  0.40873704  1
  Al  Al51  1  0.42132426  0.58443281  0.91882711  1
  Al  Al52  1  0.91121737  0.09098738  0.40791282  1
  Al  Al53  1  0.91959128  0.07333701  0.91775361  1
  Al  Al54  1  0.91168169  0.57273350  0.41513588  1
  Al  Al55  1  0.90849758  0.59248078  0.91916453  1
  Al  Al56  1  0.07282982  0.41809056  0.41864224  1
  Al  Al57  1  0.07636903  0.41918633  0.92718219  1
  Al  Al58  1  0.07537683  0.92382713  0.41533321  1
  Al  Al59  1  0.08894206  0.91536239  0.91832588  1
  Al  Al60  1  0.58042487  0.41496643  0.42107382  1
  Al  Al61  1  0.58967082  0.41524557  0.92500321  1
  Al  Al62  1  0.58433956  0.92183502  0.42205123  1
  Al  Al63  1  0.59159198  0.91004944  0.90660797  1
  Al  Al64  1  0.07579866  0.09328262  0.41149612  1
  Al  Al65  1  0.08379029  0.07460517  0.90958086  1
  Al  Al66  1  0.08009011  0.57992273  0.42027100  1
  Al  Al67  1  0.08341120  0.59398788  0.92153144  1
  Al  Al68  1  0.58909877  0.08324025  0.42662158  1
  Al  Al69  1  0.59127662  0.07461587  0.91219940  1
  Al  Al70  1  0.57293818  0.58555790  0.41325362  1
  Al  Al71  1  0.59233579  0.59122565  0.91702058  1
  Al  Al72  1  0.41262433  0.42141546  0.40899497  1
  Al  Al73  1  0.42605725  0.42423417  0.92510577  1
  Al  Al74  1  0.41067526  0.92545536  0.40947913  1
  Al  Al75  1  0.42722085  0.90992992  0.91083820  1
  Al  Al76  1  0.90433875  0.40960578  0.41607352  1
  Al  Al77  1  0.91588901  0.42276043  0.92055256  1
  Al  Al78  1  0.90903687  0.92521489  0.41192858  1
  Al  Al79  1  0.90709217  0.91065497  0.92177584  1
  Al  Al80  1  0.07612128  0.40424027  0.08724800  1
  Al  Al81  1  0.06836562  0.41339969  0.58510896  1
  Al  Al82  1  0.07397451  0.90671427  0.08301485  1
  Al  Al83  1  0.06824807  0.92259614  0.57917563  1
  Al  Al84  1  0.58734390  0.40206453  0.08570021  1
  Al  Al85  1  0.59638987  0.41909180  0.58868428  1
  Al  Al86  1  0.59257713  0.92006474  0.06949248  1
  Al  Al87  1  0.59313386  0.92316774  0.59326574  1
  Al  Al88  1  0.42288342  0.08371110  0.09130914  1
  Al  Al89  1  0.41551278  0.08855682  0.56955453  1
  Al  Al90  1  0.41888244  0.57816115  0.07924411  1
  Al  Al91  1  0.42086287  0.59078555  0.57141857  1
  Al  Al92  1  0.91071710  0.07265199  0.09447907  1
  Al  Al93  1  0.90134397  0.08584729  0.58094344  1
  Al  Al94  1  0.90824399  0.58901433  0.08035279  1
  Al  Al95  1  0.91261531  0.57137997  0.58654206  1
  Al  Al96  1  0.24512452  0.13664781  0.13617364  1
  Al  Al97  1  0.24972141  0.13409443  0.63398125  1
  Al  Al98  1  0.24747210  0.63162698  0.13852636  1
  Al  Al99  1  0.25190170  0.63892721  0.63282017  1
  Al  Al100  1  0.75463704  0.13448948  0.13100239  1
  Al  Al101  1  0.75293438  0.13205077  0.63420306  1
  Al  Al102  1  0.75304473  0.63190666  0.13519687  1
  Al  Al103  1  0.74886936  0.63040108  0.63540313  1
  Al  Al104  1  0.24503363  0.36495422  0.13846901  1
  Al  Al105  1  0.25060051  0.36151829  0.63517794  1
  Al  Al106  1  0.25181058  0.86051112  0.13708689  1
  Al  Al107  1  0.25207153  0.86431252  0.63665303  1
  Al  Al108  1  0.75182191  0.37111484  0.13730054  1
  Al  Al109  1  0.75237770  0.36536996  0.62970814  1
  Al  Al110  1  0.75466402  0.86878586  0.13258330  1
  Al  Al111  1  0.75028823  0.87076862  0.63855757  1
  Al  Al112  1  0.25000031  0.13113572  0.36364632  1
  Al  Al113  1  0.24482065  0.12749123  0.86464286  1
  Al  Al114  1  0.24926615  0.63483575  0.37096451  1
  Al  Al115  1  0.24734933  0.63917307  0.86613764  1
  Al  Al116  1  0.75845976  0.13475027  0.36702019  1
  Al  Al117  1  0.75034632  0.12910474  0.86817912  1
  Al  Al118  1  0.75749421  0.63332977  0.36855939  1
  Al  Al119  1  0.74986851  0.63737178  0.87152610  1
  Al  Al120  1  0.25212287  0.36473076  0.36276832  1
  Al  Al121  1  0.24807522  0.36156602  0.86313314  1
  Al  Al122  1  0.24949309  0.86860820  0.36299266  1
  Al  Al123  1  0.25016267  0.86727330  0.86486770  1
  Al  Al124  1  0.75503607  0.36498262  0.36946910  1
  Al  Al125  1  0.74812386  0.36721319  0.86536259  1
  Al  Al126  1  0.75416348  0.86607672  0.36163099  1
  Al  Al127  1  0.75109331  0.86994987  0.86497858  1
  Al  Al128  1  0.13033168  0.24892101  0.13767822  1
  Al  Al129  1  0.13103967  0.24844672  0.63370045  1
  Al  Al130  1  0.13421316  0.74985705  0.13545714  1
  Al  Al131  1  0.13340050  0.74963493  0.63708373  1
  Al  Al132  1  0.64196047  0.25250053  0.12747823  1
  Al  Al133  1  0.64158414  0.25170817  0.63450492  1
  Al  Al134  1  0.63885018  0.74620478  0.13185766  1
  Al  Al135  1  0.63956075  0.75057600  0.63526007  1
  Al  Al136  1  0.12867715  0.25144941  0.36419871  1
  Al  Al137  1  0.13471617  0.24882412  0.86302328  1
  Al  Al138  1  0.13043719  0.74861617  0.36487763  1
  Al  Al139  1  0.12993484  0.75005413  0.86602180  1
  Al  Al140  1  0.64133189  0.25203415  0.36454525  1
  Al  Al141  1  0.63970626  0.24766613  0.86670783  1
  Al  Al142  1  0.63998363  0.74880820  0.36560904  1
  Al  Al143  1  0.63207457  0.75010759  0.86228991  1
  Al  Al144  1  0.36449296  0.25248926  0.13946535  1
  Al  Al145  1  0.36352975  0.24626433  0.63309401  1
  Al  Al146  1  0.36675677  0.74428701  0.13763759  1
  Al  Al147  1  0.36684605  0.75039221  0.63624848  1
  Al  Al148  1  0.86618680  0.25298344  0.13687926  1
  Al  Al149  1  0.86162595  0.25012668  0.62991964  1
  Al  Al150  1  0.86297763  0.75166566  0.13109380  1
  Al  Al151  1  0.86079125  0.74974896  0.63662561  1
  Al  Al152  1  0.36239757  0.24715127  0.36622811  1
  Al  Al153  1  0.36369977  0.24872509  0.86402211  1
  Al  Al154  1  0.36558240  0.74257027  0.36699042  1
  Al  Al155  1  0.37038448  0.75110589  0.86822429  1
  Al  Al156  1  0.87065692  0.24987600  0.36242799  1
  Al  Al157  1  0.86133359  0.25090285  0.86485383  1
  Al  Al158  1  0.87158990  0.75133867  0.35964581  1
  Al  Al159  1  0.86500448  0.75286344  0.86540275  1
  Al  Al160  1  0.13009135  0.13370918  0.25840275  1
  Al  Al161  1  0.13331452  0.13368285  0.74948053  1
  Al  Al162  1  0.13331237  0.63262148  0.25238910  1
  Al  Al163  1  0.13563501  0.63674782  0.75074526  1
  Al  Al164  1  0.64368326  0.13535713  0.24442301  1
  Al  Al165  1  0.64084939  0.13158789  0.74909578  1
  Al  Al166  1  0.63941965  0.63370832  0.25188059  1
  Al  Al167  1  0.63940141  0.63109528  0.75314933  1
  Al  Al168  1  0.36303562  0.13500563  0.25089489  1
  Al  Al169  1  0.36144750  0.13237602  0.75665331  1
  Al  Al170  1  0.36473071  0.63084623  0.25636129  1
  Al  Al171  1  0.36415165  0.63860610  0.75402556  1
  Al  Al172  1  0.86507342  0.13269652  0.25238465  1
  Al  Al173  1  0.85964860  0.12809748  0.74833358  1
  Al  Al174  1  0.86627759  0.63120329  0.24825849  1
  Al  Al175  1  0.86248805  0.63662688  0.75164255  1
  Al  Al176  1  0.12611723  0.36503110  0.25144139  1
  Al  Al177  1  0.13117836  0.36083235  0.74347299  1
  Al  Al178  1  0.12747874  0.86247594  0.25142519  1
  Al  Al179  1  0.13435056  0.86519217  0.75577613  1
  Al  Al180  1  0.63742053  0.36561228  0.24761570  1
  Al  Al181  1  0.64089923  0.36797746  0.74783492  1
  Al  Al182  1  0.63834212  0.86624434  0.24601741  1
  Al  Al183  1  0.63715971  0.86925645  0.75404991  1
  Al  Al184  1  0.36473756  0.36418662  0.25100948  1
  Al  Al185  1  0.36425258  0.36291328  0.74912940  1
  Al  Al186  1  0.36681883  0.86215600  0.25432196  1
  Al  Al187  1  0.36641202  0.86559875  0.75712196  1
  Al  Al188  1  0.86705929  0.36809966  0.25270880  1
  Al  Al189  1  0.86541888  0.36562421  0.74249586  1
  Al  Al190  1  0.86812464  0.86546018  0.24613212  1
  Al  Al191  1  0.86135949  0.87205961  0.75249010  1
  Al  Al192  1  0.68683608  0.00214374  0.31902749  1
  Al  Al193  1  0.17091277  -0.00304557  0.17823426  1
  Al  Al194  1  0.16786266  0.49888347  0.82632942  1
  Al  Al195  1  0.50265957  0.67402109  0.68230416  1
  Al  Al196  1  0.50196290  0.66872363  0.18616482  1
  Al  Al197  1  0.17153461  0.49848079  0.67149471  1
  Al  Al198  1  -0.00098802  0.68480075  0.17519665  1
  Al  Al199  1  0.50165724  0.83039420  0.16928330  1
  Al  Al200  1  0.16936461  0.32963599  0.50047461  1
  Al  Al201  1  0.50023646  0.83079015  0.68839418  1
  Al  Al202  1  0.68368103  0.49946755  0.32572720  1
  Al  Al203  1  0.32621223  -0.00078692  0.18403096  1
  Al  Al204  1  0.50182956  0.81417825  0.33232067  1
  Al  Al205  1  0.33231956  -0.00003744  0.67696852  1
  Al  Al206  1  0.50468697  0.16810841  0.32527731  1
  Al  Al207  1  -0.00476932  0.18342692  0.66870987  1
  Al  Al208  1  -0.00397669  0.82617170  0.67930355  1
  Al  Al209  1  -0.00124931  0.33164757  0.81742683  1
  Al  Al210  1  0.50398892  0.19121193  0.17625278  1
  Al  Al211  1  0.32779359  0.49919807  0.82667361  1
  Al  Al212  1  0.18361219  0.49855932  0.32273263  1
  Al  Al213  1  0.17411194  0.31930356  0.00071057  1
  Al  Al214  1  -0.00227985  0.67164861  0.67822976  1
  Al  Al215  1  0.82351145  0.82001046  0.49874542  1
  Al  Al216  1  0.17866518  0.81353180  0.00060918  1
  Al  Al217  1  0.32403752  0.49773820  0.18512770  1
  Al  Al218  1  0.50281619  0.32773928  0.82966749  1
  Al  Al219  1  0.50231059  0.32815935  0.67495811  1
  Al  Al220  1  0.31254631  0.67995986  0.00159295  1
  Al  Al221  1  0.32304705  0.17280324  0.00076231  1
  Al  Al222  1  0.67164888  0.67670100  0.50038329  1
  Al  Al223  1  0.32833470  0.33032561  0.00110056  1
  Al  Al224  1  0.50111208  0.32551547  0.31456953  1
  Al  Al225  1  0.81916576  0.50041522  0.81335205  1
  Al  Al226  1  0.33040101  0.81562538  0.49850717  1
  Al  Al227  1  0.69233844  0.18161653  0.49948573  1
  Al  Al228  1  0.50278974  0.17291713  0.82675155  1
  Al  Al229  1  -0.00136835  0.18127456  0.18697602  1
  Al  Al230  1  -0.00358265  0.17273646  0.82333368  1
  Al  Al231  1  0.16999940  -0.00241865  0.68168790  1
  Al  Al232  1  0.32485969  0.31614604  0.49897315  1
  Al  Al233  1  0.68848712  0.81341827  -0.00292999  1
  Al  Al234  1  0.81427885  0.32210254  0.00046102  1
  Al  Al235  1  0.32670287  0.50163136  0.66790612  1
  Al  Al236  1  0.50014136  0.17007015  0.67513229  1
  Al  Al237  1  0.17080835  0.82017343  0.50044678  1
  Al  Al238  1  0.18374879  0.17749176  0.49745127  1
  Au  Au239  1  0.33643301  0.49554696  0.17401503  1
  Au  Au240  1  0.50455031  0.82933520  0.67189523  1
  Au  Au241  1  0.66240198  0.49836240  0.82607109  1
  Au  Au242  1  0.33057534  -0.00214186  0.83825069  1
  Au  Au243  1  0.17289856  -0.00759910  0.16198109  1
  Au  Au244  1  0.17383413  0.49733384  0.33646779  1
  Au  Au245  1  0.15634712  0.17128391  -0.00543044  1
  Au  Au246  1  0.67186428  0.49840363  0.15865431  1
  Au  Au247  1  -0.00246389  0.66687293  0.33623044  1
  Au  Au248  1  -0.00195622  0.68000322  0.15947117  1
  Au  Au249  1  -0.00064999  0.32550597  0.83364801  1
  Au  Au250  1  0.83879302  0.50007030  0.17656192  1
  Au  Au251  1  0.33886696  0.17398319  0.00486175  1
  Au  Au252  1  0.15497141  -0.00143134  0.67399201  1
  Au  Au253  1  -0.00489250  0.83992004  0.32510279  1
  Au  Au254  1  0.49829960  0.17474509  0.33904306  1
  Au  Au255  1  0.68031600  0.00041671  0.16060731  1
  Au  Au256  1  -0.00113039  0.83932059  0.82941377  1
  Au  Au257  1  0.82625765  0.33430881  0.00276575  1
  Au  Au258  1  0.50148377  0.67285107  0.83303010  1
  Au  Au259  1  0.50321005  0.66268762  0.17001283  1
  Au  Au260  1  -0.00621715  0.16762190  0.66442374  1
  Au  Au261  1  0.82501853  0.00024519  0.82779055  1
  Au  Au262  1  -0.00359957  0.32951478  0.32883154  1
  Au  Au263  1  0.67892504  0.00302097  0.33421598  1
  Au  Au264  1  0.50599204  0.17218305  0.65985910  1
  Au  Au265  1  0.32043344  0.66463218  0.00083163  1
  Au  Au266  1  0.33154092  0.00433233  0.66010104  1
  Au  Au267  1  0.50198151  0.84197221  0.15837618  1
  Au  Au268  1  -0.00420381  0.16908827  0.17523040  1
  Au  Au269  1  0.50215588  0.83027309  0.33779878  1
  Au  Au270  1  0.32975449  0.32813071  0.49889945  1
  Au  Au271  1  0.83216877  0.50206816  0.82410200  1
  Au  Au272  1  0.17469708  0.50099305  0.84175703  1
  Au  Au273  1  0.66339801  0.17313400  -0.00298771  1
  Au  Au274  1  0.17450674  0.65892554  0.50472030  1
  Au  Au275  1  0.83316109  0.15953197  0.00022978  1
  Au  Au276  1  0.66493419  0.66616594  0.50048750  1
  Au  Au277  1  -0.00236350  0.67018720  0.82941499  1
  Au  Au278  1  0.67462659  0.32754046  0.50012852  1
  Au  Au279  1  0.67705094  0.84047266  0.50367038  1
  Au  Au280  1  0.33378378  0.83255017  0.49838601  1
  Au  Au281  1  0.66939194  0.49972768  0.33458850  1
  Au  Au282  1  0.16022469  0.49877057  0.15962202  1
  Au  Au283  1  0.32583371  0.83973583  -0.00119511  1
  Au  Au284  1  0.83756593  0.66796828  0.50243613  1
  Au  Au285  1  0.15791662  0.83086797  0.50184147  1
  Au  Au286  1  0.17312290  0.00315691  0.33834572  1
  Au  Au287  1  0.34211429  0.50742830  0.66916010  1
