# generated using pymatgen
data_Ca24Ti8Al207Au49
_symmetry_space_group_name_H-M   'P 1'
_cell_length_a   17.31921791
_cell_length_b   17.32032993
_cell_length_c   17.31899654
_cell_angle_alpha   89.99838784
_cell_angle_beta   90.00324182
_cell_angle_gamma   89.99577272
_symmetry_Int_Tables_number   1
_chemical_formula_structural   Ca24Ti8Al207Au49
_chemical_formula_sum   'Ca24 Ti8 Al207 Au49'
_cell_volume   5195.25848598
_cell_formula_units_Z   1
loop_
 _symmetry_equiv_pos_site_id
 _symmetry_equiv_pos_as_xyz
  1  'x, y, z'
loop_
 _atom_site_type_symbol
 _atom_site_label
 _atom_site_symmetry_multiplicity
 _atom_site_fract_x
 _atom_site_fract_y
 _atom_site_fract_z
 _atom_site_occupancy
  Ca  Ca0  1  0.25192983  -0.00077556  0.00051870  1
  Ca  Ca1  1  0.25126284  -0.00457711  0.49922648  1
  Ca  Ca2  1  0.25492972  0.50177349  -0.00150411  1
  Ca  Ca3  1  0.25072532  0.50098810  0.50030739  1
  Ca  Ca4  1  0.74644015  0.00001333  -0.00390640  1
  Ca  Ca5  1  0.74691111  0.00705048  0.50485469  1
  Ca  Ca6  1  0.74940927  0.50375000  0.00338004  1
  Ca  Ca7  1  0.75588391  0.49532517  0.49618256  1
  Ca  Ca8  1  -0.00169822  0.24950279  0.00197741  1
  Ca  Ca9  1  -0.00143488  0.24830349  0.49761629  1
  Ca  Ca10  1  0.00100906  0.75028202  0.00077072  1
  Ca  Ca11  1  0.00197804  0.75186136  0.50018855  1
  Ca  Ca12  1  0.50313109  0.24736829  -0.00282256  1
  Ca  Ca13  1  0.50253792  0.24755855  0.50084529  1
  Ca  Ca14  1  0.49753928  0.75557217  -0.00254227  1
  Ca  Ca15  1  0.49318370  0.74808801  0.50184898  1
  Ca  Ca16  1  0.00280738  -0.00120199  0.24983444  1
  Ca  Ca17  1  0.00005152  -0.00394695  0.75161415  1
  Ca  Ca18  1  -0.00142929  0.50153162  0.24794866  1
  Ca  Ca19  1  -0.00220883  0.50303430  0.74999081  1
  Ca  Ca20  1  0.49885103  0.00562573  0.24467757  1
  Ca  Ca21  1  0.50519607  0.00446290  0.75487467  1
  Ca  Ca22  1  0.50025335  0.49489709  0.24717708  1
  Ca  Ca23  1  0.50066995  0.49745849  0.75299113  1
  Ti  Ti24  1  0.25152770  0.24852218  0.24895925  1
  Ti  Ti25  1  0.25248482  0.24991139  0.75106009  1
  Ti  Ti26  1  0.24901767  0.75217010  0.25019568  1
  Ti  Ti27  1  0.24977520  0.74944905  0.74955232  1
  Ti  Ti28  1  0.74946031  0.24910086  0.24968791  1
  Ti  Ti29  1  0.74950799  0.24929133  0.74941561  1
  Ti  Ti30  1  0.75336182  0.75137005  0.25050177  1
  Ti  Ti31  1  0.75090803  0.75148472  0.74967722  1
  Al  Al32  1  0.07885377  0.08085923  0.09038488  1
  Al  Al33  1  0.07251952  0.07023809  0.57730101  1
  Al  Al34  1  0.08200596  0.58803043  0.08822569  1
  Al  Al35  1  0.08208003  0.58619410  0.58220307  1
  Al  Al36  1  0.58261223  0.09180782  0.07504292  1
  Al  Al37  1  0.59187186  0.09210783  0.59212698  1
  Al  Al38  1  0.58251750  0.57238646  0.07799317  1
  Al  Al39  1  0.57441706  0.57467802  0.57794294  1
  Al  Al40  1  0.41643813  0.41191021  0.07492742  1
  Al  Al41  1  0.41529427  0.42186544  0.59406942  1
  Al  Al42  1  0.41271602  0.92275684  0.08368125  1
  Al  Al43  1  0.41151027  0.92069370  0.58093220  1
  Al  Al44  1  0.92043294  0.42137168  0.08166557  1
  Al  Al45  1  0.91269414  0.41333611  0.60115097  1
  Al  Al46  1  0.92532884  0.91062752  0.08689252  1
  Al  Al47  1  0.92177468  0.91685874  0.59872717  1
  Al  Al48  1  0.42316674  0.08695899  0.40467557  1
  Al  Al49  1  0.42096850  0.08810360  0.90497924  1
  Al  Al50  1  0.40539762  0.57833566  0.42946442  1
  Al  Al51  1  0.40942732  0.58065192  0.91725913  1
  Al  Al52  1  0.91514367  0.09480079  0.41833866  1
  Al  Al53  1  0.91115169  0.07376978  0.90881140  1
  Al  Al54  1  0.92231817  0.58185126  0.40445850  1
  Al  Al55  1  0.91421948  0.58470629  0.90579456  1
  Al  Al56  1  0.07005133  0.41755189  0.41788736  1
  Al  Al57  1  0.07863295  0.42102655  0.92202455  1
  Al  Al58  1  0.08827125  0.90875851  0.41885202  1
  Al  Al59  1  0.07982473  0.90758924  0.91414431  1
  Al  Al60  1  0.58540079  0.41077523  0.40904093  1
  Al  Al61  1  0.58187343  0.39864049  0.91443680  1
  Al  Al62  1  0.57740519  0.92822446  0.42676811  1
  Al  Al63  1  0.59561751  0.92317397  0.91403048  1
  Al  Al64  1  0.07297237  0.08034710  0.40549566  1
  Al  Al65  1  0.07455734  0.07357705  0.92006565  1
  Al  Al66  1  0.07911326  0.59519726  0.41674295  1
  Al  Al67  1  0.07766808  0.58785508  0.91868162  1
  Al  Al68  1  0.58486462  0.09574650  0.41771199  1
  Al  Al69  1  0.59015365  0.09338500  0.91029812  1
  Al  Al70  1  0.59108605  0.56746106  0.41584241  1
  Al  Al71  1  0.57904667  0.57800032  0.91898627  1
  Al  Al72  1  0.42490911  0.41816106  0.41229983  1
  Al  Al73  1  0.41720083  0.40754106  0.91215676  1
  Al  Al74  1  0.40923987  0.92370528  0.41987621  1
  Al  Al75  1  0.41241670  0.92565170  0.91625995  1
  Al  Al76  1  0.91545496  0.41503909  0.41229914  1
  Al  Al77  1  0.90804317  0.42542920  0.90799061  1
  Al  Al78  1  0.92710526  0.91879503  0.41384430  1
  Al  Al79  1  0.91567558  0.91447181  0.90159629  1
  Al  Al80  1  0.08203257  0.42116660  0.08471285  1
  Al  Al81  1  0.07187714  0.41521424  0.59367930  1
  Al  Al82  1  0.08468545  0.91031627  0.08486771  1
  Al  Al83  1  0.08346567  0.90222691  0.58332799  1
  Al  Al84  1  0.58962590  0.40886211  0.07789635  1
  Al  Al85  1  0.58031036  0.41259734  0.58383443  1
  Al  Al86  1  0.58211476  0.91698273  0.07295865  1
  Al  Al87  1  0.58760708  0.93194616  0.59034959  1
  Al  Al88  1  0.41854763  0.08167566  0.08784200  1
  Al  Al89  1  0.42655831  0.08079276  0.59109274  1
  Al  Al90  1  0.40853061  0.58284757  0.07348674  1
  Al  Al91  1  0.39827126  0.58237569  0.58771769  1
  Al  Al92  1  0.92179309  0.08533531  0.08468332  1
  Al  Al93  1  0.90704275  0.07982453  0.58182895  1
  Al  Al94  1  0.92208559  0.58522399  0.08611255  1
  Al  Al95  1  0.91775115  0.57461930  0.59583629  1
  Al  Al96  1  0.25555826  0.13422696  0.13262533  1
  Al  Al97  1  0.25309807  0.13774284  0.63521928  1
  Al  Al98  1  0.24932535  0.63873745  0.13001076  1
  Al  Al99  1  0.25009532  0.63185132  0.63354252  1
  Al  Al100  1  0.74693797  0.13027316  0.13445195  1
  Al  Al101  1  0.74459851  0.13284448  0.63902570  1
  Al  Al102  1  0.74939399  0.63723835  0.13729700  1
  Al  Al103  1  0.75549816  0.63541333  0.63731652  1
  Al  Al104  1  0.25450371  0.36548069  0.13428040  1
  Al  Al105  1  0.25666542  0.37097016  0.63862619  1
  Al  Al106  1  0.25247409  0.86590399  0.13450159  1
  Al  Al107  1  0.24962168  0.85975171  0.62997023  1
  Al  Al108  1  0.74560685  0.36426559  0.13494947  1
  Al  Al109  1  0.75072163  0.36546297  0.63416155  1
  Al  Al110  1  0.75149930  0.87167229  0.13531267  1
  Al  Al111  1  0.74960184  0.86555018  0.63573630  1
  Al  Al112  1  0.25588096  0.13398358  0.36595039  1
  Al  Al113  1  0.25229886  0.13005938  0.86427992  1
  Al  Al114  1  0.25185044  0.63765725  0.36820582  1
  Al  Al115  1  0.24987340  0.63742786  0.86928002  1
  Al  Al116  1  0.75037855  0.13575120  0.36686783  1
  Al  Al117  1  0.74561838  0.13151369  0.86456863  1
  Al  Al118  1  0.74941037  0.62872031  0.36312553  1
  Al  Al119  1  0.75196233  0.63419756  0.86229646  1
  Al  Al120  1  0.25615684  0.35895180  0.36694693  1
  Al  Al121  1  0.25488807  0.36381922  0.86542400  1
  Al  Al122  1  0.24941990  0.86217612  0.37126095  1
  Al  Al123  1  0.24959532  0.86837696  0.86317876  1
  Al  Al124  1  0.74770539  0.36745812  0.36474235  1
  Al  Al125  1  0.74763064  0.35974961  0.86310771  1
  Al  Al126  1  0.75640402  0.86678782  0.36639627  1
  Al  Al127  1  0.75107555  0.87051485  0.86321076  1
  Al  Al128  1  0.13723539  0.24765559  0.13314001  1
  Al  Al129  1  0.13554436  0.25254363  0.63707924  1
  Al  Al130  1  0.13365763  0.75153863  0.13456159  1
  Al  Al131  1  0.12991591  0.75273663  0.63405741  1
  Al  Al132  1  0.63625972  0.24885076  0.13089103  1
  Al  Al133  1  0.63508112  0.24968697  0.63398344  1
  Al  Al134  1  0.63799731  0.75429003  0.13493166  1
  Al  Al135  1  0.63643416  0.74716614  0.63527437  1
  Al  Al136  1  0.13566669  0.24718126  0.36454684  1
  Al  Al137  1  0.13714314  0.25221505  0.86616938  1
  Al  Al138  1  0.13056887  0.75240369  0.36583360  1
  Al  Al139  1  0.13564944  0.75036367  0.86453685  1
  Al  Al140  1  0.63350148  0.24372338  0.36555009  1
  Al  Al141  1  0.63302456  0.24657936  0.86538301  1
  Al  Al142  1  0.64032241  0.75282336  0.36560944  1
  Al  Al143  1  0.63797522  0.75507744  0.86481868  1
  Al  Al144  1  0.36619111  0.25225262  0.12994203  1
  Al  Al145  1  0.36516472  0.25256236  0.63096888  1
  Al  Al146  1  0.36183029  0.75246547  0.12980388  1
  Al  Al147  1  0.36291471  0.74706412  0.62940439  1
  Al  Al148  1  0.86300892  0.24796525  0.13356465  1
  Al  Al149  1  0.86500867  0.25281797  0.63950070  1
  Al  Al150  1  0.86547585  0.75369919  0.13521399  1
  Al  Al151  1  0.87471260  0.75762871  0.64169948  1
  Al  Al152  1  0.36732805  0.24530437  0.36868182  1
  Al  Al153  1  0.36900335  0.25111308  0.86832819  1
  Al  Al154  1  0.36356839  0.75000104  0.37020279  1
  Al  Al155  1  0.36412077  0.74896153  0.86940601  1
  Al  Al156  1  0.86419262  0.24830083  0.36427925  1
  Al  Al157  1  0.86334492  0.24877567  0.86363561  1
  Al  Al158  1  0.87425085  0.75244853  0.36291393  1
  Al  Al159  1  0.86549091  0.75303042  0.86249914  1
  Al  Al160  1  0.13723338  0.13362375  0.25050532  1
  Al  Al161  1  0.13637015  0.13381786  0.75232098  1
  Al  Al162  1  0.13675444  0.63883599  0.25232334  1
  Al  Al163  1  0.13500465  0.63629921  0.74459823  1
  Al  Al164  1  0.63479910  0.13300187  0.24861595  1
  Al  Al165  1  0.63481838  0.13232389  0.75321803  1
  Al  Al166  1  0.63353357  0.63768092  0.25235955  1
  Al  Al167  1  0.62953863  0.63673487  0.75207220  1
  Al  Al168  1  0.36495384  0.13285376  0.24998571  1
  Al  Al169  1  0.36804547  0.13722089  0.75559664  1
  Al  Al170  1  0.36246153  0.63857235  0.24644076  1
  Al  Al171  1  0.36592614  0.63691535  0.74881038  1
  Al  Al172  1  0.86243841  0.13020771  0.24965120  1
  Al  Al173  1  0.86238844  0.13290557  0.75154507  1
  Al  Al174  1  0.86650810  0.63552518  0.25404363  1
  Al  Al175  1  0.86634955  0.63420142  0.75004038  1
  Al  Al176  1  0.13709234  0.36245479  0.24834633  1
  Al  Al177  1  0.13542770  0.36511752  0.74645501  1
  Al  Al178  1  0.12923148  0.86304444  0.24935540  1
  Al  Al179  1  0.13197976  0.86344884  0.75130035  1
  Al  Al180  1  0.63436881  0.36144622  0.25039549  1
  Al  Al181  1  0.62705097  0.35992030  0.75395048  1
  Al  Al182  1  0.63862715  0.86915601  0.24719840  1
  Al  Al183  1  0.63820857  0.87447568  0.75244611  1
  Al  Al184  1  0.36604246  0.36239066  0.24759668  1
  Al  Al185  1  0.37185193  0.36020584  0.75250315  1
  Al  Al186  1  0.36000152  0.86985796  0.25237770  1
  Al  Al187  1  0.36361332  0.86323342  0.75248834  1
  Al  Al188  1  0.86337718  0.36428137  0.25094996  1
  Al  Al189  1  0.86354019  0.36820221  0.74995641  1
  Al  Al190  1  0.87110251  0.86788123  0.24853187  1
  Al  Al191  1  0.86508574  0.86925198  0.75338474  1
  Al  Al192  1  0.81595542  0.32987157  0.00012237  1
  Al  Al193  1  0.50238274  0.82758346  0.82924314  1
  Al  Al194  1  0.17429859  -0.00275005  0.67850382  1
  Al  Al195  1  0.32766719  0.49825377  0.81552991  1
  Al  Al196  1  0.17512644  0.33156864  0.50283416  1
  Al  Al197  1  0.17271837  0.50051935  0.81857438  1
  Al  Al198  1  0.49660945  0.66602760  0.33498383  1
  Al  Al199  1  0.67676960  0.00431780  0.32626142  1
  Al  Al200  1  0.66863745  0.68547878  -0.00051463  1
  Al  Al201  1  0.81784215  0.83125390  -0.00162059  1
  Al  Al202  1  0.67236353  0.49945070  0.18296651  1
  Al  Al203  1  0.82505788  0.50132640  0.17775747  1
  Al  Al204  1  0.81471686  0.00006403  0.68640137  1
  Al  Al205  1  0.18526694  0.32350376  0.00094537  1
  Al  Al206  1  0.18177513  -0.00136440  0.17263131  1
  Al  Al207  1  -0.00072144  0.33335144  0.81557099  1
  Al  Al208  1  -0.00002557  0.18149990  0.66581960  1
  Al  Al209  1  0.83062895  0.67301463  0.50053724  1
  Al  Al210  1  0.17475129  0.49937606  0.33397544  1
  Al  Al211  1  0.32840962  0.00100784  0.68663600  1
  Al  Al212  1  0.67898818  0.31690311  0.49546984  1
  Al  Al213  1  0.49990985  0.18049944  0.18492498  1
  Al  Al214  1  0.18177273  0.81805134  -0.00091149  1
  Al  Al215  1  0.67064272  0.67802297  0.49921604  1
  Al  Al216  1  0.50045613  0.67321663  0.16805421  1
  Al  Al217  1  0.82487409  0.83236382  0.50267407  1
  Al  Al218  1  -0.00035007  0.17363244  0.82500244  1
  Al  Al219  1  0.49886628  0.82939377  0.17206136  1
  Al  Al220  1  0.80895505  0.18367156  0.50414843  1
  Al  Al221  1  0.32472058  0.17257839  -0.00211516  1
  Al  Al222  1  0.68387756  0.49709217  0.82622364  1
  Al  Al223  1  0.50002552  0.82921577  0.32986816  1
  Al  Al224  1  0.17527106  0.16711510  0.49895377  1
  Al  Al225  1  -0.00050226  0.68851734  0.18869851  1
  Al  Al226  1  0.81511576  0.17079339  -0.00208229  1
  Al  Al227  1  0.00003911  0.31113978  0.31730923  1
  Al  Al228  1  -0.00033472  0.18280425  0.19181423  1
  Al  Al229  1  0.68401642  0.50105094  0.67549216  1
  Al  Al230  1  0.17880852  -0.00334993  0.32549459  1
  Al  Al231  1  0.32553481  0.49927236  0.31687555  1
  Al  Al232  1  0.82767136  0.67397711  -0.00032440  1
  Al  Al233  1  0.49960380  0.31015584  0.31581301  1
  Al  Al234  1  0.18597995  0.68722592  0.50059578  1
  Al  Al235  1  0.50080192  0.18324646  0.68896969  1
  Al  Al236  1  0.50165603  0.82378849  0.67545135  1
  Al  Al237  1  0.00090628  0.68647247  0.82052150  1
  Al  Al238  1  0.18174132  0.50209441  0.17487282  1
  Au  Au239  1  0.84081923  -0.00200730  0.16942827  1
  Au  Au240  1  0.17112757  0.66981776  0.00147293  1
  Au  Au241  1  -0.00248268  0.32877699  0.83224908  1
  Au  Au242  1  0.50115761  0.83726240  0.83161432  1
  Au  Au243  1  0.49472587  0.65810800  0.66731521  1
  Au  Au244  1  0.16608586  0.15421121  0.49518474  1
  Au  Au245  1  0.66792828  0.00215464  0.33478623  1
  Au  Au246  1  0.50176002  0.32710780  0.16546024  1
  Au  Au247  1  0.66609205  0.00120687  0.15852283  1
  Au  Au248  1  0.66957070  0.32506369  0.49839855  1
  Au  Au249  1  0.34403597  0.16356774  0.50277270  1
  Au  Au250  1  0.83411046  0.00340996  0.33569811  1
  Au  Au251  1  0.33727101  0.17493224  -0.00066746  1
  Au  Au252  1  0.81984207  0.34626678  0.00019486  1
  Au  Au253  1  0.84238930  0.32748763  0.50375682  1
  Au  Au254  1  0.00014900  0.33022672  0.17094040  1
  Au  Au255  1  0.83675072  0.83644706  0.50223485  1
  Au  Au256  1  0.32730703  0.00270737  0.32278704  1
  Au  Au257  1  0.67450582  0.66927823  0.00027425  1
  Au  Au258  1  0.66656267  0.66611165  0.49796870  1
  Au  Au259  1  0.49585632  0.65098434  0.33995782  1
  Au  Au260  1  0.17554235  -0.00719501  0.66242285  1
  Au  Au261  1  0.00261284  0.82284021  0.32261105  1
  Au  Au262  1  0.15973284  0.50117643  0.32613925  1
  Au  Au263  1  0.49912086  0.33045713  0.67811479  1
  Au  Au264  1  0.83960654  0.65800452  0.50037046  1
  Au  Au265  1  0.16032727  0.16471595  -0.00074131  1
  Au  Au266  1  0.32491426  0.82804737  0.50092610  1
  Au  Au267  1  0.17360772  -0.00172914  0.84057999  1
  Au  Au268  1  0.83395093  0.83363287  -0.00283897  1
  Au  Au269  1  0.67372700  0.49325647  0.83938856  1
  Au  Au270  1  -0.00072954  0.67397520  0.67412601  1
  Au  Au271  1  0.17428958  0.50461685  0.83494472  1
  Au  Au272  1  0.33167968  0.49797126  0.16450239  1
  Au  Au273  1  0.17065703  0.67967711  0.50027008  1
  Au  Au274  1  0.82593680  0.49845207  0.32599514  1
  Au  Au275  1  0.66554280  0.83840515  0.50449016  1
  Au  Au276  1  0.33906452  0.33868100  0.49957750  1
  Au  Au277  1  0.50152986  0.83679749  0.66377082  1
  Au  Au278  1  0.49578685  0.66779969  0.83663509  1
  Au  Au279  1  0.49937117  0.84476055  0.32430557  1
  Au  Au280  1  0.32994456  0.83260580  -0.00037186  1
  Au  Au281  1  0.67951918  0.50153787  0.65880898  1
  Au  Au282  1  0.15818135  0.33255619  0.50325529  1
  Au  Au283  1  0.17393392  0.49905463  0.66150724  1
  Au  Au284  1  0.49585435  0.67414649  0.15260193  1
  Au  Au285  1  -0.00166612  0.16505761  0.67120158  1
  Au  Au286  1  0.17728468  0.33859025  0.00201492  1
  Au  Au287  1  0.82782231  0.16026707  -0.00309315  1
