# generated using pymatgen
data_Ca24Ti8Al207Au49
_symmetry_space_group_name_H-M   'P 1'
_cell_length_a   17.32143087
_cell_length_b   17.32153169
_cell_length_c   17.32106774
_cell_angle_alpha   89.99848296
_cell_angle_beta   90.00257095
_cell_angle_gamma   89.99919215
_symmetry_Int_Tables_number   1
_chemical_formula_structural   Ca24Ti8Al207Au49
_chemical_formula_sum   'Ca24 Ti8 Al207 Au49'
_cell_volume   5196.90427153
_cell_formula_units_Z   1
loop_
 _symmetry_equiv_pos_site_id
 _symmetry_equiv_pos_as_xyz
  1  'x, y, z'
loop_
 _atom_site_type_symbol
 _atom_site_label
 _atom_site_symmetry_multiplicity
 _atom_site_fract_x
 _atom_site_fract_y
 _atom_site_fract_z
 _atom_site_occupancy
  Ca  Ca0  1  0.25042846  -0.00016656  -0.00283849  1
  Ca  Ca1  1  0.25331651  0.00576903  0.50191639  1
  Ca  Ca2  1  0.24597924  0.50132880  0.00299801  1
  Ca  Ca3  1  0.24869280  0.49931857  0.49915168  1
  Ca  Ca4  1  0.74395712  0.00367051  0.00458858  1
  Ca  Ca5  1  0.74306426  -0.00130689  0.50057333  1
  Ca  Ca6  1  0.74426331  0.49765730  -0.00047000  1
  Ca  Ca7  1  0.74646236  0.50365666  0.50160756  1
  Ca  Ca8  1  -0.00090464  0.25173315  0.00290642  1
  Ca  Ca9  1  0.00205062  0.24842321  0.49888722  1
  Ca  Ca10  1  0.00067358  0.75544862  -0.00470684  1
  Ca  Ca11  1  0.00491177  0.74888112  0.50711437  1
  Ca  Ca12  1  0.50092177  0.25070964  -0.00093438  1
  Ca  Ca13  1  0.49792793  0.24539361  0.50158061  1
  Ca  Ca14  1  0.49737083  0.75373204  -0.00159077  1
  Ca  Ca15  1  0.49643522  0.75117639  0.50238187  1
  Ca  Ca16  1  -0.00029077  0.00402337  0.25233913  1
  Ca  Ca17  1  0.00035276  -0.00077300  0.74449589  1
  Ca  Ca18  1  0.00322048  0.49321698  0.25487081  1
  Ca  Ca19  1  -0.00057941  0.50175978  0.74207618  1
  Ca  Ca20  1  0.50002638  -0.00046268  0.25659699  1
  Ca  Ca21  1  0.50003797  -0.00124665  0.74080936  1
  Ca  Ca22  1  0.49885719  0.50187864  0.25636524  1
  Ca  Ca23  1  0.49853630  0.50107799  0.74662011  1
  Ti  Ti24  1  0.24977416  0.24828355  0.25214140  1
  Ti  Ti25  1  0.24991488  0.24954484  0.74829241  1
  Ti  Ti26  1  0.25051368  0.75135599  0.25196957  1
  Ti  Ti27  1  0.25038088  0.75032710  0.74805231  1
  Ti  Ti28  1  0.74964473  0.24925710  0.25135463  1
  Ti  Ti29  1  0.74933880  0.24952573  0.74877502  1
  Ti  Ti30  1  0.74779521  0.75115515  0.25158235  1
  Ti  Ti31  1  0.74954249  0.75084709  0.74676346  1
  Al  Al32  1  0.07878072  0.08646368  0.09898077  1
  Al  Al33  1  0.08594741  0.09179874  0.58116268  1
  Al  Al34  1  0.08172708  0.57140113  0.08260762  1
  Al  Al35  1  0.09078374  0.59384875  0.58934769  1
  Al  Al36  1  0.58459053  0.08267184  0.08952684  1
  Al  Al37  1  0.58169946  0.08040608  0.58832519  1
  Al  Al38  1  0.57493033  0.58682638  0.09350733  1
  Al  Al39  1  0.57889269  0.59073227  0.58810423  1
  Al  Al40  1  0.41923716  0.42371668  0.09413693  1
  Al  Al41  1  0.41894623  0.41383465  0.58387479  1
  Al  Al42  1  0.41892975  0.91549658  0.08654262  1
  Al  Al43  1  0.42213435  0.91174088  0.58773956  1
  Al  Al44  1  0.92387927  0.40876760  0.09468410  1
  Al  Al45  1  0.92656316  0.41956566  0.57640919  1
  Al  Al46  1  0.91724100  0.93415974  0.09073403  1
  Al  Al47  1  0.92242421  0.90748116  0.58391885  1
  Al  Al48  1  0.41524041  0.09621530  0.42197185  1
  Al  Al49  1  0.41652606  0.07463957  0.89898574  1
  Al  Al50  1  0.41163260  0.58739620  0.40813963  1
  Al  Al51  1  0.42678793  0.58176501  0.91532704  1
  Al  Al52  1  0.91835203  0.08100682  0.41013673  1
  Al  Al53  1  0.92482400  0.08282510  0.92164289  1
  Al  Al54  1  0.91742276  0.57236093  0.42742052  1
  Al  Al55  1  0.92270224  0.57683582  0.90177965  1
  Al  Al56  1  0.08575591  0.41301576  0.41079359  1
  Al  Al57  1  0.07777369  0.41678391  0.90460298  1
  Al  Al58  1  0.09493139  0.91629200  0.42534718  1
  Al  Al59  1  0.08635699  0.91658244  0.91011507  1
  Al  Al60  1  0.57778146  0.41839839  0.41929942  1
  Al  Al61  1  0.58973812  0.41972214  0.91412157  1
  Al  Al62  1  0.58595243  0.90839815  0.42386556  1
  Al  Al63  1  0.57496634  0.91964790  0.90664301  1
  Al  Al64  1  0.08921119  0.09269853  0.41963014  1
  Al  Al65  1  0.08421593  0.08002212  0.91219441  1
  Al  Al66  1  0.09252006  0.58097520  0.42623429  1
  Al  Al67  1  0.07755191  0.57852251  0.90360958  1
  Al  Al68  1  0.57589145  0.08339634  0.41715397  1
  Al  Al69  1  0.57990223  0.08094528  0.91053213  1
  Al  Al70  1  0.57475284  0.59371857  0.41243932  1
  Al  Al71  1  0.58718826  0.57862921  0.90263242  1
  Al  Al72  1  0.41012035  0.42255413  0.41293815  1
  Al  Al73  1  0.42464578  0.42131150  0.92115387  1
  Al  Al74  1  0.42418645  0.91610041  0.42234143  1
  Al  Al75  1  0.41487983  0.91687326  0.89576694  1
  Al  Al76  1  0.92358637  0.41190552  0.40750244  1
  Al  Al77  1  0.92083361  0.41464348  0.90377174  1
  Al  Al78  1  0.90963120  0.92182266  0.41832714  1
  Al  Al79  1  0.92879728  0.92106205  0.91659722  1
  Al  Al80  1  0.08164722  0.40830796  0.09481673  1
  Al  Al81  1  0.09103415  0.42060100  0.58670882  1
  Al  Al82  1  0.08828786  0.92951332  0.08713068  1
  Al  Al83  1  0.08577444  0.90357159  0.58448935  1
  Al  Al84  1  0.57712247  0.41615440  0.07913891  1
  Al  Al85  1  0.57876236  0.41656831  0.58610459  1
  Al  Al86  1  0.58018107  0.91928686  0.09058489  1
  Al  Al87  1  0.58675824  0.91046250  0.58858751  1
  Al  Al88  1  0.42209786  0.07943451  0.08663572  1
  Al  Al89  1  0.41673666  0.08858064  0.58468284  1
  Al  Al90  1  0.41849504  0.58293372  0.10663426  1
  Al  Al91  1  0.41846484  0.59267245  0.58459908  1
  Al  Al92  1  0.91820961  0.09152564  0.10200774  1
  Al  Al93  1  0.92664339  0.08646666  0.58395671  1
  Al  Al94  1  0.92221153  0.56992885  0.08030847  1
  Al  Al95  1  0.92660423  0.59489228  0.58872816  1
  Al  Al96  1  0.24170521  0.13287987  0.14212332  1
  Al  Al97  1  0.24985551  0.13561280  0.63113762  1
  Al  Al98  1  0.25335556  0.63605582  0.13842276  1
  Al  Al99  1  0.24943641  0.63126565  0.63499978  1
  Al  Al100  1  0.75404602  0.12884237  0.14280801  1
  Al  Al101  1  0.74478499  0.13355848  0.63533532  1
  Al  Al102  1  0.74332029  0.62953540  0.13900297  1
  Al  Al103  1  0.74625327  0.64032615  0.63443437  1
  Al  Al104  1  0.24632030  0.36090408  0.13663989  1
  Al  Al105  1  0.24897603  0.36752299  0.63509832  1
  Al  Al106  1  0.25268970  0.86125432  0.12930451  1
  Al  Al107  1  0.24588632  0.86294841  0.63285395  1
  Al  Al108  1  0.74876615  0.36753604  0.13916352  1
  Al  Al109  1  0.74924584  0.36238480  0.63469459  1
  Al  Al110  1  0.74574307  0.86797610  0.13738905  1
  Al  Al111  1  0.74768249  0.86164679  0.62667850  1
  Al  Al112  1  0.24882767  0.13887406  0.36847699  1
  Al  Al113  1  0.25037693  0.13259706  0.85913059  1
  Al  Al114  1  0.25139423  0.63411999  0.36518788  1
  Al  Al115  1  0.24645999  0.63750883  0.85917349  1
  Al  Al116  1  0.74810498  0.13782654  0.36237602  1
  Al  Al117  1  0.74879056  0.13900396  0.86352517  1
  Al  Al118  1  0.74545606  0.63592950  0.36527200  1
  Al  Al119  1  0.74564137  0.63504574  0.86056687  1
  Al  Al120  1  0.25041131  0.36093516  0.36456503  1
  Al  Al121  1  0.24992293  0.36136446  0.86643452  1
  Al  Al122  1  0.24898473  0.86559100  0.36647900  1
  Al  Al123  1  0.25197592  0.86819170  0.86183217  1
  Al  Al124  1  0.74746395  0.36160130  0.36558660  1
  Al  Al125  1  0.74771892  0.36351964  0.86313537  1
  Al  Al126  1  0.74571090  0.86351723  0.37231600  1
  Al  Al127  1  0.74759417  0.86235294  0.85982632  1
  Al  Al128  1  0.12951426  0.24998056  0.13671667  1
  Al  Al129  1  0.13350739  0.24713854  0.63390879  1
  Al  Al130  1  0.13356633  0.75163762  0.13558413  1
  Al  Al131  1  0.13658338  0.74762218  0.63078897  1
  Al  Al132  1  0.63655820  0.24357350  0.13794360  1
  Al  Al133  1  0.63340504  0.24905399  0.63517192  1
  Al  Al134  1  0.62851631  0.74905882  0.14073755  1
  Al  Al135  1  0.62777467  0.75464950  0.63408235  1
  Al  Al136  1  0.12918118  0.24977952  0.36205601  1
  Al  Al137  1  0.13454972  0.24998963  0.86576257  1
  Al  Al138  1  0.13916227  0.75033811  0.37085324  1
  Al  Al139  1  0.13475402  0.75690540  0.86256567  1
  Al  Al140  1  0.62660174  0.25120379  0.36097064  1
  Al  Al141  1  0.62793108  0.24570608  0.86085021  1
  Al  Al142  1  0.63214595  0.75018256  0.36415316  1
  Al  Al143  1  0.63289618  0.74845923  0.86159811  1
  Al  Al144  1  0.36371675  0.24609015  0.13767893  1
  Al  Al145  1  0.36352151  0.24489758  0.63175501  1
  Al  Al146  1  0.37153699  0.74943201  0.14121466  1
  Al  Al147  1  0.36591409  0.75113475  0.63372294  1
  Al  Al148  1  0.86797263  0.25101419  0.13669729  1
  Al  Al149  1  0.86814871  0.24994122  0.63356217  1
  Al  Al150  1  0.86541175  0.75159719  0.13850644  1
  Al  Al151  1  0.86855080  0.75136497  0.63298649  1
  Al  Al152  1  0.37147350  0.24413802  0.36630915  1
  Al  Al153  1  0.37150639  0.25083704  0.86018576  1
  Al  Al154  1  0.36660604  0.74836977  0.36665155  1
  Al  Al155  1  0.36442832  0.74857925  0.86513217  1
  Al  Al156  1  0.87305835  0.25186658  0.36181767  1
  Al  Al157  1  0.86609588  0.25134791  0.86437396  1
  Al  Al158  1  0.86342769  0.75399767  0.36474294  1
  Al  Al159  1  0.86476210  0.75170245  0.86226731  1
  Al  Al160  1  0.12785867  0.13381038  0.25296280  1
  Al  Al161  1  0.13194211  0.13538521  0.74606294  1
  Al  Al162  1  0.13586037  0.63638014  0.25014577  1
  Al  Al163  1  0.13305647  0.63577045  0.74257454  1
  Al  Al164  1  0.62947984  0.13057384  0.25272312  1
  Al  Al165  1  0.62863272  0.13477353  0.74340082  1
  Al  Al166  1  0.63036621  0.63203953  0.25351772  1
  Al  Al167  1  0.62712364  0.64041022  0.74498072  1
  Al  Al168  1  0.36882689  0.13225331  0.25287067  1
  Al  Al169  1  0.36864121  0.13641223  0.74604991  1
  Al  Al170  1  0.36891844  0.63593084  0.25570384  1
  Al  Al171  1  0.37153243  0.63780119  0.74312550  1
  Al  Al172  1  0.87269324  0.13814184  0.25173293  1
  Al  Al173  1  0.86880574  0.13638275  0.74222247  1
  Al  Al174  1  0.86426220  0.63406486  0.24899982  1
  Al  Al175  1  0.86477669  0.63633230  0.74492452  1
  Al  Al176  1  0.13068639  0.36196775  0.25118815  1
  Al  Al177  1  0.13371994  0.36276045  0.74769109  1
  Al  Al178  1  0.13690348  0.86981292  0.24752619  1
  Al  Al179  1  0.12742529  0.86234534  0.74451353  1
  Al  Al180  1  0.63425586  0.37115101  0.25209093  1
  Al  Al181  1  0.63336143  0.36515809  0.75307218  1
  Al  Al182  1  0.63481861  0.87212540  0.25140928  1
  Al  Al183  1  0.63389732  0.86687916  0.74091206  1
  Al  Al184  1  0.36608343  0.36248781  0.25547850  1
  Al  Al185  1  0.36331324  0.36635145  0.74566313  1
  Al  Al186  1  0.36510621  0.86770222  0.25039578  1
  Al  Al187  1  0.36482413  0.86390941  0.74608406  1
  Al  Al188  1  0.86764845  0.36301068  0.24958167  1
  Al  Al189  1  0.86727774  0.36430164  0.74934737  1
  Al  Al190  1  0.86678979  0.86681112  0.25012373  1
  Al  Al191  1  0.87131477  0.86340952  0.74211269  1
  Al  Al192  1  0.00126756  0.31726867  0.68072271  1
  Al  Al193  1  0.82226936  0.16896285  0.00624290  1
  Al  Al194  1  0.00172169  0.82724285  0.32996825  1
  Al  Al195  1  0.31180472  -0.00076678  0.17985883  1
  Al  Al196  1  0.82448198  0.67860784  0.49943043  1
  Al  Al197  1  0.17058001  0.00037327  0.67683674  1
  Al  Al198  1  0.32807370  0.00008152  0.68032528  1
  Al  Al199  1  0.18798632  0.49903342  0.32182601  1
  Al  Al200  1  0.50053383  0.81717949  0.80616446  1
  Al  Al201  1  0.82677434  0.17013475  0.49894412  1
  Al  Al202  1  0.81657403  -0.00134505  0.66717375  1
  Al  Al203  1  0.31901546  0.82778725  0.50027387  1
  Al  Al204  1  0.16824577  0.67667530  -0.00463631  1
  Al  Al205  1  0.17203631  0.31508584  0.49916008  1
  Al  Al206  1  0.66912244  0.68487077  0.50053816  1
  Al  Al207  1  0.32643486  0.31712194  0.49862011  1
  Al  Al208  1  0.17151758  0.49910783  0.80954914  1
  Al  Al209  1  0.82388791  0.32618455  0.49762647  1
  Al  Al210  1  0.17917325  -0.00024585  0.32274987  1
  Al  Al211  1  0.00045233  0.68237738  0.80827427  1
  Al  Al212  1  0.81348019  0.49908709  0.82006535  1
  Al  Al213  1  0.83037261  0.32885711  -0.00038906  1
  Al  Al214  1  0.83080203  0.66852002  -0.00457498  1
  Al  Al215  1  0.50101296  0.31737909  0.18164052  1
  Al  Al216  1  -0.00157582  0.67044839  0.33204742  1
  Al  Al217  1  0.67023792  0.82814563  -0.00317692  1
  Al  Al218  1  0.81527590  0.00146696  0.31207870  1
  Al  Al219  1  -0.00035903  0.67731691  0.16985539  1
  Al  Al220  1  0.16809918  0.17492862  0.00520908  1
  Al  Al221  1  0.66994111  0.67092473  -0.00079213  1
  Al  Al222  1  0.49975430  0.81577131  0.32239790  1
  Al  Al223  1  0.31808627  0.49845680  0.19618591  1
  Al  Al224  1  0.67121698  0.17600227  0.49868240  1
  Al  Al225  1  0.32483485  0.33045341  0.00516409  1
  Al  Al226  1  0.82859423  0.50082591  0.66719150  1
  Al  Al227  1  0.49833131  0.31045578  0.68106629  1
  Al  Al228  1  0.32653609  0.16861793  -0.00416690  1
  Al  Al229  1  0.81933098  0.49911951  0.32447667  1
  Al  Al230  1  0.67194339  0.00028464  0.81047759  1
  Al  Al231  1  0.67388038  0.31872070  0.00074104  1
  Al  Al232  1  0.83048406  0.83155176  0.00447128  1
  Al  Al233  1  0.82722099  0.00064605  0.82724562  1
  Al  Al234  1  -0.00058519  0.18587703  0.81695518  1
  Al  Al235  1  0.31648932  0.67492576  0.50007193  1
  Al  Al236  1  0.32653110  0.50109024  0.82100966  1
  Al  Al237  1  0.33192208  0.67382456  0.00543855  1
  Al  Al238  1  0.67333811  0.50136200  0.68967724  1
  Au  Au239  1  0.50009220  0.67012962  0.81933068  1
  Au  Au240  1  0.49980979  0.16843949  0.17804986  1
  Au  Au241  1  0.32773794  0.50272362  0.66006913  1
  Au  Au242  1  0.00300909  0.66626910  0.34270474  1
  Au  Au243  1  0.83575174  0.33009313  0.49944047  1
  Au  Au244  1  0.00207769  0.33190171  0.67298672  1
  Au  Au245  1  0.83413240  0.84692239  0.00454655  1
  Au  Au246  1  0.00005488  0.17613280  0.32987062  1
  Au  Au247  1  0.82902700  0.34149944  -0.00050204  1
  Au  Au248  1  0.00157561  0.84191032  0.16699228  1
  Au  Au249  1  0.82709918  0.82738681  0.49950417  1
  Au  Au250  1  0.32023255  0.50128508  0.83681153  1
  Au  Au251  1  0.83776236  0.49696600  0.17791739  1
  Au  Au252  1  0.33561317  0.83996418  -0.00842184  1
  Au  Au253  1  0.17252269  0.49621991  0.17479994  1
  Au  Au254  1  0.16013440  0.33685958  -0.00510040  1
  Au  Au255  1  0.50221801  0.33753088  0.82651103  1
  Au  Au256  1  -0.00056459  0.66484401  0.17235624  1
  Au  Au257  1  -0.00114691  0.82924936  0.82042486  1
  Au  Au258  1  0.16797123  0.83910387  0.00317777  1
  Au  Au259  1  0.18028701  -0.00050791  0.82987573  1
  Au  Au260  1  0.16488224  0.16312690  0.00737954  1
  Au  Au261  1  0.49933210  0.16534603  0.81433015  1
  Au  Au262  1  0.65868523  0.66655508  0.00282002  1
  Au  Au263  1  0.66980529  0.50421324  0.34122891  1
  Au  Au264  1  0.00601119  0.83160717  0.34079896  1
  Au  Au265  1  0.83248461  0.00051104  0.66235802  1
  Au  Au266  1  0.17320426  0.00087322  0.66459104  1
  Au  Au267  1  0.49976779  0.82396485  0.17527200  1
  Au  Au268  1  0.67164465  0.50220514  0.67303299  1
  Au  Au269  1  0.66313775  0.49682070  0.16829297  1
  Au  Au270  1  0.83504732  0.65316763  -0.00636349  1
  Au  Au271  1  0.32314969  0.32943579  0.50049572  1
  Au  Au272  1  0.83381625  0.16561925  0.00187727  1
  Au  Au273  1  0.33395903  0.00261739  0.34317902  1
  Au  Au274  1  0.81838516  0.00029880  0.84204718  1
  Au  Au275  1  -0.00043546  0.16959817  0.82299428  1
  Au  Au276  1  0.34296847  0.16594378  -0.01036337  1
  Au  Au277  1  0.49693107  0.33057062  0.33012384  1
  Au  Au278  1  0.33478814  0.33798652  0.00521649  1
  Au  Au279  1  0.65881980  0.17066421  -0.00303098  1
  Au  Au280  1  0.66923808  -0.00073895  0.33997765  1
  Au  Au281  1  0.66117999  0.83664178  -0.00170415  1
  Au  Au282  1  0.34595782  0.66576334  0.00770597  1
  Au  Au283  1  0.66001569  0.32468463  0.50104878  1
  Au  Au284  1  0.68031029  0.00077830  0.17196282  1
  Au  Au285  1  0.15762918  0.66364850  -0.00597972  1
  Au  Au286  1  0.16841577  0.00466173  0.32753226  1
  Au  Au287  1  0.32066834  -0.00049177  0.16541003  1
