# generated using pymatgen
data_Ca24Ti8Al207Au49
_symmetry_space_group_name_H-M   'P 1'
_cell_length_a   17.31741973
_cell_length_b   17.31938943
_cell_length_c   17.31871142
_cell_angle_alpha   90.00217214
_cell_angle_beta   90.00821469
_cell_angle_gamma   89.99703385
_symmetry_Int_Tables_number   1
_chemical_formula_structural   Ca24Ti8Al207Au49
_chemical_formula_sum   'Ca24 Ti8 Al207 Au49'
_cell_volume   5194.35145709
_cell_formula_units_Z   1
loop_
 _symmetry_equiv_pos_site_id
 _symmetry_equiv_pos_as_xyz
  1  'x, y, z'
loop_
 _atom_site_type_symbol
 _atom_site_label
 _atom_site_symmetry_multiplicity
 _atom_site_fract_x
 _atom_site_fract_y
 _atom_site_fract_z
 _atom_site_occupancy
  Ca  Ca0  1  0.24641111  -0.00128745  -0.00812446  1
  Ca  Ca1  1  0.25423204  0.00016883  0.50486328  1
  Ca  Ca2  1  0.24333591  0.50139731  -0.00128569  1
  Ca  Ca3  1  0.24551119  0.49960684  0.50206584  1
  Ca  Ca4  1  0.75197266  -0.00456023  -0.00443718  1
  Ca  Ca5  1  0.74975891  -0.00151978  0.50221424  1
  Ca  Ca6  1  0.74669495  0.50407700  -0.00052152  1
  Ca  Ca7  1  0.75121404  0.50136597  0.50216729  1
  Ca  Ca8  1  -0.00104688  0.25291718  0.00119255  1
  Ca  Ca9  1  -0.00224392  0.25306129  0.49993633  1
  Ca  Ca10  1  -0.00453153  0.75093854  -0.00307523  1
  Ca  Ca11  1  -0.00201000  0.74679242  0.50184828  1
  Ca  Ca12  1  0.50391292  0.25346734  0.00341969  1
  Ca  Ca13  1  0.50082287  0.24631910  0.50121194  1
  Ca  Ca14  1  0.50464890  0.74937127  -0.00161367  1
  Ca  Ca15  1  0.50171827  0.74992534  0.50200329  1
  Ca  Ca16  1  -0.00423619  -0.00252689  0.25287303  1
  Ca  Ca17  1  -0.00089271  -0.00307278  0.75406299  1
  Ca  Ca18  1  -0.00053730  0.50128468  0.25139443  1
  Ca  Ca19  1  0.00103602  0.50143404  0.74952211  1
  Ca  Ca20  1  0.50565466  0.00241806  0.25019946  1
  Ca  Ca21  1  0.49714489  -0.00073264  0.74976125  1
  Ca  Ca22  1  0.50300272  0.49763556  0.24659052  1
  Ca  Ca23  1  0.49832463  0.50324720  0.75267429  1
  Ti  Ti24  1  0.24993561  0.25052947  0.24989695  1
  Ti  Ti25  1  0.24869987  0.25022081  0.74920190  1
  Ti  Ti26  1  0.24898267  0.74975673  0.24994371  1
  Ti  Ti27  1  0.24825140  0.75017028  0.74987131  1
  Ti  Ti28  1  0.74956159  0.25067709  0.24850395  1
  Ti  Ti29  1  0.75102237  0.24952374  0.75117618  1
  Ti  Ti30  1  0.74979049  0.74921658  0.25094242  1
  Ti  Ti31  1  0.75096294  0.75178122  0.74876320  1
  Al  Al32  1  0.07223845  0.08730933  0.07554516  1
  Al  Al33  1  0.08556569  0.07783933  0.58802681  1
  Al  Al34  1  0.07982470  0.58169238  0.08485679  1
  Al  Al35  1  0.08376698  0.58212581  0.58533495  1
  Al  Al36  1  0.59226237  0.07799138  0.08963423  1
  Al  Al37  1  0.58533013  0.08208181  0.57799809  1
  Al  Al38  1  0.59197876  0.58793245  0.08821155  1
  Al  Al39  1  0.59376282  0.58121229  0.58706961  1
  Al  Al40  1  0.42914521  0.41620717  0.08178581  1
  Al  Al41  1  0.41601304  0.42619307  0.57826861  1
  Al  Al42  1  0.42581976  0.91462005  0.07128586  1
  Al  Al43  1  0.40731934  0.91860284  0.58900651  1
  Al  Al44  1  0.92248143  0.41175030  0.08781077  1
  Al  Al45  1  0.91232076  0.43190542  0.58948273  1
  Al  Al46  1  0.90900876  0.90971103  0.07385708  1
  Al  Al47  1  0.90951082  0.91011824  0.58262042  1
  Al  Al48  1  0.41821614  0.09327170  0.42655165  1
  Al  Al49  1  0.41255649  0.06841538  0.91289145  1
  Al  Al50  1  0.41141984  0.58716899  0.42408748  1
  Al  Al51  1  0.42359176  0.58220861  0.91785141  1
  Al  Al52  1  0.91747576  0.08387256  0.40925367  1
  Al  Al53  1  0.91523754  0.08292456  0.90498572  1
  Al  Al54  1  0.91510573  0.59367596  0.41685563  1
  Al  Al55  1  0.91155358  0.58870342  0.91600928  1
  Al  Al56  1  0.08810583  0.42439660  0.41116366  1
  Al  Al57  1  0.09107130  0.41790485  0.92306482  1
  Al  Al58  1  0.07250568  0.91556363  0.42380200  1
  Al  Al59  1  0.07909078  0.91672602  0.90713686  1
  Al  Al60  1  0.58086138  0.41332975  0.40857027  1
  Al  Al61  1  0.58889337  0.41582909  0.92607824  1
  Al  Al62  1  0.58713712  0.92266045  0.42074940  1
  Al  Al63  1  0.58651550  0.90615507  0.91542385  1
  Al  Al64  1  0.07249726  0.09251467  0.41491109  1
  Al  Al65  1  0.07993735  0.08111956  0.90682712  1
  Al  Al66  1  0.07972747  0.58651466  0.40863740  1
  Al  Al67  1  0.08123069  0.58204515  0.91243241  1
  Al  Al68  1  0.58769666  0.08994503  0.41829330  1
  Al  Al69  1  0.58703700  0.07551756  0.92202099  1
  Al  Al70  1  0.58683611  0.57829876  0.42161925  1
  Al  Al71  1  0.58802367  0.58747849  0.92295609  1
  Al  Al72  1  0.42296402  0.41111637  0.41119033  1
  Al  Al73  1  0.41983898  0.42253721  0.91879918  1
  Al  Al74  1  0.41725814  0.91710073  0.42905018  1
  Al  Al75  1  0.41638024  0.90908617  0.90542317  1
  Al  Al76  1  0.92496335  0.42731913  0.41894618  1
  Al  Al77  1  0.91456015  0.42320256  0.91987511  1
  Al  Al78  1  0.90769826  0.90868456  0.42054567  1
  Al  Al79  1  0.91331545  0.91183616  0.91038211  1
  Al  Al80  1  0.08539588  0.41029325  0.08687669  1
  Al  Al81  1  0.08784399  0.42594323  0.58147665  1
  Al  Al82  1  0.07253290  0.91299489  0.07088905  1
  Al  Al83  1  0.08319162  0.91863941  0.58905533  1
  Al  Al84  1  0.59234687  0.41680488  0.08999728  1
  Al  Al85  1  0.59237373  0.42437423  0.58618569  1
  Al  Al86  1  0.59658577  0.91445589  0.08157841  1
  Al  Al87  1  0.58200511  0.91885261  0.58224642  1
  Al  Al88  1  0.43094635  0.08066882  0.07789011  1
  Al  Al89  1  0.41115594  0.08072676  0.58546513  1
  Al  Al90  1  0.43138921  0.58998046  0.08561393  1
  Al  Al91  1  0.40748139  0.58796230  0.58061946  1
  Al  Al92  1  0.91661954  0.08321533  0.08330828  1
  Al  Al93  1  0.91851915  0.07463744  0.58154551  1
  Al  Al94  1  0.91540612  0.58970309  0.07878507  1
  Al  Al95  1  0.90324628  0.59173146  0.58159207  1
  Al  Al96  1  0.24719360  0.13801052  0.13456706  1
  Al  Al97  1  0.25103824  0.13241023  0.63437976  1
  Al  Al98  1  0.24680697  0.63895912  0.13663653  1
  Al  Al99  1  0.24908492  0.63368916  0.63480304  1
  Al  Al100  1  0.74757653  0.13521838  0.13368424  1
  Al  Al101  1  0.75165669  0.13345828  0.63538331  1
  Al  Al102  1  0.74602970  0.63301911  0.13341978  1
  Al  Al103  1  0.75364681  0.63759810  0.62932537  1
  Al  Al104  1  0.24672635  0.36383356  0.13431262  1
  Al  Al105  1  0.25052116  0.36898969  0.63461772  1
  Al  Al106  1  0.24807351  0.86283051  0.13652075  1
  Al  Al107  1  0.25056032  0.86555807  0.63832311  1
  Al  Al108  1  0.74847387  0.36882612  0.13031028  1
  Al  Al109  1  0.75120219  0.36678405  0.63269346  1
  Al  Al110  1  0.74865015  0.86231045  0.13476493  1
  Al  Al111  1  0.75396905  0.86385105  0.63273883  1
  Al  Al112  1  0.25738846  0.13673211  0.36553757  1
  Al  Al113  1  0.24758515  0.13369271  0.86459802  1
  Al  Al114  1  0.24846432  0.63529115  0.36283694  1
  Al  Al115  1  0.24964137  0.63720698  0.86406674  1
  Al  Al116  1  0.74386365  0.13646101  0.36512921  1
  Al  Al117  1  0.75177919  0.12594146  0.86581529  1
  Al  Al118  1  0.74969506  0.63672307  0.37036559  1
  Al  Al119  1  0.74883415  0.63618723  0.86536767  1
  Al  Al120  1  0.24610160  0.36300165  0.36346182  1
  Al  Al121  1  0.24717896  0.36480345  0.86620773  1
  Al  Al122  1  0.24913244  0.86356328  0.36405372  1
  Al  Al123  1  0.24519093  0.86587610  0.86094315  1
  Al  Al124  1  0.74965984  0.36236064  0.36556041  1
  Al  Al125  1  0.75007912  0.36441645  0.86996448  1
  Al  Al126  1  0.74990918  0.86178608  0.37023662  1
  Al  Al127  1  0.75312475  0.87009388  0.86284415  1
  Al  Al128  1  0.13046495  0.25474035  0.13260454  1
  Al  Al129  1  0.13338545  0.24677826  0.63731631  1
  Al  Al130  1  0.13214818  0.75242799  0.13586825  1
  Al  Al131  1  0.12948867  0.75281389  0.63488812  1
  Al  Al132  1  0.63704155  0.25207292  0.13211450  1
  Al  Al133  1  0.63947907  0.24470406  0.63335264  1
  Al  Al134  1  0.63158150  0.74657055  0.13731611  1
  Al  Al135  1  0.63999291  0.75282831  0.62665434  1
  Al  Al136  1  0.13246082  0.24740750  0.36457311  1
  Al  Al137  1  0.13411007  0.25064632  0.86231428  1
  Al  Al138  1  0.12693539  0.74791955  0.36640030  1
  Al  Al139  1  0.13150751  0.75350993  0.86200123  1
  Al  Al140  1  0.62961717  0.25154468  0.36066010  1
  Al  Al141  1  0.63948073  0.24923180  0.86991619  1
  Al  Al142  1  0.63572226  0.74957929  0.37037658  1
  Al  Al143  1  0.63887012  0.75030479  0.86471803  1
  Al  Al144  1  0.36590289  0.25039400  0.13472808  1
  Al  Al145  1  0.36165460  0.24656819  0.63547272  1
  Al  Al146  1  0.37080720  0.75198995  0.13517768  1
  Al  Al147  1  0.36485433  0.74856992  0.63605587  1
  Al  Al148  1  0.86526519  0.25192043  0.13291009  1
  Al  Al149  1  0.86482667  0.24988478  0.63384519  1
  Al  Al150  1  0.86217893  0.75093220  0.13472829  1
  Al  Al151  1  0.86951845  0.75156834  0.63332414  1
  Al  Al152  1  0.36984827  0.25073091  0.36345796  1
  Al  Al153  1  0.36080212  0.24989092  0.86392665  1
  Al  Al154  1  0.36574320  0.74519259  0.36696535  1
  Al  Al155  1  0.36499637  0.75321600  0.86268239  1
  Al  Al156  1  0.86568017  0.24761842  0.36508659  1
  Al  Al157  1  0.86803197  0.24772781  0.86244813  1
  Al  Al158  1  0.86652228  0.74797646  0.36810696  1
  Al  Al159  1  0.86464375  0.75555814  0.86636856  1
  Al  Al160  1  0.13330921  0.13731686  0.25279256  1
  Al  Al161  1  0.13228185  0.13282237  0.75382068  1
  Al  Al162  1  0.13337985  0.63500610  0.25327952  1
  Al  Al163  1  0.13435111  0.63573634  0.74679663  1
  Al  Al164  1  0.63157449  0.13378529  0.25010629  1
  Al  Al165  1  0.63757406  0.13551240  0.75407894  1
  Al  Al166  1  0.63786692  0.62962022  0.24949004  1
  Al  Al167  1  0.64114827  0.63375143  0.74541691  1
  Al  Al168  1  0.37179843  0.13606424  0.25080128  1
  Al  Al169  1  0.36325665  0.13328445  0.74756046  1
  Al  Al170  1  0.36650078  0.63664787  0.24452116  1
  Al  Al171  1  0.36182323  0.62962511  0.74980766  1
  Al  Al172  1  0.86447085  0.13469784  0.25056314  1
  Al  Al173  1  0.86551360  0.13264798  0.75372455  1
  Al  Al174  1  0.86375234  0.63607232  0.25260643  1
  Al  Al175  1  0.86277805  0.63704905  0.74642346  1
  Al  Al176  1  0.13204708  0.36461191  0.24935858  1
  Al  Al177  1  0.13323733  0.36641228  0.74561042  1
  Al  Al178  1  0.12671342  0.86204502  0.25512898  1
  Al  Al179  1  0.12681047  0.86602085  0.74957009  1
  Al  Al180  1  0.63906885  0.37018018  0.24877246  1
  Al  Al181  1  0.64012712  0.36457097  0.74762373  1
  Al  Al182  1  0.63813326  0.86908420  0.24957422  1
  Al  Al183  1  0.63019204  0.86119899  0.75208118  1
  Al  Al184  1  0.36534492  0.36575688  0.25313285  1
  Al  Al185  1  0.36083103  0.36999930  0.74918462  1
  Al  Al186  1  0.36416034  0.86377691  0.25111185  1
  Al  Al187  1  0.36852923  0.86312983  0.74893682  1
  Al  Al188  1  0.86628004  0.36493774  0.24680541  1
  Al  Al189  1  0.86661365  0.36506883  0.74682429  1
  Al  Al190  1  0.86963054  0.86125527  0.25281770  1
  Al  Al191  1  0.87115693  0.86342107  0.75216755  1
  Al  Al192  1  0.31872121  0.82519606  -0.00127360  1
  Al  Al193  1  -0.00122298  0.67806391  0.18418136  1
  Al  Al194  1  0.50142812  0.66952553  0.31559590  1
  Al  Al195  1  0.82596499  -0.00199537  0.68350939  1
  Al  Al196  1  0.50173728  0.32671631  0.82923855  1
  Al  Al197  1  0.82017068  0.50099807  0.32859891  1
  Al  Al198  1  0.50081461  0.17278352  0.67040888  1
  Al  Al199  1  0.17470363  0.00114577  0.33239633  1
  Al  Al200  1  -0.00245264  0.17647295  0.68451975  1
  Al  Al201  1  -0.00062773  0.18724702  0.18655721  1
  Al  Al202  1  0.17941660  0.50041105  0.81519902  1
  Al  Al203  1  0.31003289  -0.00209928  0.80757382  1
  Al  Al204  1  0.19125489  -0.00008222  0.69492452  1
  Al  Al205  1  0.17439233  0.18361322  -0.00220985  1
  Al  Al206  1  0.50002577  0.32716238  0.66984126  1
  Al  Al207  1  0.67343749  0.49944806  0.81872650  1
  Al  Al208  1  0.17305277  0.67936471  -0.00058175  1
  Al  Al209  1  0.31583988  0.50007200  0.32833551  1
  Al  Al210  1  0.82293218  0.17818218  -0.00546472  1
  Al  Al211  1  0.81068862  0.69009768  -0.00033950  1
  Al  Al212  1  -0.00205190  0.68388154  0.82060619  1
  Al  Al213  1  0.82606207  0.50070827  0.81354340  1
  Al  Al214  1  0.16893996  -0.00115674  0.17067342  1
  Al  Al215  1  0.33031633  0.67253268  0.00083779  1
  Al  Al216  1  0.81279171  -0.00097857  0.16977893  1
  Al  Al217  1  0.69018899  0.80933743  -0.00037754  1
  Al  Al218  1  0.49924146  0.17158007  0.82302140  1
  Al  Al219  1  0.33188652  -0.00038229  0.17810259  1
  Al  Al220  1  0.81989153  0.50111319  0.17254788  1
  Al  Al221  1  0.00122320  0.32285250  0.82565558  1
  Al  Al222  1  0.32900449  0.31173464  0.49965097  1
  Al  Al223  1  0.50262249  0.32105348  0.18630701  1
  Al  Al224  1  0.18343420  0.67806118  0.49920782  1
  Al  Al225  1  0.50240336  0.68381902  0.82806394  1
  Al  Al226  1  0.17350620  0.50025872  0.18317459  1
  Al  Al227  1  0.81848953  -0.00197179  0.32562060  1
  Al  Al228  1  0.67356248  -0.00076714  0.68112063  1
  Al  Al229  1  0.67554308  0.31618095  0.49869819  1
  Al  Al230  1  0.31778933  0.32403003  0.00021583  1
  Al  Al231  1  -0.00132898  0.31871573  0.31777528  1
  Al  Al232  1  0.18249330  0.16824756  0.49892276  1
  Al  Al233  1  0.50052141  0.82904958  0.31976903  1
  Al  Al234  1  0.81884137  0.17563384  0.49836747  1
  Al  Al235  1  0.31966023  0.81367962  0.50137067  1
  Al  Al236  1  0.32876633  0.49992291  0.17057228  1
  Al  Al237  1  0.50274761  0.67864035  0.67379714  1
  Al  Al238  1  0.17376855  0.32719555  0.49993388  1
  Au  Au239  1  0.49864954  0.66261933  0.67424824  1
  Au  Au240  1  0.31771804  0.50232318  0.66375410  1
  Au  Au241  1  0.66716533  0.17279384  0.00217902  1
  Au  Au242  1  0.17992018  -0.00055845  0.68195565  1
  Au  Au243  1  -0.00241200  0.83242387  0.67347344  1
  Au  Au244  1  0.82788977  0.16131778  0.49847179  1
  Au  Au245  1  0.67087649  0.49852969  0.32682715  1
  Au  Au246  1  -0.00443428  0.82158674  0.33744741  1
  Au  Au247  1  0.66162920  0.32550400  0.49875594  1
  Au  Au248  1  0.67038312  0.49877445  0.83111283  1
  Au  Au249  1  0.50499049  0.82532907  0.15751966  1
  Au  Au250  1  0.50000257  0.83620882  0.33437560  1
  Au  Au251  1  0.82940211  -0.00459709  0.17040460  1
  Au  Au252  1  0.83208200  0.50117433  0.16866138  1
  Au  Au253  1  0.17666730  0.66281208  0.49779077  1
  Au  Au254  1  0.16830314  0.82983225  -0.00739875  1
  Au  Au255  1  0.32863260  0.50548271  0.15544792  1
  Au  Au256  1  0.32764726  0.50190284  0.83299052  1
  Au  Au257  1  0.16004211  0.17502995  -0.00617989  1
  Au  Au258  1  -0.00273958  0.16198863  0.67516434  1
  Au  Au259  1  0.33369071  0.15950502  -0.00067807  1
  Au  Au260  1  0.67765300  0.83511414  0.50239261  1
  Au  Au261  1  0.33559339  0.00372795  0.34430769  1
  Au  Au262  1  0.49992845  0.65754951  0.32756547  1
  Au  Au263  1  0.50136797  0.34270894  0.67697512  1
  Au  Au264  1  -0.00394239  0.82429638  0.16294903  1
  Au  Au265  1  0.00216949  0.33053987  0.84054801  1
  Au  Au266  1  0.00154068  0.33988253  0.66188056  1
  Au  Au267  1  0.83605433  0.34178413  0.50117817  1
  Au  Au268  1  0.50423012  0.17422468  0.16751059  1
  Au  Au269  1  0.67323089  -0.00549803  0.82988110  1
  Au  Au270  1  0.00128382  0.33060356  0.32966259  1
  Au  Au271  1  0.15763605  0.00093017  0.33388497  1
  Au  Au272  1  -0.00269539  0.66222191  0.67318762  1
  Au  Au273  1  0.67866071  0.66642848  0.50079335  1
  Au  Au274  1  0.83192013  0.17050953  -0.00154230  1
  Au  Au275  1  0.17386207  0.83791049  0.50151154  1
  Au  Au276  1  0.32139041  0.49867330  0.34424407  1
  Au  Au277  1  0.82524709  0.33547218  0.00034827  1
  Au  Au278  1  0.49829882  0.16743100  0.83891047  1
  Au  Au279  1  0.16613717  0.17408897  0.49958154  1
  Au  Au280  1  0.34096983  -0.00224446  0.16400860  1
  Au  Au281  1  0.16177764  -0.00154739  0.15460995  1
  Au  Au282  1  0.33350633  0.32807991  0.49894539  1
  Au  Au283  1  0.49999388  0.17845751  0.33704057  1
  Au  Au284  1  -0.00197733  0.17283822  0.17691419  1
  Au  Au285  1  0.49861699  0.84087159  0.67577594  1
  Au  Au286  1  0.66969573  0.00330816  0.32883293  1
  Au  Au287  1  0.33257006  0.33233041  0.00033072  1
