# generated using pymatgen
data_Ca24Ti8Al207Au49
_symmetry_space_group_name_H-M   'P 1'
_cell_length_a   17.32335068
_cell_length_b   17.32407961
_cell_length_c   17.32455163
_cell_angle_alpha   89.99699758
_cell_angle_beta   89.99997713
_cell_angle_gamma   89.99832670
_symmetry_Int_Tables_number   1
_chemical_formula_structural   Ca24Ti8Al207Au49
_chemical_formula_sum   'Ca24 Ti8 Al207 Au49'
_cell_volume   5199.29034821
_cell_formula_units_Z   1
loop_
 _symmetry_equiv_pos_site_id
 _symmetry_equiv_pos_as_xyz
  1  'x, y, z'
loop_
 _atom_site_type_symbol
 _atom_site_label
 _atom_site_symmetry_multiplicity
 _atom_site_fract_x
 _atom_site_fract_y
 _atom_site_fract_z
 _atom_site_occupancy
  Ca  Ca0  1  0.24943345  0.00175316  -0.00154613  1
  Ca  Ca1  1  0.25263410  0.00071391  0.50086866  1
  Ca  Ca2  1  0.25077905  0.49508872  -0.00542019  1
  Ca  Ca3  1  0.25337077  0.50242547  0.50221019  1
  Ca  Ca4  1  0.74949551  -0.00067870  -0.00310310  1
  Ca  Ca5  1  0.74879055  -0.00435455  0.50243526  1
  Ca  Ca6  1  0.75415476  0.50080454  0.00042376  1
  Ca  Ca7  1  0.74948642  0.50275856  0.49705578  1
  Ca  Ca8  1  0.00057928  0.25276128  0.00271294  1
  Ca  Ca9  1  -0.00051175  0.24689957  0.49729235  1
  Ca  Ca10  1  -0.00009297  0.74936950  -0.00413545  1
  Ca  Ca11  1  0.00174639  0.74861123  0.50426646  1
  Ca  Ca12  1  0.50099995  0.24856141  -0.00011831  1
  Ca  Ca13  1  0.49795099  0.25078613  0.49927909  1
  Ca  Ca14  1  0.50202354  0.75042467  -0.00023808  1
  Ca  Ca15  1  0.49474834  0.75104024  0.50288384  1
  Ca  Ca16  1  0.00002269  0.00078806  0.25098937  1
  Ca  Ca17  1  0.00086841  -0.00007079  0.75144933  1
  Ca  Ca18  1  -0.00158539  0.49541310  0.25055024  1
  Ca  Ca19  1  -0.00522060  0.50124780  0.75696900  1
  Ca  Ca20  1  0.49880401  0.00468306  0.25392095  1
  Ca  Ca21  1  0.50146402  -0.00062238  0.75096888  1
  Ca  Ca22  1  0.50139671  0.49758845  0.25542110  1
  Ca  Ca23  1  0.50234921  0.49743326  0.75032475  1
  Ti  Ti24  1  0.24937051  0.24817120  0.25226833  1
  Ti  Ti25  1  0.25028235  0.24972302  0.74903211  1
  Ti  Ti26  1  0.24945128  0.75092747  0.25130772  1
  Ti  Ti27  1  0.25051933  0.74959644  0.74963449  1
  Ti  Ti28  1  0.75010967  0.25098391  0.25036763  1
  Ti  Ti29  1  0.74897671  0.25080199  0.75067410  1
  Ti  Ti30  1  0.75028727  0.74861953  0.25040798  1
  Ti  Ti31  1  0.74862701  0.74852635  0.74889296  1
  Al  Al32  1  0.08325482  0.08743406  0.08148002  1
  Al  Al33  1  0.09020633  0.07602171  0.58666728  1
  Al  Al34  1  0.07892987  0.58165391  0.07356750  1
  Al  Al35  1  0.08162377  0.58408901  0.58053417  1
  Al  Al36  1  0.57771241  0.08967572  0.08509225  1
  Al  Al37  1  0.57828854  0.07733660  0.58752227  1
  Al  Al38  1  0.59665908  0.57423796  0.08708573  1
  Al  Al39  1  0.58128104  0.58006599  0.58368771  1
  Al  Al40  1  0.40922151  0.41003787  0.08262517  1
  Al  Al41  1  0.42218228  0.42259817  0.58017886  1
  Al  Al42  1  0.41281072  0.92253798  0.07596982  1
  Al  Al43  1  0.40727114  0.91570612  0.58382448  1
  Al  Al44  1  0.91416077  0.41671700  0.08936592  1
  Al  Al45  1  0.91177245  0.42743909  0.58946245  1
  Al  Al46  1  0.90970273  0.91761537  0.07075537  1
  Al  Al47  1  0.90961163  0.90990742  0.57808645  1
  Al  Al48  1  0.42076199  0.08781016  0.40990358  1
  Al  Al49  1  0.42426354  0.08958937  0.91417247  1
  Al  Al50  1  0.40343084  0.58457671  0.41573572  1
  Al  Al51  1  0.42075837  0.58115298  0.91698077  1
  Al  Al52  1  0.92045736  0.08304618  0.41051236  1
  Al  Al53  1  0.91803500  0.07979867  0.91868279  1
  Al  Al54  1  0.91467426  0.58642574  0.40087857  1
  Al  Al55  1  0.91381236  0.58612297  0.90829622  1
  Al  Al56  1  0.07810863  0.41754673  0.41703653  1
  Al  Al57  1  0.08577188  0.41307324  0.92066423  1
  Al  Al58  1  0.08299830  0.92129631  0.42375173  1
  Al  Al59  1  0.08565627  0.90891190  0.91275834  1
  Al  Al60  1  0.58653291  0.41936754  0.40900294  1
  Al  Al61  1  0.57860474  0.42285545  0.91232556  1
  Al  Al62  1  0.58478180  0.90960915  0.42331140  1
  Al  Al63  1  0.59284962  0.92209506  0.91121281  1
  Al  Al64  1  0.07703633  0.08834420  0.41245361  1
  Al  Al65  1  0.08638900  0.08038915  0.92004945  1
  Al  Al66  1  0.07733232  0.59097577  0.41328653  1
  Al  Al67  1  0.07733076  0.58920162  0.91195942  1
  Al  Al68  1  0.57746668  0.08381593  0.40901106  1
  Al  Al69  1  0.58648921  0.08534638  0.90780205  1
  Al  Al70  1  0.58874730  0.57892597  0.41197629  1
  Al  Al71  1  0.58312621  0.58045544  0.91244828  1
  Al  Al72  1  0.41650127  0.42229054  0.41023669  1
  Al  Al73  1  0.41130978  0.40758821  0.92089069  1
  Al  Al74  1  0.41609197  0.91109531  0.42357152  1
  Al  Al75  1  0.41745920  0.91692630  0.91856514  1
  Al  Al76  1  0.91333147  0.42521632  0.40553777  1
  Al  Al77  1  0.91360408  0.42314570  0.91589234  1
  Al  Al78  1  0.90754398  0.91591115  0.42238437  1
  Al  Al79  1  0.91593945  0.90779365  0.91328643  1
  Al  Al80  1  0.07963685  0.40644286  0.07814586  1
  Al  Al81  1  0.08069367  0.42602812  0.57939860  1
  Al  Al82  1  0.09155965  0.91542372  0.07043188  1
  Al  Al83  1  0.08950695  0.91951074  0.58594654  1
  Al  Al84  1  0.58532894  0.42154070  0.09408059  1
  Al  Al85  1  0.58190081  0.41976224  0.58423557  1
  Al  Al86  1  0.58383575  0.92277110  0.07081408  1
  Al  Al87  1  0.59227517  0.91343187  0.58236847  1
  Al  Al88  1  0.42102759  0.09093162  0.08878059  1
  Al  Al89  1  0.41548996  0.07880248  0.58977285  1
  Al  Al90  1  0.41549326  0.57135185  0.07885456  1
  Al  Al91  1  0.41001166  0.58914108  0.57681706  1
  Al  Al92  1  0.92147577  0.08208630  0.08216230  1
  Al  Al93  1  0.92405040  0.07203500  0.57258521  1
  Al  Al94  1  0.90836275  0.57627071  0.08597697  1
  Al  Al95  1  0.91291179  0.58175757  0.59026983  1
  Al  Al96  1  0.24921882  0.13042634  0.13868011  1
  Al  Al97  1  0.24934236  0.13426365  0.63228953  1
  Al  Al98  1  0.24896422  0.63556703  0.13594812  1
  Al  Al99  1  0.25098508  0.63750292  0.63180152  1
  Al  Al100  1  0.75230358  0.13830198  0.13853016  1
  Al  Al101  1  0.74711045  0.13526261  0.63925952  1
  Al  Al102  1  0.75268317  0.62958812  0.13768909  1
  Al  Al103  1  0.75157641  0.62972335  0.63493813  1
  Al  Al104  1  0.25107847  0.35892174  0.13389978  1
  Al  Al105  1  0.25064332  0.36428176  0.63461512  1
  Al  Al106  1  0.24742112  0.86992416  0.13725738  1
  Al  Al107  1  0.25460533  0.86246458  0.63270708  1
  Al  Al108  1  0.74941791  0.36811661  0.13794102  1
  Al  Al109  1  0.75225562  0.37031828  0.63856318  1
  Al  Al110  1  0.75135801  0.86496299  0.13533879  1
  Al  Al111  1  0.74770102  0.86364575  0.63380300  1
  Al  Al112  1  0.25083808  0.13156633  0.36695482  1
  Al  Al113  1  0.24910814  0.13422217  0.86261382  1
  Al  Al114  1  0.25426207  0.63646711  0.37240459  1
  Al  Al115  1  0.24761974  0.62795572  0.86445330  1
  Al  Al116  1  0.74841241  0.13792537  0.36095216  1
  Al  Al117  1  0.74657037  0.13431519  0.86215382  1
  Al  Al118  1  0.74877894  0.62824739  0.36524132  1
  Al  Al119  1  0.75415926  0.63276628  0.86359631  1
  Al  Al120  1  0.25380104  0.36284132  0.36630910  1
  Al  Al121  1  0.25006454  0.36686017  0.86730378  1
  Al  Al122  1  0.25319791  0.86821224  0.36942371  1
  Al  Al123  1  0.24706051  0.86546049  0.86348392  1
  Al  Al124  1  0.75011616  0.36713611  0.36182583  1
  Al  Al125  1  0.75292578  0.36603091  0.86420202  1
  Al  Al126  1  0.74937806  0.86071839  0.37142303  1
  Al  Al127  1  0.75102252  0.86260586  0.86293359  1
  Al  Al128  1  0.13603880  0.24894133  0.13719220  1
  Al  Al129  1  0.13491497  0.24580809  0.63251966  1
  Al  Al130  1  0.13578391  0.75139768  0.13228356  1
  Al  Al131  1  0.13371799  0.74961641  0.63276117  1
  Al  Al132  1  0.63123373  0.24709457  0.14022431  1
  Al  Al133  1  0.63551087  0.24857918  0.63852438  1
  Al  Al134  1  0.63850026  0.74749552  0.13654148  1
  Al  Al135  1  0.63113320  0.75408117  0.63419171  1
  Al  Al136  1  0.13173643  0.24792123  0.36628057  1
  Al  Al137  1  0.13710070  0.25089006  0.86434715  1
  Al  Al138  1  0.13578333  0.74875023  0.36724960  1
  Al  Al139  1  0.13742095  0.74962883  0.86769499  1
  Al  Al140  1  0.63145279  0.25205165  0.36065451  1
  Al  Al141  1  0.63432379  0.24812167  0.86473116  1
  Al  Al142  1  0.63646102  0.74793207  0.36393508  1
  Al  Al143  1  0.63703367  0.75046560  0.86361523  1
  Al  Al144  1  0.36641149  0.24688449  0.14095416  1
  Al  Al145  1  0.36294247  0.24569234  0.62965478  1
  Al  Al146  1  0.36194147  0.75143076  0.13758487  1
  Al  Al147  1  0.36785645  0.74919810  0.63347280  1
  Al  Al148  1  0.86449698  0.25029828  0.13805603  1
  Al  Al149  1  0.86431406  0.24741283  0.63822517  1
  Al  Al150  1  0.86416026  0.75058474  0.13688464  1
  Al  Al151  1  0.86520823  0.75315554  0.63472493  1
  Al  Al152  1  0.36820378  0.24632548  0.36622368  1
  Al  Al153  1  0.36362904  0.25076412  0.86486101  1
  Al  Al154  1  0.36302406  0.74973340  0.36803111  1
  Al  Al155  1  0.36353668  0.75143411  0.86549328  1
  Al  Al156  1  0.86984917  0.25153505  0.36115991  1
  Al  Al157  1  0.86303021  0.24702308  0.86406981  1
  Al  Al158  1  0.86436769  0.74636202  0.36167676  1
  Al  Al159  1  0.86500915  0.74841872  0.86422679  1
  Al  Al160  1  0.13169902  0.13285940  0.25138153  1
  Al  Al161  1  0.13167896  0.13442774  0.74734694  1
  Al  Al162  1  0.13410593  0.63815067  0.25664469  1
  Al  Al163  1  0.13381038  0.63621717  0.75511298  1
  Al  Al164  1  0.63143996  0.13319387  0.25017144  1
  Al  Al165  1  0.62767795  0.13498908  0.75401649  1
  Al  Al166  1  0.63652456  0.63097352  0.25102291  1
  Al  Al167  1  0.63490475  0.63463654  0.74483356  1
  Al  Al168  1  0.36518141  0.13177544  0.25232825  1
  Al  Al169  1  0.36933129  0.13777712  0.75039454  1
  Al  Al170  1  0.36486208  0.63521651  0.25480488  1
  Al  Al171  1  0.36364339  0.63673244  0.74977207  1
  Al  Al172  1  0.87196846  0.13625927  0.25229306  1
  Al  Al173  1  0.87067020  0.13597770  0.75159173  1
  Al  Al174  1  0.86329782  0.63081630  0.25219451  1
  Al  Al175  1  0.86390022  0.63449456  0.75048025  1
  Al  Al176  1  0.13519583  0.36336564  0.25539583  1
  Al  Al177  1  0.13699510  0.36514226  0.75270389  1
  Al  Al178  1  0.13803243  0.87001524  0.25456470  1
  Al  Al179  1  0.13659160  0.86491302  0.74559873  1
  Al  Al180  1  0.63531235  0.37101802  0.25013190  1
  Al  Al181  1  0.63467395  0.36574270  0.74950647  1
  Al  Al182  1  0.63884249  0.86578887  0.25356999  1
  Al  Al183  1  0.63115227  0.86403443  0.75117864  1
  Al  Al184  1  0.36607373  0.36373332  0.25252428  1
  Al  Al185  1  0.36390739  0.36395575  0.75293487  1
  Al  Al186  1  0.36162453  0.86939135  0.25248984  1
  Al  Al187  1  0.37094831  0.86288200  0.74818657  1
  Al  Al188  1  0.86331942  0.37087640  0.25002377  1
  Al  Al189  1  0.86392448  0.36853379  0.75130425  1
  Al  Al190  1  0.86366334  0.86451410  0.25505255  1
  Al  Al191  1  0.86447340  0.86210148  0.74875728  1
  Al  Al192  1  0.17188145  0.49504038  0.16797078  1
  Al  Al193  1  0.67468516  -0.00028051  0.68661201  1
  Al  Al194  1  0.81969379  0.00047530  0.32738222  1
  Al  Al195  1  0.32848161  0.19036862  0.00167509  1
  Al  Al196  1  0.67049805  0.32611862  0.00185801  1
  Al  Al197  1  0.32560270  0.49830202  0.18610293  1
  Al  Al198  1  0.17424194  0.50214392  0.67913831  1
  Al  Al199  1  -0.00001168  0.83120665  0.16941935  1
  Al  Al200  1  0.32711768  0.50031202  0.67760654  1
  Al  Al201  1  0.50159830  0.66656213  0.17456912  1
  Al  Al202  1  -0.00132635  0.66925705  0.18496333  1
  Al  Al203  1  0.81274859  -0.00076440  0.82597118  1
  Al  Al204  1  0.50084207  0.82927484  0.17243611  1
  Al  Al205  1  0.67237515  0.68370502  0.50129327  1
  Al  Al206  1  0.82811254  0.17047341  0.49903915  1
  Al  Al207  1  0.49997909  0.31722107  0.82715961  1
  Al  Al208  1  0.30915479  -0.00057983  0.68343162  1
  Al  Al209  1  0.50065129  0.67988251  0.81966141  1
  Al  Al210  1  0.82872970  -0.00021176  0.17447266  1
  Al  Al211  1  0.49784552  0.32194825  0.17808308  1
  Al  Al212  1  -0.00059111  0.81909054  0.33048056  1
  Al  Al213  1  0.68786410  0.82375693  -0.00052629  1
  Al  Al214  1  0.49927754  0.82028181  0.32687337  1
  Al  Al215  1  0.67236249  0.00212011  0.17565757  1
  Al  Al216  1  0.82615409  0.00052604  0.67013853  1
  Al  Al217  1  0.83058187  0.68671376  0.49867714  1
  Al  Al218  1  0.82634360  0.68345819  0.00076778  1
  Al  Al219  1  0.68583919  0.50060626  0.81801565  1
  Al  Al220  1  0.67925849  0.17373139  0.00039577  1
  Al  Al221  1  0.31897230  0.67149947  0.00095934  1
  Al  Al222  1  0.49810711  0.31873346  0.67384761  1
  Al  Al223  1  -0.00134150  0.67881870  0.68773453  1
  Al  Al224  1  0.00138021  0.81034421  0.81876522  1
  Al  Al225  1  0.18068049  -0.00021257  0.81948471  1
  Al  Al226  1  0.18802255  0.50216527  0.32860289  1
  Al  Al227  1  0.67619386  0.17250312  0.49972117  1
  Al  Al228  1  0.17978544  0.82054635  0.50143800  1
  Al  Al229  1  -0.00005224  0.31830360  0.18113893  1
  Al  Al230  1  -0.00154332  0.32205544  0.82936023  1
  Al  Al231  1  -0.00054953  0.32543926  0.67029466  1
  Al  Al232  1  0.17636648  0.32349170  0.50341449  1
  Al  Al233  1  0.82899367  0.32608165  0.50080946  1
  Al  Al234  1  0.67185075  0.32768509  0.49993251  1
  Al  Al235  1  0.17560049  0.18601029  0.00056234  1
  Al  Al236  1  0.82807524  0.31992324  0.00070263  1
  Al  Al237  1  0.67068166  0.67183670  -0.00109904  1
  Al  Al238  1  0.31345023  0.82742536  0.00066665  1
  Au  Au239  1  0.83226211  0.67111163  0.00045233  1
  Au  Au240  1  0.67269285  0.34146862  -0.00279339  1
  Au  Au241  1  0.82904495  -0.00357113  0.82475192  1
  Au  Au242  1  0.17676696  0.49210638  0.15201375  1
  Au  Au243  1  0.82700338  0.34203503  0.49734796  1
  Au  Au244  1  0.16338116  0.00300404  0.33015934  1
  Au  Au245  1  0.17537813  0.66766076  0.50032595  1
  Au  Au246  1  0.33177789  0.33926625  0.49902340  1
  Au  Au247  1  0.16639150  0.16669097  0.49924606  1
  Au  Au248  1  0.50386510  0.82767612  0.83968472  1
  Au  Au249  1  0.00002720  0.66322472  0.68185814  1
  Au  Au250  1  0.00327087  0.17347278  0.84100191  1
  Au  Au251  1  0.00084931  0.16892208  0.17495243  1
  Au  Au252  1  0.83021841  0.16786341  0.00218462  1
  Au  Au253  1  0.66754405  0.67211788  0.50148397  1
  Au  Au254  1  0.49906985  0.83360214  0.66353790  1
  Au  Au255  1  0.49941830  0.32358889  0.33425556  1
  Au  Au256  1  0.33833070  0.49709147  0.82736055  1
  Au  Au257  1  0.50269327  0.32589675  0.16725855  1
  Au  Au258  1  0.67543965  0.00403698  0.16334569  1
  Au  Au259  1  -0.00076907  0.84253911  0.67247872  1
  Au  Au260  1  -0.00272959  0.82533955  0.34609530  1
  Au  Au261  1  -0.00074797  0.34128888  0.67656857  1
  Au  Au262  1  0.50227212  0.65154706  0.16894270  1
  Au  Au263  1  0.49589590  0.66255395  0.67201098  1
  Au  Au264  1  0.49661267  0.67020004  0.34279610  1
  Au  Au265  1  0.33424811  0.00313559  0.16925983  1
  Au  Au266  1  0.67759764  0.49815582  0.66995341  1
  Au  Au267  1  0.33402195  -0.00283676  0.33590307  1
  Au  Au268  1  0.16754426  0.33215481  0.50132235  1
  Au  Au269  1  0.32892824  0.17366535  -0.00012588  1
  Au  Au270  1  -0.00011860  0.83320674  0.15277645  1
  Au  Au271  1  0.34171977  0.00225677  0.82641334  1
  Au  Au272  1  0.67057322  -0.00546371  0.33883261  1
  Au  Au273  1  0.16400741  0.67819801  -0.00242415  1
  Au  Au274  1  0.66025399  0.16885491  0.49995644  1
  Au  Au275  1  0.50049952  0.84549337  0.16972946  1
  Au  Au276  1  -0.00200441  0.32929359  0.32832622  1
  Au  Au277  1  0.18118328  0.83292344  0.50370151  1
  Au  Au278  1  -0.00094876  0.65385375  0.17790093  1
  Au  Au279  1  0.33110761  0.67471208  0.00259173  1
  Au  Au280  1  0.83778003  0.67109950  0.49830338  1
  Au  Au281  1  0.16818733  -0.00042032  0.16253750  1
  Au  Au282  1  0.17240713  0.50296063  0.33526412  1
  Au  Au283  1  0.16813694  -0.00129246  0.81745785  1
  Au  Au284  1  0.33812891  0.16668332  0.49980403  1
  Au  Au285  1  0.16054374  0.49911279  0.82868698  1
  Au  Au286  1  -0.00196630  0.15803643  0.66709273  1
  Au  Au287  1  0.49897021  0.16939197  0.67792858  1
