# generated using pymatgen
data_Ca24Ti8Al207Au49
_symmetry_space_group_name_H-M   'P 1'
_cell_length_a   17.32337094
_cell_length_b   17.32310275
_cell_length_c   17.32276543
_cell_angle_alpha   89.99545725
_cell_angle_beta   89.99883838
_cell_angle_gamma   90.00035457
_symmetry_Int_Tables_number   1
_chemical_formula_structural   Ca24Ti8Al207Au49
_chemical_formula_sum   'Ca24 Ti8 Al207 Au49'
_cell_volume   5198.46721597
_cell_formula_units_Z   1
loop_
 _symmetry_equiv_pos_site_id
 _symmetry_equiv_pos_as_xyz
  1  'x, y, z'
loop_
 _atom_site_type_symbol
 _atom_site_label
 _atom_site_symmetry_multiplicity
 _atom_site_fract_x
 _atom_site_fract_y
 _atom_site_fract_z
 _atom_site_occupancy
  Ca  Ca0  1  0.24850222  -0.00309104  0.00199737  1
  Ca  Ca1  1  0.24911882  -0.00249728  0.49733768  1
  Ca  Ca2  1  0.24756902  0.50253160  -0.00005260  1
  Ca  Ca3  1  0.25297939  0.50235944  0.49685815  1
  Ca  Ca4  1  0.75139473  0.00286143  -0.00080736  1
  Ca  Ca5  1  0.75375254  0.00525784  0.50386240  1
  Ca  Ca6  1  0.74816459  0.49906304  0.00316187  1
  Ca  Ca7  1  0.75323264  0.49074816  0.49948263  1
  Ca  Ca8  1  -0.00279875  0.24785092  -0.00106253  1
  Ca  Ca9  1  -0.00057839  0.24768979  0.50388023  1
  Ca  Ca10  1  0.00344540  0.74832583  0.00488310  1
  Ca  Ca11  1  -0.00286065  0.74792816  0.49961667  1
  Ca  Ca12  1  0.50123477  0.24619840  -0.00389988  1
  Ca  Ca13  1  0.50009278  0.25090820  0.49810970  1
  Ca  Ca14  1  0.49768708  0.74748507  0.00297332  1
  Ca  Ca15  1  0.50324513  0.74492606  0.49817733  1
  Ca  Ca16  1  0.00268535  -0.00153586  0.24597769  1
  Ca  Ca17  1  -0.00228666  0.00358479  0.75098411  1
  Ca  Ca18  1  0.00042457  0.50180678  0.25033028  1
  Ca  Ca19  1  -0.00062138  0.50037342  0.74975604  1
  Ca  Ca20  1  0.49778207  -0.00250968  0.24799412  1
  Ca  Ca21  1  0.50169726  0.00369543  0.75390098  1
  Ca  Ca22  1  0.49703689  0.50203560  0.25203754  1
  Ca  Ca23  1  0.49855864  0.49649087  0.75115428  1
  Ti  Ti24  1  0.25078481  0.24951446  0.25072416  1
  Ti  Ti25  1  0.25003152  0.25245813  0.75023563  1
  Ti  Ti26  1  0.25174825  0.74940995  0.24876609  1
  Ti  Ti27  1  0.25018677  0.74727194  0.75256967  1
  Ti  Ti28  1  0.74923945  0.25201671  0.24969909  1
  Ti  Ti29  1  0.74992883  0.24944571  0.75005866  1
  Ti  Ti30  1  0.74954924  0.74721322  0.24799875  1
  Ti  Ti31  1  0.74967409  0.75227652  0.75123695  1
  Al  Al32  1  0.08272606  0.07786569  0.08133494  1
  Al  Al33  1  0.07687389  0.08792392  0.59019145  1
  Al  Al34  1  0.08598417  0.59165378  0.08824318  1
  Al  Al35  1  0.08611092  0.58134000  0.57575781  1
  Al  Al36  1  0.58319693  0.07977865  0.07681178  1
  Al  Al37  1  0.58384191  0.09060664  0.58772166  1
  Al  Al38  1  0.57916052  0.58056196  0.08570668  1
  Al  Al39  1  0.57639823  0.56878898  0.57881670  1
  Al  Al40  1  0.41121029  0.42477901  0.09051922  1
  Al  Al41  1  0.42627766  0.42296427  0.57668292  1
  Al  Al42  1  0.41527037  0.90526662  0.08568813  1
  Al  Al43  1  0.41676753  0.92388582  0.57776860  1
  Al  Al44  1  0.90998722  0.42366743  0.08601419  1
  Al  Al45  1  0.91046538  0.40351342  0.58494835  1
  Al  Al46  1  0.92838734  0.91505755  0.08684501  1
  Al  Al47  1  0.91112403  0.92355822  0.59276482  1
  Al  Al48  1  0.41317994  0.07768554  0.41848069  1
  Al  Al49  1  0.42081112  0.08318825  0.91116589  1
  Al  Al50  1  0.40332687  0.58581406  0.41067249  1
  Al  Al51  1  0.41892553  0.58896722  0.91328360  1
  Al  Al52  1  0.92422119  0.08199723  0.42435355  1
  Al  Al53  1  0.91035851  0.08899384  0.91225431  1
  Al  Al54  1  0.91763565  0.57638751  0.41530843  1
  Al  Al55  1  0.93138432  0.58155159  0.92326907  1
  Al  Al56  1  0.08286409  0.42526532  0.41942830  1
  Al  Al57  1  0.08755274  0.42173546  0.90635922  1
  Al  Al58  1  0.08614114  0.92189317  0.40419885  1
  Al  Al59  1  0.08412650  0.90068459  0.92141295  1
  Al  Al60  1  0.59822011  0.41316026  0.41434351  1
  Al  Al61  1  0.58022116  0.42018700  0.91756314  1
  Al  Al62  1  0.57451217  0.91952787  0.41014705  1
  Al  Al63  1  0.57921154  0.92238584  0.92246401  1
  Al  Al64  1  0.08574695  0.08082423  0.41060826  1
  Al  Al65  1  0.07182779  0.08685231  0.92152825  1
  Al  Al66  1  0.08861262  0.58555106  0.41526602  1
  Al  Al67  1  0.09176999  0.58601800  0.91507070  1
  Al  Al68  1  0.58470791  0.08139759  0.42112937  1
  Al  Al69  1  0.58138827  0.08948802  0.91103118  1
  Al  Al70  1  0.58055555  0.57159741  0.40787169  1
  Al  Al71  1  0.57850845  0.58584764  0.91013225  1
  Al  Al72  1  0.41731817  0.42619043  0.41353609  1
  Al  Al73  1  0.42030736  0.42006026  0.91615332  1
  Al  Al74  1  0.41598078  0.91698119  0.40770421  1
  Al  Al75  1  0.41164688  0.91806369  0.92352046  1
  Al  Al76  1  0.90434231  0.41099669  0.42296452  1
  Al  Al77  1  0.92488000  0.41188681  0.92102854  1
  Al  Al78  1  0.92601044  0.91513517  0.41791132  1
  Al  Al79  1  0.92349901  0.91911885  0.90827907  1
  Al  Al80  1  0.08219447  0.42593737  0.08224394  1
  Al  Al81  1  0.07242303  0.41233021  0.58872501  1
  Al  Al82  1  0.08930994  0.90190448  0.08528591  1
  Al  Al83  1  0.07374312  0.92451148  0.58336735  1
  Al  Al84  1  0.58367120  0.41963019  0.08367075  1
  Al  Al85  1  0.59213119  0.40666155  0.57587063  1
  Al  Al86  1  0.57564887  0.91009732  0.08721931  1
  Al  Al87  1  0.58187358  0.93125911  0.58043671  1
  Al  Al88  1  0.42012312  0.07354050  0.07694215  1
  Al  Al89  1  0.42098664  0.08873257  0.58509175  1
  Al  Al90  1  0.41087176  0.58378070  0.09036982  1
  Al  Al91  1  0.41022574  0.58650969  0.57216171  1
  Al  Al92  1  0.91278458  0.08909531  0.07443049  1
  Al  Al93  1  0.91436262  0.08867798  0.59559840  1
  Al  Al94  1  0.92275610  0.58544561  0.09780015  1
  Al  Al95  1  0.92159650  0.57142679  0.57759012  1
  Al  Al96  1  0.25065555  0.12857748  0.13604327  1
  Al  Al97  1  0.24884492  0.13818963  0.63696002  1
  Al  Al98  1  0.25481118  0.63695306  0.13575807  1
  Al  Al99  1  0.25139138  0.63275311  0.63613146  1
  Al  Al100  1  0.74759454  0.13150958  0.13417985  1
  Al  Al101  1  0.75271856  0.13186614  0.63565534  1
  Al  Al102  1  0.74817697  0.62961595  0.13993506  1
  Al  Al103  1  0.74718283  0.63427843  0.63876481  1
  Al  Al104  1  0.25211622  0.36585388  0.13579743  1
  Al  Al105  1  0.24868455  0.36697376  0.63864421  1
  Al  Al106  1  0.24750822  0.86754903  0.13463031  1
  Al  Al107  1  0.25453739  0.86399588  0.63793205  1
  Al  Al108  1  0.74855129  0.37176568  0.13552525  1
  Al  Al109  1  0.74990725  0.36158598  0.63309319  1
  Al  Al110  1  0.75103241  0.86724839  0.13764018  1
  Al  Al111  1  0.74961101  0.87185787  0.63791994  1
  Al  Al112  1  0.24680794  0.13424801  0.36304069  1
  Al  Al113  1  0.24882988  0.13859942  0.86334882  1
  Al  Al114  1  0.25249139  0.62805029  0.35921916  1
  Al  Al115  1  0.24993885  0.63044163  0.86651788  1
  Al  Al116  1  0.75160991  0.13720583  0.36708962  1
  Al  Al117  1  0.75070148  0.13850417  0.86881101  1
  Al  Al118  1  0.74988140  0.62618170  0.35862030  1
  Al  Al119  1  0.75025166  0.64040418  0.86476950  1
  Al  Al120  1  0.24998659  0.37110754  0.36330012  1
  Al  Al121  1  0.24816658  0.37291306  0.86165883  1
  Al  Al122  1  0.24967797  0.86515874  0.36358082  1
  Al  Al123  1  0.24885630  0.86224707  0.86664389  1
  Al  Al124  1  0.74830547  0.36935302  0.36532621  1
  Al  Al125  1  0.75160559  0.36153432  0.86328479  1
  Al  Al126  1  0.75010032  0.86386791  0.35769454  1
  Al  Al127  1  0.74783266  0.86457915  0.86439127  1
  Al  Al128  1  0.13514110  0.25017545  0.13870167  1
  Al  Al129  1  0.13160852  0.25119422  0.63440069  1
  Al  Al130  1  0.13344713  0.75197481  0.13690970  1
  Al  Al131  1  0.13666902  0.74909780  0.63848947  1
  Al  Al132  1  0.63629392  0.25033656  0.13493559  1
  Al  Al133  1  0.63830985  0.24925026  0.62996672  1
  Al  Al134  1  0.63103197  0.74706541  0.13761189  1
  Al  Al135  1  0.63563922  0.75294207  0.63937956  1
  Al  Al136  1  0.13650307  0.24892357  0.36513158  1
  Al  Al137  1  0.13483376  0.25533069  0.86414477  1
  Al  Al138  1  0.13910617  0.74790297  0.36038302  1
  Al  Al139  1  0.13564345  0.75283962  0.86874486  1
  Al  Al140  1  0.63320240  0.25411641  0.36642165  1
  Al  Al141  1  0.62943501  0.24774500  0.86334038  1
  Al  Al142  1  0.63443635  0.74458004  0.35944380  1
  Al  Al143  1  0.62862895  0.75078248  0.86267387  1
  Al  Al144  1  0.36696482  0.25045748  0.13980330  1
  Al  Al145  1  0.36558421  0.25271555  0.63638815  1
  Al  Al146  1  0.37141776  0.74947032  0.13781892  1
  Al  Al147  1  0.36368590  0.74283254  0.63438891  1
  Al  Al148  1  0.86265991  0.25015553  0.13177997  1
  Al  Al149  1  0.86666171  0.25233522  0.63233375  1
  Al  Al150  1  0.86849728  0.74653162  0.13659299  1
  Al  Al151  1  0.86120637  0.75291754  0.63633930  1
  Al  Al152  1  0.36892145  0.25027682  0.36183636  1
  Al  Al153  1  0.37025908  0.25176091  0.86205582  1
  Al  Al154  1  0.36319991  0.74407439  0.36336293  1
  Al  Al155  1  0.36827354  0.74671071  0.86428997  1
  Al  Al156  1  0.86118027  0.25575378  0.36725837  1
  Al  Al157  1  0.86518390  0.24987207  0.86835811  1
  Al  Al158  1  0.86139222  0.74731981  0.36106743  1
  Al  Al159  1  0.86837100  0.75721711  0.86393335  1
  Al  Al160  1  0.13702556  0.12771442  0.24740984  1
  Al  Al161  1  0.13260499  0.13707577  0.74762286  1
  Al  Al162  1  0.13505388  0.63513129  0.24555186  1
  Al  Al163  1  0.13637711  0.63276801  0.75512767  1
  Al  Al164  1  0.63018213  0.13927280  0.25060106  1
  Al  Al165  1  0.63895223  0.13061539  0.75129380  1
  Al  Al166  1  0.62977162  0.62770522  0.24870452  1
  Al  Al167  1  0.63297675  0.63586830  0.75209430  1
  Al  Al168  1  0.36913290  0.13471679  0.25067567  1
  Al  Al169  1  0.36504669  0.13655186  0.75051356  1
  Al  Al170  1  0.36949802  0.63139547  0.24912263  1
  Al  Al171  1  0.36366360  0.62812950  0.75493381  1
  Al  Al172  1  0.86223890  0.13524380  0.24591902  1
  Al  Al173  1  0.86616305  0.13821242  0.74667355  1
  Al  Al174  1  0.86481566  0.62631041  0.24721724  1
  Al  Al175  1  0.86503127  0.63773249  0.75056849  1
  Al  Al176  1  0.13668505  0.36691224  0.25115152  1
  Al  Al177  1  0.12998686  0.36621461  0.74965002  1
  Al  Al178  1  0.13670175  0.86784730  0.24732556  1
  Al  Al179  1  0.13377327  0.86260361  0.75332604  1
  Al  Al180  1  0.63609313  0.37399397  0.25146847  1
  Al  Al181  1  0.63049989  0.36041602  0.74712434  1
  Al  Al182  1  0.63270247  0.86358301  0.24473394  1
  Al  Al183  1  0.63539516  0.87323580  0.75196062  1
  Al  Al184  1  0.36397739  0.37084077  0.25269791  1
  Al  Al185  1  0.36911765  0.36921736  0.75319886  1
  Al  Al186  1  0.36389200  0.86396773  0.24667344  1
  Al  Al187  1  0.36585681  0.86074583  0.75223385  1
  Al  Al188  1  0.86063220  0.37226329  0.24970046  1
  Al  Al189  1  0.87164681  0.35973387  0.74722423  1
  Al  Al190  1  0.86693536  0.86584677  0.24561979  1
  Al  Al191  1  0.86503493  0.86866264  0.75004392  1
  Al  Al192  1  0.17070630  0.32186694  0.50073364  1
  Al  Al193  1  0.32131907  0.17605653  0.49906097  1
  Al  Al194  1  0.18158245  0.68779674  0.00202070  1
  Al  Al195  1  -0.00180583  0.82589660  0.68563408  1
  Al  Al196  1  0.32551060  -0.00081176  0.81827562  1
  Al  Al197  1  0.31374380  0.00012624  0.31856992  1
  Al  Al198  1  0.67317157  0.49910601  0.81900482  1
  Al  Al199  1  0.49867589  0.81803202  0.31159088  1
  Al  Al200  1  -0.00054562  0.17530666  0.31881273  1
  Al  Al201  1  0.18878940  0.67645847  0.49827018  1
  Al  Al202  1  0.17332661  0.00014452  0.82945333  1
  Al  Al203  1  -0.00205368  0.32691328  0.17539563  1
  Al  Al204  1  0.16994484  0.83039469  0.50056300  1
  Al  Al205  1  0.00129686  0.82668250  0.31238326  1
  Al  Al206  1  0.32764389  0.32974746  0.49794873  1
  Al  Al207  1  0.82743155  0.82756348  0.49973663  1
  Al  Al208  1  0.67331942  0.00114708  0.31889074  1
  Al  Al209  1  0.32825777  0.81355158  0.49886195  1
  Al  Al210  1  0.67246515  0.66568787  0.49695022  1
  Al  Al211  1  0.67326006  0.82536027  0.00179139  1
  Al  Al212  1  0.49924901  0.32436012  0.17820910  1
  Al  Al213  1  0.31168861  0.81659916  0.00128077  1
  Al  Al214  1  0.50088839  0.82797838  0.68004602  1
  Al  Al215  1  0.18614337  0.50167365  0.17812021  1
  Al  Al216  1  0.82906894  -0.00123568  0.32705200  1
  Al  Al217  1  0.83280877  0.82538720  -0.00005484  1
  Al  Al218  1  0.67962365  0.32293399  -0.00372983  1
  Al  Al219  1  0.17344532  0.17924623  0.00053000  1
  Al  Al220  1  0.83033723  0.67170331  0.00499218  1
  Al  Al221  1  -0.00154667  0.67183122  0.31337118  1
  Al  Al222  1  0.31988508  0.32627955  -0.00100835  1
  Al  Al223  1  0.81949347  0.00289794  0.81475380  1
  Al  Al224  1  0.17873711  -0.00091641  0.67493584  1
  Al  Al225  1  0.32726674  0.16997029  -0.00099180  1
  Al  Al226  1  -0.00031549  0.67060988  0.67030133  1
  Al  Al227  1  0.00184455  0.68655401  0.82452340  1
  Al  Al228  1  0.49767021  0.66845149  0.68366077  1
  Al  Al229  1  -0.00087439  0.18201154  0.81539490  1
  Al  Al230  1  0.82881429  0.67196818  0.50046775  1
  Al  Al231  1  0.67020217  0.83058709  0.49731582  1
  Al  Al232  1  0.82064821  0.17800037  0.50125494  1
  Al  Al233  1  -0.00151510  0.32815046  0.33258243  1
  Al  Al234  1  0.82061536  0.49786240  0.67285365  1
  Al  Al235  1  0.17472944  0.49930212  0.67634028  1
  Al  Al236  1  0.67114912  0.67237961  -0.00058721  1
  Al  Al237  1  0.50252859  0.18135054  0.68975699  1
  Al  Al238  1  0.82455319  0.50052966  0.82539696  1
  Au  Au239  1  0.50108379  0.33644679  0.33401915  1
  Au  Au240  1  0.16226405  0.49709310  0.67631141  1
  Au  Au241  1  0.83681986  0.50110709  0.83693994  1
  Au  Au242  1  0.67223789  -0.00001048  0.83504123  1
  Au  Au243  1  0.33582072  0.32581928  0.00282814  1
  Au  Au244  1  0.32716340  0.50160868  0.83509390  1
  Au  Au245  1  0.15383621  0.82597625  0.49686598  1
  Au  Au246  1  0.50027517  0.67612342  0.16825591  1
  Au  Au247  1  0.82590442  0.49743490  0.32937811  1
  Au  Au248  1  0.50168932  0.32374363  0.83044104  1
  Au  Au249  1  0.17174786  0.15750292  0.50105031  1
  Au  Au250  1  0.67945097  0.00438857  0.66794008  1
  Au  Au251  1  0.50299911  0.84270770  0.67154195  1
  Au  Au252  1  0.67796892  0.64984256  0.49513014  1
  Au  Au253  1  0.00143900  0.32937450  0.82100024  1
  Au  Au254  1  0.66606107  0.17940621  0.49855841  1
  Au  Au255  1  -0.00122553  0.16367196  0.16932362  1
  Au  Au256  1  0.15704388  0.32965053  -0.00100627  1
  Au  Au257  1  0.83562520  0.32474632  0.00222380  1
  Au  Au258  1  0.49854182  0.16901646  0.16123808  1
  Au  Au259  1  0.34382931  0.81986433  0.49695862  1
  Au  Au260  1  0.15972041  0.00010035  0.83837327  1
  Au  Au261  1  0.32947810  0.66979797  -0.00018664  1
  Au  Au262  1  0.67543064  0.16681992  -0.00107640  1
  Au  Au263  1  0.50026532  0.32578440  0.66087506  1
  Au  Au264  1  0.33539714  -0.00235418  0.17179922  1
  Au  Au265  1  0.83025026  0.83781254  -0.00109593  1
  Au  Au266  1  0.17609645  0.50027934  0.32587087  1
  Au  Au267  1  0.32935776  0.49796338  0.66161578  1
  Au  Au268  1  0.66060536  -0.00230561  0.17065887  1
  Au  Au269  1  0.66964068  0.49330112  0.66848933  1
  Au  Au270  1  0.67095849  0.33168581  -0.00154740  1
  Au  Au271  1  0.49997472  0.33466548  0.17122828  1
  Au  Au272  1  -0.00144263  0.67711833  0.32950753  1
  Au  Au273  1  0.83305147  0.18069996  0.49989843  1
  Au  Au274  1  0.67251373  0.50155304  0.17280063  1
  Au  Au275  1  0.67555887  0.84649000  0.49527527  1
  Au  Au276  1  0.49807646  0.66131739  0.66812155  1
  Au  Au277  1  -0.00157542  0.83080049  0.67369322  1
  Au  Au278  1  0.32900223  0.00474804  0.66624201  1
  Au  Au279  1  0.83501005  0.00095603  0.16327030  1
  Au  Au280  1  0.83233236  0.00300298  0.33863127  1
  Au  Au281  1  0.16568469  -0.00354555  0.17250910  1
  Au  Au282  1  0.49768182  0.67129017  0.33605297  1
  Au  Au283  1  0.82727493  0.65949913  0.00706329  1
  Au  Au284  1  -0.00228551  0.33946492  0.17831705  1
  Au  Au285  1  0.49739749  0.82555402  0.84512736  1
  Au  Au286  1  0.17340844  0.33420123  0.50245466  1
  Au  Au287  1  0.49894141  0.16158319  0.33354590  1
