# generated using pymatgen
data_Ca24Ti8Al207Au49
_symmetry_space_group_name_H-M   'P 1'
_cell_length_a   17.32070461
_cell_length_b   17.31967303
_cell_length_c   17.32259453
_cell_angle_alpha   90.00158350
_cell_angle_beta   89.99869825
_cell_angle_gamma   89.99850770
_symmetry_Int_Tables_number   1
_chemical_formula_structural   Ca24Ti8Al207Au49
_chemical_formula_sum   'Ca24 Ti8 Al207 Au49'
_cell_volume   5196.58677372
_cell_formula_units_Z   1
loop_
 _symmetry_equiv_pos_site_id
 _symmetry_equiv_pos_as_xyz
  1  'x, y, z'
loop_
 _atom_site_type_symbol
 _atom_site_label
 _atom_site_symmetry_multiplicity
 _atom_site_fract_x
 _atom_site_fract_y
 _atom_site_fract_z
 _atom_site_occupancy
  Ca  Ca0  1  0.25128554  -0.00613120  -0.00227919  1
  Ca  Ca1  1  0.24879714  0.00035654  0.49974540  1
  Ca  Ca2  1  0.25235195  0.50617757  -0.00269197  1
  Ca  Ca3  1  0.25160102  0.49975126  0.50285082  1
  Ca  Ca4  1  0.75649956  -0.00244525  0.00105326  1
  Ca  Ca5  1  0.75736284  -0.00122626  0.49986071  1
  Ca  Ca6  1  0.74869092  0.50475862  -0.00024605  1
  Ca  Ca7  1  0.75236883  0.49895786  0.49624375  1
  Ca  Ca8  1  -0.00660187  0.25273795  -0.00212498  1
  Ca  Ca9  1  0.00533646  0.25112574  0.50588442  1
  Ca  Ca10  1  -0.00487610  0.74366683  -0.00136624  1
  Ca  Ca11  1  0.00420438  0.75400459  0.50560472  1
  Ca  Ca12  1  0.50286558  0.25133012  -0.00057478  1
  Ca  Ca13  1  0.49375749  0.25337031  0.50121067  1
  Ca  Ca14  1  0.49982440  0.74526658  0.00110985  1
  Ca  Ca15  1  0.49724391  0.74902049  0.49744628  1
  Ca  Ca16  1  0.00338556  0.00266487  0.25349144  1
  Ca  Ca17  1  -0.00031487  0.00158249  0.74946919  1
  Ca  Ca18  1  -0.00207544  0.50342368  0.24889121  1
  Ca  Ca19  1  0.00270015  0.49711167  0.75163699  1
  Ca  Ca20  1  0.50104383  -0.00437890  0.25571611  1
  Ca  Ca21  1  0.50117459  -0.00656649  0.74317100  1
  Ca  Ca22  1  0.50014973  0.50478843  0.25080943  1
  Ca  Ca23  1  0.49737290  0.50501344  0.75350650  1
  Ti  Ti24  1  0.25071764  0.25088354  0.25342626  1
  Ti  Ti25  1  0.24904785  0.25260264  0.74888173  1
  Ti  Ti26  1  0.25029662  0.74844198  0.25181364  1
  Ti  Ti27  1  0.24998906  0.74718154  0.74903712  1
  Ti  Ti28  1  0.74984173  0.25343265  0.24687479  1
  Ti  Ti29  1  0.75239021  0.25256908  0.75319948  1
  Ti  Ti30  1  0.75024329  0.74733850  0.24791462  1
  Ti  Ti31  1  0.75033814  0.74784323  0.75363841  1
  Al  Al32  1  0.07532095  0.07846703  0.07213503  1
  Al  Al33  1  0.09536238  0.08254115  0.59100420  1
  Al  Al34  1  0.08942544  0.58941708  0.07061040  1
  Al  Al35  1  0.08847884  0.57427373  0.59531813  1
  Al  Al36  1  0.58338872  0.08478584  0.07877074  1
  Al  Al37  1  0.57511756  0.08650310  0.57558024  1
  Al  Al38  1  0.59209850  0.59028566  0.08106091  1
  Al  Al39  1  0.57786178  0.57910522  0.58133967  1
  Al  Al40  1  0.42359262  0.43136436  0.07752964  1
  Al  Al41  1  0.40567398  0.41145197  0.57799846  1
  Al  Al42  1  0.42134368  0.90933376  0.09580322  1
  Al  Al43  1  0.40723861  0.91502767  0.57122072  1
  Al  Al44  1  0.89908266  0.41790811  0.07837745  1
  Al  Al45  1  0.92733355  0.40734381  0.58611271  1
  Al  Al46  1  0.91876228  0.91854976  0.07327852  1
  Al  Al47  1  0.92538311  0.91309839  0.59463844  1
  Al  Al48  1  0.40708880  0.09159385  0.41957704  1
  Al  Al49  1  0.42235656  0.07047201  0.92289442  1
  Al  Al50  1  0.41064498  0.58069687  0.41220098  1
  Al  Al51  1  0.40648492  0.59391988  0.91274744  1
  Al  Al52  1  0.91856430  0.08133352  0.42135294  1
  Al  Al53  1  0.90749905  0.08906197  0.90881452  1
  Al  Al54  1  0.91550568  0.57978402  0.41772280  1
  Al  Al55  1  0.91761895  0.58346874  0.92503811  1
  Al  Al56  1  0.08880881  0.41423103  0.42699171  1
  Al  Al57  1  0.08192876  0.41961044  0.89831834  1
  Al  Al58  1  0.08245016  0.91646087  0.42833871  1
  Al  Al59  1  0.07230878  0.91068897  0.91171577  1
  Al  Al60  1  0.57840697  0.42575417  0.40949650  1
  Al  Al61  1  0.58285743  0.42445767  0.92364292  1
  Al  Al62  1  0.57470118  0.90567535  0.40852499  1
  Al  Al63  1  0.58601812  0.91386732  0.92325811  1
  Al  Al64  1  0.09389556  0.08975310  0.43102007  1
  Al  Al65  1  0.07214269  0.08295326  0.91627356  1
  Al  Al66  1  0.08150665  0.57777701  0.42013157  1
  Al  Al67  1  0.09995751  0.58239362  0.90977472  1
  Al  Al68  1  0.57832536  0.07950457  0.42078280  1
  Al  Al69  1  0.58876252  0.07910413  0.92120341  1
  Al  Al70  1  0.58089670  0.58087498  0.40711603  1
  Al  Al71  1  0.57984756  0.59673161  0.91808948  1
  Al  Al72  1  0.40522971  0.41566532  0.41481207  1
  Al  Al73  1  0.40901163  0.43493819  0.91117160  1
  Al  Al74  1  0.41414923  0.90179160  0.41213335  1
  Al  Al75  1  0.42103494  0.91638573  0.92110094  1
  Al  Al76  1  0.91518106  0.41850895  0.42046946  1
  Al  Al77  1  0.91867455  0.40479667  0.91676289  1
  Al  Al78  1  0.92492755  0.92040491  0.42267101  1
  Al  Al79  1  0.91137417  0.91416834  0.90349846  1
  Al  Al80  1  0.07001762  0.42902136  0.07352319  1
  Al  Al81  1  0.09065303  0.41054181  0.59524602  1
  Al  Al82  1  0.07897363  0.91793977  0.07376198  1
  Al  Al83  1  0.08952603  0.91732838  0.59303866  1
  Al  Al84  1  0.58932428  0.42413374  0.08286622  1
  Al  Al85  1  0.57128813  0.42303641  0.57837851  1
  Al  Al86  1  0.57839693  0.90143358  0.08755037  1
  Al  Al87  1  0.57516202  0.92552418  0.56705431  1
  Al  Al88  1  0.42093697  0.07096774  0.08306271  1
  Al  Al89  1  0.40854344  0.09265639  0.57603975  1
  Al  Al90  1  0.41075459  0.59215237  0.07744014  1
  Al  Al91  1  0.41179679  0.58002294  0.58018595  1
  Al  Al92  1  0.90938333  0.09308892  0.06880083  1
  Al  Al93  1  0.92238975  0.07855502  0.58559243  1
  Al  Al94  1  0.89869735  0.58063484  0.08495068  1
  Al  Al95  1  0.92552148  0.58006754  0.58167496  1
  Al  Al96  1  0.24998624  0.13901963  0.13838771  1
  Al  Al97  1  0.24676086  0.13801592  0.62702474  1
  Al  Al98  1  0.25195306  0.63743227  0.13271764  1
  Al  Al99  1  0.25104479  0.62844048  0.63879579  1
  Al  Al100  1  0.75224612  0.13635910  0.12989269  1
  Al  Al101  1  0.75465828  0.13964266  0.63791739  1
  Al  Al102  1  0.75003015  0.62878818  0.13476110  1
  Al  Al103  1  0.74748642  0.63329321  0.64054324  1
  Al  Al104  1  0.25520969  0.36496672  0.13481964  1
  Al  Al105  1  0.24835578  0.37386640  0.63693207  1
  Al  Al106  1  0.25094148  0.86251429  0.13844608  1
  Al  Al107  1  0.25028451  0.86657155  0.63721521  1
  Al  Al108  1  0.75089986  0.37291188  0.13050109  1
  Al  Al109  1  0.74980247  0.36420619  0.63766631  1
  Al  Al110  1  0.75042896  0.86100236  0.12730739  1
  Al  Al111  1  0.75096727  0.86170600  0.63878837  1
  Al  Al112  1  0.25174269  0.13132174  0.36824104  1
  Al  Al113  1  0.24809671  0.13781728  0.86246634  1
  Al  Al114  1  0.25202519  0.62883424  0.36385862  1
  Al  Al115  1  0.25073325  0.63043927  0.86490234  1
  Al  Al116  1  0.75005538  0.13387011  0.36033084  1
  Al  Al117  1  0.75658771  0.13614900  0.87320406  1
  Al  Al118  1  0.74960449  0.62794660  0.35858869  1
  Al  Al119  1  0.74977308  0.63269035  0.86962452  1
  Al  Al120  1  0.25342810  0.36969100  0.36885193  1
  Al  Al121  1  0.24534602  0.37517875  0.86230602  1
  Al  Al122  1  0.25294461  0.86972644  0.36397469  1
  Al  Al123  1  0.24909761  0.86013237  0.86422923  1
  Al  Al124  1  0.74989929  0.37062701  0.36086754  1
  Al  Al125  1  0.75408673  0.37153143  0.86992618  1
  Al  Al126  1  0.74970618  0.86470982  0.36111130  1
  Al  Al127  1  0.75112932  0.85861927  0.87426721  1
  Al  Al128  1  0.13502910  0.25317682  0.13741679  1
  Al  Al129  1  0.13606864  0.25289338  0.63614260  1
  Al  Al130  1  0.13439498  0.74261206  0.13420463  1
  Al  Al131  1  0.13471036  0.75174859  0.63868025  1
  Al  Al132  1  0.64107505  0.25286075  0.12745969  1
  Al  Al133  1  0.63521700  0.24969185  0.63966222  1
  Al  Al134  1  0.63877885  0.74568776  0.13197319  1
  Al  Al135  1  0.63222179  0.75207727  0.64164083  1
  Al  Al136  1  0.13832005  0.24906319  0.37078085  1
  Al  Al137  1  0.13404516  0.25493679  0.85894050  1
  Al  Al138  1  0.13975330  0.74800514  0.36705308  1
  Al  Al139  1  0.13685804  0.74258701  0.86150429  1
  Al  Al140  1  0.63621024  0.24947226  0.35951237  1
  Al  Al141  1  0.64610975  0.25256061  0.87608493  1
  Al  Al142  1  0.63467809  0.75049102  0.35982203  1
  Al  Al143  1  0.63414227  0.74455456  0.87327295  1
  Al  Al144  1  0.36603087  0.24955465  0.13614609  1
  Al  Al145  1  0.35753607  0.25389513  0.63020403  1
  Al  Al146  1  0.36654125  0.74941572  0.13641281  1
  Al  Al147  1  0.36345123  0.74835889  0.63749356  1
  Al  Al148  1  0.86424356  0.25662204  0.13214036  1
  Al  Al149  1  0.86864237  0.25333843  0.64027054  1
  Al  Al150  1  0.86246073  0.74240201  0.12661122  1
  Al  Al151  1  0.86853135  0.75234125  0.64060286  1
  Al  Al152  1  0.35994374  0.25040669  0.37277236  1
  Al  Al153  1  0.35841491  0.26104116  0.86804737  1
  Al  Al154  1  0.36440854  0.75307421  0.36636817  1
  Al  Al155  1  0.36573613  0.74268094  0.86594722  1
  Al  Al156  1  0.86350387  0.25004587  0.36102668  1
  Al  Al157  1  0.86603213  0.25569457  0.86779534  1
  Al  Al158  1  0.86289732  0.74444395  0.36207437  1
  Al  Al159  1  0.86406790  0.74588501  0.87059106  1
  Al  Al160  1  0.13537901  0.13477470  0.25755842  1
  Al  Al161  1  0.13686811  0.13338620  0.74557755  1
  Al  Al162  1  0.13012739  0.63508950  0.25331026  1
  Al  Al163  1  0.13814581  0.62520126  0.74996048  1
  Al  Al164  1  0.63215595  0.13698571  0.24427835  1
  Al  Al165  1  0.64002006  0.13860329  0.75790937  1
  Al  Al166  1  0.63510658  0.63001720  0.24753369  1
  Al  Al167  1  0.63323690  0.63320312  0.75595834  1
  Al  Al168  1  0.36909136  0.13792381  0.25604215  1
  Al  Al169  1  0.35894669  0.13992931  0.74736358  1
  Al  Al170  1  0.36467718  0.63697720  0.25163197  1
  Al  Al171  1  0.36281336  0.62620267  0.75325618  1
  Al  Al172  1  0.86415325  0.13579632  0.24561066  1
  Al  Al173  1  0.86535100  0.13681195  0.75429818  1
  Al  Al174  1  0.86742418  0.62950766  0.24638542  1
  Al  Al175  1  0.86466711  0.62984706  0.75462987  1
  Al  Al176  1  0.13577136  0.36422675  0.25534775  1
  Al  Al177  1  0.13321068  0.36823273  0.74841782  1
  Al  Al178  1  0.13671859  0.86403595  0.25248663  1
  Al  Al179  1  0.13553276  0.86684061  0.74700014  1
  Al  Al180  1  0.63754948  0.37257100  0.24627047  1
  Al  Al181  1  0.63891509  0.37004743  0.75569473  1
  Al  Al182  1  0.63172498  0.86156821  0.24649849  1
  Al  Al183  1  0.63618030  0.86185933  0.76004275  1
  Al  Al184  1  0.36341003  0.36652381  0.25550297  1
  Al  Al185  1  0.35931732  0.37323584  0.74830624  1
  Al  Al186  1  0.37066523  0.86109477  0.25142160  1
  Al  Al187  1  0.36640811  0.86153716  0.75069641  1
  Al  Al188  1  0.86396937  0.37266878  0.24880059  1
  Al  Al189  1  0.87023213  0.36841292  0.75274935  1
  Al  Al190  1  0.86146790  0.86284902  0.24581670  1
  Al  Al191  1  0.86237718  0.86449464  0.75444467  1
  Al  Al192  1  -0.00036359  0.81453856  0.80647134  1
  Al  Al193  1  0.49762769  0.17547808  0.67147068  1
  Al  Al194  1  0.66845432  0.67616725  0.49952265  1
  Al  Al195  1  -0.00007162  0.18584227  0.82506154  1
  Al  Al196  1  0.67623455  -0.00321100  0.17606098  1
  Al  Al197  1  0.19048722  0.31478931  0.50358251  1
  Al  Al198  1  0.31560158  0.00292289  0.67069993  1
  Al  Al199  1  0.17200604  0.81243972  -0.00058319  1
  Al  Al200  1  0.00223348  0.18036995  0.67387846  1
  Al  Al201  1  0.32986268  0.50282640  0.18177358  1
  Al  Al202  1  0.68172561  0.17524944  0.49934348  1
  Al  Al203  1  0.17171684  0.17522148  -0.00214540  1
  Al  Al204  1  0.82562839  -0.00476851  0.32068930  1
  Al  Al205  1  0.17289900  0.50144257  0.17670922  1
  Al  Al206  1  0.32818402  0.81360060  0.00101037  1
  Al  Al207  1  0.49709631  0.32772349  0.67235846  1
  Al  Al208  1  0.50143724  0.68125895  0.17189610  1
  Al  Al209  1  0.17244161  0.66949987  0.50450825  1
  Al  Al210  1  0.49758183  0.16739521  0.82778154  1
  Al  Al211  1  0.00193888  0.32519594  0.32544043  1
  Al  Al212  1  0.67592051  0.82642110  0.49981522  1
  Al  Al213  1  0.32326966  0.68444603  0.50010802  1
  Al  Al214  1  0.00067797  0.17767478  0.17498578  1
  Al  Al215  1  0.49847616  0.68205242  0.32431911  1
  Al  Al216  1  0.82713342  0.49529781  0.67263433  1
  Al  Al217  1  0.66594820  0.32512036  0.49870302  1
  Al  Al218  1  0.67013167  0.00230787  0.66954332  1
  Al  Al219  1  0.17103039  0.00204947  0.17192520  1
  Al  Al220  1  0.82708408  0.67589294  0.50283700  1
  Al  Al221  1  0.17115817  0.33298180  -0.00213991  1
  Al  Al222  1  0.49879962  0.33005050  0.82778722  1
  Al  Al223  1  0.49986623  0.81287236  0.82476153  1
  Al  Al224  1  0.49799331  0.67648364  0.68473493  1
  Al  Al225  1  0.32727604  -0.00056882  0.18335092  1
  Al  Al226  1  0.00055231  0.81957695  0.32952787  1
  Al  Al227  1  0.83109908  0.82855795  0.50102989  1
  Al  Al228  1  0.00171881  0.68191562  0.68111993  1
  Al  Al229  1  0.50141726  0.32413803  0.17115323  1
  Al  Al230  1  0.18756317  0.82322784  0.50183841  1
  Al  Al231  1  -0.00038792  0.82231998  0.17207742  1
  Al  Al232  1  0.32491099  -0.00202699  0.82450164  1
  Al  Al233  1  0.16692707  0.00007521  0.82044933  1
  Al  Al234  1  0.33053564  0.17213399  0.00001869  1
  Al  Al235  1  0.49851696  0.32334235  0.32745451  1
  Al  Al236  1  0.82496830  0.31660929  0.50028725  1
  Al  Al237  1  0.69364570  -0.00138440  0.82665443  1
  Al  Al238  1  0.82689323  -0.00013183  0.68632715  1
  Au  Au239  1  0.33346286  0.34469214  -0.00050186  1
  Au  Au240  1  0.50059694  0.82888541  0.83088803  1
  Au  Au241  1  0.49467456  0.34561184  0.82569572  1
  Au  Au242  1  0.32420538  0.15604937  0.00070993  1
  Au  Au243  1  -0.00033731  0.17176474  0.15920959  1
  Au  Au244  1  0.49703671  0.66398177  0.67350737  1
  Au  Au245  1  0.66581291  0.50831994  0.83727607  1
  Au  Au246  1  0.68255944  -0.00374475  0.83959004  1
  Au  Au247  1  0.82628252  0.49971618  0.32958834  1
  Au  Au248  1  0.33169064  0.00244452  0.66676052  1
  Au  Au249  1  -0.00359062  0.66031157  0.15995107  1
  Au  Au250  1  -0.00771668  0.34568210  0.16838871  1
  Au  Au251  1  0.67038998  -0.00314338  0.34289119  1
  Au  Au252  1  0.66530370  0.49637553  0.66880849  1
  Au  Au253  1  0.15552016  0.81410423  -0.00559938  1
  Au  Au254  1  0.16467261  -0.00107273  0.33922925  1
  Au  Au255  1  0.83603053  0.49839625  0.83772776  1
  Au  Au256  1  0.50049541  0.17483604  0.34176871  1
  Au  Au257  1  0.00061785  0.67118710  0.33951918  1
  Au  Au258  1  0.83239256  0.16728439  0.50594089  1
  Au  Au259  1  0.66338248  -0.00437013  0.16584260  1
  Au  Au260  1  0.66629019  0.81676956  0.00305903  1
  Au  Au261  1  0.83545364  0.49734808  0.66360792  1
  Au  Au262  1  0.67814929  0.17026443  0.00102207  1
  Au  Au263  1  0.15509376  0.32834439  -0.00531828  1
  Au  Au264  1  0.32478057  0.49918634  0.67044536  1
  Au  Au265  1  0.49760168  0.15145013  0.82133241  1
  Au  Au266  1  0.67580395  0.00366776  0.65371926  1
  Au  Au267  1  0.17800340  0.49859828  0.34009668  1
  Au  Au268  1  0.00027479  0.33316445  0.33502747  1
  Au  Au269  1  0.67436214  0.50323305  0.17363019  1
  Au  Au270  1  0.49743484  0.16155878  0.17116614  1
  Au  Au271  1  0.17063797  0.00030295  0.83722927  1
  Au  Au272  1  0.00189064  0.66816977  0.83670828  1
  Au  Au273  1  0.49945304  0.83438612  0.65438271  1
  Au  Au274  1  0.83453370  -0.00267038  0.32936246  1
  Au  Au275  1  0.67566942  0.66176965  0.49394697  1
  Au  Au276  1  0.49725723  0.34003460  0.17295009  1
  Au  Au277  1  0.83843191  0.00408220  0.16382829  1
  Au  Au278  1  0.17727892  0.00258509  0.15585865  1
  Au  Au279  1  0.00565420  0.17079591  0.34482738  1
  Au  Au280  1  0.00166760  0.67042955  0.67587767  1
  Au  Au281  1  0.67911915  0.33712741  -0.00008872  1
  Au  Au282  1  0.83537091  0.82424578  -0.00265040  1
  Au  Au283  1  0.66963253  0.34044288  0.49372227  1
  Au  Au284  1  0.33771301  -0.00226885  0.33175868  1
  Au  Au285  1  0.17885354  0.50297901  0.16097803  1
  Au  Au286  1  -0.00053270  0.83837161  0.17789685  1
  Au  Au287  1  0.33238463  0.83015408  0.00332979  1
