# generated using pymatgen
data_Ca24Ti8Al207Au49
_symmetry_space_group_name_H-M   'P 1'
_cell_length_a   17.32429120
_cell_length_b   17.32435501
_cell_length_c   17.32523013
_cell_angle_alpha   89.99815422
_cell_angle_beta   89.99818028
_cell_angle_gamma   90.00051679
_symmetry_Int_Tables_number   1
_chemical_formula_structural   Ca24Ti8Al207Au49
_chemical_formula_sum   'Ca24 Ti8 Al207 Au49'
_cell_volume   5199.85892566
_cell_formula_units_Z   1
loop_
 _symmetry_equiv_pos_site_id
 _symmetry_equiv_pos_as_xyz
  1  'x, y, z'
loop_
 _atom_site_type_symbol
 _atom_site_label
 _atom_site_symmetry_multiplicity
 _atom_site_fract_x
 _atom_site_fract_y
 _atom_site_fract_z
 _atom_site_occupancy
  Ca  Ca0  1  0.24457252  -0.00111115  0.00096919  1
  Ca  Ca1  1  0.24859106  -0.00639813  0.49891707  1
  Ca  Ca2  1  0.24412760  0.50108704  0.00556962  1
  Ca  Ca3  1  0.24923263  0.50514066  0.49354185  1
  Ca  Ca4  1  0.75632880  -0.00262901  0.00295555  1
  Ca  Ca5  1  0.74917796  0.00144042  0.49934664  1
  Ca  Ca6  1  0.75036745  0.50201123  0.00241407  1
  Ca  Ca7  1  0.74667138  0.50161466  0.49594751  1
  Ca  Ca8  1  -0.00148303  0.24735091  0.00493221  1
  Ca  Ca9  1  -0.00448149  0.24913332  0.49472181  1
  Ca  Ca10  1  -0.00048470  0.75581671  0.00040544  1
  Ca  Ca11  1  0.00084109  0.74851181  0.49766093  1
  Ca  Ca12  1  0.50557421  0.24547690  0.00192801  1
  Ca  Ca13  1  0.50636933  0.25188151  0.49899862  1
  Ca  Ca14  1  0.50148392  0.74868587  0.00036425  1
  Ca  Ca15  1  0.50128748  0.74778282  0.49785633  1
  Ca  Ca16  1  0.00113148  -0.00319741  0.24585819  1
  Ca  Ca17  1  0.00209288  -0.00939214  0.75138391  1
  Ca  Ca18  1  -0.00245367  0.50395255  0.25103434  1
  Ca  Ca19  1  -0.00104187  0.50751929  0.74973590  1
  Ca  Ca20  1  0.49680260  -0.00135468  0.25215119  1
  Ca  Ca21  1  0.49809916  -0.00142762  0.74604855  1
  Ca  Ca22  1  0.50318800  0.50188338  0.25780938  1
  Ca  Ca23  1  0.50485828  0.50321556  0.74718732  1
  Ti  Ti24  1  0.24796561  0.25031442  0.24913381  1
  Ti  Ti25  1  0.24865950  0.24574269  0.75044823  1
  Ti  Ti26  1  0.24729760  0.74953497  0.25083806  1
  Ti  Ti27  1  0.24879894  0.75231439  0.74777869  1
  Ti  Ti28  1  0.75083539  0.25107043  0.24876797  1
  Ti  Ti29  1  0.74994206  0.24984133  0.75157662  1
  Ti  Ti30  1  0.75291500  0.74989247  0.24976806  1
  Ti  Ti31  1  0.75014474  0.75178471  0.75010742  1
  Al  Al32  1  0.08535666  0.07577395  0.09023007  1
  Al  Al33  1  0.08381779  0.07235589  0.57730558  1
  Al  Al34  1  0.07730485  0.58078286  0.08386320  1
  Al  Al35  1  0.08181752  0.59062053  0.58000226  1
  Al  Al36  1  0.59371564  0.08813718  0.08194411  1
  Al  Al37  1  0.57951661  0.08524778  0.57772077  1
  Al  Al38  1  0.58175381  0.58301468  0.08611942  1
  Al  Al39  1  0.58818808  0.59092640  0.57289147  1
  Al  Al40  1  0.41940199  0.42136035  0.08660617  1
  Al  Al41  1  0.42279606  0.42259630  0.57189292  1
  Al  Al42  1  0.41530063  0.92262729  0.07994925  1
  Al  Al43  1  0.40180934  0.91392589  0.57948224  1
  Al  Al44  1  0.91575389  0.40955999  0.08978516  1
  Al  Al45  1  0.90938723  0.42324406  0.57713406  1
  Al  Al46  1  0.91453511  0.91214726  0.08736848  1
  Al  Al47  1  0.92445353  0.90635399  0.58884463  1
  Al  Al48  1  0.42062790  0.07965395  0.41821081  1
  Al  Al49  1  0.41705911  0.07959321  0.91966194  1
  Al  Al50  1  0.41435357  0.59196433  0.40834942  1
  Al  Al51  1  0.42576259  0.59071472  0.91432147  1
  Al  Al52  1  0.91580579  0.07486359  0.41524692  1
  Al  Al53  1  0.91305135  0.07582651  0.92822758  1
  Al  Al54  1  0.91857742  0.58949473  0.41234678  1
  Al  Al55  1  0.91863011  0.59046474  0.91705622  1
  Al  Al56  1  0.08349707  0.42598980  0.41245088  1
  Al  Al57  1  0.07985775  0.42447927  0.92414157  1
  Al  Al58  1  0.09047574  0.90829115  0.41837003  1
  Al  Al59  1  0.07501631  0.91058383  0.91531319  1
  Al  Al60  1  0.59500553  0.41985295  0.41300302  1
  Al  Al61  1  0.59106987  0.41098407  0.92527491  1
  Al  Al62  1  0.58484405  0.90685082  0.41797102  1
  Al  Al63  1  0.58343123  0.91118135  0.92104383  1
  Al  Al64  1  0.08490384  0.07549975  0.41691993  1
  Al  Al65  1  0.07960484  0.07474013  0.92357781  1
  Al  Al66  1  0.08311363  0.58956225  0.40878821  1
  Al  Al67  1  0.07728561  0.58698782  0.91401429  1
  Al  Al68  1  0.58086005  0.08613276  0.41892830  1
  Al  Al69  1  0.58882178  0.08960630  0.92376139  1
  Al  Al70  1  0.58785246  0.59209967  0.40960353  1
  Al  Al71  1  0.58195145  0.58692199  0.91471042  1
  Al  Al72  1  0.41266921  0.42676464  0.41093993  1
  Al  Al73  1  0.42663260  0.42301257  0.92486529  1
  Al  Al74  1  0.41145847  0.90712366  0.41885219  1
  Al  Al75  1  0.41825146  0.91641415  0.91546631  1
  Al  Al76  1  0.91312470  0.41937110  0.41964392  1
  Al  Al77  1  0.91441710  0.41884150  0.92542091  1
  Al  Al78  1  0.91821247  0.91495257  0.41345042  1
  Al  Al79  1  0.91412975  0.90708194  0.91892820  1
  Al  Al80  1  0.07525858  0.41025701  0.09148950  1
  Al  Al81  1  0.08152689  0.42552842  0.57538712  1
  Al  Al82  1  0.07992010  0.91359081  0.09096489  1
  Al  Al83  1  0.08826690  0.90302392  0.58401155  1
  Al  Al84  1  0.58997281  0.41209213  0.08452671  1
  Al  Al85  1  0.58853895  0.41255137  0.57296485  1
  Al  Al86  1  0.58987306  0.92017284  0.08080880  1
  Al  Al87  1  0.58668050  0.91087757  0.57457928  1
  Al  Al88  1  0.41666893  0.08051029  0.08185610  1
  Al  Al89  1  0.41382111  0.07406743  0.58937824  1
  Al  Al90  1  0.42037414  0.58231434  0.08868333  1
  Al  Al91  1  0.41958984  0.58861634  0.57225133  1
  Al  Al92  1  0.90905361  0.07769934  0.08821006  1
  Al  Al93  1  0.91995407  0.07285077  0.57695352  1
  Al  Al94  1  0.91552190  0.58263595  0.08136293  1
  Al  Al95  1  0.91559299  0.58513315  0.58231241  1
  Al  Al96  1  0.24192388  0.13486014  0.13670427  1
  Al  Al97  1  0.25139659  0.12665145  0.63419888  1
  Al  Al98  1  0.25020811  0.62891094  0.14048726  1
  Al  Al99  1  0.24952573  0.63799467  0.63369422  1
  Al  Al100  1  0.75201999  0.13241104  0.13665311  1
  Al  Al101  1  0.74864767  0.12956614  0.63659469  1
  Al  Al102  1  0.75091554  0.63713510  0.13680980  1
  Al  Al103  1  0.74619603  0.63894246  0.63485569  1
  Al  Al104  1  0.24905413  0.37057964  0.13804983  1
  Al  Al105  1  0.24716690  0.36364660  0.63239194  1
  Al  Al106  1  0.24439331  0.86575708  0.13847816  1
  Al  Al107  1  0.24923566  0.86652816  0.63133724  1
  Al  Al108  1  0.74821818  0.36267833  0.12906988  1
  Al  Al109  1  0.74521255  0.36545449  0.63280457  1
  Al  Al110  1  0.75502417  0.86842942  0.13307684  1
  Al  Al111  1  0.74772899  0.86802715  0.63507517  1
  Al  Al112  1  0.24528028  0.13444557  0.36406162  1
  Al  Al113  1  0.24687784  0.12554741  0.86338961  1
  Al  Al114  1  0.24735332  0.63718331  0.36630675  1
  Al  Al115  1  0.24741893  0.63923295  0.86353641  1
  Al  Al116  1  0.74964892  0.13614399  0.36101599  1
  Al  Al117  1  0.74776047  0.13547372  0.86825177  1
  Al  Al118  1  0.74655786  0.63542974  0.36621023  1
  Al  Al119  1  0.75313666  0.63795744  0.86560635  1
  Al  Al120  1  0.24979002  0.36544170  0.36453388  1
  Al  Al121  1  0.24945677  0.36176202  0.86681533  1
  Al  Al122  1  0.24589948  0.86137569  0.36893310  1
  Al  Al123  1  0.25017824  0.87047980  0.86134001  1
  Al  Al124  1  0.74635299  0.36780676  0.36382038  1
  Al  Al125  1  0.74813845  0.36265697  0.87485039  1
  Al  Al126  1  0.74865035  0.86084435  0.36524312  1
  Al  Al127  1  0.75073071  0.86326643  0.87174592  1
  Al  Al128  1  0.12890506  0.24821813  0.13488671  1
  Al  Al129  1  0.13397573  0.25048101  0.63730955  1
  Al  Al130  1  0.13031231  0.75482356  0.13748321  1
  Al  Al131  1  0.13231986  0.75361171  0.62827205  1
  Al  Al132  1  0.63797905  0.25014943  0.13077198  1
  Al  Al133  1  0.63670723  0.25041734  0.63580481  1
  Al  Al134  1  0.63896971  0.75203806  0.13696793  1
  Al  Al135  1  0.63390456  0.75044610  0.63000079  1
  Al  Al136  1  0.13258330  0.25144685  0.36096621  1
  Al  Al137  1  0.13568643  0.24398071  0.87003430  1
  Al  Al138  1  0.12979382  0.75045054  0.36644926  1
  Al  Al139  1  0.13381100  0.75615912  0.86237741  1
  Al  Al140  1  0.63624419  0.25682498  0.36256633  1
  Al  Al141  1  0.63454476  0.25106976  0.86861517  1
  Al  Al142  1  0.63622290  0.74518384  0.36669742  1
  Al  Al143  1  0.63477111  0.75062758  0.86544973  1
  Al  Al144  1  0.36195994  0.25157966  0.13733158  1
  Al  Al145  1  0.36330929  0.24627590  0.63977465  1
  Al  Al146  1  0.35982759  0.74801363  0.13736123  1
  Al  Al147  1  0.36552618  0.75615411  0.63161070  1
  Al  Al148  1  0.86973089  0.25089712  0.13565077  1
  Al  Al149  1  0.86247302  0.25075506  0.63578324  1
  Al  Al150  1  0.86860131  0.75673450  0.13321576  1
  Al  Al151  1  0.86970639  0.75183194  0.63524419  1
  Al  Al152  1  0.36383174  0.25204958  0.35930927  1
  Al  Al153  1  0.36480212  0.24676568  0.86376158  1
  Al  Al154  1  0.36331740  0.75013528  0.36492874  1
  Al  Al155  1  0.36299944  0.75103998  0.86423004  1
  Al  Al156  1  0.86535310  0.25095620  0.36193963  1
  Al  Al157  1  0.86692559  0.25119825  0.86721235  1
  Al  Al158  1  0.87234639  0.75106718  0.36381502  1
  Al  Al159  1  0.86816661  0.75783087  0.86629705  1
  Al  Al160  1  0.12950241  0.13068745  0.25003044  1
  Al  Al161  1  0.13360599  0.12709873  0.74876451  1
  Al  Al162  1  0.13068528  0.63707491  0.25219607  1
  Al  Al163  1  0.13235951  0.64147597  0.74378500  1
  Al  Al164  1  0.63565717  0.13704189  0.24578528  1
  Al  Al165  1  0.63628449  0.13458290  0.75242905  1
  Al  Al166  1  0.63768383  0.62966381  0.25270106  1
  Al  Al167  1  0.63326756  0.63674089  0.75305069  1
  Al  Al168  1  0.36201857  0.13434466  0.24778508  1
  Al  Al169  1  0.36179315  0.12774078  0.75090324  1
  Al  Al170  1  0.36380776  0.63068148  0.25683750  1
  Al  Al171  1  0.36680882  0.63967074  0.74892683  1
  Al  Al172  1  0.87034608  0.13588688  0.24604897  1
  Al  Al173  1  0.86623654  0.13560150  0.74851781  1
  Al  Al174  1  0.86592535  0.63661476  0.25254983  1
  Al  Al175  1  0.86422667  0.63960450  0.74860089  1
  Al  Al176  1  0.13152137  0.36518458  0.24503785  1
  Al  Al177  1  0.13592327  0.36247552  0.75105819  1
  Al  Al178  1  0.12993432  0.86748017  0.25344239  1
  Al  Al179  1  0.13441315  0.86808969  0.74547807  1
  Al  Al180  1  0.63817844  0.37367355  0.24755892  1
  Al  Al181  1  0.63930377  0.36760354  0.75185433  1
  Al  Al182  1  0.63928835  0.86423409  0.25092812  1
  Al  Al183  1  0.63570118  0.86624287  0.74953353  1
  Al  Al184  1  0.36551846  0.37241645  0.25098835  1
  Al  Al185  1  0.36335862  0.36395175  0.74978829  1
  Al  Al186  1  0.36074691  0.86460068  0.25266591  1
  Al  Al187  1  0.36286955  0.87166106  0.74674212  1
  Al  Al188  1  0.86265001  0.36631505  0.24743222  1
  Al  Al189  1  0.86025953  0.36563913  0.75410518  1
  Al  Al190  1  0.87277412  0.86282934  0.24674658  1
  Al  Al191  1  0.86702669  0.86273502  0.74878298  1
  Al  Al192  1  0.31387261  0.00063509  0.17395943  1
  Al  Al193  1  0.82840901  -0.00182920  0.82244168  1
  Al  Al194  1  0.32036736  0.50270428  0.66650416  1
  Al  Al195  1  0.00115800  0.16886211  0.67698002  1
  Al  Al196  1  0.32239539  0.32912840  0.00104852  1
  Al  Al197  1  0.50184915  0.68056566  0.67489989  1
  Al  Al198  1  0.67335193  0.67849015  0.00110620  1
  Al  Al199  1  0.67191858  -0.00048358  0.82435494  1
  Al  Al200  1  0.00089570  0.32197712  0.82919850  1
  Al  Al201  1  0.50081690  0.67424771  0.19009780  1
  Al  Al202  1  0.82764190  0.17038073  0.49909439  1
  Al  Al203  1  -0.00217278  0.32576945  0.31597487  1
  Al  Al204  1  0.50206456  0.32149078  0.82570113  1
  Al  Al205  1  0.17112468  0.17889559  0.50029056  1
  Al  Al206  1  0.67693259  0.18876412  0.49849126  1
  Al  Al207  1  0.31978954  0.17256114  0.00049487  1
  Al  Al208  1  0.81409876  0.17947278  0.00212130  1
  Al  Al209  1  0.32744622  0.17381196  0.49938752  1
  Al  Al210  1  0.81014907  0.32271560  0.49817011  1
  Al  Al211  1  0.82051429  0.50040387  0.17475311  1
  Al  Al212  1  0.32087485  -0.00165418  0.32733591  1
  Al  Al213  1  0.50045944  0.81095678  0.32827788  1
  Al  Al214  1  0.50027995  0.18254432  0.31858039  1
  Al  Al215  1  0.49900758  0.17381186  0.67961135  1
  Al  Al216  1  0.81772972  0.50208292  0.68004654  1
  Al  Al217  1  -0.00032660  0.69050908  0.81806363  1
  Al  Al218  1  0.67045383  -0.00025111  0.32202461  1
  Al  Al219  1  0.82616315  0.68590128  0.00087247  1
  Al  Al220  1  0.32605876  0.67775845  0.00217955  1
  Al  Al221  1  0.50124564  0.32818437  0.66989506  1
  Al  Al222  1  0.31831857  0.68797747  0.49889388  1
  Al  Al223  1  -0.00202122  0.33148896  0.67192234  1
  Al  Al224  1  0.17189378  0.50223050  0.82011747  1
  Al  Al225  1  0.82628467  -0.00199481  0.31147315  1
  Al  Al226  1  0.67974766  0.49886923  0.82605497  1
  Al  Al227  1  0.18650636  0.50129039  0.31789945  1
  Al  Al228  1  0.49745478  0.81562230  0.81899907  1
  Al  Al229  1  0.17484912  0.82741608  0.00034009  1
  Al  Al230  1  0.81875250  0.82353768  0.50005659  1
  Al  Al231  1  0.32963916  0.50220820  0.82565287  1
  Al  Al232  1  -0.00128998  0.68536847  0.18319852  1
  Al  Al233  1  0.81564196  0.67269347  0.49940384  1
  Al  Al234  1  0.49835170  0.82236222  0.17830269  1
  Al  Al235  1  0.50122326  0.31955572  0.18010109  1
  Al  Al236  1  0.17007633  0.67420307  0.00138015  1
  Al  Al237  1  0.81799097  0.50185813  0.32743164  1
  Al  Al238  1  0.32566045  0.32214410  0.50040374  1
  Au  Au239  1  -0.00292588  0.34067470  0.32346001  1
  Au  Au240  1  -0.00680462  0.33548143  0.66118465  1
  Au  Au241  1  0.17074446  0.16049982  0.00228137  1
  Au  Au242  1  0.66727300  0.00046372  0.65940569  1
  Au  Au243  1  0.67484807  -0.00047795  0.83691333  1
  Au  Au244  1  0.50004950  0.82477520  0.82775723  1
  Au  Au245  1  0.49898601  0.83516965  0.16749381  1
  Au  Au246  1  0.49991745  0.16217647  0.82942994  1
  Au  Au247  1  -0.00383611  0.67388966  0.17113987  1
  Au  Au248  1  0.67149325  0.50108108  0.65656592  1
  Au  Au249  1  0.67088156  0.50121571  0.83463023  1
  Au  Au250  1  0.17011196  0.67756812  0.49676681  1
  Au  Au251  1  0.33407703  0.32479412  -0.00095874  1
  Au  Au252  1  0.84035116  -0.00404470  0.67359610  1
  Au  Au253  1  0.32273137  0.83951921  0.00088775  1
  Au  Au254  1  0.82352960  0.32790791  0.00321146  1
  Au  Au255  1  0.49628668  0.83914416  0.66474898  1
  Au  Au256  1  0.50201113  0.33349893  0.82994248  1
  Au  Au257  1  0.16772149  0.33532563  0.00341713  1
  Au  Au258  1  0.00169391  0.82661938  0.32886382  1
  Au  Au259  1  0.68066294  0.00126924  0.16642187  1
  Au  Au260  1  0.67965588  0.82653629  0.00244393  1
  Au  Au261  1  0.17274160  -0.00294804  0.32715504  1
  Au  Au262  1  0.16034525  0.32873537  0.49533872  1
  Au  Au263  1  0.00098501  0.16320842  0.66576190  1
  Au  Au264  1  0.83791771  0.50306405  0.82833321  1
  Au  Au265  1  0.17602815  -0.00422751  0.66117245  1
  Au  Au266  1  0.33413532  0.33070631  0.50393864  1
  Au  Au267  1  0.33370483  0.00005389  0.82532225  1
  Au  Au268  1  -0.00033674  0.16217459  0.33196036  1
  Au  Au269  1  0.82982767  0.83236361  0.50016419  1
  Au  Au270  1  0.16369480  -0.00528970  0.83055382  1
  Au  Au271  1  0.33249898  0.50432852  0.66935595  1
  Au  Au272  1  -0.00194086  0.16921104  0.16297475  1
  Au  Au273  1  0.33432494  0.50230997  0.18212266  1
  Au  Au274  1  0.67204561  0.50228466  0.17131757  1
  Au  Au275  1  0.33003544  0.66580121  0.00299802  1
  Au  Au276  1  0.50208222  0.32839070  0.17107298  1
  Au  Au277  1  0.16453081  0.50206129  0.67001283  1
  Au  Au278  1  0.32615519  0.50275315  0.83802824  1
  Au  Au279  1  -0.00507574  0.16152037  0.84052861  1
  Au  Au280  1  0.00093952  0.33398973  0.83336647  1
  Au  Au281  1  0.33584655  0.16493404  0.49484944  1
  Au  Au282  1  0.50381005  0.66789976  0.67469819  1
  Au  Au283  1  0.67385352  -0.00162057  0.33400120  1
  Au  Au284  1  0.49985934  0.16226472  0.17051823  1
  Au  Au285  1  -0.00195110  0.67818650  0.66985792  1
  Au  Au286  1  0.16293707  0.49943859  0.17263986  1
  Au  Au287  1  0.50209173  0.33333742  0.33706456  1
