# generated using pymatgen
data_Ca24Ti8Al207Au49
_symmetry_space_group_name_H-M   'P 1'
_cell_length_a   17.31984970
_cell_length_b   17.31987680
_cell_length_c   17.31829826
_cell_angle_alpha   90.00436395
_cell_angle_beta   89.99955242
_cell_angle_gamma   90.00006371
_symmetry_Int_Tables_number   1
_chemical_formula_structural   Ca24Ti8Al207Au49
_chemical_formula_sum   'Ca24 Ti8 Al207 Au49'
_cell_volume   5195.10262425
_cell_formula_units_Z   1
loop_
 _symmetry_equiv_pos_site_id
 _symmetry_equiv_pos_as_xyz
  1  'x, y, z'
loop_
 _atom_site_type_symbol
 _atom_site_label
 _atom_site_symmetry_multiplicity
 _atom_site_fract_x
 _atom_site_fract_y
 _atom_site_fract_z
 _atom_site_occupancy
  Ca  Ca0  1  0.25629603  0.00230749  0.00005503  1
  Ca  Ca1  1  0.25775342  0.00430260  0.49985667  1
  Ca  Ca2  1  0.24602132  0.49741768  -0.00249252  1
  Ca  Ca3  1  0.24973600  0.49372779  0.50305349  1
  Ca  Ca4  1  0.74734241  0.00110740  0.00332377  1
  Ca  Ca5  1  0.74627961  0.00169332  0.49941355  1
  Ca  Ca6  1  0.75227334  0.49454279  0.00413204  1
  Ca  Ca7  1  0.74660619  0.49588049  0.49842735  1
  Ca  Ca8  1  -0.00223032  0.25100135  0.00455919  1
  Ca  Ca9  1  0.00016265  0.25209145  0.49763038  1
  Ca  Ca10  1  -0.00083420  0.75063429  -0.00288531  1
  Ca  Ca11  1  -0.00395197  0.74615066  0.49848518  1
  Ca  Ca12  1  0.49884218  0.24641695  0.00338561  1
  Ca  Ca13  1  0.50007529  0.24406245  0.49569278  1
  Ca  Ca14  1  0.50366681  0.75832872  -0.00160770  1
  Ca  Ca15  1  0.50017051  0.75275085  0.50087821  1
  Ca  Ca16  1  -0.00277127  0.00492528  0.24849376  1
  Ca  Ca17  1  -0.00066281  0.00204780  0.75244015  1
  Ca  Ca18  1  0.00446613  0.49581794  0.25495785  1
  Ca  Ca19  1  0.00673738  0.49924155  0.75319803  1
  Ca  Ca20  1  0.50301398  0.00165182  0.24682852  1
  Ca  Ca21  1  0.50115992  -0.00033111  0.75127167  1
  Ca  Ca22  1  0.50065665  0.49732122  0.25157903  1
  Ca  Ca23  1  0.49610218  0.49874594  0.74976759  1
  Ti  Ti24  1  0.24966070  0.24975507  0.24952599  1
  Ti  Ti25  1  0.25133306  0.24975750  0.75084691  1
  Ti  Ti26  1  0.25168987  0.75037888  0.24864660  1
  Ti  Ti27  1  0.25173016  0.74976099  0.75151055  1
  Ti  Ti28  1  0.75027598  0.24786822  0.25228897  1
  Ti  Ti29  1  0.75077829  0.24757866  0.74858195  1
  Ti  Ti30  1  0.74862208  0.75271144  0.24958853  1
  Ti  Ti31  1  0.74863420  0.75408069  0.75030426  1
  Al  Al32  1  0.08063550  0.09174883  0.07834473  1
  Al  Al33  1  0.08786439  0.08078788  0.57093706  1
  Al  Al34  1  0.08498235  0.58359036  0.07924257  1
  Al  Al35  1  0.08936859  0.57615273  0.59098587  1
  Al  Al36  1  0.58781888  0.07716891  0.09449739  1
  Al  Al37  1  0.58743848  0.08758045  0.57287303  1
  Al  Al38  1  0.59092722  0.59043980  0.07836679  1
  Al  Al39  1  0.56921140  0.58972857  0.58572846  1
  Al  Al40  1  0.41852101  0.41451308  0.07915113  1
  Al  Al41  1  0.40239847  0.41733622  0.58430218  1
  Al  Al42  1  0.42300744  0.91285937  0.08994415  1
  Al  Al43  1  0.41581780  0.92784738  0.58931400  1
  Al  Al44  1  0.92313988  0.41355760  0.07733990  1
  Al  Al45  1  0.92443257  0.41660373  0.57860726  1
  Al  Al46  1  0.91035860  0.92938861  0.08709638  1
  Al  Al47  1  0.91608669  0.91256582  0.59528038  1
  Al  Al48  1  0.41968524  0.08556726  0.40859620  1
  Al  Al49  1  0.40719656  0.08700989  0.92491925  1
  Al  Al50  1  0.42257088  0.57559507  0.42619586  1
  Al  Al51  1  0.41117946  0.57945413  0.91366696  1
  Al  Al52  1  0.91660919  0.08925416  0.40873076  1
  Al  Al53  1  0.90037204  0.08523034  0.92003318  1
  Al  Al54  1  0.91231377  0.57892460  0.41736540  1
  Al  Al55  1  0.92498802  0.57315787  0.92179192  1
  Al  Al56  1  0.08891628  0.40688583  0.42159398  1
  Al  Al57  1  0.08674664  0.41250586  0.90615310  1
  Al  Al58  1  0.07328090  0.92767341  0.42252941  1
  Al  Al59  1  0.07701964  0.91491929  0.91423286  1
  Al  Al60  1  0.58370204  0.41119591  0.40590806  1
  Al  Al61  1  0.57909207  0.41940885  0.92710311  1
  Al  Al62  1  0.58385836  0.92245566  0.39602260  1
  Al  Al63  1  0.59703376  0.91091775  0.92155478  1
  Al  Al64  1  0.08038524  0.10011845  0.41263324  1
  Al  Al65  1  0.09049275  0.09015518  0.92441878  1
  Al  Al66  1  0.08081553  0.57779831  0.42407227  1
  Al  Al67  1  0.09034035  0.57589128  0.91463919  1
  Al  Al68  1  0.58511088  0.08670186  0.40725334  1
  Al  Al69  1  0.59149284  0.07145453  0.91405285  1
  Al  Al70  1  0.58744488  0.57215262  0.41214658  1
  Al  Al71  1  0.58780907  0.59305917  0.92440325  1
  Al  Al72  1  0.41726178  0.40425104  0.42210837  1
  Al  Al73  1  0.40567893  0.41877019  0.91481417  1
  Al  Al74  1  0.42073644  0.92158006  0.39676768  1
  Al  Al75  1  0.42152026  0.92105116  0.92656958  1
  Al  Al76  1  0.91819219  0.41670056  0.41346886  1
  Al  Al77  1  0.92455416  0.40889407  0.91047812  1
  Al  Al78  1  0.91213490  0.92511687  0.41736396  1
  Al  Al79  1  0.91271908  0.92314607  0.90816434  1
  Al  Al80  1  0.08250203  0.41604002  0.07970799  1
  Al  Al81  1  0.09988534  0.41306800  0.58623546  1
  Al  Al82  1  0.07564168  0.92301630  0.07252942  1
  Al  Al83  1  0.07358916  0.91572678  0.59309574  1
  Al  Al84  1  0.58131701  0.41400606  0.08362234  1
  Al  Al85  1  0.57656477  0.41954962  0.57123250  1
  Al  Al86  1  0.59013319  0.91186401  0.09157415  1
  Al  Al87  1  0.57930115  0.92511411  0.58040521  1
  Al  Al88  1  0.41712880  0.08783975  0.08774912  1
  Al  Al89  1  0.41501404  0.08371459  0.58053756  1
  Al  Al90  1  0.42157288  0.57987251  0.07695352  1
  Al  Al91  1  0.41181362  0.57976676  0.60017320  1
  Al  Al92  1  0.90401368  0.08942417  0.08363424  1
  Al  Al93  1  0.91276364  0.07643939  0.57870066  1
  Al  Al94  1  0.92543655  0.58264495  0.08004580  1
  Al  Al95  1  0.92553202  0.58303139  0.57814609  1
  Al  Al96  1  0.25101619  0.13646278  0.13468747  1
  Al  Al97  1  0.25502407  0.13505642  0.63400444  1
  Al  Al98  1  0.25194315  0.63655532  0.13497469  1
  Al  Al99  1  0.25206126  0.63251080  0.63781623  1
  Al  Al100  1  0.74957430  0.12963436  0.13705815  1
  Al  Al101  1  0.74978582  0.13025175  0.63157023  1
  Al  Al102  1  0.73937242  0.64068740  0.13191153  1
  Al  Al103  1  0.75109659  0.63657128  0.63710827  1
  Al  Al104  1  0.24864277  0.36188283  0.12726163  1
  Al  Al105  1  0.25089530  0.36393817  0.63344801  1
  Al  Al106  1  0.25239779  0.86557947  0.13701147  1
  Al  Al107  1  0.25918799  0.86670845  0.63505667  1
  Al  Al108  1  0.75141745  0.36303568  0.13721704  1
  Al  Al109  1  0.74916463  0.36192165  0.63019988  1
  Al  Al110  1  0.74556035  0.87090539  0.13407513  1
  Al  Al111  1  0.74811599  0.87226892  0.63100515  1
  Al  Al112  1  0.25567077  0.13677778  0.36699561  1
  Al  Al113  1  0.24998594  0.13219303  0.86595447  1
  Al  Al114  1  0.25479556  0.63502810  0.36699158  1
  Al  Al115  1  0.25088364  0.62766900  0.86202770  1
  Al  Al116  1  0.74696171  0.13372155  0.37187868  1
  Al  Al117  1  0.75217329  0.13238432  0.86877888  1
  Al  Al118  1  0.74646126  0.63826253  0.36454950  1
  Al  Al119  1  0.74488004  0.63891908  0.86326628  1
  Al  Al120  1  0.25258842  0.36219298  0.37050640  1
  Al  Al121  1  0.24729277  0.36840515  0.86957534  1
  Al  Al122  1  0.25897580  0.86956514  0.35996216  1
  Al  Al123  1  0.25036841  0.87167882  0.86208357  1
  Al  Al124  1  0.74736612  0.35887015  0.37174241  1
  Al  Al125  1  0.75422754  0.36286097  0.86214717  1
  Al  Al126  1  0.74684611  0.86981883  0.36745998  1
  Al  Al127  1  0.74594601  0.86986723  0.86758334  1
  Al  Al128  1  0.13557893  0.24855403  0.12986794  1
  Al  Al129  1  0.13682028  0.25436724  0.63501826  1
  Al  Al130  1  0.13601074  0.75100675  0.13543756  1
  Al  Al131  1  0.13992738  0.75184254  0.64001326  1
  Al  Al132  1  0.63691647  0.24710027  0.13838202  1
  Al  Al133  1  0.63613456  0.24714580  0.62869956  1
  Al  Al134  1  0.63308028  0.75909419  0.13594493  1
  Al  Al135  1  0.63641406  0.75512582  0.63421660  1
  Al  Al136  1  0.13143889  0.25088029  0.36571755  1
  Al  Al137  1  0.13682634  0.24963422  0.86887202  1
  Al  Al138  1  0.13727938  0.74896125  0.36447866  1
  Al  Al139  1  0.13644108  0.75365310  0.86159264  1
  Al  Al140  1  0.63365744  0.24332805  0.36934761  1
  Al  Al141  1  0.63709674  0.24963790  0.86458217  1
  Al  Al142  1  0.63120236  0.76326501  0.36322534  1
  Al  Al143  1  0.63610850  0.75281183  0.86643937  1
  Al  Al144  1  0.36345223  0.24665084  0.12879032  1
  Al  Al145  1  0.36246189  0.25241151  0.62917135  1
  Al  Al146  1  0.36784218  0.75456552  0.13559668  1
  Al  Al147  1  0.36692938  0.74143489  0.63667856  1
  Al  Al148  1  0.86120117  0.24627916  0.12846424  1
  Al  Al149  1  0.86343618  0.24720934  0.63010720  1
  Al  Al150  1  0.86105558  0.74957584  0.13282281  1
  Al  Al151  1  0.86389899  0.75810914  0.63858685  1
  Al  Al152  1  0.36464078  0.24789596  0.37030042  1
  Al  Al153  1  0.36183811  0.25007109  0.86781338  1
  Al  Al154  1  0.36726847  0.75408737  0.36286122  1
  Al  Al155  1  0.36349461  0.74710285  0.86228907  1
  Al  Al156  1  0.86624927  0.24577179  0.36981019  1
  Al  Al157  1  0.86210181  0.24927576  0.87012381  1
  Al  Al158  1  0.86071321  0.75546584  0.36451006  1
  Al  Al159  1  0.86265685  0.75502400  0.86611200  1
  Al  Al160  1  0.13394871  0.13690970  0.25349941  1
  Al  Al161  1  0.13577971  0.13512270  0.75011028  1
  Al  Al162  1  0.13786942  0.63570463  0.25334388  1
  Al  Al163  1  0.13607477  0.63337850  0.75176064  1
  Al  Al164  1  0.63777572  0.12984986  0.25440014  1
  Al  Al165  1  0.64014463  0.13051171  0.75294534  1
  Al  Al166  1  0.63455534  0.63839124  0.25481777  1
  Al  Al167  1  0.63396629  0.63683084  0.74381948  1
  Al  Al168  1  0.36624948  0.13634433  0.25276263  1
  Al  Al169  1  0.36264991  0.12963984  0.75323955  1
  Al  Al170  1  0.36589038  0.63358841  0.25187503  1
  Al  Al171  1  0.36530286  0.62592548  0.74969626  1
  Al  Al172  1  0.86231319  0.13563716  0.24997557  1
  Al  Al173  1  0.86379310  0.13003407  0.75318316  1
  Al  Al174  1  0.86138637  0.63881816  0.25217668  1
  Al  Al175  1  0.86387070  0.63833979  0.74991453  1
  Al  Al176  1  0.13825679  0.36216317  0.25335754  1
  Al  Al177  1  0.13377767  0.36272649  0.75411334  1
  Al  Al178  1  0.13697637  0.86669768  0.25145191  1
  Al  Al179  1  0.13556194  0.86906029  0.74748258  1
  Al  Al180  1  0.63709566  0.36319129  0.25472401  1
  Al  Al181  1  0.63374314  0.36173148  0.74428230  1
  Al  Al182  1  0.63586940  0.87270580  0.24798034  1
  Al  Al183  1  0.63738657  0.87354840  0.75075865  1
  Al  Al184  1  0.36299408  0.35843333  0.24848414  1
  Al  Al185  1  0.36102614  0.36906104  0.75133275  1
  Al  Al186  1  0.37306833  0.86547075  0.24872207  1
  Al  Al187  1  0.36534138  0.86860682  0.75015148  1
  Al  Al188  1  0.86373322  0.35880838  0.25639876  1
  Al  Al189  1  0.87041607  0.35983255  0.74743266  1
  Al  Al190  1  0.85952122  0.86947724  0.24521112  1
  Al  Al191  1  0.85800862  0.87249664  0.75266721  1
  Al  Al192  1  0.18058014  0.68056812  -0.00289778  1
  Al  Al193  1  0.83011515  0.49916491  0.82443305  1
  Al  Al194  1  0.17903342  0.67129876  0.50267980  1
  Al  Al195  1  0.81065114  0.00165667  0.31153980  1
  Al  Al196  1  0.19430028  0.49792630  0.69359270  1
  Al  Al197  1  0.49657298  0.32869004  0.67331533  1
  Al  Al198  1  -0.00002251  0.67204561  0.82944724  1
  Al  Al199  1  -0.00264706  0.18070520  0.83249219  1
  Al  Al200  1  0.18271437  0.18977684  0.50004045  1
  Al  Al201  1  0.33524125  0.82754886  0.49803578  1
  Al  Al202  1  0.50140141  0.68391758  0.17178486  1
  Al  Al203  1  0.17052433  0.00262798  0.17158558  1
  Al  Al204  1  -0.00254700  0.17221039  0.17959455  1
  Al  Al205  1  0.32481363  0.49467298  0.32939295  1
  Al  Al206  1  0.00043378  0.69196504  0.67268006  1
  Al  Al207  1  0.83197557  0.49977117  0.17422511  1
  Al  Al208  1  0.81786484  0.83027081  0.00120155  1
  Al  Al209  1  0.81626279  0.67030851  -0.00206389  1
  Al  Al210  1  -0.00168946  0.82297259  0.32580169  1
  Al  Al211  1  0.18516869  0.00241623  0.33039011  1
  Al  Al212  1  0.00146806  0.17775950  0.67040528  1
  Al  Al213  1  0.50133666  0.67161651  0.81491011  1
  Al  Al214  1  0.00104653  0.67529258  0.17884234  1
  Al  Al215  1  0.82097440  0.49799221  0.66847575  1
  Al  Al216  1  0.66993391  0.50048515  0.18829698  1
  Al  Al217  1  0.49933099  0.30797262  0.31790144  1
  Al  Al218  1  0.50184169  0.17917962  0.18981766  1
  Al  Al219  1  0.50107096  0.17561363  0.82887654  1
  Al  Al220  1  0.67847008  0.17180599  0.00189854  1
  Al  Al221  1  0.66836241  0.67694570  0.49991719  1
  Al  Al222  1  0.17385783  0.49916244  0.17789318  1
  Al  Al223  1  0.50106160  0.68610210  0.33002302  1
  Al  Al224  1  0.32696947  0.49840943  0.17142119  1
  Al  Al225  1  0.18378522  0.00098016  0.67562917  1
  Al  Al226  1  -0.00246579  0.82928506  0.16828023  1
  Al  Al227  1  0.81009116  0.49843238  0.32843084  1
  Al  Al228  1  0.49885309  0.81593427  0.67135063  1
  Al  Al229  1  0.50152451  0.82917029  0.82866540  1
  Al  Al230  1  0.50038304  0.17167483  0.67375992  1
  Al  Al231  1  -0.00292789  0.82575234  0.81106579  1
  Al  Al232  1  0.68244098  0.32340944  0.00070488  1
  Al  Al233  1  0.00046335  0.32339601  0.18126963  1
  Al  Al234  1  0.67059982  0.49950257  0.82846066  1
  Al  Al235  1  0.31949980  0.82060253  -0.00111631  1
  Al  Al236  1  0.82609964  0.67929512  0.50134161  1
  Al  Al237  1  0.32887633  0.00044451  0.18363995  1
  Al  Al238  1  0.16678654  0.82877569  0.50135498  1
  Au  Au239  1  0.00307956  0.67524277  0.67415686  1
  Au  Au240  1  0.16918204  0.00243486  0.83811492  1
  Au  Au241  1  0.66403794  0.32445115  0.49704387  1
  Au  Au242  1  0.00556843  0.33975398  0.67493848  1
  Au  Au243  1  0.16250760  0.32359791  -0.00187602  1
  Au  Au244  1  0.33774070  -0.00295752  0.82955346  1
  Au  Au245  1  0.66380872  0.84306237  0.49335736  1
  Au  Au246  1  0.33656589  0.84395588  0.49347296  1
  Au  Au247  1  0.65584811  0.50116082  0.66622261  1
  Au  Au248  1  0.50161273  0.67999032  0.15575810  1
  Au  Au249  1  -0.00232933  0.83898814  0.31962330  1
  Au  Au250  1  0.66784288  0.16222805  0.00210080  1
  Au  Au251  1  0.33182569  0.32146958  -0.00008462  1
  Au  Au252  1  0.66646427  0.50158498  0.17148527  1
  Au  Au253  1  0.16567941  0.49835001  0.33106887  1
  Au  Au254  1  0.00202826  0.16745435  0.65769990  1
  Au  Au255  1  0.83751023  0.50199769  0.67010061  1
  Au  Au256  1  0.83308863  0.33027858  0.49969015  1
  Au  Au257  1  0.50053101  0.15960355  0.83192217  1
  Au  Au258  1  0.33066105  0.17202322  0.49862870  1
  Au  Au259  1  0.84700508  0.49758902  0.18157265  1
  Au  Au260  1  0.67359084  0.66094058  0.50218878  1
  Au  Au261  1  0.82440946  0.84509676  0.00028197  1
  Au  Au262  1  0.49979673  0.33758575  0.83560050  1
  Au  Au263  1  -0.00377700  0.17404392  0.84744530  1
  Au  Au264  1  -0.00113473  0.65875807  0.32815038  1
  Au  Au265  1  0.15142475  0.82158310  0.50386041  1
  Au  Au266  1  0.83853321  0.82904129  0.50264578  1
  Au  Au267  1  0.17474945  0.00468269  0.34359009  1
  Au  Au268  1  0.16702919  0.82917565  -0.00104719  1
  Au  Au269  1  0.49640312  0.32583685  0.66070886  1
  Au  Au270  1  0.32815518  0.65573516  0.50663582  1
  Au  Au271  1  0.83256805  0.00064285  0.67987098  1
  Au  Au272  1  0.49865375  0.83292579  0.67226967  1
  Au  Au273  1  0.17391306  0.00293483  0.15924143  1
  Au  Au274  1  0.82424396  0.16371019  0.49933839  1
  Au  Au275  1  0.82181140  0.65439178  -0.00260991  1
  Au  Au276  1  0.33716122  0.49302710  0.32641309  1
  Au  Au277  1  0.17705480  -0.00003690  0.66002379  1
  Au  Au278  1  0.32851811  0.66904453  0.00046388  1
  Au  Au279  1  0.00041769  0.32372632  0.33053161  1
  Au  Au280  1  0.31600704  0.49799862  0.81953207  1
  Au  Au281  1  0.49898153  0.32616622  0.17129551  1
  Au  Au282  1  0.50085083  0.67049434  0.83181189  1
  Au  Au283  1  0.67684667  0.50024067  0.84433806  1
  Au  Au284  1  0.66499820  0.00533871  0.67331172  1
  Au  Au285  1  0.50055657  0.67070134  0.33762719  1
  Au  Au286  1  0.82266147  0.00444631  0.32336713  1
  Au  Au287  1  0.83256485  0.32931002  -0.00237856  1
