# generated using pymatgen
data_Ca24Ti8Al207Au49
_symmetry_space_group_name_H-M   'P 1'
_cell_length_a   17.32208352
_cell_length_b   17.32197949
_cell_length_c   17.32215905
_cell_angle_alpha   90.00302236
_cell_angle_beta   89.99864407
_cell_angle_gamma   90.00164620
_symmetry_Int_Tables_number   1
_chemical_formula_structural   Ca24Ti8Al207Au49
_chemical_formula_sum   'Ca24 Ti8 Al207 Au49'
_cell_volume   5197.56189103
_cell_formula_units_Z   1
loop_
 _symmetry_equiv_pos_site_id
 _symmetry_equiv_pos_as_xyz
  1  'x, y, z'
loop_
 _atom_site_type_symbol
 _atom_site_label
 _atom_site_symmetry_multiplicity
 _atom_site_fract_x
 _atom_site_fract_y
 _atom_site_fract_z
 _atom_site_occupancy
  Ca  Ca0  1  0.24938781  0.00049561  0.00423304  1
  Ca  Ca1  1  0.24177972  0.00559359  0.49689678  1
  Ca  Ca2  1  0.24849216  0.49985499  0.00118312  1
  Ca  Ca3  1  0.24143857  0.49214251  0.49770153  1
  Ca  Ca4  1  0.75171616  0.00305739  -0.00045710  1
  Ca  Ca5  1  0.75122862  0.00403783  0.49824112  1
  Ca  Ca6  1  0.75536412  0.49627045  0.00494218  1
  Ca  Ca7  1  0.75258559  0.49798962  0.49560455  1
  Ca  Ca8  1  -0.00272627  0.24899398  0.00073726  1
  Ca  Ca9  1  0.00157700  0.24956028  0.50003696  1
  Ca  Ca10  1  -0.00430640  0.74599080  0.00197634  1
  Ca  Ca11  1  0.00439676  0.75297023  0.49528317  1
  Ca  Ca12  1  0.50128371  0.24634396  -0.00031414  1
  Ca  Ca13  1  0.50029807  0.24679267  0.49609544  1
  Ca  Ca14  1  0.50084162  0.75090303  0.00924823  1
  Ca  Ca15  1  0.49424590  0.75240944  0.49394724  1
  Ca  Ca16  1  0.00056030  0.00251691  0.24983724  1
  Ca  Ca17  1  -0.00159049  0.00660952  0.75048555  1
  Ca  Ca18  1  0.00317961  0.49821752  0.24761568  1
  Ca  Ca19  1  0.00149508  0.49561689  0.75313901  1
  Ca  Ca20  1  0.49656901  0.00284713  0.24781530  1
  Ca  Ca21  1  0.50294106  0.00100979  0.75281903  1
  Ca  Ca22  1  0.49612713  0.50040294  0.24757464  1
  Ca  Ca23  1  0.49947762  0.50015540  0.75318618  1
  Ti  Ti24  1  0.24764832  0.24973634  0.24815195  1
  Ti  Ti25  1  0.25058020  0.24934458  0.75139847  1
  Ti  Ti26  1  0.24767428  0.75051005  0.24692853  1
  Ti  Ti27  1  0.24688243  0.75014577  0.75233138  1
  Ti  Ti28  1  0.75208175  0.24894250  0.24869553  1
  Ti  Ti29  1  0.75026315  0.24854148  0.75198127  1
  Ti  Ti30  1  0.75268159  0.74972149  0.24978602  1
  Ti  Ti31  1  0.75371543  0.75136657  0.75220189  1
  Al  Al32  1  0.08165753  0.08534289  0.08697975  1
  Al  Al33  1  0.08449404  0.09213776  0.59468633  1
  Al  Al34  1  0.08115362  0.59039688  0.08931362  1
  Al  Al35  1  0.08182467  0.57460466  0.57536308  1
  Al  Al36  1  0.58167168  0.08751088  0.08036884  1
  Al  Al37  1  0.58547245  0.08216473  0.57742182  1
  Al  Al38  1  0.57900097  0.58867940  0.08923995  1
  Al  Al39  1  0.57014397  0.57623267  0.57862734  1
  Al  Al40  1  0.41800445  0.42199219  0.07994831  1
  Al  Al41  1  0.40717662  0.41473101  0.58554721  1
  Al  Al42  1  0.41353674  0.91795633  0.09479568  1
  Al  Al43  1  0.41914743  0.92355061  0.58527694  1
  Al  Al44  1  0.91644784  0.40890639  0.08172711  1
  Al  Al45  1  0.92674019  0.40739595  0.59165364  1
  Al  Al46  1  0.91518159  0.90520664  0.07827889  1
  Al  Al47  1  0.91554446  0.93065308  0.58791936  1
  Al  Al48  1  0.42387761  0.08623978  0.40622527  1
  Al  Al49  1  0.40849974  0.08803281  0.92688413  1
  Al  Al50  1  0.41970788  0.57700935  0.41004399  1
  Al  Al51  1  0.41397112  0.58231980  0.92147986  1
  Al  Al52  1  0.92264228  0.08774783  0.41320193  1
  Al  Al53  1  0.91589330  0.09395883  0.91206284  1
  Al  Al54  1  0.92760043  0.57715993  0.41053677  1
  Al  Al55  1  0.90557428  0.58011759  0.92286438  1
  Al  Al56  1  0.09001399  0.40957124  0.40913726  1
  Al  Al57  1  0.07357048  0.41906784  0.91775588  1
  Al  Al58  1  0.08103325  0.91759945  0.41338700  1
  Al  Al59  1  0.08395246  0.92545663  0.92249828  1
  Al  Al60  1  0.57806100  0.41605079  0.41490119  1
  Al  Al61  1  0.58962452  0.40723948  0.92478818  1
  Al  Al62  1  0.58553409  0.92715601  0.40342491  1
  Al  Al63  1  0.58348187  0.91942068  0.92165330  1
  Al  Al64  1  0.08169785  0.08745866  0.41694630  1
  Al  Al65  1  0.07915214  0.09252189  0.91016940  1
  Al  Al66  1  0.09044136  0.57634693  0.40549213  1
  Al  Al67  1  0.08664527  0.58420177  0.92971324  1
  Al  Al68  1  0.58671307  0.08791320  0.40506384  1
  Al  Al69  1  0.58904115  0.08344456  0.92157673  1
  Al  Al70  1  0.57490484  0.57775959  0.40718102  1
  Al  Al71  1  0.58046089  0.58027042  0.92544004  1
  Al  Al72  1  0.41474339  0.41428392  0.41877029  1
  Al  Al73  1  0.41672093  0.41712634  0.91785577  1
  Al  Al74  1  0.42364121  0.92509287  0.41165229  1
  Al  Al75  1  0.41958203  0.92211664  0.92334087  1
  Al  Al76  1  0.92705625  0.41295480  0.41280812  1
  Al  Al77  1  0.90837556  0.41539024  0.91501682  1
  Al  Al78  1  0.92580141  0.91677208  0.41002528  1
  Al  Al79  1  0.90918715  0.91951279  0.92058921  1
  Al  Al80  1  0.07689265  0.41716329  0.09072244  1
  Al  Al81  1  0.08806783  0.40259678  0.58409436  1
  Al  Al82  1  0.08216961  0.91662004  0.08576057  1
  Al  Al83  1  0.08700620  0.92996878  0.58254263  1
  Al  Al84  1  0.58940583  0.41268041  0.08027716  1
  Al  Al85  1  0.57447991  0.41776510  0.57400825  1
  Al  Al86  1  0.57652897  0.90804056  0.08538119  1
  Al  Al87  1  0.57860834  0.92596192  0.58301696  1
  Al  Al88  1  0.40550099  0.08205584  0.08820802  1
  Al  Al89  1  0.41897188  0.07997220  0.58268924  1
  Al  Al90  1  0.41742425  0.58820808  0.08970499  1
  Al  Al91  1  0.40926583  0.57180370  0.59287829  1
  Al  Al92  1  0.91841741  0.09558956  0.07598607  1
  Al  Al93  1  0.92066591  0.09066214  0.59765791  1
  Al  Al94  1  0.91821238  0.59059534  0.08431845  1
  Al  Al95  1  0.92519752  0.57087522  0.58443250  1
  Al  Al96  1  0.24903265  0.12971685  0.13957763  1
  Al  Al97  1  0.24544006  0.12962083  0.63982086  1
  Al  Al98  1  0.24357188  0.63636568  0.13034927  1
  Al  Al99  1  0.25179840  0.63155753  0.63744767  1
  Al  Al100  1  0.75448683  0.13842532  0.12906293  1
  Al  Al101  1  0.75743970  0.13637154  0.63773986  1
  Al  Al102  1  0.75682104  0.63585728  0.13800929  1
  Al  Al103  1  0.75474280  0.63333123  0.63931011  1
  Al  Al104  1  0.24900991  0.36344691  0.13410424  1
  Al  Al105  1  0.24706431  0.36316537  0.63559250  1
  Al  Al106  1  0.24670878  0.86980075  0.13563504  1
  Al  Al107  1  0.24786026  0.87099182  0.63826949  1
  Al  Al108  1  0.75083250  0.36295690  0.13476188  1
  Al  Al109  1  0.75400887  0.36220419  0.63675840  1
  Al  Al110  1  0.75591344  0.86375985  0.13565237  1
  Al  Al111  1  0.75473492  0.86398257  0.63321814  1
  Al  Al112  1  0.24683917  0.13513845  0.35992244  1
  Al  Al113  1  0.24994356  0.13475754  0.86384807  1
  Al  Al114  1  0.24495929  0.63510713  0.35876018  1
  Al  Al115  1  0.24906478  0.63121606  0.86861437  1
  Al  Al116  1  0.75196905  0.12893990  0.35814171  1
  Al  Al117  1  0.75364877  0.13759765  0.87305445  1
  Al  Al118  1  0.75463786  0.62867939  0.35509852  1
  Al  Al119  1  0.75878025  0.63258323  0.86957453  1
  Al  Al120  1  0.24297073  0.36344435  0.36414727  1
  Al  Al121  1  0.25247870  0.36875154  0.86324634  1
  Al  Al122  1  0.24944141  0.86470263  0.35875284  1
  Al  Al123  1  0.24368544  0.86608758  0.86828297  1
  Al  Al124  1  0.75469160  0.36650107  0.36290375  1
  Al  Al125  1  0.75188650  0.36162532  0.86605930  1
  Al  Al126  1  0.75120157  0.86918651  0.36201429  1
  Al  Al127  1  0.75579631  0.86538967  0.86691356  1
  Al  Al128  1  0.12690675  0.25245916  0.13925502  1
  Al  Al129  1  0.13166187  0.24931906  0.63915716  1
  Al  Al130  1  0.13274799  0.74930573  0.12956423  1
  Al  Al131  1  0.13468208  0.75237320  0.63714259  1
  Al  Al132  1  0.63613801  0.24741210  0.12891939  1
  Al  Al133  1  0.63408870  0.24877916  0.63637042  1
  Al  Al134  1  0.63394742  0.75021722  0.13739569  1
  Al  Al135  1  0.63951851  0.74861816  0.63726427  1
  Al  Al136  1  0.13307672  0.24964850  0.36397920  1
  Al  Al137  1  0.13046888  0.24562485  0.86286270  1
  Al  Al138  1  0.13051180  0.74970046  0.36063009  1
  Al  Al139  1  0.13394715  0.74652822  0.87076944  1
  Al  Al140  1  0.63723129  0.24445536  0.36276309  1
  Al  Al141  1  0.63600635  0.24794657  0.87195499  1
  Al  Al142  1  0.63682170  0.75173285  0.36137673  1
  Al  Al143  1  0.63918936  0.74882974  0.86606703  1
  Al  Al144  1  0.36276043  0.24609005  0.12789369  1
  Al  Al145  1  0.36318677  0.24951844  0.63698635  1
  Al  Al146  1  0.36598664  0.74892195  0.13475048  1
  Al  Al147  1  0.36014881  0.75072094  0.63976663  1
  Al  Al148  1  0.87173296  0.25039361  0.13585265  1
  Al  Al149  1  0.87360416  0.24881781  0.63855901  1
  Al  Al150  1  0.86719475  0.74825790  0.13329837  1
  Al  Al151  1  0.87281065  0.75204473  0.63955627  1
  Al  Al152  1  0.36199003  0.24880064  0.36048855  1
  Al  Al153  1  0.36584100  0.25070629  0.86713563  1
  Al  Al154  1  0.36401126  0.75152302  0.35939021  1
  Al  Al155  1  0.36237862  0.74711391  0.86571406  1
  Al  Al156  1  0.86598276  0.24538353  0.36742592  1
  Al  Al157  1  0.86911092  0.24483610  0.86622808  1
  Al  Al158  1  0.86997119  0.74965100  0.36382411  1
  Al  Al159  1  0.86536587  0.74969549  0.86924531  1
  Al  Al160  1  0.12565946  0.13759675  0.24797786  1
  Al  Al161  1  0.13167731  0.13379300  0.74933320  1
  Al  Al162  1  0.12954187  0.63386691  0.24576913  1
  Al  Al163  1  0.13400337  0.63162296  0.74792419  1
  Al  Al164  1  0.63311839  0.13497695  0.24782760  1
  Al  Al165  1  0.63425686  0.13716295  0.75329160  1
  Al  Al166  1  0.63484576  0.63610786  0.24706903  1
  Al  Al167  1  0.63729758  0.63352997  0.75752497  1
  Al  Al168  1  0.36738980  0.13662028  0.24594187  1
  Al  Al169  1  0.37097884  0.13701308  0.75150470  1
  Al  Al170  1  0.36136115  0.63432964  0.24609216  1
  Al  Al171  1  0.36202262  0.62967953  0.75280436  1
  Al  Al172  1  0.87300144  0.13653609  0.24968285  1
  Al  Al173  1  0.86582332  0.13239853  0.75295262  1
  Al  Al174  1  0.87745523  0.63783880  0.24818287  1
  Al  Al175  1  0.86653228  0.63031863  0.75184936  1
  Al  Al176  1  0.13578655  0.37200262  0.24859144  1
  Al  Al177  1  0.13274251  0.36455531  0.74912694  1
  Al  Al178  1  0.13047232  0.86463628  0.24868843  1
  Al  Al179  1  0.13142254  0.86982016  0.75037142  1
  Al  Al180  1  0.63716205  0.36146323  0.25082198  1
  Al  Al181  1  0.63177941  0.36233150  0.75345263  1
  Al  Al182  1  0.63654127  0.86438512  0.24748842  1
  Al  Al183  1  0.63872574  0.86475030  0.75179855  1
  Al  Al184  1  0.36247282  0.36319833  0.24929475  1
  Al  Al185  1  0.36452161  0.36885570  0.74940844  1
  Al  Al186  1  0.36560332  0.86593140  0.24262539  1
  Al  Al187  1  0.36365604  0.86509126  0.75174321  1
  Al  Al188  1  0.86738073  0.36287438  0.24803605  1
  Al  Al189  1  0.86348814  0.36550806  0.75233769  1
  Al  Al190  1  0.86811327  0.86621219  0.25374508  1
  Al  Al191  1  0.86762078  0.87141769  0.75249329  1
  Al  Al192  1  0.83164707  0.00294790  0.17394742  1
  Al  Al193  1  0.32785967  0.83065315  0.49957463  1
  Al  Al194  1  0.66978957  0.67057511  0.49559746  1
  Al  Al195  1  0.82815916  0.32473136  0.50383606  1
  Al  Al196  1  0.32428671  0.82276055  0.00365842  1
  Al  Al197  1  0.50177337  0.32224434  0.67618890  1
  Al  Al198  1  0.18142265  0.17112547  0.00169611  1
  Al  Al199  1  0.68992348  0.67345043  0.00303311  1
  Al  Al200  1  0.17637040  0.32532179  -0.00120493  1
  Al  Al201  1  0.68453633  0.00152034  0.67365974  1
  Al  Al202  1  0.17187079  0.00127739  0.31936876  1
  Al  Al203  1  0.83092004  0.49996668  0.17532237  1
  Al  Al204  1  -0.00128701  0.81189362  0.18507218  1
  Al  Al205  1  0.83185801  0.82911484  0.50203558  1
  Al  Al206  1  0.67101499  0.83333585  0.49726611  1
  Al  Al207  1  -0.00020279  0.82949029  0.82439296  1
  Al  Al208  1  0.67517986  0.50008249  0.17562213  1
  Al  Al209  1  0.50024429  0.82793410  0.31348939  1
  Al  Al210  1  -0.00149213  0.66710040  0.82638544  1
  Al  Al211  1  0.49947614  0.32023114  0.17162969  1
  Al  Al212  1  0.67851615  0.49842310  0.67244122  1
  Al  Al213  1  0.17168209  0.67393823  0.49818471  1
  Al  Al214  1  -0.00161906  0.31502698  0.81342188  1
  Al  Al215  1  0.68113108  0.00057760  0.82641615  1
  Al  Al216  1  0.32071487  0.00107173  0.82538844  1
  Al  Al217  1  0.00114755  0.31029727  0.30922490  1
  Al  Al218  1  0.17271784  0.82840978  0.49885108  1
  Al  Al219  1  0.32075790  0.16987702  0.49884727  1
  Al  Al220  1  0.32557668  0.00123418  0.31353747  1
  Al  Al221  1  0.67117609  -0.00160271  0.17962630  1
  Al  Al222  1  0.17156629  0.18686525  0.50159136  1
  Al  Al223  1  0.49777131  0.67563289  0.31172560  1
  Al  Al224  1  0.50106279  0.82819718  0.67502467  1
  Al  Al225  1  0.68256267  0.17294008  0.49823634  1
  Al  Al226  1  0.50115108  0.82371566  0.82932564  1
  Al  Al227  1  0.32700654  0.66502989  0.49767974  1
  Al  Al228  1  0.68669444  0.49888415  0.83035192  1
  Al  Al229  1  0.17406949  0.49803867  0.67767595  1
  Al  Al230  1  0.31153331  0.32469811  0.49901676  1
  Al  Al231  1  0.31720478  0.50011983  0.17361833  1
  Al  Al232  1  0.49922235  0.31443333  0.32751255  1
  Al  Al233  1  0.68483301  0.82869380  0.00113623  1
  Al  Al234  1  0.67228712  0.32523933  0.49816611  1
  Al  Al235  1  0.31590169  0.49702808  0.32604479  1
  Al  Al236  1  0.49778763  0.67141436  0.68191126  1
  Al  Al237  1  0.82784775  0.66780279  0.50013352  1
  Al  Al238  1  0.81414181  0.31126676  0.00039948  1
  Au  Au239  1  0.67356799  0.67544898  0.00619556  1
  Au  Au240  1  0.33470038  0.82762395  -0.00095262  1
  Au  Au241  1  0.33144273  0.00047697  0.83182815  1
  Au  Au242  1  0.32664482  0.84676156  0.49513791  1
  Au  Au243  1  0.83530937  0.83992238  0.49670690  1
  Au  Au244  1  0.68029703  0.17682870  0.00086228  1
  Au  Au245  1  0.83268651  0.16105881  0.50330520  1
  Au  Au246  1  0.82946813  0.00443815  0.82910585  1
  Au  Au247  1  0.50004266  0.33253212  0.17512092  1
  Au  Au248  1  0.32298300  0.66656641  0.00369571  1
  Au  Au249  1  0.83797541  0.49728798  0.32390784  1
  Au  Au250  1  0.49602999  0.16730771  0.17155313  1
  Au  Au251  1  0.49969890  0.33109957  0.66747731  1
  Au  Au252  1  0.65577928  -0.00235157  0.17378413  1
  Au  Au253  1  0.16401920  0.82435081  0.00033101  1
  Au  Au254  1  0.17049694  0.50086111  0.83894459  1
  Au  Au255  1  -0.00079330  0.18042590  0.17428889  1
  Au  Au256  1  -0.00150649  0.82425423  0.17340162  1
  Au  Au257  1  0.33599788  0.17284292  0.49420639  1
  Au  Au258  1  0.32254078  0.64877424  0.49723210  1
  Au  Au259  1  0.33685973  0.49971794  0.82438199  1
  Au  Au260  1  0.83439675  0.00281212  0.15701812  1
  Au  Au261  1  0.83226894  0.33564105  0.49901606  1
  Au  Au262  1  0.65982809  0.83741636  0.50070881  1
  Au  Au263  1  0.84371462  0.66385016  0.50136349  1
  Au  Au264  1  0.67202907  0.49767452  0.65656168  1
  Au  Au265  1  0.50014118  0.67612778  0.84433261  1
  Au  Au266  1  0.32365178  0.00152786  0.66931209  1
  Au  Au267  1  0.84327232  0.49604918  0.67998403  1
  Au  Au268  1  0.49477383  0.67610036  0.66569156  1
  Au  Au269  1  0.00371925  0.83928970  0.66148355  1
  Au  Au270  1  0.33684621  0.32308158  -0.00016340  1
  Au  Au271  1  -0.00006590  0.83486835  0.83578612  1
  Au  Au272  1  -0.00141776  0.66078216  0.83727050  1
  Au  Au273  1  0.50416141  0.16501260  0.66865866  1
  Au  Au274  1  -0.00470164  0.32681274  0.82547667  1
  Au  Au275  1  0.16275747  0.00446441  0.82396885  1
  Au  Au276  1  0.50198343  0.33125795  0.83329021  1
  Au  Au277  1  0.00479332  0.67130210  0.32548293  1
  Au  Au278  1  0.00488402  0.66959716  0.66221777  1
  Au  Au279  1  0.65273490  0.66798227  0.49470867  1
  Au  Au280  1  0.17543288  0.49971991  0.66524066  1
  Au  Au281  1  0.16009563  0.32352659  0.00313981  1
  Au  Au282  1  0.66406338  0.49621065  0.32405332  1
  Au  Au283  1  0.49942380  0.16409999  0.83924778  1
  Au  Au284  1  0.67526938  0.49748758  0.84288498  1
  Au  Au285  1  0.16753372  0.50238210  0.17284482  1
  Au  Au286  1  0.17416699  0.00129470  0.17064696  1
  Au  Au287  1  0.83084777  0.00120778  0.33485122  1
