# generated using pymatgen
data_Ca24Ti8Al207Au49
_symmetry_space_group_name_H-M   'P 1'
_cell_length_a   17.32370742
_cell_length_b   17.32166352
_cell_length_c   17.32231344
_cell_angle_alpha   90.00441658
_cell_angle_beta   90.00472123
_cell_angle_gamma   89.99805723
_symmetry_Int_Tables_number   1
_chemical_formula_structural   Ca24Ti8Al207Au49
_chemical_formula_sum   'Ca24 Ti8 Al207 Au49'
_cell_volume   5198.00063315
_cell_formula_units_Z   1
loop_
 _symmetry_equiv_pos_site_id
 _symmetry_equiv_pos_as_xyz
  1  'x, y, z'
loop_
 _atom_site_type_symbol
 _atom_site_label
 _atom_site_symmetry_multiplicity
 _atom_site_fract_x
 _atom_site_fract_y
 _atom_site_fract_z
 _atom_site_occupancy
  Ca  Ca0  1  0.25410979  -0.00122301  0.00258321  1
  Ca  Ca1  1  0.25859415  -0.00340930  0.49655569  1
  Ca  Ca2  1  0.25166533  0.50311324  -0.00392516  1
  Ca  Ca3  1  0.25339618  0.50474130  0.50709155  1
  Ca  Ca4  1  0.74173913  -0.00073320  0.00039364  1
  Ca  Ca5  1  0.74014752  0.00159997  0.49848467  1
  Ca  Ca6  1  0.74586091  0.50383110  -0.00312112  1
  Ca  Ca7  1  0.75098271  0.49962954  0.50434647  1
  Ca  Ca8  1  0.00333716  0.25656531  0.00164668  1
  Ca  Ca9  1  -0.00244954  0.25523904  0.49891456  1
  Ca  Ca10  1  0.00206833  0.74597315  -0.00365320  1
  Ca  Ca11  1  0.00396893  0.74357341  0.50347899  1
  Ca  Ca12  1  0.49961188  0.25306310  0.00165488  1
  Ca  Ca13  1  0.49971831  0.25227979  0.49809797  1
  Ca  Ca14  1  0.49903207  0.74784158  -0.00075699  1
  Ca  Ca15  1  0.49790396  0.74870545  0.50452785  1
  Ca  Ca16  1  -0.00030111  -0.00001864  0.24992006  1
  Ca  Ca17  1  -0.00028447  0.00076909  0.75006062  1
  Ca  Ca18  1  -0.00147740  0.49862239  0.25156330  1
  Ca  Ca19  1  0.00042753  0.49926733  0.74765268  1
  Ca  Ca20  1  0.49705280  -0.00116014  0.24793910  1
  Ca  Ca21  1  0.50226207  -0.00336372  0.74563074  1
  Ca  Ca22  1  0.50624729  0.49670582  0.24898468  1
  Ca  Ca23  1  0.50014378  0.50482663  0.74871507  1
  Ti  Ti24  1  0.25005165  0.24925842  0.24935408  1
  Ti  Ti25  1  0.25096064  0.25130447  0.75219907  1
  Ti  Ti26  1  0.24963984  0.74979660  0.25023696  1
  Ti  Ti27  1  0.25118964  0.74852688  0.75192510  1
  Ti  Ti28  1  0.74962748  0.25167650  0.25105862  1
  Ti  Ti29  1  0.74937244  0.25135945  0.74803936  1
  Ti  Ti30  1  0.74808208  0.74815444  0.24915624  1
  Ti  Ti31  1  0.74842697  0.74855290  0.75061697  1
  Al  Al32  1  0.08027645  0.08230782  0.08352127  1
  Al  Al33  1  0.07219650  0.09142822  0.58940429  1
  Al  Al34  1  0.08457413  0.59006970  0.06948069  1
  Al  Al35  1  0.09363474  0.58564112  0.58917330  1
  Al  Al36  1  0.58095367  0.07629164  0.09714777  1
  Al  Al37  1  0.58485240  0.07638871  0.58638364  1
  Al  Al38  1  0.58670166  0.57957309  0.08635264  1
  Al  Al39  1  0.57587411  0.58560054  0.59884749  1
  Al  Al40  1  0.42872381  0.41203627  0.08767782  1
  Al  Al41  1  0.41423265  0.42763883  0.58714101  1
  Al  Al42  1  0.41699736  0.91341302  0.09100437  1
  Al  Al43  1  0.42172257  0.90699427  0.58848061  1
  Al  Al44  1  0.91543836  0.41978901  0.08713874  1
  Al  Al45  1  0.91534680  0.42017400  0.58894044  1
  Al  Al46  1  0.91879850  0.91506157  0.07784100  1
  Al  Al47  1  0.92099535  0.92075823  0.58301774  1
  Al  Al48  1  0.41984054  0.08984433  0.41239006  1
  Al  Al49  1  0.42176538  0.07973672  0.92002027  1
  Al  Al50  1  0.40867042  0.58626414  0.42988230  1
  Al  Al51  1  0.41926168  0.58756372  0.90752865  1
  Al  Al52  1  0.92040048  0.08625204  0.42236694  1
  Al  Al53  1  0.92620237  0.08968969  0.90859094  1
  Al  Al54  1  0.91927539  0.57332332  0.42020669  1
  Al  Al55  1  0.90507198  0.58494250  0.91396277  1
  Al  Al56  1  0.07498574  0.41090692  0.42042464  1
  Al  Al57  1  0.08551425  0.42443041  0.90678686  1
  Al  Al58  1  0.08535708  0.91028867  0.41820781  1
  Al  Al59  1  0.08748872  0.90475139  0.92530340  1
  Al  Al60  1  0.58179370  0.40813611  0.41226157  1
  Al  Al61  1  0.58874883  0.42537222  0.91705844  1
  Al  Al62  1  0.57461782  0.91917618  0.41559506  1
  Al  Al63  1  0.58061057  0.91569728  0.91203765  1
  Al  Al64  1  0.07775648  0.08001993  0.41569006  1
  Al  Al65  1  0.07853607  0.09472415  0.91070081  1
  Al  Al66  1  0.08668853  0.58808371  0.42851887  1
  Al  Al67  1  0.09665476  0.58584335  0.91082223  1
  Al  Al68  1  0.57796544  0.09001911  0.41125798  1
  Al  Al69  1  0.58140579  0.07585944  0.91090008  1
  Al  Al70  1  0.57944030  0.57193363  0.42178864  1
  Al  Al71  1  0.58547689  0.58653940  0.90442128  1
  Al  Al72  1  0.42253875  0.41232182  0.41232195  1
  Al  Al73  1  0.41594975  0.42417378  0.91379788  1
  Al  Al74  1  0.41718600  0.91411771  0.41661824  1
  Al  Al75  1  0.42065318  0.91117726  0.91608945  1
  Al  Al76  1  0.91705595  0.41342958  0.40849982  1
  Al  Al77  1  0.91540300  0.42430997  0.90847411  1
  Al  Al78  1  0.92709582  0.91970627  0.42102233  1
  Al  Al79  1  0.92230242  0.91556994  0.92349055  1
  Al  Al80  1  0.07597398  0.41772895  0.07844103  1
  Al  Al81  1  0.08620283  0.42200204  0.58691605  1
  Al  Al82  1  0.09222397  0.91185481  0.08028075  1
  Al  Al83  1  0.08074296  0.91306481  0.57482885  1
  Al  Al84  1  0.58826863  0.41712073  0.09054664  1
  Al  Al85  1  0.58817285  0.42288912  0.58469391  1
  Al  Al86  1  0.58079083  0.91191565  0.09461838  1
  Al  Al87  1  0.58156150  0.91477798  0.59970080  1
  Al  Al88  1  0.41739280  0.07793160  0.09319221  1
  Al  Al89  1  0.42203938  0.07601989  0.57490554  1
  Al  Al90  1  0.42282653  0.58350212  0.07721311  1
  Al  Al91  1  0.40794178  0.59168206  0.59326346  1
  Al  Al92  1  0.92586156  0.08093790  0.08381425  1
  Al  Al93  1  0.91739416  0.09306264  0.59044496  1
  Al  Al94  1  0.90900841  0.58655721  0.07680893  1
  Al  Al95  1  0.91859833  0.57856585  0.58900585  1
  Al  Al96  1  0.25326184  0.13327224  0.13316729  1
  Al  Al97  1  0.25394986  0.13692591  0.64023530  1
  Al  Al98  1  0.25116998  0.63930837  0.12768968  1
  Al  Al99  1  0.25291191  0.63605510  0.63369431  1
  Al  Al100  1  0.74440994  0.13660302  0.13830841  1
  Al  Al101  1  0.74637220  0.13705007  0.62984945  1
  Al  Al102  1  0.74731829  0.63196358  0.13107452  1
  Al  Al103  1  0.75027167  0.63454942  0.63840949  1
  Al  Al104  1  0.25046923  0.36549891  0.13410267  1
  Al  Al105  1  0.25385827  0.36692984  0.63664957  1
  Al  Al106  1  0.24856980  0.86575160  0.13420589  1
  Al  Al107  1  0.25272644  0.85962312  0.63799517  1
  Al  Al108  1  0.75022312  0.37300301  0.13842311  1
  Al  Al109  1  0.75303087  0.36649617  0.63524802  1
  Al  Al110  1  0.74679455  0.86553330  0.13648826  1
  Al  Al111  1  0.74055121  0.86410861  0.63656705  1
  Al  Al112  1  0.25429030  0.13014054  0.36207620  1
  Al  Al113  1  0.25151190  0.13727172  0.87158892  1
  Al  Al114  1  0.25042323  0.63349079  0.36923876  1
  Al  Al115  1  0.24979374  0.63707504  0.87023964  1
  Al  Al116  1  0.74889734  0.13813204  0.37084694  1
  Al  Al117  1  0.74855622  0.13741212  0.85974669  1
  Al  Al118  1  0.74426814  0.63392713  0.36613334  1
  Al  Al119  1  0.74668717  0.63754467  0.86869706  1
  Al  Al120  1  0.25247718  0.36328427  0.36218203  1
  Al  Al121  1  0.24790148  0.36642386  0.86587602  1
  Al  Al122  1  0.25262701  0.86864451  0.36516325  1
  Al  Al123  1  0.24975824  0.86069294  0.86450432  1
  Al  Al124  1  0.74999726  0.36328437  0.36430534  1
  Al  Al125  1  0.75059866  0.36371411  0.86384286  1
  Al  Al126  1  0.74240944  0.86627606  0.36393745  1
  Al  Al127  1  0.74611189  0.85762689  0.86080771  1
  Al  Al128  1  0.13711435  0.25074098  0.13171672  1
  Al  Al129  1  0.13745535  0.24949630  0.63873472  1
  Al  Al130  1  0.13680806  0.74931221  0.13030969  1
  Al  Al131  1  0.13833354  0.74494652  0.63583459  1
  Al  Al132  1  0.63133023  0.25618434  0.13960637  1
  Al  Al133  1  0.63431188  0.25163622  0.63656723  1
  Al  Al134  1  0.63504748  0.75070759  0.13488517  1
  Al  Al135  1  0.62894183  0.74461790  0.63730889  1
  Al  Al136  1  0.13053875  0.24931771  0.36279085  1
  Al  Al137  1  0.13469157  0.24650187  0.86750445  1
  Al  Al138  1  0.13751472  0.74453032  0.36680061  1
  Al  Al139  1  0.13255151  0.74705030  0.86796671  1
  Al  Al140  1  0.63363715  0.24750763  0.36307871  1
  Al  Al141  1  0.62992175  0.25128760  0.86236553  1
  Al  Al142  1  0.63456580  0.75092254  0.36586632  1
  Al  Al143  1  0.62462348  0.74648282  0.86420214  1
  Al  Al144  1  0.36678975  0.24862025  0.13273044  1
  Al  Al145  1  0.36538155  0.25450681  0.63733574  1
  Al  Al146  1  0.36772745  0.75500443  0.13524675  1
  Al  Al147  1  0.36939407  0.74613335  0.63653274  1
  Al  Al148  1  0.86152143  0.25434105  0.13469474  1
  Al  Al149  1  0.86356731  0.24858955  0.63139012  1
  Al  Al150  1  0.86141435  0.74621925  0.13370385  1
  Al  Al151  1  0.86272633  0.75227549  0.63637572  1
  Al  Al152  1  0.36646166  0.24899598  0.36226036  1
  Al  Al153  1  0.37071924  0.25356516  0.86579243  1
  Al  Al154  1  0.36141928  0.74948262  0.36372975  1
  Al  Al155  1  0.37127837  0.74650573  0.86595374  1
  Al  Al156  1  0.86804176  0.25152828  0.36723414  1
  Al  Al157  1  0.86532196  0.24763356  0.86213046  1
  Al  Al158  1  0.86185417  0.74729099  0.36220633  1
  Al  Al159  1  0.86824684  0.74462075  0.86382774  1
  Al  Al160  1  0.13609584  0.13298136  0.25056172  1
  Al  Al161  1  0.13282345  0.13371155  0.75216718  1
  Al  Al162  1  0.13512694  0.63584848  0.25029479  1
  Al  Al163  1  0.13738840  0.63363326  0.75451311  1
  Al  Al164  1  0.63481900  0.13188589  0.25223191  1
  Al  Al165  1  0.63485897  0.13458223  0.74791030  1
  Al  Al166  1  0.63834581  0.62691862  0.24650689  1
  Al  Al167  1  0.63358352  0.63283816  0.75398509  1
  Al  Al168  1  0.36545430  0.13028873  0.25039532  1
  Al  Al169  1  0.36401912  0.13519919  0.75615454  1
  Al  Al170  1  0.36048604  0.63566463  0.24568014  1
  Al  Al171  1  0.36642946  0.63395204  0.74838807  1
  Al  Al172  1  0.86450774  0.13678085  0.25312035  1
  Al  Al173  1  0.86778171  0.13489075  0.74538517  1
  Al  Al174  1  0.86595917  0.63363495  0.24579326  1
  Al  Al175  1  0.86437989  0.63243463  0.74992878  1
  Al  Al176  1  0.12942891  0.36482446  0.25137835  1
  Al  Al177  1  0.13577921  0.36555805  0.75044621  1
  Al  Al178  1  0.13651544  0.86256488  0.25115799  1
  Al  Al179  1  0.12947070  0.85993902  0.75194227  1
  Al  Al180  1  0.63650028  0.37008844  0.24924807  1
  Al  Al181  1  0.63622895  0.36919364  0.75431912  1
  Al  Al182  1  0.63350753  0.86930215  0.24598037  1
  Al  Al183  1  0.62548093  0.85920250  0.74795430  1
  Al  Al184  1  0.36651856  0.36364953  0.24583117  1
  Al  Al185  1  0.36648764  0.36885729  0.75174741  1
  Al  Al186  1  0.36177477  0.87007954  0.24871515  1
  Al  Al187  1  0.37159901  0.85843384  0.75073800  1
  Al  Al188  1  0.87013243  0.36428713  0.24961212  1
  Al  Al189  1  0.86518184  0.36667693  0.74718130  1
  Al  Al190  1  0.86332562  0.86450449  0.24987684  1
  Al  Al191  1  0.87091101  0.86124998  0.75016314  1
  Al  Al192  1  0.00016778  0.31803700  0.82160626  1
  Al  Al193  1  0.81768765  0.00055928  0.32927121  1
  Al  Al194  1  0.81727947  0.00106905  0.17043204  1
  Al  Al195  1  0.83212941  0.17894017  0.00054928  1
  Al  Al196  1  0.32577810  0.32553275  0.00316534  1
  Al  Al197  1  0.82595671  0.66943792  0.50126065  1
  Al  Al198  1  0.81765552  0.49985713  0.31737119  1
  Al  Al199  1  0.66761379  0.67357736  0.50366949  1
  Al  Al200  1  0.67097465  0.82042870  -0.00026206  1
  Al  Al201  1  0.49939705  0.66556291  0.32362384  1
  Al  Al202  1  0.67365924  -0.00403629  0.80993538  1
  Al  Al203  1  0.32905441  0.81584350  0.50160391  1
  Al  Al204  1  0.82389666  0.82829391  0.49750171  1
  Al  Al205  1  0.32909594  0.49973390  0.32339039  1
  Al  Al206  1  0.17794733  0.81278670  0.50018192  1
  Al  Al207  1  0.32958838  -0.00229694  0.67675820  1
  Al  Al208  1  0.00025451  0.82877116  0.17215261  1
  Al  Al209  1  0.17356423  0.49528254  0.33386731  1
  Al  Al210  1  0.49846026  0.82340654  0.31087836  1
  Al  Al211  1  0.00012176  0.18319984  0.18176754  1
  Al  Al212  1  0.19062681  0.50057238  0.68991149  1
  Al  Al213  1  0.50107591  0.30913747  0.30724185  1
  Al  Al214  1  0.68780615  0.50033678  0.68965312  1
  Al  Al215  1  0.80614751  0.50095301  0.81067038  1
  Al  Al216  1  0.00069679  0.67801337  0.67974076  1
  Al  Al217  1  0.67205871  0.16818485  0.00001335  1
  Al  Al218  1  0.67732766  0.32556055  0.00109480  1
  Al  Al219  1  0.32081603  0.82295159  0.00289103  1
  Al  Al220  1  0.17598349  0.00062051  0.17800386  1
  Al  Al221  1  0.32813480  0.18288014  0.50060863  1
  Al  Al222  1  0.00072743  0.31659007  0.66986850  1
  Al  Al223  1  0.18156369  0.50363073  0.16926210  1
  Al  Al224  1  0.18205627  0.32852726  0.50100026  1
  Al  Al225  1  0.82693378  0.81367711  -0.00113887  1
  Al  Al226  1  0.81049644  -0.00052099  0.67219255  1
  Al  Al227  1  0.17637450  0.16939084  0.49988629  1
  Al  Al228  1  0.50117028  0.33030714  0.67662704  1
  Al  Al229  1  0.17547700  -0.00113114  0.66849374  1
  Al  Al230  1  0.50138495  0.68339462  0.17334367  1
  Al  Al231  1  0.17862971  -0.00080291  0.83142821  1
  Al  Al232  1  0.67852648  0.31991922  0.50041380  1
  Al  Al233  1  0.49975383  0.18815006  0.19086165  1
  Al  Al234  1  0.00025504  0.81844554  0.32523707  1
  Al  Al235  1  0.82719269  -0.00158694  0.83009928  1
  Al  Al236  1  0.49759134  0.17292138  0.67512486  1
  Al  Al237  1  0.00097976  0.67284205  0.17496735  1
  Al  Al238  1  0.30725388  0.50215642  0.81005710  1
  Au  Au239  1  0.49956643  0.82140721  0.82436617  1
  Au  Au240  1  0.33396130  0.33614574  0.50150240  1
  Au  Au241  1  0.82436949  0.50394324  0.16824888  1
  Au  Au242  1  0.32661778  0.66683298  -0.00080690  1
  Au  Au243  1  0.67465088  0.83230555  0.00144641  1
  Au  Au244  1  0.67186826  0.66461103  -0.00066817  1
  Au  Au245  1  0.82089048  0.00134412  0.65900535  1
  Au  Au246  1  0.83432377  0.17492342  0.50000642  1
  Au  Au247  1  0.49362201  0.67374150  0.33664457  1
  Au  Au248  1  -0.00038776  0.67582677  0.16255942  1
  Au  Au249  1  0.82776554  0.34163129  0.50030703  1
  Au  Au250  1  0.17071489  0.34005207  -0.00436956  1
  Au  Au251  1  0.50531005  0.34179633  0.82768463  1
  Au  Au252  1  0.00027306  0.33074731  0.17408602  1
  Au  Au253  1  0.65556562  0.00052956  0.32272400  1
  Au  Au254  1  -0.00201209  0.67043576  0.33991402  1
  Au  Au255  1  0.00008370  0.65900105  0.82930709  1
  Au  Au256  1  0.49996275  0.17236771  0.18495467  1
  Au  Au257  1  0.83316625  -0.00019472  0.33642019  1
  Au  Au258  1  0.16093389  0.17274361  0.00239745  1
  Au  Au259  1  0.33963372  0.00098892  0.32627400  1
  Au  Au260  1  0.82511682  0.34595875  -0.00272783  1
  Au  Au261  1  0.32177384  0.50364478  0.81860028  1
  Au  Au262  1  0.50018304  0.16598548  0.82441332  1
  Au  Au263  1  0.33251445  0.16060611  0.00319620  1
  Au  Au264  1  0.34326261  -0.00272825  0.82479891  1
  Au  Au265  1  0.65803848  0.83669407  0.50307956  1
  Au  Au266  1  0.00260097  0.82682467  0.66608039  1
  Au  Au267  1  0.16769779  0.50396103  0.16048612  1
  Au  Au268  1  0.17221168  0.00035482  0.65278643  1
  Au  Au269  1  0.00031934  0.82957363  0.83389495  1
  Au  Au270  1  0.17028475  0.50024985  0.34482357  1
  Au  Au271  1  0.32880820  0.83231453  0.00030675  1
  Au  Au272  1  0.16891987  -0.00336128  0.33393697  1
  Au  Au273  1  0.16194482  0.17730693  0.50052909  1
  Au  Au274  1  0.67031367  0.66108663  0.50534537  1
  Au  Au275  1  0.33464682  0.33413850  0.00102820  1
  Au  Au276  1  -0.00091725  0.17492077  0.32898601  1
  Au  Au277  1  0.16806868  -0.00118367  0.84379769  1
  Au  Au278  1  0.83980007  0.82199318  0.49698062  1
  Au  Au279  1  0.66964474  0.49669733  0.32877227  1
  Au  Au280  1  0.82241140  -0.00093569  0.84593930  1
  Au  Au281  1  0.82311648  -0.00029773  0.15458710  1
  Au  Au282  1  0.66087025  0.17081678  0.50190804  1
  Au  Au283  1  0.17671919  0.00284298  0.16560700  1
  Au  Au284  1  0.84906281  0.17616014  0.00059294  1
  Au  Au285  1  0.00015999  0.32958223  0.83050467  1
  Au  Au286  1  0.34822232  0.50003727  0.17402386  1
  Au  Au287  1  0.65564511  0.16819789  0.00422450  1
