# generated using pymatgen
data_Ca24Ti8Al207Au49
_symmetry_space_group_name_H-M   'P 1'
_cell_length_a   17.32054938
_cell_length_b   17.32103632
_cell_length_c   17.31991928
_cell_angle_alpha   89.99852144
_cell_angle_beta   89.99910480
_cell_angle_gamma   89.99723864
_symmetry_Int_Tables_number   1
_chemical_formula_structural   Ca24Ti8Al207Au49
_chemical_formula_sum   'Ca24 Ti8 Al207 Au49'
_cell_volume   5196.14663409
_cell_formula_units_Z   1
loop_
 _symmetry_equiv_pos_site_id
 _symmetry_equiv_pos_as_xyz
  1  'x, y, z'
loop_
 _atom_site_type_symbol
 _atom_site_label
 _atom_site_symmetry_multiplicity
 _atom_site_fract_x
 _atom_site_fract_y
 _atom_site_fract_z
 _atom_site_occupancy
  Ca  Ca0  1  0.25518048  -0.00407160  -0.00020463  1
  Ca  Ca1  1  0.24829394  -0.00046623  0.49832220  1
  Ca  Ca2  1  0.25407924  0.50448855  0.00253462  1
  Ca  Ca3  1  0.25176125  0.50169493  0.49893943  1
  Ca  Ca4  1  0.75015540  -0.00254165  -0.00507802  1
  Ca  Ca5  1  0.75046304  0.00194090  0.50322662  1
  Ca  Ca6  1  0.75501016  0.50507002  -0.00015672  1
  Ca  Ca7  1  0.75126465  0.50094117  0.50125774  1
  Ca  Ca8  1  -0.00293294  0.25044699  -0.00035913  1
  Ca  Ca9  1  0.00009278  0.24845469  0.50177668  1
  Ca  Ca10  1  0.00126116  0.74697269  0.00064894  1
  Ca  Ca11  1  -0.00230873  0.74618377  0.50135019  1
  Ca  Ca12  1  0.50112258  0.25251101  0.00135561  1
  Ca  Ca13  1  0.49834250  0.24925428  0.50126118  1
  Ca  Ca14  1  0.49388238  0.74979115  -0.00179141  1
  Ca  Ca15  1  0.50148829  0.75074169  0.50146904  1
  Ca  Ca16  1  0.00369766  0.00341702  0.24946081  1
  Ca  Ca17  1  0.00442913  0.00034772  0.74491997  1
  Ca  Ca18  1  0.00205209  0.49944888  0.24960882  1
  Ca  Ca19  1  -0.00272999  0.49779663  0.74556319  1
  Ca  Ca20  1  0.49602363  -0.00338860  0.24985416  1
  Ca  Ca21  1  0.49628890  -0.00088210  0.74627368  1
  Ca  Ca22  1  0.49732563  0.50444083  0.24915033  1
  Ca  Ca23  1  0.49873485  0.50149149  0.74630347  1
  Ti  Ti24  1  0.24936185  0.25164391  0.25159562  1
  Ti  Ti25  1  0.25092248  0.24704725  0.74796711  1
  Ti  Ti26  1  0.25148794  0.74880103  0.25030412  1
  Ti  Ti27  1  0.25167911  0.75251409  0.74976852  1
  Ti  Ti28  1  0.75164905  0.25127810  0.25070788  1
  Ti  Ti29  1  0.75047843  0.25085601  0.74810381  1
  Ti  Ti30  1  0.74936590  0.74827464  0.24908729  1
  Ti  Ti31  1  0.74880614  0.74959449  0.74999462  1
  Al  Al32  1  0.08140897  0.08180160  0.09374058  1
  Al  Al33  1  0.08899359  0.08711100  0.58070382  1
  Al  Al34  1  0.08369824  0.58718867  0.09276454  1
  Al  Al35  1  0.08347090  0.57690222  0.57751931  1
  Al  Al36  1  0.57375533  0.07330285  0.07681528  1
  Al  Al37  1  0.59959350  0.08138044  0.59085188  1
  Al  Al38  1  0.58130670  0.58260081  0.08223584  1
  Al  Al39  1  0.58137832  0.58520517  0.58604960  1
  Al  Al40  1  0.41640076  0.42626842  0.09232492  1
  Al  Al41  1  0.41203282  0.42021473  0.58843815  1
  Al  Al42  1  0.40709043  0.91081730  0.08150168  1
  Al  Al43  1  0.41878663  0.91780401  0.58317636  1
  Al  Al44  1  0.90430955  0.41945457  0.08555769  1
  Al  Al45  1  0.90277791  0.41604563  0.58526447  1
  Al  Al46  1  0.91965936  0.91460846  0.07902143  1
  Al  Al47  1  0.90487464  0.92698742  0.58898022  1
  Al  Al48  1  0.41370530  0.07653347  0.42015655  1
  Al  Al49  1  0.41893471  0.07951688  0.90973029  1
  Al  Al50  1  0.41369785  0.58170508  0.41374944  1
  Al  Al51  1  0.40808421  0.59125183  0.91809998  1
  Al  Al52  1  0.91920271  0.10234480  0.42134720  1
  Al  Al53  1  0.91878117  0.07735000  0.92332915  1
  Al  Al54  1  0.91628951  0.58769516  0.42102491  1
  Al  Al55  1  0.91974198  0.58372173  0.91143303  1
  Al  Al56  1  0.08984459  0.42014119  0.41439489  1
  Al  Al57  1  0.07651096  0.42533399  0.92598482  1
  Al  Al58  1  0.07984202  0.92115363  0.42423128  1
  Al  Al59  1  0.09356518  0.91367765  0.91317892  1
  Al  Al60  1  0.58734550  0.41958480  0.42024629  1
  Al  Al61  1  0.58139508  0.42340735  0.91620874  1
  Al  Al62  1  0.57953177  0.90393815  0.42622261  1
  Al  Al63  1  0.57825258  0.90610654  0.91320412  1
  Al  Al64  1  0.08286387  0.09458039  0.41690379  1
  Al  Al65  1  0.09030338  0.06962659  0.91311182  1
  Al  Al66  1  0.08766816  0.58044575  0.41031530  1
  Al  Al67  1  0.07799486  0.59034659  0.91527785  1
  Al  Al68  1  0.58509427  0.08897701  0.43181267  1
  Al  Al69  1  0.57324751  0.08370283  0.91064545  1
  Al  Al70  1  0.58374311  0.58307350  0.41691532  1
  Al  Al71  1  0.58018980  0.58430312  0.91420946  1
  Al  Al72  1  0.41189765  0.42152381  0.41739007  1
  Al  Al73  1  0.41956307  0.42632003  0.91562267  1
  Al  Al74  1  0.41923154  0.91443048  0.40902061  1
  Al  Al75  1  0.41435961  0.90526565  0.91510049  1
  Al  Al76  1  0.91226526  0.41210695  0.42524179  1
  Al  Al77  1  0.90750472  0.41887363  0.92508798  1
  Al  Al78  1  0.92072702  0.91741830  0.42772013  1
  Al  Al79  1  0.91810163  0.91434730  0.91693278  1
  Al  Al80  1  0.08519102  0.42693454  0.08805989  1
  Al  Al81  1  0.08496742  0.41760721  0.58044318  1
  Al  Al82  1  0.08740594  0.91878749  0.08037075  1
  Al  Al83  1  0.09277052  0.92710511  0.58687366  1
  Al  Al84  1  0.57998816  0.42028846  0.08595418  1
  Al  Al85  1  0.58455334  0.41598315  0.58332508  1
  Al  Al86  1  0.58413161  0.90871058  0.07253325  1
  Al  Al87  1  0.59603898  0.91694485  0.58710807  1
  Al  Al88  1  0.41340698  0.07216709  0.08702469  1
  Al  Al89  1  0.41681017  0.08267643  0.58349089  1
  Al  Al90  1  0.40492645  0.58638039  0.08191623  1
  Al  Al91  1  0.41407088  0.58260730  0.59021043  1
  Al  Al92  1  0.92400824  0.09372512  0.08871296  1
  Al  Al93  1  0.90413008  0.08935450  0.58346729  1
  Al  Al94  1  0.91914233  0.58156986  0.09407337  1
  Al  Al95  1  0.90588307  0.57987971  0.58240143  1
  Al  Al96  1  0.25282482  0.13451124  0.13582146  1
  Al  Al97  1  0.24756640  0.12720997  0.63518358  1
  Al  Al98  1  0.25331099  0.63342954  0.13352044  1
  Al  Al99  1  0.25338204  0.63772859  0.63609842  1
  Al  Al100  1  0.75745019  0.13359794  0.13633366  1
  Al  Al101  1  0.75061395  0.13440058  0.63075828  1
  Al  Al102  1  0.75087551  0.62981845  0.13486897  1
  Al  Al103  1  0.74844923  0.62993963  0.63605420  1
  Al  Al104  1  0.25011995  0.36659286  0.13528838  1
  Al  Al105  1  0.25106057  0.36426559  0.63477987  1
  Al  Al106  1  0.25626922  0.86337597  0.13540097  1
  Al  Al107  1  0.24950951  0.87127869  0.63515319  1
  Al  Al108  1  0.75201194  0.37142091  0.13547801  1
  Al  Al109  1  0.75125311  0.37054978  0.63200735  1
  Al  Al110  1  0.74846384  0.86268997  0.13019774  1
  Al  Al111  1  0.74745816  0.86778918  0.63473411  1
  Al  Al112  1  0.24721721  0.13504917  0.36461548  1
  Al  Al113  1  0.24985330  0.12548400  0.86249487  1
  Al  Al114  1  0.25040111  0.62969457  0.36343658  1
  Al  Al115  1  0.25656166  0.64112630  0.86878171  1
  Al  Al116  1  0.75317952  0.13623509  0.36908882  1
  Al  Al117  1  0.75609040  0.13437475  0.86326274  1
  Al  Al118  1  0.75269090  0.63666390  0.36571918  1
  Al  Al119  1  0.75179583  0.63758459  0.86670418  1
  Al  Al120  1  0.24576201  0.37224841  0.36416226  1
  Al  Al121  1  0.25650527  0.36188310  0.86407208  1
  Al  Al122  1  0.25261647  0.86246209  0.37032635  1
  Al  Al123  1  0.25416448  0.86689641  0.86307920  1
  Al  Al124  1  0.75644846  0.36488323  0.36790364  1
  Al  Al125  1  0.75031189  0.36542877  0.86291336  1
  Al  Al126  1  0.74562040  0.86139121  0.36768223  1
  Al  Al127  1  0.74692631  0.86133058  0.86969649  1
  Al  Al128  1  0.13490917  0.24744292  0.13941649  1
  Al  Al129  1  0.13974347  0.24657963  0.62648666  1
  Al  Al130  1  0.13247046  0.74720817  0.13755884  1
  Al  Al131  1  0.13621186  0.75502675  0.63610022  1
  Al  Al132  1  0.63778658  0.25192976  0.13455217  1
  Al  Al133  1  0.63721371  0.24451242  0.63110800  1
  Al  Al134  1  0.63319997  0.75168586  0.13290673  1
  Al  Al135  1  0.63681328  0.75495445  0.63133020  1
  Al  Al136  1  0.13608100  0.24747078  0.37279522  1
  Al  Al137  1  0.13893349  0.25221204  0.86151057  1
  Al  Al138  1  0.13773002  0.75093122  0.36399053  1
  Al  Al139  1  0.13360889  0.75038945  0.86431995  1
  Al  Al140  1  0.63651702  0.24802049  0.36675008  1
  Al  Al141  1  0.63511295  0.24392799  0.86153728  1
  Al  Al142  1  0.63040175  0.74768557  0.36688388  1
  Al  Al143  1  0.62818193  0.75175212  0.86360195  1
  Al  Al144  1  0.36377045  0.25320224  0.13639782  1
  Al  Al145  1  0.36388499  0.24404424  0.63583398  1
  Al  Al146  1  0.36460584  0.74700382  0.12985973  1
  Al  Al147  1  0.36494059  0.75801143  0.63561686  1
  Al  Al148  1  0.86164817  0.25205396  0.13084845  1
  Al  Al149  1  0.86020155  0.25088183  0.62674705  1
  Al  Al150  1  0.86695767  0.74921860  0.13213083  1
  Al  Al151  1  0.86241097  0.74382646  0.63163119  1
  Al  Al152  1  0.36319054  0.25331226  0.36387594  1
  Al  Al153  1  0.36536953  0.24267170  0.86198844  1
  Al  Al154  1  0.37070333  0.74985289  0.36160171  1
  Al  Al155  1  0.36995946  0.75418846  0.86412833  1
  Al  Al156  1  0.86605987  0.24804156  0.36720644  1
  Al  Al157  1  0.86167979  0.25453242  0.86905957  1
  Al  Al158  1  0.86392486  0.74900042  0.36698068  1
  Al  Al159  1  0.86802785  0.75116683  0.86640356  1
  Al  Al160  1  0.13172486  0.13661622  0.25359774  1
  Al  Al161  1  0.13691394  0.13183111  0.74580281  1
  Al  Al162  1  0.13688872  0.63425982  0.25114208  1
  Al  Al163  1  0.13583112  0.63932147  0.75136554  1
  Al  Al164  1  0.64059782  0.13417654  0.24860294  1
  Al  Al165  1  0.63514976  0.13299574  0.74530167  1
  Al  Al166  1  0.63035493  0.63867484  0.24870030  1
  Al  Al167  1  0.63491369  0.63784802  0.74914813  1
  Al  Al168  1  0.36261737  0.13543007  0.24977890  1
  Al  Al169  1  0.36789912  0.12860860  0.74743248  1
  Al  Al170  1  0.36632226  0.63081722  0.25049173  1
  Al  Al171  1  0.36575521  0.63806557  0.74991309  1
  Al  Al172  1  0.87079019  0.13958835  0.25048138  1
  Al  Al173  1  0.86365417  0.13461283  0.74138140  1
  Al  Al174  1  0.86614446  0.63319169  0.24562070  1
  Al  Al175  1  0.86446203  0.63675781  0.75087840  1
  Al  Al176  1  0.13141741  0.36511801  0.25403745  1
  Al  Al177  1  0.13306631  0.36156781  0.74431930  1
  Al  Al178  1  0.13655420  0.86459074  0.24563638  1
  Al  Al179  1  0.13651752  0.86904626  0.75382975  1
  Al  Al180  1  0.63819088  0.36389293  0.25087967  1
  Al  Al181  1  0.63662244  0.36363617  0.74624737  1
  Al  Al182  1  0.63156738  0.86164737  0.25230135  1
  Al  Al183  1  0.63137427  0.86329298  0.74765110  1
  Al  Al184  1  0.36118759  0.37380199  0.25266167  1
  Al  Al185  1  0.36561244  0.36405005  0.74683024  1
  Al  Al186  1  0.36636410  0.86276210  0.24917345  1
  Al  Al187  1  0.36983702  0.86979955  0.75119545  1
  Al  Al188  1  0.86565656  0.36882502  0.24765990  1
  Al  Al189  1  0.86571140  0.36351612  0.74331836  1
  Al  Al190  1  0.86030116  0.86614638  0.24736074  1
  Al  Al191  1  0.86185482  0.86198930  0.74758464  1
  Al  Al192  1  0.67781006  -0.00368953  0.16958440  1
  Al  Al193  1  0.68367921  0.32915680  -0.00099266  1
  Al  Al194  1  0.67857965  0.16705449  0.00013927  1
  Al  Al195  1  0.31592800  0.17249501  0.49955647  1
  Al  Al196  1  0.32590542  0.50134492  0.81314426  1
  Al  Al197  1  0.67552654  0.50154238  0.31868614  1
  Al  Al198  1  0.82388083  -0.00150257  0.81213296  1
  Al  Al199  1  -0.00062953  0.66879182  0.67733207  1
  Al  Al200  1  0.81325790  0.81738612  0.50148761  1
  Al  Al201  1  0.82970433  0.50145069  0.32163541  1
  Al  Al202  1  0.68783167  0.31461584  0.49923913  1
  Al  Al203  1  0.67015960  -0.00252752  0.81815487  1
  Al  Al204  1  0.49922471  0.17917768  0.32778527  1
  Al  Al205  1  0.17784289  0.50063349  0.82996830  1
  Al  Al206  1  -0.00210112  0.31628221  0.16977877  1
  Al  Al207  1  -0.00085377  0.82924768  0.31810100  1
  Al  Al208  1  -0.00412220  0.33297369  0.82531918  1
  Al  Al209  1  0.49997443  0.31463105  0.83157619  1
  Al  Al210  1  0.18832952  -0.00049013  0.17727853  1
  Al  Al211  1  0.82735428  0.49974926  0.81765816  1
  Al  Al212  1  -0.00030394  0.83082645  0.67818331  1
  Al  Al213  1  0.00027441  0.67201711  0.31726256  1
  Al  Al214  1  -0.00023709  0.31575342  0.32863581  1
  Al  Al215  1  0.83228286  0.00486362  0.32723914  1
  Al  Al216  1  0.50115005  0.82302915  0.17586115  1
  Al  Al217  1  0.67846657  0.68555421  -0.00140972  1
  Al  Al218  1  0.17297608  0.17083166  -0.00248034  1
  Al  Al219  1  0.32229398  0.32552897  0.50041179  1
  Al  Al220  1  0.50038285  0.31690255  0.67298713  1
  Al  Al221  1  0.18941941  0.82639091  0.00023619  1
  Al  Al222  1  0.18757008  0.50139045  0.67275193  1
  Al  Al223  1  0.68474508  0.68262685  0.50051036  1
  Al  Al224  1  0.67540493  0.50157327  0.82012351  1
  Al  Al225  1  0.33141342  0.17676172  -0.00069427  1
  Al  Al226  1  0.18866001  0.50023647  0.19102780  1
  Al  Al227  1  0.50008817  0.68469196  0.68074059  1
  Al  Al228  1  0.66774794  -0.00254752  0.32941170  1
  Al  Al229  1  0.17329275  0.67783267  0.49999835  1
  Al  Al230  1  0.32721105  0.67814305  0.50008848  1
  Al  Al231  1  0.00137447  0.17236791  0.82645053  1
  Al  Al232  1  0.32199584  -0.00163668  0.31306294  1
  Al  Al233  1  0.17944950  0.32737565  0.00166147  1
  Al  Al234  1  0.49915590  0.32647785  0.18040967  1
  Al  Al235  1  0.50045347  0.17212064  0.17316121  1
  Al  Al236  1  0.17015205  -0.00025277  0.32944808  1
  Al  Al237  1  0.18179099  0.67559631  0.00130433  1
  Al  Al238  1  -0.00001219  0.17993021  0.66964112  1
  Au  Au239  1  0.00104700  0.82344998  0.33401976  1
  Au  Au240  1  0.65415290  -0.00303676  0.82212850  1
  Au  Au241  1  0.50374430  0.16570152  0.66784213  1
  Au  Au242  1  0.16210775  0.16683828  0.00212491  1
  Au  Au243  1  0.66184448  0.16776587  -0.00429719  1
  Au  Au244  1  0.82501161  0.82990092  0.50399460  1
  Au  Au245  1  0.83884355  -0.00101077  0.82052970  1
  Au  Au246  1  0.67037399  0.50002967  0.67269289  1
  Au  Au247  1  0.16656807  0.82868559  0.50276330  1
  Au  Au248  1  0.32718939  -0.00440402  0.83320113  1
  Au  Au249  1  0.16304873  0.50262070  0.82156358  1
  Au  Au250  1  0.67324930  0.67031938  0.50056938  1
  Au  Au251  1  0.67686784  0.34453852  -0.00019082  1
  Au  Au252  1  0.49965027  0.67407177  0.33625073  1
  Au  Au253  1  0.33756521  0.16593987  -0.00032207  1
  Au  Au254  1  0.83290019  0.50053405  0.33397020  1
  Au  Au255  1  0.00032665  0.32384034  0.34287203  1
  Au  Au256  1  0.33432776  0.34313968  0.00272327  1
  Au  Au257  1  0.32223938  -0.00020212  0.66518368  1
  Au  Au258  1  0.31862336  0.50111715  0.32358471  1
  Au  Au259  1  0.49402447  0.66664295  0.16800692  1
  Au  Au260  1  -0.00423311  0.33028658  0.83774101  1
  Au  Au261  1  0.00356218  0.82233755  0.84095369  1
  Au  Au262  1  0.50016182  0.16315575  0.33089367  1
  Au  Au263  1  -0.00277184  0.33164356  0.66008715  1
  Au  Au264  1  0.83887979  0.17610768  0.00001453  1
  Au  Au265  1  0.49664771  0.67303096  0.82955282  1
  Au  Au266  1  0.16935963  0.67233028  0.00090587  1
  Au  Au267  1  0.49872439  0.83217007  0.16759922  1
  Au  Au268  1  0.66638383  -0.00367588  0.16433027  1
  Au  Au269  1  0.67348197  0.32401868  0.50024879  1
  Au  Au270  1  0.50044749  0.33074105  0.82548442  1
  Au  Au271  1  0.00278581  0.82343224  0.15890275  1
  Au  Au272  1  0.17423050  0.32835190  0.49943797  1
  Au  Au273  1  0.66475272  0.67582447  -0.00152774  1
  Au  Au274  1  0.84578789  0.00647174  0.33608476  1
  Au  Au275  1  0.00603992  0.15571086  0.82355333  1
  Au  Au276  1  0.00049057  0.84504794  0.67027162  1
  Au  Au277  1  0.83735071  0.00204154  0.16255532  1
  Au  Au278  1  0.84178657  0.66761160  0.00269791  1
  Au  Au279  1  -0.00322729  0.32746272  0.15741652  1
  Au  Au280  1  0.67173749  0.50147731  0.17084221  1
  Au  Au281  1  0.66135598  -0.00545519  0.34527890  1
  Au  Au282  1  0.50403041  0.83379098  0.67024248  1
  Au  Au283  1  0.49988443  0.34457077  0.32771743  1
  Au  Au284  1  0.16793859  0.33233651  0.00151304  1
  Au  Au285  1  -0.00151603  0.65324766  0.67208056  1
  Au  Au286  1  0.82208561  0.83446935  -0.00064025  1
  Au  Au287  1  0.33807179  0.82762386  0.49635980  1
