# generated using pymatgen
data_Ca24Ti8Al207Au49
_symmetry_space_group_name_H-M   'P 1'
_cell_length_a   17.31925877
_cell_length_b   17.31698160
_cell_length_c   17.31964343
_cell_angle_alpha   90.00171143
_cell_angle_beta   90.00031341
_cell_angle_gamma   89.99587616
_symmetry_Int_Tables_number   1
_chemical_formula_structural   Ca24Ti8Al207Au49
_chemical_formula_sum   'Ca24 Ti8 Al207 Au49'
_cell_volume   5194.46042581
_cell_formula_units_Z   1
loop_
 _symmetry_equiv_pos_site_id
 _symmetry_equiv_pos_as_xyz
  1  'x, y, z'
loop_
 _atom_site_type_symbol
 _atom_site_label
 _atom_site_symmetry_multiplicity
 _atom_site_fract_x
 _atom_site_fract_y
 _atom_site_fract_z
 _atom_site_occupancy
  Ca  Ca0  1  0.24663548  0.00261198  -0.00040715  1
  Ca  Ca1  1  0.24740639  -0.00118119  0.50200252  1
  Ca  Ca2  1  0.24747109  0.49214026  0.00020848  1
  Ca  Ca3  1  0.24787282  0.49945758  0.49792692  1
  Ca  Ca4  1  0.75492503  -0.00118139  0.00423864  1
  Ca  Ca5  1  0.74918476  0.00137181  0.50049698  1
  Ca  Ca6  1  0.75736540  0.49972094  -0.00257739  1
  Ca  Ca7  1  0.75343393  0.50056702  0.50025951  1
  Ca  Ca8  1  0.00708489  0.24414590  -0.00194709  1
  Ca  Ca9  1  0.00228405  0.24668043  0.50132405  1
  Ca  Ca10  1  -0.00424779  0.75385138  0.00043278  1
  Ca  Ca11  1  0.00138536  0.75343385  0.49946178  1
  Ca  Ca12  1  0.49714015  0.24662702  0.00130500  1
  Ca  Ca13  1  0.49823533  0.24502198  0.49825129  1
  Ca  Ca14  1  0.50161356  0.75346467  -0.00017993  1
  Ca  Ca15  1  0.49988422  0.75483610  0.49810451  1
  Ca  Ca16  1  -0.00021750  0.00197123  0.24728091  1
  Ca  Ca17  1  0.00347518  -0.00161841  0.75045064  1
  Ca  Ca18  1  0.00205835  0.49740428  0.25341847  1
  Ca  Ca19  1  0.00068965  0.50310091  0.75518077  1
  Ca  Ca20  1  0.50057687  0.00034708  0.24865996  1
  Ca  Ca21  1  0.49889042  0.00098664  0.74532310  1
  Ca  Ca22  1  0.49850504  0.49754094  0.25119311  1
  Ca  Ca23  1  0.49615046  0.49430869  0.74733636  1
  Ti  Ti24  1  0.24950135  0.24853067  0.25021123  1
  Ti  Ti25  1  0.25137887  0.24832963  0.75069604  1
  Ti  Ti26  1  0.24775499  0.75089441  0.25206914  1
  Ti  Ti27  1  0.24727769  0.74963720  0.74920414  1
  Ti  Ti28  1  0.75030300  0.24796692  0.24832092  1
  Ti  Ti29  1  0.74924615  0.24761280  0.75111508  1
  Ti  Ti30  1  0.75252151  0.75185115  0.24904377  1
  Ti  Ti31  1  0.75408900  0.75208026  0.75116652  1
  Al  Al32  1  0.09372224  0.08939294  0.08037535  1
  Al  Al33  1  0.08856280  0.07410516  0.59336861  1
  Al  Al34  1  0.07545554  0.57928160  0.08036259  1
  Al  Al35  1  0.08303933  0.58800830  0.58107647  1
  Al  Al36  1  0.57938267  0.08463807  0.09180682  1
  Al  Al37  1  0.58187330  0.09481616  0.57999365  1
  Al  Al38  1  0.58256812  0.58863193  0.07703836  1
  Al  Al39  1  0.57297671  0.58208481  0.58153908  1
  Al  Al40  1  0.40838149  0.40855241  0.07954718  1
  Al  Al41  1  0.40909322  0.42107723  0.58398597  1
  Al  Al42  1  0.42023360  0.92445696  0.08298294  1
  Al  Al43  1  0.40282529  0.91823299  0.58182013  1
  Al  Al44  1  0.92906745  0.40886845  0.08813856  1
  Al  Al45  1  0.91975577  0.42727535  0.57879836  1
  Al  Al46  1  0.91420967  0.91933293  0.08434198  1
  Al  Al47  1  0.92630059  0.91068691  0.59259551  1
  Al  Al48  1  0.42376265  0.08044276  0.42199728  1
  Al  Al49  1  0.41113954  0.08589475  0.91595930  1
  Al  Al50  1  0.41841729  0.58054872  0.42525831  1
  Al  Al51  1  0.41774113  0.56899511  0.91863112  1
  Al  Al52  1  0.91491370  0.08215326  0.41972326  1
  Al  Al53  1  0.91643966  0.07566165  0.91633045  1
  Al  Al54  1  0.92540396  0.59146175  0.41670493  1
  Al  Al55  1  0.90542099  0.58687831  0.91304475  1
  Al  Al56  1  0.09078214  0.41776868  0.40624683  1
  Al  Al57  1  0.08491792  0.40712034  0.92466066  1
  Al  Al58  1  0.08971230  0.90889280  0.42115329  1
  Al  Al59  1  0.07954155  0.92023498  0.90071803  1
  Al  Al60  1  0.57611507  0.40737549  0.41109393  1
  Al  Al61  1  0.58312402  0.42124148  0.91525012  1
  Al  Al62  1  0.58868969  0.92466392  0.41362035  1
  Al  Al63  1  0.59256706  0.91512731  0.92777624  1
  Al  Al64  1  0.08114463  0.08104700  0.42007757  1
  Al  Al65  1  0.09153247  0.08324715  0.91591816  1
  Al  Al66  1  0.08672467  0.58301658  0.40640053  1
  Al  Al67  1  0.07251826  0.57913976  0.92036478  1
  Al  Al68  1  0.59343777  0.08626353  0.41663476  1
  Al  Al69  1  0.57784726  0.07769602  0.91942122  1
  Al  Al70  1  0.57855455  0.57749720  0.42386718  1
  Al  Al71  1  0.59150228  0.57882913  0.91817867  1
  Al  Al72  1  0.42007841  0.40845451  0.41711078  1
  Al  Al73  1  0.40298073  0.40774163  0.92089209  1
  Al  Al74  1  0.41316538  0.91506725  0.42361444  1
  Al  Al75  1  0.41484730  0.92728456  0.92101140  1
  Al  Al76  1  0.93031157  0.41225963  0.40931341  1
  Al  Al77  1  0.91937861  0.42326470  0.91243309  1
  Al  Al78  1  0.91838021  0.91651567  0.41524050  1
  Al  Al79  1  0.91597439  0.91307319  0.90536121  1
  Al  Al80  1  0.08822417  0.39802795  0.08582584  1
  Al  Al81  1  0.08251481  0.42489667  0.57177679  1
  Al  Al82  1  0.07948655  0.92894482  0.08735944  1
  Al  Al83  1  0.09016173  0.91116839  0.59481357  1
  Al  Al84  1  0.57238494  0.41592668  0.07917473  1
  Al  Al85  1  0.57648674  0.41730468  0.57700214  1
  Al  Al86  1  0.59050737  0.91414959  0.08473478  1
  Al  Al87  1  0.57789114  0.92309110  0.57418975  1
  Al  Al88  1  0.41706794  0.08972894  0.08792462  1
  Al  Al89  1  0.41893410  0.08215889  0.59159024  1
  Al  Al90  1  0.42152026  0.57269432  0.08075289  1
  Al  Al91  1  0.40849985  0.58177587  0.59001336  1
  Al  Al92  1  0.91750503  0.07899846  0.08307200  1
  Al  Al93  1  0.91765630  0.08228330  0.58205827  1
  Al  Al94  1  0.91626975  0.59151230  0.07340511  1
  Al  Al95  1  0.91804894  0.58847642  0.58171835  1
  Al  Al96  1  0.24340269  0.13654737  0.13083563  1
  Al  Al97  1  0.24682024  0.13264570  0.63323037  1
  Al  Al98  1  0.24663279  0.63582037  0.13820160  1
  Al  Al99  1  0.24886529  0.63601632  0.63529440  1
  Al  Al100  1  0.74920060  0.12986315  0.13658737  1
  Al  Al101  1  0.74835837  0.12926275  0.63819345  1
  Al  Al102  1  0.75845527  0.63653631  0.13159154  1
  Al  Al103  1  0.75872174  0.63780632  0.63737826  1
  Al  Al104  1  0.24735275  0.36100542  0.13389264  1
  Al  Al105  1  0.25162176  0.36457561  0.63473644  1
  Al  Al106  1  0.24522720  0.86641988  0.13655152  1
  Al  Al107  1  0.24415240  0.86654804  0.63372546  1
  Al  Al108  1  0.75202349  0.36314759  0.13843143  1
  Al  Al109  1  0.74871200  0.36382413  0.63747424  1
  Al  Al110  1  0.75096332  0.86924098  0.13099237  1
  Al  Al111  1  0.75775939  0.87191247  0.63865793  1
  Al  Al112  1  0.24818139  0.13931387  0.37027251  1
  Al  Al113  1  0.25071712  0.13027835  0.86598630  1
  Al  Al114  1  0.24694914  0.63497047  0.36913120  1
  Al  Al115  1  0.24743266  0.62916772  0.86004639  1
  Al  Al116  1  0.74794456  0.13402048  0.36345208  1
  Al  Al117  1  0.75095756  0.13389089  0.86502027  1
  Al  Al118  1  0.75074495  0.63252922  0.36354280  1
  Al  Al119  1  0.75710772  0.63694685  0.86697582  1
  Al  Al120  1  0.24482788  0.36519956  0.36346328  1
  Al  Al121  1  0.25043777  0.36418274  0.86838348  1
  Al  Al122  1  0.24736954  0.86443732  0.37051419  1
  Al  Al123  1  0.24328096  0.87229393  0.85941388  1
  Al  Al124  1  0.74896486  0.36977220  0.35944476  1
  Al  Al125  1  0.75478022  0.36346073  0.86546178  1
  Al  Al126  1  0.75097161  0.86781745  0.36436489  1
  Al  Al127  1  0.75667437  0.86629201  0.87038323  1
  Al  Al128  1  0.13177578  0.25020486  0.13462376  1
  Al  Al129  1  0.13810067  0.24718291  0.63894147  1
  Al  Al130  1  0.13384236  0.74926071  0.13669877  1
  Al  Al131  1  0.13113723  0.75246049  0.63175515  1
  Al  Al132  1  0.63206886  0.24624212  0.13850365  1
  Al  Al133  1  0.63226999  0.24386813  0.63421601  1
  Al  Al134  1  0.63900115  0.75330609  0.13358425  1
  Al  Al135  1  0.63838086  0.75344577  0.63773395  1
  Al  Al136  1  0.13238905  0.25052013  0.36332579  1
  Al  Al137  1  0.13988289  0.24545469  0.86928422  1
  Al  Al138  1  0.13082384  0.75113311  0.36675063  1
  Al  Al139  1  0.12676532  0.75518120  0.85986095  1
  Al  Al140  1  0.63438692  0.24665594  0.36235690  1
  Al  Al141  1  0.63029284  0.24668763  0.86196644  1
  Al  Al142  1  0.64008350  0.75224688  0.36351627  1
  Al  Al143  1  0.64031978  0.75797709  0.86797883  1
  Al  Al144  1  0.36370202  0.25035759  0.13372905  1
  Al  Al145  1  0.36464254  0.24261037  0.63625140  1
  Al  Al146  1  0.36149548  0.75107171  0.13794296  1
  Al  Al147  1  0.36118760  0.75748796  0.63311556  1
  Al  Al148  1  0.87033243  0.25113488  0.13706346  1
  Al  Al149  1  0.86253852  0.24573275  0.64001683  1
  Al  Al150  1  0.86384008  0.75434854  0.12842734  1
  Al  Al151  1  0.87402003  0.75596777  0.64162507  1
  Al  Al152  1  0.36745480  0.24804366  0.36365466  1
  Al  Al153  1  0.36735463  0.25121011  0.86427967  1
  Al  Al154  1  0.36260290  0.75405075  0.36832232  1
  Al  Al155  1  0.35910528  0.75363199  0.86074278  1
  Al  Al156  1  0.86143121  0.24859487  0.36129320  1
  Al  Al157  1  0.86526583  0.24770864  0.86249580  1
  Al  Al158  1  0.87054751  0.75475211  0.36188245  1
  Al  Al159  1  0.86953423  0.75303112  0.86784464  1
  Al  Al160  1  0.13125711  0.13558888  0.24446362  1
  Al  Al161  1  0.13742103  0.13063431  0.75459757  1
  Al  Al162  1  0.13220788  0.63286917  0.25655852  1
  Al  Al163  1  0.12633785  0.63671254  0.74765372  1
  Al  Al164  1  0.63594835  0.12722383  0.24945408  1
  Al  Al165  1  0.62922959  0.13201608  0.74810422  1
  Al  Al166  1  0.63708406  0.63719760  0.24703703  1
  Al  Al167  1  0.64061756  0.63956571  0.75309659  1
  Al  Al168  1  0.36498808  0.13668023  0.24647221  1
  Al  Al169  1  0.36838213  0.13404305  0.75372478  1
  Al  Al170  1  0.36207707  0.63595190  0.25224261  1
  Al  Al171  1  0.36179130  0.63031164  0.75008968  1
  Al  Al172  1  0.86708355  0.13206755  0.24376457  1
  Al  Al173  1  0.86318070  0.12659741  0.75285479  1
  Al  Al174  1  0.86672802  0.63477488  0.25541200  1
  Al  Al175  1  0.87238948  0.63565329  0.75301048  1
  Al  Al176  1  0.13197351  0.36283363  0.24919858  1
  Al  Al177  1  0.13870523  0.36630866  0.75520156  1
  Al  Al178  1  0.13396345  0.86450495  0.25233781  1
  Al  Al179  1  0.13226994  0.86685097  0.74666032  1
  Al  Al180  1  0.63104488  0.36295679  0.25235554  1
  Al  Al181  1  0.63151513  0.36170502  0.75067639  1
  Al  Al182  1  0.63886532  0.87163946  0.24761510  1
  Al  Al183  1  0.63892749  0.86878015  0.74854313  1
  Al  Al184  1  0.36371508  0.36203892  0.25281381  1
  Al  Al185  1  0.36266173  0.36794170  0.74888446  1
  Al  Al186  1  0.36203008  0.86560210  0.25070555  1
  Al  Al187  1  0.36396260  0.86702038  0.74871465  1
  Al  Al188  1  0.86939782  0.36510764  0.25117392  1
  Al  Al189  1  0.86446149  0.37018899  0.75006312  1
  Al  Al190  1  0.86380817  0.86917916  0.24669243  1
  Al  Al191  1  0.86803785  0.87011082  0.75502080  1
  Al  Al192  1  0.67229043  0.67221848  0.50263120  1
  Al  Al193  1  0.49977390  0.67016064  0.82877701  1
  Al  Al194  1  0.81402107  0.17354949  0.50133212  1
  Al  Al195  1  0.16900413  0.49901263  0.18215610  1
  Al  Al196  1  0.31851974  0.49947766  0.33169309  1
  Al  Al197  1  0.31703555  0.67889889  0.50169125  1
  Al  Al198  1  0.50110215  0.83294396  0.82471261  1
  Al  Al199  1  0.49954884  0.67434276  0.32047779  1
  Al  Al200  1  0.00194557  0.31671829  0.82760013  1
  Al  Al201  1  0.68321834  0.82642939  0.50096910  1
  Al  Al202  1  0.67175612  0.17068206  0.00117252  1
  Al  Al203  1  0.31600258  0.00204361  0.17304675  1
  Al  Al204  1  0.67382362  0.49922867  0.17893159  1
  Al  Al205  1  0.82663202  0.17594190  0.00134683  1
  Al  Al206  1  0.00087804  0.32408852  0.67682219  1
  Al  Al207  1  0.00054633  0.17118408  0.68241740  1
  Al  Al208  1  0.50171790  0.83170074  0.32703241  1
  Al  Al209  1  0.33092463  0.67484835  -0.00111133  1
  Al  Al210  1  0.49694223  0.31490472  0.67675117  1
  Al  Al211  1  -0.00080500  0.82788256  0.17952949  1
  Al  Al212  1  0.32390196  0.49755256  0.17475801  1
  Al  Al213  1  0.67774726  0.50168496  0.66927654  1
  Al  Al214  1  0.68866341  0.68709503  -0.00039738  1
  Al  Al215  1  -0.00150111  0.67471458  0.18027448  1
  Al  Al216  1  0.31274269  0.18691555  -0.00054155  1
  Al  Al217  1  0.32482478  0.82801395  0.00039098  1
  Al  Al218  1  0.17257015  0.00213533  0.31284221  1
  Al  Al219  1  0.68426619  -0.00006257  0.82449409  1
  Al  Al220  1  0.18257998  0.49943535  0.67813218  1
  Al  Al221  1  0.49811413  0.68177819  0.67292540  1
  Al  Al222  1  0.32878624  0.00188774  0.32726058  1
  Al  Al223  1  0.83314156  0.49938625  0.17274021  1
  Al  Al224  1  0.67552479  0.31066424  0.49933530  1
  Al  Al225  1  0.17112587  0.67443161  -0.00229239  1
  Al  Al226  1  0.82569154  0.68448501  0.49870024  1
  Al  Al227  1  0.17086637  0.82810662  -0.00181795  1
  Al  Al228  1  -0.00233916  0.18490708  0.32024671  1
  Al  Al229  1  0.31211748  0.00097579  0.68179817  1
  Al  Al230  1  0.68217772  0.32709083  -0.00072306  1
  Al  Al231  1  0.82795547  0.32963594  0.49783400  1
  Al  Al232  1  0.50009480  0.82394563  0.17345265  1
  Al  Al233  1  0.17265827  0.32048951  0.49970773  1
  Al  Al234  1  0.68792235  0.49941133  0.82535108  1
  Al  Al235  1  0.32498332  0.31941046  0.49939941  1
  Al  Al236  1  0.81449317  0.00216965  0.31512797  1
  Al  Al237  1  0.49760291  0.31460461  0.18492504  1
  Al  Al238  1  0.50048649  0.17900266  0.31533786  1
  Au  Au239  1  0.49767914  0.32973242  0.83921214  1
  Au  Au240  1  0.84073509  -0.00146055  0.67555854  1
  Au  Au241  1  0.84847931  0.32492425  -0.00228467  1
  Au  Au242  1  0.82703061  0.00238916  0.32684626  1
  Au  Au243  1  0.49454398  0.32654857  0.66466531  1
  Au  Au244  1  0.83319461  0.83234628  0.50437385  1
  Au  Au245  1  0.83991280  0.50219661  0.33685110  1
  Au  Au246  1  0.17587049  0.00037237  0.32939980  1
  Au  Au247  1  0.16337891  0.16983815  0.50610632  1
  Au  Au248  1  0.32666449  0.17749229  0.00242115  1
  Au  Au249  1  0.33119568  0.49534792  0.82365164  1
  Au  Au250  1  0.50405237  0.67630778  0.33682980  1
  Au  Au251  1  0.00090164  0.16406347  0.83359151  1
  Au  Au252  1  0.15977020  0.83988975  -0.00176712  1
  Au  Au253  1  0.83629597  0.50301716  0.16118616  1
  Au  Au254  1  0.83151325  0.83285927  -0.00052824  1
  Au  Au255  1  -0.00278710  0.17769255  0.33580904  1
  Au  Au256  1  0.17661858  0.50006430  0.66228799  1
  Au  Au257  1  0.67653156  0.67511779  -0.00336957  1
  Au  Au258  1  0.16573610  0.49750708  0.84067938  1
  Au  Au259  1  0.50091585  0.16158776  0.82543864  1
  Au  Au260  1  0.00169090  0.82515582  0.32965690  1
  Au  Au261  1  0.00119128  0.17347575  0.16043004  1
  Au  Au262  1  0.50099878  0.65405698  0.82221852  1
  Au  Au263  1  0.49625604  0.67461849  0.16072744  1
  Au  Au264  1  0.83833377  0.50379793  0.67789736  1
  Au  Au265  1  0.66542182  0.32428174  -0.00014258  1
  Au  Au266  1  0.32364041  0.65929502  0.00026998  1
  Au  Au267  1  0.66668177  0.49859921  0.34033553  1
  Au  Au268  1  0.33636854  0.16895905  0.50264981  1
  Au  Au269  1  0.32072590  -0.00050766  0.82928495  1
  Au  Au270  1  0.00052675  0.67914815  0.66710654  1
  Au  Au271  1  0.66203750  0.50186327  0.67591784  1
  Au  Au272  1  0.66041738  0.31975712  0.49703850  1
  Au  Au273  1  0.67967784  -0.00130625  0.84058018  1
  Au  Au274  1  0.66130227  0.49962522  0.16632661  1
  Au  Au275  1  0.16351860  0.67856452  0.49580365  1
  Au  Au276  1  0.50066900  0.83570030  0.84155558  1
  Au  Au277  1  -0.00207110  0.67687798  0.83782901  1
  Au  Au278  1  0.67267870  0.00036650  0.17095710  1
  Au  Au279  1  0.49425580  0.32653043  0.17274041  1
  Au  Au280  1  0.50296757  0.16718486  0.32699058  1
  Au  Au281  1  0.32926157  0.67522791  0.50161698  1
  Au  Au282  1  0.84353040  0.32191378  0.49630965  1
  Au  Au283  1  0.00370901  0.33539755  0.66462282  1
  Au  Au284  1  0.33519355  0.49583545  0.32956710  1
  Au  Au285  1  0.16659032  0.49838729  0.16589150  1
  Au  Au286  1  0.49713274  0.83058824  0.65528446  1
  Au  Au287  1  0.66518101  0.00329233  0.66091907  1
