# generated using pymatgen
data_Ca24Ti8Al207Au49
_symmetry_space_group_name_H-M   'P 1'
_cell_length_a   17.31850068
_cell_length_b   17.31935980
_cell_length_c   17.31823937
_cell_angle_alpha   89.99996211
_cell_angle_beta   89.99814523
_cell_angle_gamma   89.99391160
_symmetry_Int_Tables_number   1
_chemical_formula_structural   Ca24Ti8Al207Au49
_chemical_formula_sum   'Ca24 Ti8 Al207 Au49'
_cell_volume   5194.52523968
_cell_formula_units_Z   1
loop_
 _symmetry_equiv_pos_site_id
 _symmetry_equiv_pos_as_xyz
  1  'x, y, z'
loop_
 _atom_site_type_symbol
 _atom_site_label
 _atom_site_symmetry_multiplicity
 _atom_site_fract_x
 _atom_site_fract_y
 _atom_site_fract_z
 _atom_site_occupancy
  Ca  Ca0  1  0.24559471  -0.00136510  -0.00363335  1
  Ca  Ca1  1  0.24614162  0.00151130  0.50065305  1
  Ca  Ca2  1  0.23969871  0.50468604  -0.00371952  1
  Ca  Ca3  1  0.24844951  0.49586872  0.50127542  1
  Ca  Ca4  1  0.75030537  0.00277794  0.00016659  1
  Ca  Ca5  1  0.75312323  0.00060655  0.49657263  1
  Ca  Ca6  1  0.75323655  0.49962734  0.00382166  1
  Ca  Ca7  1  0.75405219  0.50143375  0.50155955  1
  Ca  Ca8  1  -0.00657768  0.25936927  -0.00069050  1
  Ca  Ca9  1  0.00219932  0.24904668  0.50010655  1
  Ca  Ca10  1  -0.00260772  0.74299612  -0.00039856  1
  Ca  Ca11  1  -0.00073772  0.75293427  0.49659126  1
  Ca  Ca12  1  0.50427480  0.25654409  0.00125046  1
  Ca  Ca13  1  0.49870475  0.25107824  0.49885558  1
  Ca  Ca14  1  0.49809361  0.74242442  -0.00123380  1
  Ca  Ca15  1  0.50017475  0.75004972  0.50050450  1
  Ca  Ca16  1  -0.00049751  -0.00093791  0.25683867  1
  Ca  Ca17  1  -0.00085721  0.00060137  0.74067278  1
  Ca  Ca18  1  0.00001120  0.49959068  0.25023156  1
  Ca  Ca19  1  -0.00147296  0.49995514  0.75326575  1
  Ca  Ca20  1  0.50085264  0.00091829  0.25449929  1
  Ca  Ca21  1  0.50286066  -0.00083016  0.74442576  1
  Ca  Ca22  1  0.49892842  0.49788192  0.25062066  1
  Ca  Ca23  1  0.50044223  0.49894649  0.74877894  1
  Ti  Ti24  1  0.24953792  0.25172868  0.25265422  1
  Ti  Ti25  1  0.24878029  0.25141852  0.74909006  1
  Ti  Ti26  1  0.24901740  0.74807997  0.25223075  1
  Ti  Ti27  1  0.25125618  0.74893076  0.74948779  1
  Ti  Ti28  1  0.75010331  0.25041174  0.25071271  1
  Ti  Ti29  1  0.75034448  0.24926352  0.74952082  1
  Ti  Ti30  1  0.75149672  0.74898604  0.25188955  1
  Ti  Ti31  1  0.74943362  0.75000562  0.74860680  1
  Al  Al32  1  0.07678136  0.07340169  0.08785474  1
  Al  Al33  1  0.08683366  0.08832151  0.57822784  1
  Al  Al34  1  0.08189894  0.59043841  0.07432311  1
  Al  Al35  1  0.07795028  0.58972455  0.59245935  1
  Al  Al36  1  0.59194813  0.09170986  0.08095756  1
  Al  Al37  1  0.58233129  0.07567432  0.57948923  1
  Al  Al38  1  0.58089845  0.57747290  0.09722960  1
  Al  Al39  1  0.58010877  0.57902157  0.57751763  1
  Al  Al40  1  0.42366466  0.42041469  0.09782918  1
  Al  Al41  1  0.42221756  0.41196462  0.58218129  1
  Al  Al42  1  0.42366100  0.91992732  0.07558532  1
  Al  Al43  1  0.40762553  0.91977355  0.58882498  1
  Al  Al44  1  0.91067207  0.42017698  0.08754158  1
  Al  Al45  1  0.91942646  0.41195195  0.59521817  1
  Al  Al46  1  0.91742788  0.91840182  0.08871312  1
  Al  Al47  1  0.91403094  0.92477003  0.58615566  1
  Al  Al48  1  0.42055740  0.08902566  0.42469507  1
  Al  Al49  1  0.43040050  0.07671945  0.90786306  1
  Al  Al50  1  0.41027503  0.58807848  0.41645212  1
  Al  Al51  1  0.41286600  0.57970417  0.92045437  1
  Al  Al52  1  0.90834285  0.08313673  0.41785234  1
  Al  Al53  1  0.91548700  0.08698992  0.91761272  1
  Al  Al54  1  0.91979110  0.57899589  0.41727702  1
  Al  Al55  1  0.92283337  0.58000350  0.90539571  1
  Al  Al56  1  0.08429011  0.40998451  0.41689672  1
  Al  Al57  1  0.08217877  0.42040162  0.90425699  1
  Al  Al58  1  0.08392354  0.91606394  0.40983702  1
  Al  Al59  1  0.07469684  0.91548167  0.91352132  1
  Al  Al60  1  0.57820190  0.41599182  0.40430033  1
  Al  Al61  1  0.58633743  0.41441220  0.91968788  1
  Al  Al62  1  0.60327705  0.91633606  0.41641560  1
  Al  Al63  1  0.58302924  0.91935508  0.92090885  1
  Al  Al64  1  0.08839052  0.08045609  0.41600704  1
  Al  Al65  1  0.07281796  0.08108318  0.91501251  1
  Al  Al66  1  0.07970156  0.57715105  0.41858781  1
  Al  Al67  1  0.08757423  0.58734945  0.90614919  1
  Al  Al68  1  0.58644253  0.07731141  0.40826286  1
  Al  Al69  1  0.58822746  0.09419025  0.92081744  1
  Al  Al70  1  0.58455234  0.57911183  0.41389607  1
  Al  Al71  1  0.57761495  0.57475270  0.92020564  1
  Al  Al72  1  0.41893094  0.41116592  0.40908056  1
  Al  Al73  1  0.42135137  0.42362473  0.91358745  1
  Al  Al74  1  0.41737200  0.92111149  0.42600421  1
  Al  Al75  1  0.42017549  0.91922232  0.91217428  1
  Al  Al76  1  0.92210755  0.41061452  0.41186756  1
  Al  Al77  1  0.91671020  0.41668698  0.90793524  1
  Al  Al78  1  0.91774099  0.91876147  0.40814257  1
  Al  Al79  1  0.91907055  0.91210786  0.91362243  1
  Al  Al80  1  0.07234740  0.42346040  0.07591685  1
  Al  Al81  1  0.08180612  0.40696331  0.58679660  1
  Al  Al82  1  0.08081879  0.91608353  0.09157009  1
  Al  Al83  1  0.07974974  0.92224756  0.57622820  1
  Al  Al84  1  0.58811092  0.41395911  0.09724988  1
  Al  Al85  1  0.57717712  0.41576697  0.58927134  1
  Al  Al86  1  0.58582490  0.92199325  0.07886095  1
  Al  Al87  1  0.59208139  0.91103936  0.57633988  1
  Al  Al88  1  0.43058189  0.07964816  0.08198957  1
  Al  Al89  1  0.40387190  0.08166172  0.58507912  1
  Al  Al90  1  0.41686473  0.58227184  0.09614555  1
  Al  Al91  1  0.41327324  0.58778087  0.57468111  1
  Al  Al92  1  0.91354925  0.08114090  0.08255708  1
  Al  Al93  1  0.90925453  0.08780779  0.58047912  1
  Al  Al94  1  0.91839424  0.57902279  0.09075677  1
  Al  Al95  1  0.91988991  0.58521552  0.59795327  1
  Al  Al96  1  0.25107161  0.13920448  0.13796547  1
  Al  Al97  1  0.24551592  0.13890967  0.63367991  1
  Al  Al98  1  0.25154493  0.63525499  0.13504299  1
  Al  Al99  1  0.25018293  0.63371958  0.63708273  1
  Al  Al100  1  0.74754689  0.13569547  0.13663155  1
  Al  Al101  1  0.75337000  0.13074255  0.63332378  1
  Al  Al102  1  0.75090275  0.63013680  0.13759264  1
  Al  Al103  1  0.75013690  0.63669126  0.63333444  1
  Al  Al104  1  0.25185311  0.36734904  0.14124457  1
  Al  Al105  1  0.24378464  0.36637287  0.63746903  1
  Al  Al106  1  0.24859200  0.85958331  0.13659914  1
  Al  Al107  1  0.25483531  0.86327372  0.63557346  1
  Al  Al108  1  0.74795597  0.37144519  0.13857063  1
  Al  Al109  1  0.75652082  0.36407497  0.63556126  1
  Al  Al110  1  0.75231546  0.86343966  0.13826018  1
  Al  Al111  1  0.74908209  0.86636355  0.63278923  1
  Al  Al112  1  0.24493979  0.13718336  0.36695470  1
  Al  Al113  1  0.25381393  0.13532231  0.86050859  1
  Al  Al114  1  0.25484640  0.63439409  0.36441926  1
  Al  Al115  1  0.24913031  0.63744645  0.86945605  1
  Al  Al116  1  0.75124102  0.13287585  0.36429122  1
  Al  Al117  1  0.74777330  0.13409739  0.86357977  1
  Al  Al118  1  0.75032913  0.63656151  0.36969285  1
  Al  Al119  1  0.75806026  0.63408559  0.86436516  1
  Al  Al120  1  0.25288210  0.36639874  0.36561402  1
  Al  Al121  1  0.24631115  0.36606282  0.86189250  1
  Al  Al122  1  0.24800920  0.86496220  0.36394582  1
  Al  Al123  1  0.25483153  0.86354270  0.86183437  1
  Al  Al124  1  0.75154520  0.36371440  0.36698646  1
  Al  Al125  1  0.75405358  0.36639683  0.86230208  1
  Al  Al126  1  0.75171092  0.86744404  0.36467241  1
  Al  Al127  1  0.75158766  0.86572152  0.86317881  1
  Al  Al128  1  0.13558407  0.25310485  0.14034778  1
  Al  Al129  1  0.12838826  0.25102023  0.63760020  1
  Al  Al130  1  0.13441926  0.74776215  0.13629140  1
  Al  Al131  1  0.13224894  0.74299950  0.63798406  1
  Al  Al132  1  0.63895957  0.25291970  0.13208223  1
  Al  Al133  1  0.63691135  0.25242710  0.63540191  1
  Al  Al134  1  0.63660632  0.74776174  0.14024602  1
  Al  Al135  1  0.63438269  0.75048569  0.62981308  1
  Al  Al136  1  0.13343001  0.25213815  0.36623178  1
  Al  Al137  1  0.13145645  0.25516276  0.86374671  1
  Al  Al138  1  0.12887577  0.75007221  0.36518827  1
  Al  Al139  1  0.13405301  0.74269899  0.86509287  1
  Al  Al140  1  0.63416066  0.25422650  0.36393349  1
  Al  Al141  1  0.63926376  0.25287674  0.87165564  1
  Al  Al142  1  0.63830911  0.74966228  0.37185646  1
  Al  Al143  1  0.63291442  0.74956748  0.86364094  1
  Al  Al144  1  0.36698613  0.25693350  0.13850588  1
  Al  Al145  1  0.36291864  0.25407922  0.63534039  1
  Al  Al146  1  0.36812148  0.74109464  0.13741627  1
  Al  Al147  1  0.36840225  0.75029779  0.63169163  1
  Al  Al148  1  0.86194187  0.25099265  0.13614689  1
  Al  Al149  1  0.86683214  0.24884557  0.63179774  1
  Al  Al150  1  0.86281724  0.74877000  0.13031692  1
  Al  Al151  1  0.86727423  0.74584652  0.63265928  1
  Al  Al152  1  0.36548736  0.25405463  0.36410179  1
  Al  Al153  1  0.36505173  0.25263836  0.86149576  1
  Al  Al154  1  0.36467728  0.74757390  0.37141289  1
  Al  Al155  1  0.37043215  0.74709213  0.86277970  1
  Al  Al156  1  0.86234347  0.24951931  0.37188631  1
  Al  Al157  1  0.86643771  0.25178772  0.86550100  1
  Al  Al158  1  0.86973765  0.75031947  0.36634615  1
  Al  Al159  1  0.86340762  0.74861314  0.86930513  1
  Al  Al160  1  0.13521550  0.13472305  0.25465620  1
  Al  Al161  1  0.13217967  0.13646110  0.74996352  1
  Al  Al162  1  0.13483256  0.63521357  0.25301747  1
  Al  Al163  1  0.13727282  0.62818450  0.75390013  1
  Al  Al164  1  0.63598764  0.13605833  0.25480096  1
  Al  Al165  1  0.63792616  0.12960260  0.74488668  1
  Al  Al166  1  0.63195294  0.63775953  0.25168378  1
  Al  Al167  1  0.63071949  0.63848448  0.74986930  1
  Al  Al168  1  0.36531862  0.13754040  0.25482782  1
  Al  Al169  1  0.36336110  0.13113268  0.74326520  1
  Al  Al170  1  0.36779530  0.63089605  0.25102679  1
  Al  Al171  1  0.36944785  0.63790813  0.74917033  1
  Al  Al172  1  0.86282822  0.13563943  0.25488989  1
  Al  Al173  1  0.86688102  0.13490158  0.74535081  1
  Al  Al174  1  0.86518987  0.63650211  0.24987275  1
  Al  Al175  1  0.87106021  0.63858175  0.75150552  1
  Al  Al176  1  0.13243613  0.36563007  0.25451218  1
  Al  Al177  1  0.13051259  0.36805600  0.75034511  1
  Al  Al178  1  0.12924972  0.86184786  0.25341855  1
  Al  Al179  1  0.13554727  0.86062779  0.74833660  1
  Al  Al180  1  0.63126887  0.36397131  0.24768411  1
  Al  Al181  1  0.63039405  0.36199559  0.75288352  1
  Al  Al182  1  0.63669944  0.86494029  0.25640853  1
  Al  Al183  1  0.63345664  0.86778828  0.74532091  1
  Al  Al184  1  0.36643151  0.37010986  0.25232931  1
  Al  Al185  1  0.36946669  0.36411700  0.75061689  1
  Al  Al186  1  0.36658994  0.85907715  0.25267249  1
  Al  Al187  1  0.37067386  0.86496798  0.74824243  1
  Al  Al188  1  0.86493182  0.36195727  0.25081608  1
  Al  Al189  1  0.87126176  0.36142885  0.75104698  1
  Al  Al190  1  0.86855636  0.86197459  0.25300756  1
  Al  Al191  1  0.86382359  0.86410571  0.74459274  1
  Al  Al192  1  0.82805509  0.49969939  0.31086283  1
  Al  Al193  1  0.50172905  0.82242517  0.33287434  1
  Al  Al194  1  0.49892584  0.18291849  0.66437688  1
  Al  Al195  1  0.82408695  -0.00015991  0.81500797  1
  Al  Al196  1  0.69027569  0.50169919  0.82803027  1
  Al  Al197  1  0.67035334  -0.00022818  0.18781737  1
  Al  Al198  1  0.18183876  0.31158997  0.50143848  1
  Al  Al199  1  0.67429798  0.50007923  0.31081480  1
  Al  Al200  1  0.68689764  0.17327724  0.49829244  1
  Al  Al201  1  0.67456063  0.49935339  0.67189606  1
  Al  Al202  1  0.31347288  0.00201726  0.33053601  1
  Al  Al203  1  0.32906900  -0.00132409  0.17376749  1
  Al  Al204  1  0.18539857  0.66733369  0.49800858  1
  Al  Al205  1  0.17968840  0.49964388  0.32490278  1
  Al  Al206  1  0.32898526  0.81670344  0.00000069  1
  Al  Al207  1  0.00005385  0.81907508  0.67084744  1
  Al  Al208  1  0.17916718  -0.00125148  0.82824680  1
  Al  Al209  1  0.67538882  0.66860378  0.00236944  1
  Al  Al210  1  0.18099657  0.50200017  0.16688774  1
  Al  Al211  1  0.82657475  0.50038912  0.69023559  1
  Al  Al212  1  0.81993452  0.82557520  0.49859503  1
  Al  Al213  1  0.32973728  0.33574034  0.00295016  1
  Al  Al214  1  0.17116447  0.32905071  -0.00009233  1
  Al  Al215  1  0.31359237  0.50165894  0.82522224  1
  Al  Al216  1  0.82689181  0.00014479  0.18926524  1
  Al  Al217  1  0.50030780  0.18372220  0.32817492  1
  Al  Al218  1  0.16918541  0.81544009  -0.00162285  1
  Al  Al219  1  0.68015366  0.82444631  0.00061669  1
  Al  Al220  1  -0.00015671  0.68067320  0.18085672  1
  Al  Al221  1  0.17303170  -0.00121250  0.18889253  1
  Al  Al222  1  0.31112807  0.18118134  0.49988973  1
  Al  Al223  1  0.81630630  0.17508500  0.00058902  1
  Al  Al224  1  0.18272308  -0.00055926  0.67037777  1
  Al  Al225  1  0.67554214  0.33306808  0.49991872  1
  Al  Al226  1  -0.00137667  0.18536068  0.33059658  1
  Al  Al227  1  0.16808641  0.16963864  0.00369215  1
  Al  Al228  1  -0.00053484  0.32805897  0.18071273  1
  Al  Al229  1  0.82034653  0.32924898  0.00035323  1
  Al  Al230  1  0.33272460  0.17275067  -0.00387430  1
  Al  Al231  1  0.50075573  0.81718787  0.17263234  1
  Al  Al232  1  -0.00165790  0.17410363  0.17515424  1
  Al  Al233  1  0.32155866  0.49881626  0.67364035  1
  Al  Al234  1  -0.00129476  0.80899090  0.82236473  1
  Al  Al235  1  0.50300356  0.19161779  0.17396481  1
  Al  Al236  1  0.50396679  0.18420424  0.82193738  1
  Al  Al237  1  0.17912690  0.82511753  0.50042482  1
  Al  Al238  1  -0.00194552  0.18223635  0.81578206  1
  Au  Au239  1  0.49981646  0.33247068  0.82767513  1
  Au  Au240  1  0.49953213  0.66170430  0.32509049  1
  Au  Au241  1  0.32921982  0.82754966  0.50189291  1
  Au  Au242  1  0.65935802  0.67052239  0.00756586  1
  Au  Au243  1  -0.00267341  0.17926978  0.82820240  1
  Au  Au244  1  -0.00253615  0.82949838  0.17799469  1
  Au  Au245  1  0.50586983  0.83907641  0.33505516  1
  Au  Au246  1  0.82621539  0.49679999  0.32740151  1
  Au  Au247  1  -0.00136215  0.16915599  0.33250828  1
  Au  Au248  1  0.67444104  0.16169961  0.49607135  1
  Au  Au249  1  0.83513933  0.66273643  0.50413704  1
  Au  Au250  1  0.82672109  0.84062768  0.49777825  1
  Au  Au251  1  0.16872820  0.66957035  0.50074902  1
  Au  Au252  1  0.66310716  0.00307134  0.83176402  1
  Au  Au253  1  0.83906806  -0.00039682  0.82288754  1
  Au  Au254  1  0.50051824  0.66804733  0.66378373  1
  Au  Au255  1  0.84020790  0.65964406  -0.00205810  1
  Au  Au256  1  0.49765182  0.66289760  0.83168769  1
  Au  Au257  1  0.33258285  0.32722199  0.50028866  1
  Au  Au258  1  0.00126277  0.83140560  0.66803921  1
  Au  Au259  1  0.50369858  0.82396974  0.15700541  1
  Au  Au260  1  0.15214618  0.17477826  0.00671373  1
  Au  Au261  1  0.32585908  0.35182411  0.00652726  1
  Au  Au262  1  0.33989172  0.00042631  0.81633640  1
  Au  Au263  1  0.49797100  0.16704066  0.67044025  1
  Au  Au264  1  0.82872779  0.83831032  0.00178475  1
  Au  Au265  1  0.66469325  0.67183414  0.49987142  1
  Au  Au266  1  0.67675320  -0.00052795  0.17182714  1
  Au  Au267  1  0.16320028  -0.00160761  0.82159676  1
  Au  Au268  1  0.32534267  0.65717690  0.00644956  1
  Au  Au269  1  0.67390987  0.50104080  0.82334906  1
  Au  Au270  1  0.66365897  0.33485220  0.49716630  1
  Au  Au271  1  0.67093111  0.32736180  0.00459231  1
  Au  Au272  1  0.33008757  0.49972595  0.32977648  1
  Au  Au273  1  0.16431282  0.50129536  0.16857717  1
  Au  Au274  1  0.00083830  0.67062975  0.33005772  1
  Au  Au275  1  0.84070854  0.32642157  0.50278814  1
  Au  Au276  1  0.15650128  0.49835981  0.67716071  1
  Au  Au277  1  0.50183767  0.17440566  0.17598214  1
  Au  Au278  1  0.32027752  -0.00095063  0.15845807  1
  Au  Au279  1  0.15606655  0.82611898  -0.00019175  1
  Au  Au280  1  0.67862458  -0.00333636  0.66170968  1
  Au  Au281  1  0.50168988  0.83608998  0.66464729  1
  Au  Au282  1  0.32725093  0.00615297  0.33973984  1
  Au  Au283  1  0.34064835  0.15831527  -0.00771529  1
  Au  Au284  1  0.50553642  0.82952242  0.83297685  1
  Au  Au285  1  -0.00149776  0.17423290  0.66227191  1
  Au  Au286  1  0.32932746  0.83379787  -0.00506389  1
  Au  Au287  1  0.33762139  0.49955192  0.67078691  1
