# generated using pymatgen
data_Ca24Ti8Al207Au49
_symmetry_space_group_name_H-M   'P 1'
_cell_length_a   17.32313854
_cell_length_b   17.32202441
_cell_length_c   17.32390220
_cell_angle_alpha   90.00028522
_cell_angle_beta   89.99818257
_cell_angle_gamma   90.00030073
_symmetry_Int_Tables_number   1
_chemical_formula_structural   Ca24Ti8Al207Au49
_chemical_formula_sum   'Ca24 Ti8 Al207 Au49'
_cell_volume   5198.41501026
_cell_formula_units_Z   1
loop_
 _symmetry_equiv_pos_site_id
 _symmetry_equiv_pos_as_xyz
  1  'x, y, z'
loop_
 _atom_site_type_symbol
 _atom_site_label
 _atom_site_symmetry_multiplicity
 _atom_site_fract_x
 _atom_site_fract_y
 _atom_site_fract_z
 _atom_site_occupancy
  Ca  Ca0  1  0.25114204  0.00446528  -0.00386325  1
  Ca  Ca1  1  0.25056935  -0.00071506  0.50285416  1
  Ca  Ca2  1  0.24886959  0.49494147  -0.00223981  1
  Ca  Ca3  1  0.24648064  0.50014493  0.50389167  1
  Ca  Ca4  1  0.74628764  -0.00033179  -0.00061698  1
  Ca  Ca5  1  0.74717858  -0.00058622  0.50236027  1
  Ca  Ca6  1  0.74841357  0.50164147  -0.00072044  1
  Ca  Ca7  1  0.74844935  0.49879415  0.50293768  1
  Ca  Ca8  1  0.00235188  0.24533485  -0.00144255  1
  Ca  Ca9  1  0.00002999  0.24359699  0.50107340  1
  Ca  Ca10  1  -0.00796079  0.75338582  -0.00395306  1
  Ca  Ca11  1  -0.00117405  0.75668623  0.50191189  1
  Ca  Ca12  1  0.49982596  0.24639182  -0.00151367  1
  Ca  Ca13  1  0.50342164  0.24491428  0.50244625  1
  Ca  Ca14  1  0.50535627  0.75732146  -0.00538051  1
  Ca  Ca15  1  0.50192706  0.75896497  0.50328948  1
  Ca  Ca16  1  -0.00155193  -0.00198345  0.25024682  1
  Ca  Ca17  1  0.00187700  -0.00268816  0.74607668  1
  Ca  Ca18  1  -0.00372054  0.50056205  0.24946517  1
  Ca  Ca19  1  -0.00490153  0.50150212  0.75211807  1
  Ca  Ca20  1  0.50192834  -0.00075437  0.25231896  1
  Ca  Ca21  1  0.49972727  -0.00238093  0.74835623  1
  Ca  Ca22  1  0.50042885  0.49848242  0.24939693  1
  Ca  Ca23  1  0.50367054  0.49969493  0.75297815  1
  Ti  Ti24  1  0.25103618  0.24838050  0.24823031  1
  Ti  Ti25  1  0.25146064  0.24805496  0.74973916  1
  Ti  Ti26  1  0.25034914  0.75206328  0.25268324  1
  Ti  Ti27  1  0.24811971  0.75337051  0.74868186  1
  Ti  Ti28  1  0.74812989  0.24878446  0.24970353  1
  Ti  Ti29  1  0.74772374  0.25016584  0.74933612  1
  Ti  Ti30  1  0.74929843  0.75194155  0.25080387  1
  Ti  Ti31  1  0.75181366  0.75003545  0.74888911  1
  Al  Al32  1  0.08735671  0.09681065  0.08007894  1
  Al  Al33  1  0.09816837  0.07849604  0.58661244  1
  Al  Al34  1  0.07203553  0.57852024  0.08247477  1
  Al  Al35  1  0.07658284  0.58939210  0.57967719  1
  Al  Al36  1  0.57821873  0.08932557  0.08582323  1
  Al  Al37  1  0.59148957  0.08046403  0.58532687  1
  Al  Al38  1  0.58912571  0.58885883  0.07282369  1
  Al  Al39  1  0.58820141  0.57958613  0.59019207  1
  Al  Al40  1  0.41918921  0.41244341  0.07647455  1
  Al  Al41  1  0.42446334  0.41109744  0.58152027  1
  Al  Al42  1  0.42573765  0.92292920  0.07502336  1
  Al  Al43  1  0.40933226  0.91354391  0.59117205  1
  Al  Al44  1  0.91096825  0.40811475  0.07720991  1
  Al  Al45  1  0.91409958  0.41759893  0.58461114  1
  Al  Al46  1  0.90926668  0.91575372  0.07362187  1
  Al  Al47  1  0.91419904  0.91015966  0.58640977  1
  Al  Al48  1  0.41402946  0.08778424  0.42575013  1
  Al  Al49  1  0.40962336  0.08170089  0.91501227  1
  Al  Al50  1  0.42006215  0.58472117  0.42523671  1
  Al  Al51  1  0.42924074  0.57651829  0.91531014  1
  Al  Al52  1  0.91493712  0.08147457  0.42401004  1
  Al  Al53  1  0.92151156  0.08063318  0.91666462  1
  Al  Al54  1  0.91429502  0.58836063  0.42203072  1
  Al  Al55  1  0.90904833  0.58734323  0.91967146  1
  Al  Al56  1  0.08748154  0.42078579  0.42167156  1
  Al  Al57  1  0.08310806  0.41608024  0.92025044  1
  Al  Al58  1  0.08992050  0.91363920  0.42457835  1
  Al  Al59  1  0.08607786  0.92538174  0.91021276  1
  Al  Al60  1  0.58472626  0.41721303  0.42159168  1
  Al  Al61  1  0.58069812  0.41195925  0.91039264  1
  Al  Al62  1  0.58628142  0.92468354  0.41883459  1
  Al  Al63  1  0.58668867  0.91203056  0.90409021  1
  Al  Al64  1  0.09352773  0.08553570  0.42545388  1
  Al  Al65  1  0.09341602  0.08755492  0.91485055  1
  Al  Al66  1  0.08302341  0.58310039  0.41768129  1
  Al  Al67  1  0.07443977  0.57690755  0.91688872  1
  Al  Al68  1  0.59012098  0.08453371  0.42144848  1
  Al  Al69  1  0.58540064  0.07574184  0.91382397  1
  Al  Al70  1  0.58353391  0.57909180  0.42273254  1
  Al  Al71  1  0.58929468  0.58965177  0.91513534  1
  Al  Al72  1  0.42090838  0.41346834  0.42353708  1
  Al  Al73  1  0.41996819  0.40762563  0.91294607  1
  Al  Al74  1  0.41248356  0.91533977  0.42874987  1
  Al  Al75  1  0.41593541  0.91858296  0.90144201  1
  Al  Al76  1  0.91685977  0.42064896  0.42333901  1
  Al  Al77  1  0.90911990  0.41221130  0.92086649  1
  Al  Al78  1  0.91190060  0.91264921  0.42389107  1
  Al  Al79  1  0.90963463  0.91173213  0.91568681  1
  Al  Al80  1  0.08170078  0.41300063  0.07962721  1
  Al  Al81  1  0.07820056  0.41371343  0.57638694  1
  Al  Al82  1  0.07990065  0.92862720  0.07369582  1
  Al  Al83  1  0.09113637  0.91334479  0.58891089  1
  Al  Al84  1  0.58002123  0.41355901  0.07731290  1
  Al  Al85  1  0.59062564  0.41751287  0.58981010  1
  Al  Al86  1  0.58620325  0.91677731  0.07791462  1
  Al  Al87  1  0.58669162  0.91691496  0.59589760  1
  Al  Al88  1  0.41607262  0.09332039  0.07956302  1
  Al  Al89  1  0.40834342  0.08049474  0.58583176  1
  Al  Al90  1  0.42704188  0.57802545  0.07809036  1
  Al  Al91  1  0.42262639  0.58777143  0.58170496  1
  Al  Al92  1  0.92435992  0.08809713  0.08754495  1
  Al  Al93  1  0.91197104  0.07942018  0.58174575  1
  Al  Al94  1  0.91168323  0.59124681  0.07780554  1
  Al  Al95  1  0.91202206  0.58855019  0.58316560  1
  Al  Al96  1  0.24980197  0.13715700  0.12651912  1
  Al  Al97  1  0.25091124  0.13462570  0.63115213  1
  Al  Al98  1  0.24710548  0.63167147  0.14031252  1
  Al  Al99  1  0.24748841  0.64368781  0.63547830  1
  Al  Al100  1  0.74733171  0.13088630  0.13541514  1
  Al  Al101  1  0.74242751  0.13366075  0.63366828  1
  Al  Al102  1  0.75111909  0.63461339  0.13292759  1
  Al  Al103  1  0.75020824  0.63452671  0.63639022  1
  Al  Al104  1  0.25086506  0.36073939  0.13443869  1
  Al  Al105  1  0.25147239  0.35863287  0.63733048  1
  Al  Al106  1  0.24982449  0.86791271  0.13499044  1
  Al  Al107  1  0.24529017  0.86718356  0.63333162  1
  Al  Al108  1  0.75078813  0.35976924  0.12704725  1
  Al  Al109  1  0.74648626  0.36689432  0.63222670  1
  Al  Al110  1  0.74999927  0.87184402  0.13432133  1
  Al  Al111  1  0.74953512  0.86369111  0.63098390  1
  Al  Al112  1  0.24984973  0.13508472  0.36664929  1
  Al  Al113  1  0.25196216  0.13473086  0.86772647  1
  Al  Al114  1  0.25211530  0.63759452  0.36782520  1
  Al  Al115  1  0.24903902  0.63831813  0.85969182  1
  Al  Al116  1  0.74527771  0.13079924  0.36354592  1
  Al  Al117  1  0.74602421  0.13419579  0.86442920  1
  Al  Al118  1  0.75009413  0.63630146  0.36675295  1
  Al  Al119  1  0.74684395  0.63604782  0.86551917  1
  Al  Al120  1  0.25038537  0.36099581  0.36339575  1
  Al  Al121  1  0.25239974  0.36188741  0.86247137  1
  Al  Al122  1  0.24985005  0.86600676  0.37201780  1
  Al  Al123  1  0.25213436  0.86726342  0.86094692  1
  Al  Al124  1  0.75095009  0.36197198  0.36866918  1
  Al  Al125  1  0.74795337  0.36636850  0.86900270  1
  Al  Al126  1  0.74611946  0.86673839  0.37031711  1
  Al  Al127  1  0.74979443  0.86523404  0.86239476  1
  Al  Al128  1  0.12979549  0.24573028  0.13323310  1
  Al  Al129  1  0.13474611  0.24270884  0.63223186  1
  Al  Al130  1  0.13720084  0.75066828  0.13801824  1
  Al  Al131  1  0.12935180  0.75564403  0.63114604  1
  Al  Al132  1  0.63064325  0.24993614  0.13572011  1
  Al  Al133  1  0.63147723  0.25077739  0.63338661  1
  Al  Al134  1  0.63880776  0.75047013  0.13495379  1
  Al  Al135  1  0.63719721  0.75493218  0.63065317  1
  Al  Al136  1  0.13491974  0.24418128  0.36564206  1
  Al  Al137  1  0.13790490  0.24367286  0.86584158  1
  Al  Al138  1  0.13701138  0.75273962  0.37212642  1
  Al  Al139  1  0.12983052  0.75518013  0.85980809  1
  Al  Al140  1  0.63564137  0.24690766  0.37177516  1
  Al  Al141  1  0.63124794  0.25394221  0.86205961  1
  Al  Al142  1  0.63800257  0.75258188  0.37290614  1
  Al  Al143  1  0.63542430  0.75364124  0.86152150  1
  Al  Al144  1  0.36909502  0.24512667  0.13217773  1
  Al  Al145  1  0.37163928  0.24351984  0.63775086  1
  Al  Al146  1  0.36288150  0.75008075  0.13532206  1
  Al  Al147  1  0.36546519  0.76163501  0.63084368  1
  Al  Al148  1  0.86727103  0.24923394  0.13728791  1
  Al  Al149  1  0.86166232  0.24969887  0.63412393  1
  Al  Al150  1  0.86091910  0.75308755  0.13473600  1
  Al  Al151  1  0.86841845  0.75601804  0.63538296  1
  Al  Al152  1  0.36703790  0.24525632  0.36579506  1
  Al  Al153  1  0.36721377  0.24601094  0.86489968  1
  Al  Al154  1  0.36546465  0.75570615  0.36991133  1
  Al  Al155  1  0.36672475  0.75611788  0.86021000  1
  Al  Al156  1  0.86468929  0.24751978  0.36299364  1
  Al  Al157  1  0.86236631  0.25258176  0.86385414  1
  Al  Al158  1  0.86314124  0.75122976  0.36506029  1
  Al  Al159  1  0.86817882  0.75158779  0.86224085  1
  Al  Al160  1  0.13706442  0.13585727  0.24510936  1
  Al  Al161  1  0.13811674  0.13148492  0.74531705  1
  Al  Al162  1  0.13418941  0.63910319  0.25472967  1
  Al  Al163  1  0.12718382  0.64117166  0.74720792  1
  Al  Al164  1  0.63261847  0.13214043  0.24863773  1
  Al  Al165  1  0.63525780  0.12953824  0.74773938  1
  Al  Al166  1  0.63719290  0.63796250  0.25060005  1
  Al  Al167  1  0.63754203  0.63292986  0.74883059  1
  Al  Al168  1  0.36898530  0.13740986  0.24641067  1
  Al  Al169  1  0.36348862  0.12932590  0.75250024  1
  Al  Al170  1  0.36589793  0.63749368  0.24748379  1
  Al  Al171  1  0.36517671  0.64039650  0.74736004  1
  Al  Al172  1  0.86358666  0.13216453  0.24703278  1
  Al  Al173  1  0.86227957  0.13624028  0.74892563  1
  Al  Al174  1  0.85985279  0.63284279  0.25050497  1
  Al  Al175  1  0.86792315  0.63609536  0.74859378  1
  Al  Al176  1  0.13516948  0.36062370  0.24541915  1
  Al  Al177  1  0.13322630  0.35807874  0.75178172  1
  Al  Al178  1  0.13813811  0.86503092  0.25291774  1
  Al  Al179  1  0.13016116  0.86793667  0.74505921  1
  Al  Al180  1  0.63216306  0.36027095  0.25023661  1
  Al  Al181  1  0.63470022  0.36743336  0.74914756  1
  Al  Al182  1  0.63786231  0.86984655  0.24957451  1
  Al  Al183  1  0.63596831  0.86709905  0.74706739  1
  Al  Al184  1  0.37148214  0.35939922  0.24589084  1
  Al  Al185  1  0.37251633  0.35965985  0.75000742  1
  Al  Al186  1  0.36363419  0.86407620  0.25096175  1
  Al  Al187  1  0.36694421  0.86790962  0.74971910  1
  Al  Al188  1  0.86120448  0.36871325  0.24691322  1
  Al  Al189  1  0.86202564  0.36711158  0.74811246  1
  Al  Al190  1  0.86123845  0.86651757  0.25272435  1
  Al  Al191  1  0.87140487  0.86594002  0.74988404  1
  Al  Al192  1  0.17044547  0.49984527  0.67088768  1
  Al  Al193  1  0.32753241  0.49892205  0.67130664  1
  Al  Al194  1  0.00068572  0.17861915  0.81776236  1
  Al  Al195  1  0.32850144  0.83046493  -0.00187583  1
  Al  Al196  1  0.32815176  0.00061807  0.32931448  1
  Al  Al197  1  0.32212177  0.49737039  0.16677300  1
  Al  Al198  1  0.50184129  0.69112486  0.67360246  1
  Al  Al199  1  0.50020753  0.67348868  0.31948749  1
  Al  Al200  1  0.33052417  0.49920745  0.32704707  1
  Al  Al201  1  0.67417374  0.17984649  -0.00053681  1
  Al  Al202  1  0.50167864  0.83148266  0.32908588  1
  Al  Al203  1  0.17379555  0.31490313  0.49948521  1
  Al  Al204  1  0.50125789  0.68542466  0.82685441  1
  Al  Al205  1  0.30996661  -0.00052776  0.68671749  1
  Al  Al206  1  0.17423813  0.82994718  -0.00260927  1
  Al  Al207  1  0.17577725  0.31431392  -0.00054731  1
  Al  Al208  1  0.32837589  0.49943635  0.82800593  1
  Al  Al209  1  0.50095658  0.82443013  0.17406652  1
  Al  Al210  1  -0.00014210  0.83294296  0.17302292  1
  Al  Al211  1  0.81125865  0.17785199  0.49971180  1
  Al  Al212  1  0.00079710  0.16718934  0.31726919  1
  Al  Al213  1  0.00049106  0.32810911  0.31850102  1
  Al  Al214  1  0.81993158  0.69037938  0.50192447  1
  Al  Al215  1  0.67829707  0.49852278  0.32705041  1
  Al  Al216  1  0.81653917  0.00096261  0.82428156  1
  Al  Al217  1  -0.00317615  0.67520993  0.18189346  1
  Al  Al218  1  0.17462306  0.50014598  0.82672926  1
  Al  Al219  1  0.81934612  -0.00249544  0.32773559  1
  Al  Al220  1  0.68825192  0.81162039  -0.00075051  1
  Al  Al221  1  0.17379470  0.49948914  0.31958206  1
  Al  Al222  1  0.67704864  0.49740049  0.17194601  1
  Al  Al223  1  0.19055893  0.00050359  0.81039814  1
  Al  Al224  1  0.81327345  -0.00147577  0.67303545  1
  Al  Al225  1  0.81859387  0.49761043  0.82204385  1
  Al  Al226  1  0.80912371  0.69286625  -0.00190143  1
  Al  Al227  1  0.00073654  0.31942139  0.67880342  1
  Al  Al228  1  0.00028321  0.82154692  0.32911984  1
  Al  Al229  1  0.50096950  0.17698079  0.82414829  1
  Al  Al230  1  0.32952459  0.67080109  -0.00492250  1
  Al  Al231  1  0.32521244  0.00103972  0.16961313  1
  Al  Al232  1  0.16843758  0.67192913  -0.00049972  1
  Al  Al233  1  0.49978894  0.17194746  0.32429218  1
  Al  Al234  1  0.83069606  0.18740674  -0.00009751  1
  Al  Al235  1  0.32689955  0.30633994  0.50091936  1
  Al  Al236  1  0.32661325  0.31317482  -0.00192315  1
  Al  Al237  1  0.31861315  0.68182691  0.50207335  1
  Al  Al238  1  0.17436408  0.00025906  0.32323311  1
  Au  Au239  1  0.50418827  0.67788813  0.15594019  1
  Au  Au240  1  -0.00080639  0.32758617  0.66931566  1
  Au  Au241  1  -0.00284690  0.66776798  0.83028095  1
  Au  Au242  1  0.16661228  0.67833855  0.50054005  1
  Au  Au243  1  0.33445280  0.49912279  0.16865534  1
  Au  Au244  1  0.82188015  0.50179774  0.66463615  1
  Au  Au245  1  -0.00106024  0.32566951  0.84247165  1
  Au  Au246  1  -0.00086926  0.66896536  0.33184093  1
  Au  Au247  1  0.50079656  0.16237824  0.66864074  1
  Au  Au248  1  0.15409524  0.49930597  0.67576837  1
  Au  Au249  1  0.33115222  0.67901295  0.50278421  1
  Au  Au250  1  0.15783262  0.49921013  0.17188494  1
  Au  Au251  1  0.83179838  0.00092174  0.16469571  1
  Au  Au252  1  0.83171195  0.17048602  0.00069411  1
  Au  Au253  1  0.32542602  0.32319942  0.50408615  1
  Au  Au254  1  0.32355451  0.49969847  0.34365781  1
  Au  Au255  1  0.82328763  0.00278314  0.33843023  1
  Au  Au256  1  0.16120045  0.00499107  0.17061603  1
  Au  Au257  1  0.15262078  0.67790344  0.00063735  1
  Au  Au258  1  0.34507950  0.67662538  -0.00737312  1
  Au  Au259  1  0.82884722  0.00131830  0.82776312  1
  Au  Au260  1  0.50149545  0.16579264  0.82962045  1
  Au  Au261  1  0.49862762  0.32061242  0.16185086  1
  Au  Au262  1  0.00152451  0.15753364  0.33082492  1
  Au  Au263  1  0.82591384  0.50155630  0.34043250  1
  Au  Au264  1  -0.00227348  0.31994685  0.15723814  1
  Au  Au265  1  0.67537584  0.66317336  0.50278195  1
  Au  Au266  1  0.33780013  0.00078775  0.17235115  1
  Au  Au267  1  0.67823012  0.82493095  -0.00282708  1
  Au  Au268  1  0.50453384  0.16102982  0.32844344  1
  Au  Au269  1  0.67085105  0.32993569  -0.00349888  1
  Au  Au270  1  0.83317295  0.32318480  0.49963036  1
  Au  Au271  1  -0.00295602  0.68071575  0.66398632  1
  Au  Au272  1  0.00170256  0.15630273  0.66912085  1
  Au  Au273  1  0.00113779  0.33963378  0.33069308  1
  Au  Au274  1  0.66085527  0.50224890  0.17241184  1
  Au  Au275  1  0.50464774  0.33379267  0.67817870  1
  Au  Au276  1  0.50497294  0.67449452  0.67572852  1
  Au  Au277  1  0.66570090  0.32330856  0.50164992  1
  Au  Au278  1  0.83904076  0.49919331  0.16588358  1
  Au  Au279  1  0.66266283  0.50021697  0.82366223  1
  Au  Au280  1  0.65975904  0.00250577  0.17329464  1
  Au  Au281  1  0.50287690  0.33540908  0.32831087  1
  Au  Au282  1  0.50405391  0.67521146  0.33610174  1
  Au  Au283  1  0.00207633  0.83647725  0.82763560  1
  Au  Au284  1  0.82735396  0.50036559  0.83044391  1
  Au  Au285  1  -0.00015842  0.82598505  0.15806566  1
  Au  Au286  1  0.67200615  0.83815832  0.50180331  1
  Au  Au287  1  0.34390958  0.49855773  0.67727533  1
