# generated using pymatgen
data_Ca24Ti8Al207Au49
_symmetry_space_group_name_H-M   'P 1'
_cell_length_a   17.32219967
_cell_length_b   17.32270245
_cell_length_c   17.32220172
_cell_angle_alpha   89.99845689
_cell_angle_beta   90.00070963
_cell_angle_gamma   90.00183977
_symmetry_Int_Tables_number   1
_chemical_formula_structural   Ca24Ti8Al207Au49
_chemical_formula_sum   'Ca24 Ti8 Al207 Au49'
_cell_volume   5197.82648060
_cell_formula_units_Z   1
loop_
 _symmetry_equiv_pos_site_id
 _symmetry_equiv_pos_as_xyz
  1  'x, y, z'
loop_
 _atom_site_type_symbol
 _atom_site_label
 _atom_site_symmetry_multiplicity
 _atom_site_fract_x
 _atom_site_fract_y
 _atom_site_fract_z
 _atom_site_occupancy
  Ca  Ca0  1  0.25691364  -0.00064360  0.00178029  1
  Ca  Ca1  1  0.25191146  -0.00420119  0.49868109  1
  Ca  Ca2  1  0.25355487  0.49945092  0.00087971  1
  Ca  Ca3  1  0.25427701  0.50375042  0.49754963  1
  Ca  Ca4  1  0.74009155  -0.00510867  0.00559208  1
  Ca  Ca5  1  0.74675704  0.00037813  0.49549278  1
  Ca  Ca6  1  0.74665904  0.50316883  -0.00199762  1
  Ca  Ca7  1  0.74742325  0.50224422  0.50231297  1
  Ca  Ca8  1  -0.00438568  0.25108531  -0.00120243  1
  Ca  Ca9  1  0.00447575  0.24974583  0.50193298  1
  Ca  Ca10  1  -0.00054970  0.74811286  0.00402147  1
  Ca  Ca11  1  0.00581961  0.75072547  0.49748137  1
  Ca  Ca12  1  0.50161520  0.25035217  -0.00155354  1
  Ca  Ca13  1  0.49751689  0.25035870  0.50394951  1
  Ca  Ca14  1  0.49841179  0.75517309  0.00217391  1
  Ca  Ca15  1  0.49475776  0.74601590  0.49947441  1
  Ca  Ca16  1  0.00160959  -0.00871561  0.25100912  1
  Ca  Ca17  1  0.00255273  -0.00313314  0.74226299  1
  Ca  Ca18  1  0.00093801  0.50511383  0.25192551  1
  Ca  Ca19  1  0.00023488  0.50413229  0.74499638  1
  Ca  Ca20  1  0.49979277  -0.00667999  0.24851750  1
  Ca  Ca21  1  0.49959418  0.00101673  0.75176840  1
  Ca  Ca22  1  0.49713658  0.50319815  0.25162846  1
  Ca  Ca23  1  0.49941300  0.49572470  0.75107623  1
  Ti  Ti24  1  0.25167076  0.25100493  0.25360969  1
  Ti  Ti25  1  0.25198306  0.25202188  0.74657626  1
  Ti  Ti26  1  0.25150362  0.74908688  0.25152726  1
  Ti  Ti27  1  0.24972726  0.74800752  0.74878875  1
  Ti  Ti28  1  0.74775663  0.24878376  0.25082591  1
  Ti  Ti29  1  0.74831178  0.25117458  0.74853324  1
  Ti  Ti30  1  0.74725556  0.75050453  0.25119737  1
  Ti  Ti31  1  0.74940280  0.74858831  0.74944775  1
  Al  Al32  1  0.08471792  0.07748896  0.08362719  1
  Al  Al33  1  0.09390694  0.07942137  0.57626316  1
  Al  Al34  1  0.08069505  0.58843454  0.08884103  1
  Al  Al35  1  0.08460975  0.59147399  0.57753954  1
  Al  Al36  1  0.58570817  0.06748377  0.08425334  1
  Al  Al37  1  0.57519974  0.08858141  0.59341804  1
  Al  Al38  1  0.57729425  0.59079563  0.09860520  1
  Al  Al39  1  0.58008787  0.57433623  0.58355580  1
  Al  Al40  1  0.40370596  0.42012232  0.07882524  1
  Al  Al41  1  0.41504243  0.40244165  0.58197026  1
  Al  Al42  1  0.42357686  0.91133941  0.08870842  1
  Al  Al43  1  0.41069446  0.90755114  0.57941469  1
  Al  Al44  1  0.91689701  0.43051406  0.07607913  1
  Al  Al45  1  0.90678390  0.42314419  0.58713842  1
  Al  Al46  1  0.91957741  0.91262924  0.09448958  1
  Al  Al47  1  0.93042016  0.91019137  0.58404166  1
  Al  Al48  1  0.41568465  0.08134878  0.42338503  1
  Al  Al49  1  0.42134952  0.08899012  0.90476618  1
  Al  Al50  1  0.41295174  0.58948951  0.40601033  1
  Al  Al51  1  0.41982884  0.58256568  0.91804546  1
  Al  Al52  1  0.91437435  0.07421871  0.41500834  1
  Al  Al53  1  0.91760524  0.07916185  0.92878058  1
  Al  Al54  1  0.92423427  0.58869880  0.40791631  1
  Al  Al55  1  0.92169843  0.58551741  0.89352321  1
  Al  Al56  1  0.09182827  0.42378621  0.42225878  1
  Al  Al57  1  0.09382301  0.41785143  0.92006927  1
  Al  Al58  1  0.08839692  0.90951636  0.41565470  1
  Al  Al59  1  0.07805363  0.91487851  0.91930994  1
  Al  Al60  1  0.58465486  0.43078122  0.41462381  1
  Al  Al61  1  0.57416089  0.41239223  0.90703833  1
  Al  Al62  1  0.57904307  0.91384267  0.41216551  1
  Al  Al63  1  0.58190631  0.90966230  0.92241811  1
  Al  Al64  1  0.09350175  0.07889306  0.42147234  1
  Al  Al65  1  0.08072902  0.07960556  0.92553123  1
  Al  Al66  1  0.08662591  0.59312548  0.41144894  1
  Al  Al67  1  0.07955620  0.58120686  0.90928014  1
  Al  Al68  1  0.57829209  0.07598664  0.41975649  1
  Al  Al69  1  0.57697678  0.08841440  0.91072187  1
  Al  Al70  1  0.57748768  0.58957464  0.40032208  1
  Al  Al71  1  0.57956898  0.58107953  0.91534721  1
  Al  Al72  1  0.41050526  0.42569001  0.41959887  1
  Al  Al73  1  0.41298755  0.40015013  0.91620101  1
  Al  Al74  1  0.41157473  0.90607053  0.41717363  1
  Al  Al75  1  0.42263844  0.91544272  0.91394551  1
  Al  Al76  1  0.91264011  0.43043165  0.42848749  1
  Al  Al77  1  0.91419461  0.42981733  0.91642592  1
  Al  Al78  1  0.92411551  0.91457852  0.40699022  1
  Al  Al79  1  0.92073521  0.91484087  0.92091312  1
  Al  Al80  1  0.09630104  0.41312789  0.07533762  1
  Al  Al81  1  0.08520409  0.41765056  0.57821035  1
  Al  Al82  1  0.07902582  0.91077874  0.09216835  1
  Al  Al83  1  0.09134830  0.90904395  0.58126518  1
  Al  Al84  1  0.58095293  0.42699171  0.08218981  1
  Al  Al85  1  0.57639320  0.41378264  0.59703210  1
  Al  Al86  1  0.58789692  0.90461574  0.08784115  1
  Al  Al87  1  0.57425638  0.92156724  0.58083424  1
  Al  Al88  1  0.41881687  0.07148167  0.07744289  1
  Al  Al89  1  0.41685886  0.09591340  0.59135907  1
  Al  Al90  1  0.41678357  0.58404023  0.09646721  1
  Al  Al91  1  0.41665042  0.58487537  0.56959138  1
  Al  Al92  1  0.90926879  0.07747863  0.08376072  1
  Al  Al93  1  0.92560092  0.07859567  0.57335970  1
  Al  Al94  1  0.92487691  0.58578847  0.09866614  1
  Al  Al95  1  0.91398794  0.58261024  0.59084347  1
  Al  Al96  1  0.25221946  0.13671228  0.13365637  1
  Al  Al97  1  0.25487711  0.13829444  0.62820954  1
  Al  Al98  1  0.25183801  0.63854062  0.13262560  1
  Al  Al99  1  0.24991905  0.63825840  0.62805333  1
  Al  Al100  1  0.74690783  0.12883501  0.13663197  1
  Al  Al101  1  0.74640169  0.14029822  0.63012633  1
  Al  Al102  1  0.74296134  0.63834282  0.13604640  1
  Al  Al103  1  0.75432564  0.63622265  0.63596472  1
  Al  Al104  1  0.25134273  0.36551614  0.13268969  1
  Al  Al105  1  0.25445323  0.36288941  0.62614552  1
  Al  Al106  1  0.25396977  0.86115798  0.13727864  1
  Al  Al107  1  0.24915711  0.86204316  0.63270819  1
  Al  Al108  1  0.74539355  0.36614464  0.13667754  1
  Al  Al109  1  0.74954606  0.36293047  0.63729136  1
  Al  Al110  1  0.74164286  0.86866329  0.13773857  1
  Al  Al111  1  0.75062589  0.85847695  0.63310837  1
  Al  Al112  1  0.25378736  0.13599263  0.37344469  1
  Al  Al113  1  0.25497101  0.13826584  0.86126070  1
  Al  Al114  1  0.25634354  0.63529209  0.37265821  1
  Al  Al115  1  0.25293912  0.63853530  0.87056702  1
  Al  Al116  1  0.74538648  0.13460081  0.37013266  1
  Al  Al117  1  0.74446685  0.13875654  0.86218225  1
  Al  Al118  1  0.74172452  0.63595157  0.36700150  1
  Al  Al119  1  0.74829213  0.63750498  0.86487105  1
  Al  Al120  1  0.25110850  0.36787967  0.37383982  1
  Al  Al121  1  0.25536191  0.36273416  0.86461825  1
  Al  Al122  1  0.25304523  0.86297892  0.36309712  1
  Al  Al123  1  0.24870317  0.86071251  0.86271998  1
  Al  Al124  1  0.74562180  0.36556585  0.36453833  1
  Al  Al125  1  0.74721821  0.36478842  0.85936824  1
  Al  Al126  1  0.74525423  0.86214566  0.36430686  1
  Al  Al127  1  0.74805796  0.86003607  0.86559804  1
  Al  Al128  1  0.13691677  0.25613057  0.13699100  1
  Al  Al129  1  0.13636910  0.25187282  0.62895143  1
  Al  Al130  1  0.13424843  0.74999248  0.13493349  1
  Al  Al131  1  0.13132186  0.74864803  0.62923853  1
  Al  Al132  1  0.63256470  0.24935317  0.13862956  1
  Al  Al133  1  0.62702583  0.25036151  0.63653304  1
  Al  Al134  1  0.62823430  0.75322491  0.13867856  1
  Al  Al135  1  0.63453257  0.74713879  0.63413521  1
  Al  Al136  1  0.13933225  0.24824508  0.37270838  1
  Al  Al137  1  0.13774531  0.25546440  0.86505626  1
  Al  Al138  1  0.14038121  0.75077906  0.37214513  1
  Al  Al139  1  0.13187955  0.74607851  0.86446966  1
  Al  Al140  1  0.63410813  0.25033300  0.36427907  1
  Al  Al141  1  0.62623148  0.24823755  0.86235833  1
  Al  Al142  1  0.62453007  0.74932940  0.36278567  1
  Al  Al143  1  0.62707851  0.75256336  0.86674422  1
  Al  Al144  1  0.36518808  0.25746564  0.13441005  1
  Al  Al145  1  0.36902414  0.25224251  0.63176340  1
  Al  Al146  1  0.37216325  0.74609386  0.13908121  1
  Al  Al147  1  0.36529785  0.74749826  0.63451447  1
  Al  Al148  1  0.86082381  0.24889983  0.13646590  1
  Al  Al149  1  0.86952125  0.24917516  0.63468675  1
  Al  Al150  1  0.86239456  0.75148745  0.13617732  1
  Al  Al151  1  0.87441420  0.74929677  0.63417335  1
  Al  Al152  1  0.36323451  0.25345859  0.37287530  1
  Al  Al153  1  0.37165451  0.25179248  0.86135296  1
  Al  Al154  1  0.37356898  0.74586310  0.36437761  1
  Al  Al155  1  0.37216042  0.74977325  0.86314478  1
  Al  Al156  1  0.86418648  0.24437131  0.36281078  1
  Al  Al157  1  0.86314579  0.25178797  0.86408366  1
  Al  Al158  1  0.86418992  0.74825622  0.36441129  1
  Al  Al159  1  0.86653454  0.74738029  0.86494639  1
  Al  Al160  1  0.13772075  0.13887351  0.24756680  1
  Al  Al161  1  0.13804736  0.14025031  0.74419311  1
  Al  Al162  1  0.13636491  0.63770611  0.25597348  1
  Al  Al163  1  0.13174857  0.63767255  0.74705544  1
  Al  Al164  1  0.63682057  0.12702262  0.24977438  1
  Al  Al165  1  0.63012435  0.13652188  0.74851902  1
  Al  Al166  1  0.63049231  0.63390569  0.25081442  1
  Al  Al167  1  0.63297876  0.63555847  0.75446295  1
  Al  Al168  1  0.36180334  0.13759206  0.25168078  1
  Al  Al169  1  0.36962036  0.14016421  0.74618384  1
  Al  Al170  1  0.36800100  0.63559417  0.25379928  1
  Al  Al171  1  0.36240012  0.63076593  0.75276330  1
  Al  Al172  1  0.86541926  0.13385187  0.24830162  1
  Al  Al173  1  0.86415279  0.13775279  0.74583783  1
  Al  Al174  1  0.86262693  0.63600281  0.25259063  1
  Al  Al175  1  0.87133540  0.63799881  0.74752285  1
  Al  Al176  1  0.14149548  0.36710106  0.25440366  1
  Al  Al177  1  0.13675389  0.36391927  0.74687189  1
  Al  Al178  1  0.13591776  0.86224095  0.24973700  1
  Al  Al179  1  0.13163985  0.86102278  0.74277365  1
  Al  Al180  1  0.63191488  0.37063306  0.24898137  1
  Al  Al181  1  0.62837418  0.36202395  0.75011088  1
  Al  Al182  1  0.62779249  0.86668774  0.25057985  1
  Al  Al183  1  0.63465944  0.86314748  0.75247742  1
  Al  Al184  1  0.36354701  0.36545628  0.25510958  1
  Al  Al185  1  0.36909271  0.36434306  0.74737626  1
  Al  Al186  1  0.37283800  0.86016798  0.25082295  1
  Al  Al187  1  0.36346758  0.86312880  0.74894302  1
  Al  Al188  1  0.86290513  0.36564400  0.25039041  1
  Al  Al189  1  0.86962495  0.36467427  0.74683417  1
  Al  Al190  1  0.86478062  0.86397853  0.24682906  1
  Al  Al191  1  0.86610557  0.86275127  0.74754008  1
  Al  Al192  1  0.67323574  0.82183676  0.50257688  1
  Al  Al193  1  0.66796567  -0.00211629  0.82763263  1
  Al  Al194  1  0.17135191  0.50185174  0.67116733  1
  Al  Al195  1  0.49842634  0.33337686  0.32711282  1
  Al  Al196  1  0.66751964  0.32767837  0.50165690  1
  Al  Al197  1  0.66814446  0.68364726  0.00231427  1
  Al  Al198  1  0.18348917  0.50270752  0.31929998  1
  Al  Al199  1  -0.00203263  0.32700047  0.16814347  1
  Al  Al200  1  0.83217189  0.66435474  -0.00197024  1
  Al  Al201  1  0.81784459  0.17561609  0.00059597  1
  Al  Al202  1  0.00227801  0.80825731  0.31234059  1
  Al  Al203  1  0.18366568  -0.00009366  0.32031872  1
  Al  Al204  1  0.30742056  0.80393538  0.49793605  1
  Al  Al205  1  0.00046282  0.33168671  0.82553127  1
  Al  Al206  1  0.81601264  0.50162289  0.32828623  1
  Al  Al207  1  0.67290342  -0.00056006  0.67381634  1
  Al  Al208  1  0.66895468  0.31991366  -0.00188460  1
  Al  Al209  1  0.81756580  0.50171375  0.17520980  1
  Al  Al210  1  0.81282353  0.82553902  0.00341327  1
  Al  Al211  1  -0.00008483  0.69120710  0.19365626  1
  Al  Al212  1  0.68653166  0.50032252  0.68099045  1
  Al  Al213  1  0.17543147  0.18626421  -0.00082297  1
  Al  Al214  1  0.33010234  0.82086691  0.00011114  1
  Al  Al215  1  0.49826547  0.67091649  0.67656000  1
  Al  Al216  1  0.32789571  0.50086233  0.67261329  1
  Al  Al217  1  -0.00210783  0.33041541  0.33168230  1
  Al  Al218  1  0.16873149  0.00025677  0.82188624  1
  Al  Al219  1  0.17389197  0.82123479  0.00180247  1
  Al  Al220  1  0.18227381  0.50139991  0.82328223  1
  Al  Al221  1  0.81528553  -0.00188484  0.31950107  1
  Al  Al222  1  0.50014328  0.82572635  0.68292773  1
  Al  Al223  1  0.82649172  0.67564197  0.49736644  1
  Al  Al224  1  0.33082983  0.18647953  -0.00227308  1
  Al  Al225  1  0.82569660  0.00079320  0.82949628  1
  Al  Al226  1  -0.00039440  0.16955345  0.81837117  1
  Al  Al227  1  0.49987207  0.17094709  0.17009252  1
  Al  Al228  1  0.82609100  0.33008484  -0.00063930  1
  Al  Al229  1  0.32103714  -0.00228462  0.18195566  1
  Al  Al230  1  0.83011806  -0.00132214  0.67042723  1
  Al  Al231  1  0.81679900  0.50125651  0.80633011  1
  Al  Al232  1  0.32801034  0.00014052  0.81793744  1
  Al  Al233  1  0.00472611  0.16697144  0.32438900  1
  Al  Al234  1  0.31801518  0.50118354  0.19195575  1
  Al  Al235  1  0.82434770  0.32046589  0.49938000  1
  Al  Al236  1  0.49865209  0.17488183  0.32789525  1
  Al  Al237  1  0.18475419  -0.00004160  0.67207502  1
  Al  Al238  1  0.00012455  0.81370183  0.81417253  1
  Au  Au239  1  0.00864923  0.16446086  0.65939597  1
  Au  Au240  1  0.33370583  0.00029539  0.33099588  1
  Au  Au241  1  0.18278976  0.50146731  0.33180209  1
  Au  Au242  1  0.82710894  0.83457205  0.00510609  1
  Au  Au243  1  0.18052836  0.68077046  0.49914675  1
  Au  Au244  1  0.17049410  0.83334967  0.00265961  1
  Au  Au245  1  0.17093650  -0.00251727  0.17195727  1
  Au  Au246  1  0.49435049  0.33899127  0.16263094  1
  Au  Au247  1  0.49685028  0.33040681  0.33948884  1
  Au  Au248  1  0.33016551  0.17579400  0.50073091  1
  Au  Au249  1  0.66468234  0.83089007  0.50062519  1
  Au  Au250  1  0.33055845  0.49525405  0.83892717  1
  Au  Au251  1  0.33380857  0.50029050  0.66012878  1
  Au  Au252  1  0.84121904  0.83083636  0.49646031  1
  Au  Au253  1  0.67031062  0.15653467  0.00051259  1
  Au  Au254  1  0.16177221  0.66730402  -0.00446136  1
  Au  Au255  1  0.66597901  -0.00045215  0.32510766  1
  Au  Au256  1  -0.00155530  0.33689574  0.66183144  1
  Au  Au257  1  0.00047779  0.33869934  0.83585279  1
  Au  Au258  1  0.33552296  -0.00010771  0.66734791  1
  Au  Au259  1  0.34093602  0.67097387  0.00514661  1
  Au  Au260  1  0.33900970  0.17172919  -0.00241628  1
  Au  Au261  1  -0.00339794  0.15767604  0.17050338  1
  Au  Au262  1  0.66905080  0.50286546  0.17914843  1
  Au  Au263  1  0.81918867  0.00248884  0.84546354  1
  Au  Au264  1  0.00731157  0.16450220  0.33627209  1
  Au  Au265  1  -0.00503531  0.34008140  0.34432999  1
  Au  Au266  1  0.67253146  0.33633902  -0.00302706  1
  Au  Au267  1  0.66954082  0.49839467  0.82692238  1
  Au  Au268  1  0.49846182  0.82318698  0.32505749  1
  Au  Au269  1  0.82603510  -0.00400278  0.65415031  1
  Au  Au270  1  0.17357135  0.50175283  0.16303915  1
  Au  Au271  1  0.50140564  0.15503418  0.17589959  1
  Au  Au272  1  0.15917609  0.18386196  0.00477955  1
  Au  Au273  1  0.67065390  0.34015741  0.50241473  1
  Au  Au274  1  -0.00226246  0.82636623  0.82598306  1
  Au  Au275  1  0.17655356  0.00117379  0.83722793  1
  Au  Au276  1  0.84652324  0.65761782  -0.00277890  1
  Au  Au277  1  -0.00255327  0.33409128  0.15341836  1
  Au  Au278  1  0.66174352  0.16480825  0.50188941  1
  Au  Au279  1  0.17628023  0.32701718  0.50114539  1
  Au  Au280  1  0.65973467  0.66493044  0.49869393  1
  Au  Au281  1  0.83725578  0.17201952  0.49752115  1
  Au  Au282  1  0.83473395  0.66644080  0.49909691  1
  Au  Au283  1  0.65339504  0.67674381  0.00368064  1
  Au  Au284  1  -0.00428386  0.16411251  0.83394830  1
  Au  Au285  1  0.82329912  -0.00265455  0.17234617  1
  Au  Au286  1  0.00205924  0.67162815  0.67271307  1
  Au  Au287  1  0.49858223  0.67348731  0.82517883  1
