# generated using pymatgen
data_Ca24Ti8Al207Au49
_symmetry_space_group_name_H-M   'P 1'
_cell_length_a   17.31923313
_cell_length_b   17.32217407
_cell_length_c   17.32082413
_cell_angle_alpha   89.99974648
_cell_angle_beta   90.00065153
_cell_angle_gamma   89.99336534
_symmetry_Int_Tables_number   1
_chemical_formula_structural   Ca24Ti8Al207Au49
_chemical_formula_sum   'Ca24 Ti8 Al207 Au49'
_cell_volume   5196.36448354
_cell_formula_units_Z   1
loop_
 _symmetry_equiv_pos_site_id
 _symmetry_equiv_pos_as_xyz
  1  'x, y, z'
loop_
 _atom_site_type_symbol
 _atom_site_label
 _atom_site_symmetry_multiplicity
 _atom_site_fract_x
 _atom_site_fract_y
 _atom_site_fract_z
 _atom_site_occupancy
  Ca  Ca0  1  0.24593172  0.00241479  -0.00143944  1
  Ca  Ca1  1  0.24663427  -0.00050680  0.50159409  1
  Ca  Ca2  1  0.25177920  0.49673065  0.00091229  1
  Ca  Ca3  1  0.24901415  0.49660982  0.50031832  1
  Ca  Ca4  1  0.75758497  -0.00024516  0.00210231  1
  Ca  Ca5  1  0.75231373  -0.00096473  0.49801834  1
  Ca  Ca6  1  0.74898849  0.50461204  0.00329564  1
  Ca  Ca7  1  0.75078322  0.49960699  0.49663607  1
  Ca  Ca8  1  -0.00447357  0.24435343  0.00277469  1
  Ca  Ca9  1  -0.00165494  0.24604859  0.49706174  1
  Ca  Ca10  1  -0.00393611  0.75469303  -0.00153521  1
  Ca  Ca11  1  -0.00200519  0.75091979  0.49996720  1
  Ca  Ca12  1  0.50362624  0.24976863  0.00409434  1
  Ca  Ca13  1  0.50129207  0.25082937  0.49721311  1
  Ca  Ca14  1  0.50223993  0.74877870  0.00031445  1
  Ca  Ca15  1  0.50223880  0.74526783  0.49876938  1
  Ca  Ca16  1  -0.00904419  -0.00023473  0.25066974  1
  Ca  Ca17  1  0.00198998  0.00167484  0.75343761  1
  Ca  Ca18  1  -0.00444053  0.50164517  0.25102671  1
  Ca  Ca19  1  -0.00322098  0.50060053  0.74733972  1
  Ca  Ca20  1  0.50646556  0.00616167  0.25369204  1
  Ca  Ca21  1  0.49818533  0.00196344  0.75675602  1
  Ca  Ca22  1  0.50307175  0.49759522  0.25208874  1
  Ca  Ca23  1  0.50197226  0.49912216  0.75915527  1
  Ti  Ti24  1  0.25241852  0.25084706  0.25040534  1
  Ti  Ti25  1  0.24945639  0.24615430  0.74928441  1
  Ti  Ti26  1  0.24962931  0.74950250  0.24984091  1
  Ti  Ti27  1  0.24647258  0.75319289  0.75063718  1
  Ti  Ti28  1  0.74985679  0.25084175  0.25034096  1
  Ti  Ti29  1  0.75098680  0.24842211  0.74906783  1
  Ti  Ti30  1  0.75094229  0.74960262  0.25206503  1
  Ti  Ti31  1  0.75230428  0.75020002  0.74726669  1
  Al  Al32  1  0.07061942  0.08712380  0.08135589  1
  Al  Al33  1  0.08666631  0.07992985  0.60356716  1
  Al  Al34  1  0.07696302  0.57475983  0.08243417  1
  Al  Al35  1  0.07748021  0.60179750  0.58485818  1
  Al  Al36  1  0.58398037  0.08837153  0.09189650  1
  Al  Al37  1  0.58180378  0.07812318  0.57043913  1
  Al  Al38  1  0.59503691  0.58239263  0.08274392  1
  Al  Al39  1  0.58768452  0.57716185  0.57450207  1
  Al  Al40  1  0.42270659  0.41812116  0.09039855  1
  Al  Al41  1  0.41526409  0.42113085  0.57482856  1
  Al  Al42  1  0.42466610  0.92032534  0.07249637  1
  Al  Al43  1  0.41669315  0.93107702  0.58374008  1
  Al  Al44  1  0.90725466  0.40856875  0.08567997  1
  Al  Al45  1  0.90717447  0.41536068  0.57344769  1
  Al  Al46  1  0.91161251  0.91107526  0.08576405  1
  Al  Al47  1  0.92413834  0.91078310  0.57881157  1
  Al  Al48  1  0.41608703  0.09716753  0.41291222  1
  Al  Al49  1  0.40593878  0.07739143  0.91587642  1
  Al  Al50  1  0.41189098  0.57426491  0.41073486  1
  Al  Al51  1  0.42328428  0.57932466  0.92157822  1
  Al  Al52  1  0.91080416  0.07947867  0.41177141  1
  Al  Al53  1  0.91830584  0.09211695  0.91529588  1
  Al  Al54  1  0.90222500  0.58234079  0.41911981  1
  Al  Al55  1  0.91352490  0.59689269  0.92325577  1
  Al  Al56  1  0.07338610  0.42702628  0.41836338  1
  Al  Al57  1  0.08199575  0.42101483  0.92122494  1
  Al  Al58  1  0.07861416  0.91598984  0.42280019  1
  Al  Al59  1  0.08695204  0.92547302  0.90856167  1
  Al  Al60  1  0.59751679  0.41344227  0.41079730  1
  Al  Al61  1  0.58552095  0.41849447  0.92111498  1
  Al  Al62  1  0.59218999  0.91257181  0.41777407  1
  Al  Al63  1  0.58803757  0.91404724  0.92235111  1
  Al  Al64  1  0.07194957  0.07837055  0.42033137  1
  Al  Al65  1  0.08228088  0.08704930  0.90097006  1
  Al  Al66  1  0.08742295  0.59008900  0.42345478  1
  Al  Al67  1  0.07776047  0.57989504  0.91372768  1
  Al  Al68  1  0.58019083  0.09027609  0.40763779  1
  Al  Al69  1  0.58318983  0.07995185  0.92247606  1
  Al  Al70  1  0.59665048  0.57703492  0.41020258  1
  Al  Al71  1  0.59031672  0.58569824  0.92251587  1
  Al  Al72  1  0.41549489  0.41536597  0.40912555  1
  Al  Al73  1  0.42435955  0.42084081  0.91641896  1
  Al  Al74  1  0.42757928  0.93068726  0.42250395  1
  Al  Al75  1  0.40599454  0.91961828  0.91045435  1
  Al  Al76  1  0.89908519  0.41764098  0.41190296  1
  Al  Al77  1  0.91219653  0.40530568  0.92792963  1
  Al  Al78  1  0.90808736  0.91798286  0.41129990  1
  Al  Al79  1  0.91793672  0.91970114  0.92419483  1
  Al  Al80  1  0.08114673  0.41581854  0.08216927  1
  Al  Al81  1  0.07015976  0.42387660  0.57734370  1
  Al  Al82  1  0.06956056  0.91283986  0.08015206  1
  Al  Al83  1  0.08743743  0.91603479  0.59317216  1
  Al  Al84  1  0.58865699  0.41877727  0.08612361  1
  Al  Al85  1  0.59518012  0.41231573  0.57160044  1
  Al  Al86  1  0.59066908  0.91800009  0.08124866  1
  Al  Al87  1  0.59142580  0.91282152  0.57284156  1
  Al  Al88  1  0.42578748  0.09243847  0.07844357  1
  Al  Al89  1  0.40023294  0.08849324  0.57481463  1
  Al  Al90  1  0.41887714  0.57924741  0.08368606  1
  Al  Al91  1  0.41904092  0.57377716  0.57550186  1
  Al  Al92  1  0.91075592  0.09012808  0.08355955  1
  Al  Al93  1  0.92837098  0.09167555  0.58363343  1
  Al  Al94  1  0.90704938  0.58763314  0.08090039  1
  Al  Al95  1  0.91411866  0.59300773  0.58140482  1
  Al  Al96  1  0.25030821  0.13687233  0.13809984  1
  Al  Al97  1  0.24722370  0.12638557  0.63959380  1
  Al  Al98  1  0.25141363  0.63698784  0.13828318  1
  Al  Al99  1  0.24525544  0.63888605  0.63481713  1
  Al  Al100  1  0.75712357  0.13661158  0.13376630  1
  Al  Al101  1  0.74814382  0.13400697  0.63220952  1
  Al  Al102  1  0.75159919  0.63590186  0.13781143  1
  Al  Al103  1  0.75199293  0.63727900  0.62451695  1
  Al  Al104  1  0.25350899  0.36150537  0.13917278  1
  Al  Al105  1  0.25306980  0.35820798  0.63411270  1
  Al  Al106  1  0.24768613  0.86382260  0.13703253  1
  Al  Al107  1  0.24520888  0.87360680  0.63805954  1
  Al  Al108  1  0.75400491  0.36372197  0.13647587  1
  Al  Al109  1  0.75003979  0.36353598  0.62904655  1
  Al  Al110  1  0.75626379  0.86423639  0.13389639  1
  Al  Al111  1  0.75089377  0.86382598  0.62691198  1
  Al  Al112  1  0.25459637  0.13866852  0.36614053  1
  Al  Al113  1  0.24511332  0.12671549  0.86235528  1
  Al  Al114  1  0.24871263  0.63815109  0.36310612  1
  Al  Al115  1  0.24638862  0.63885533  0.86178844  1
  Al  Al116  1  0.75176132  0.13498762  0.36451916  1
  Al  Al117  1  0.75402991  0.13575520  0.86713995  1
  Al  Al118  1  0.75186473  0.63561674  0.37050447  1
  Al  Al119  1  0.75176689  0.63781702  0.86353719  1
  Al  Al120  1  0.25830329  0.36486157  0.36434015  1
  Al  Al121  1  0.24802260  0.36079105  0.86275566  1
  Al  Al122  1  0.24802088  0.86123752  0.36120328  1
  Al  Al123  1  0.24539810  0.86964907  0.86356944  1
  Al  Al124  1  0.74695846  0.36942977  0.36365077  1
  Al  Al125  1  0.75569791  0.36078421  0.86616044  1
  Al  Al126  1  0.75331755  0.86230898  0.36921475  1
  Al  Al127  1  0.75325611  0.86269887  0.86766130  1
  Al  Al128  1  0.13070315  0.24755200  0.13666920  1
  Al  Al129  1  0.13195058  0.24257673  0.63668065  1
  Al  Al130  1  0.12986142  0.75570386  0.13348101  1
  Al  Al131  1  0.13387558  0.75074098  0.63515553  1
  Al  Al132  1  0.63328333  0.24739160  0.13809378  1
  Al  Al133  1  0.63573375  0.24977996  0.62862777  1
  Al  Al134  1  0.63366929  0.74615626  0.13717389  1
  Al  Al135  1  0.63829323  0.75165561  0.62569210  1
  Al  Al136  1  0.13552859  0.25249884  0.36468786  1
  Al  Al137  1  0.13309810  0.24128096  0.86307395  1
  Al  Al138  1  0.12912953  0.74865120  0.36491012  1
  Al  Al139  1  0.12683634  0.75536774  0.86435141  1
  Al  Al140  1  0.63457953  0.25163587  0.36692885  1
  Al  Al141  1  0.63738914  0.24644644  0.86379619  1
  Al  Al142  1  0.63626830  0.75048164  0.37165256  1
  Al  Al143  1  0.63701973  0.74891019  0.86368035  1
  Al  Al144  1  0.37374885  0.24989664  0.13891986  1
  Al  Al145  1  0.36177845  0.24162557  0.62976496  1
  Al  Al146  1  0.37006484  0.74802577  0.13771895  1
  Al  Al147  1  0.35964302  0.75509743  0.63779895  1
  Al  Al148  1  0.86975980  0.25036515  0.13967302  1
  Al  Al149  1  0.86209104  0.24811447  0.63249633  1
  Al  Al150  1  0.86778600  0.75261452  0.13812862  1
  Al  Al151  1  0.86436523  0.74862977  0.62553058  1
  Al  Al152  1  0.37225657  0.25009966  0.36625923  1
  Al  Al153  1  0.36199449  0.24241664  0.86142608  1
  Al  Al154  1  0.37143573  0.74347042  0.36075538  1
  Al  Al155  1  0.36181702  0.75529410  0.86196080  1
  Al  Al156  1  0.85954862  0.25547432  0.36792491  1
  Al  Al157  1  0.86796050  0.24568341  0.86676840  1
  Al  Al158  1  0.86727637  0.74962970  0.36968185  1
  Al  Al159  1  0.87039778  0.75042672  0.86413221  1
  Al  Al160  1  0.13556037  0.13698527  0.25093340  1
  Al  Al161  1  0.13336238  0.12933628  0.75065707  1
  Al  Al162  1  0.13113417  0.63645785  0.24884335  1
  Al  Al163  1  0.12649010  0.64045388  0.74960176  1
  Al  Al164  1  0.63611548  0.13599575  0.25236073  1
  Al  Al165  1  0.63715439  0.13050568  0.75041727  1
  Al  Al166  1  0.63474096  0.63537022  0.25546243  1
  Al  Al167  1  0.64159184  0.63736504  0.74382611  1
  Al  Al168  1  0.37122444  0.13868146  0.25220083  1
  Al  Al169  1  0.36232461  0.12545762  0.75149576  1
  Al  Al170  1  0.36840126  0.62917700  0.24887554  1
  Al  Al171  1  0.36008093  0.63736414  0.75136826  1
  Al  Al172  1  0.86320096  0.13164142  0.24779508  1
  Al  Al173  1  0.86935696  0.13738891  0.75077421  1
  Al  Al174  1  0.86374021  0.63031951  0.25460393  1
  Al  Al175  1  0.87135197  0.64125622  0.74395931  1
  Al  Al176  1  0.13267824  0.36438748  0.25095099  1
  Al  Al177  1  0.13362970  0.36205618  0.74968007  1
  Al  Al178  1  0.12692993  0.86198437  0.25189365  1
  Al  Al179  1  0.13332976  0.87097135  0.74990769  1
  Al  Al180  1  0.63138002  0.36431345  0.25181987  1
  Al  Al181  1  0.64129558  0.36173261  0.74815486  1
  Al  Al182  1  0.63809950  0.86323783  0.25029988  1
  Al  Al183  1  0.64300867  0.86826915  0.74965722  1
  Al  Al184  1  0.37265433  0.36708951  0.25058278  1
  Al  Al185  1  0.36312256  0.36057738  0.75148022  1
  Al  Al186  1  0.36737053  0.86342820  0.25010243  1
  Al  Al187  1  0.35994537  0.87507598  0.75080582  1
  Al  Al188  1  0.86229821  0.37318892  0.25190233  1
  Al  Al189  1  0.86335168  0.36285217  0.74612391  1
  Al  Al190  1  0.86643865  0.86580558  0.25216581  1
  Al  Al191  1  0.86390003  0.86245170  0.74834571  1
  Al  Al192  1  0.32704889  0.00113638  0.32719622  1
  Al  Al193  1  -0.00179004  0.67544120  0.17677813  1
  Al  Al194  1  0.31425727  0.17302046  0.00016110  1
  Al  Al195  1  0.00024155  0.31766520  0.82655025  1
  Al  Al196  1  0.33285170  0.00251569  0.17132609  1
  Al  Al197  1  0.32036441  0.82744387  0.00076948  1
  Al  Al198  1  0.17888750  0.16735452  0.50130744  1
  Al  Al199  1  0.17257979  0.31688479  0.00026471  1
  Al  Al200  1  0.50123695  0.82878141  0.67475437  1
  Al  Al201  1  0.68216185  0.00067336  0.17662992  1
  Al  Al202  1  0.50024254  0.82853215  0.82796990  1
  Al  Al203  1  0.49935431  0.16776212  0.67737004  1
  Al  Al204  1  0.18111268  0.49847579  0.17496642  1
  Al  Al205  1  0.32855034  0.67478184  -0.00105552  1
  Al  Al206  1  0.17238381  0.49979248  0.66642056  1
  Al  Al207  1  0.82364364  0.50235617  0.67195744  1
  Al  Al208  1  0.67451612  0.50021476  0.81819786  1
  Al  Al209  1  0.50045059  0.33184597  0.67037491  1
  Al  Al210  1  0.32356404  0.32810772  0.00050429  1
  Al  Al211  1  0.82254010  0.00057369  0.82887474  1
  Al  Al212  1  0.69027603  0.80613230  0.00122785  1
  Al  Al213  1  0.68313725  0.17505694  0.00209122  1
  Al  Al214  1  0.68171865  0.49958179  0.18876598  1
  Al  Al215  1  -0.00087939  0.81271604  0.68098553  1
  Al  Al216  1  0.68353719  -0.00116962  0.32872677  1
  Al  Al217  1  0.49937483  0.82525986  0.32437937  1
  Al  Al218  1  0.50160688  0.67440677  0.82868828  1
  Al  Al219  1  0.32342266  0.49872070  0.68055080  1
  Al  Al220  1  0.18620336  0.50050024  0.33217377  1
  Al  Al221  1  0.80740672  0.69550336  0.00107193  1
  Al  Al222  1  0.50256397  0.31861513  0.82681399  1
  Al  Al223  1  -0.00388717  0.32874814  0.32126671  1
  Al  Al224  1  -0.00173699  0.31550478  0.67265445  1
  Al  Al225  1  0.82059749  0.17402729  0.49974143  1
  Al  Al226  1  0.17315060  0.81754680  0.50072791  1
  Al  Al227  1  0.31672897  0.67145276  0.49954721  1
  Al  Al228  1  0.16295618  -0.00138668  0.17368555  1
  Al  Al229  1  0.49844383  0.66852835  0.67066745  1
  Al  Al230  1  0.17042278  0.67410567  0.00053259  1
  Al  Al231  1  0.18182415  0.49916329  0.82485595  1
  Al  Al232  1  0.83186095  0.50163039  0.82688821  1
  Al  Al233  1  0.17296481  0.00028450  0.32946448  1
  Al  Al234  1  0.18032292  0.32854886  0.50024593  1
  Al  Al235  1  -0.00244440  0.17236930  0.31671877  1
  Al  Al236  1  0.82976681  0.00016772  0.67190924  1
  Al  Al237  1  0.33060409  0.82752281  0.49776566  1
  Al  Al238  1  0.68754313  0.32786289  0.00127610  1
  Au  Au239  1  0.66925437  -0.00040144  0.66200641  1
  Au  Au240  1  0.33786635  0.32339753  0.49815237  1
  Au  Au241  1  0.50111734  0.83372388  0.33346127  1
  Au  Au242  1  0.34831478  0.00671082  0.17149393  1
  Au  Au243  1  0.82817594  0.50071208  0.17331652  1
  Au  Au244  1  0.84587422  0.00351769  0.67275776  1
  Au  Au245  1  0.82827916  0.82859153  0.49875878  1
  Au  Au246  1  0.83296469  0.17568510  0.50174572  1
  Au  Au247  1  -0.00326972  0.32574447  0.33370314  1
  Au  Au248  1  0.15896052  0.50778009  0.67332077  1
  Au  Au249  1  0.32369933  0.84303832  0.49767114  1
  Au  Au250  1  0.17099118  0.84239958  -0.00173140  1
  Au  Au251  1  0.50253673  0.84526766  0.67176407  1
  Au  Au252  1  0.16979525  0.50258319  0.32705260  1
  Au  Au253  1  0.50404072  0.32608862  0.33369402  1
  Au  Au254  1  0.49829246  0.65279650  0.67672378  1
  Au  Au255  1  -0.00027177  0.67754631  0.16430282  1
  Au  Au256  1  0.31926555  0.65442276  0.49932869  1
  Au  Au257  1  0.50222804  0.83489014  0.16690618  1
  Au  Au258  1  0.67507136  0.49774762  0.66515698  1
  Au  Au259  1  -0.00125027  0.66727124  0.82298147  1
  Au  Au260  1  0.50594487  0.32281620  0.16743141  1
  Au  Au261  1  0.67043587  0.17516628  0.00451406  1
  Au  Au262  1  0.33318178  0.50198181  0.83061746  1
  Au  Au263  1  0.49552283  0.16942412  0.84336768  1
  Au  Au264  1  0.82937607  0.49716276  0.84254586  1
  Au  Au265  1  0.67137274  -0.00105902  0.83462767  1
  Au  Au266  1  0.16880784  0.15433308  0.50319541  1
  Au  Au267  1  -0.00603721  0.66734279  0.34043339  1
  Au  Au268  1  0.17626042  0.65823136  0.00084158  1
  Au  Au269  1  0.00345078  0.32146595  0.84285055  1
  Au  Au270  1  0.14753981  -0.00127360  0.17755527  1
  Au  Au271  1  0.50474669  0.66628565  0.16197807  1
  Au  Au272  1  -0.00659390  0.32208204  0.65728546  1
  Au  Au273  1  -0.00191453  0.83810160  0.32625057  1
  Au  Au274  1  0.83151451  -0.00070844  0.17227654  1
  Au  Au275  1  -0.00314154  0.83882646  0.82778235  1
  Au  Au276  1  0.67321251  0.67183726  0.49744737  1
  Au  Au277  1  0.32103271  0.00126249  0.67388040  1
  Au  Au278  1  0.16430404  0.33461992  0.49917405  1
  Au  Au279  1  0.50154228  0.65983362  0.33217551  1
  Au  Au280  1  0.33979569  0.32704240  -0.00236979  1
  Au  Au281  1  0.00033535  0.32295546  0.16264104  1
  Au  Au282  1  0.50136862  0.34757047  0.67417738  1
  Au  Au283  1  0.16279066  0.16550829  -0.00174099  1
  Au  Au284  1  0.66600532  0.17844214  0.49580504  1
  Au  Au285  1  0.68076594  0.82005341  0.00192523  1
  Au  Au286  1  0.49785683  0.15891085  0.66378318  1
  Au  Au287  1  0.33121695  0.50026005  0.17441307  1
