# generated using pymatgen
data_Ca24Ti8Al207Au49
_symmetry_space_group_name_H-M   'P 1'
_cell_length_a   17.32137746
_cell_length_b   17.32134258
_cell_length_c   17.32385553
_cell_angle_alpha   89.99403778
_cell_angle_beta   90.00027062
_cell_angle_gamma   89.99952699
_symmetry_Int_Tables_number   1
_chemical_formula_structural   Ca24Ti8Al207Au49
_chemical_formula_sum   'Ca24 Ti8 Al207 Au49'
_cell_volume   5197.66791010
_cell_formula_units_Z   1
loop_
 _symmetry_equiv_pos_site_id
 _symmetry_equiv_pos_as_xyz
  1  'x, y, z'
loop_
 _atom_site_type_symbol
 _atom_site_label
 _atom_site_symmetry_multiplicity
 _atom_site_fract_x
 _atom_site_fract_y
 _atom_site_fract_z
 _atom_site_occupancy
  Ca  Ca0  1  0.25689735  0.00357853  0.00481595  1
  Ca  Ca1  1  0.25522775  0.00298989  0.49696379  1
  Ca  Ca2  1  0.25239784  0.49792956  -0.00591625  1
  Ca  Ca3  1  0.25374213  0.49985040  0.50433018  1
  Ca  Ca4  1  0.74798080  0.00442341  0.00103893  1
  Ca  Ca5  1  0.74489414  -0.00093540  0.50072873  1
  Ca  Ca6  1  0.74750188  0.49382863  -0.00115641  1
  Ca  Ca7  1  0.74982662  0.50055606  0.50056620  1
  Ca  Ca8  1  -0.00390218  0.25147207  -0.00149635  1
  Ca  Ca9  1  -0.00052136  0.25079816  0.49880950  1
  Ca  Ca10  1  0.00101162  0.75006948  -0.00325214  1
  Ca  Ca11  1  0.00486134  0.75274244  0.50353473  1
  Ca  Ca12  1  0.50129162  0.25183381  -0.00034931  1
  Ca  Ca13  1  0.50155075  0.24436700  0.50051686  1
  Ca  Ca14  1  0.49895594  0.75180281  0.00342584  1
  Ca  Ca15  1  0.49306045  0.75583679  0.49809498  1
  Ca  Ca16  1  0.00191802  0.00239289  0.25027637  1
  Ca  Ca17  1  0.00154217  -0.00049669  0.74901314  1
  Ca  Ca18  1  -0.00329986  0.49912848  0.25148893  1
  Ca  Ca19  1  -0.00233859  0.50326710  0.75148190  1
  Ca  Ca20  1  0.50089580  0.00193750  0.24958866  1
  Ca  Ca21  1  0.49787780  0.00252129  0.74841934  1
  Ca  Ca22  1  0.50151573  0.49752394  0.24692005  1
  Ca  Ca23  1  0.50227877  0.49503723  0.75347841  1
  Ti  Ti24  1  0.25119887  0.24801432  0.24779504  1
  Ti  Ti25  1  0.25131343  0.25125904  0.75111937  1
  Ti  Ti26  1  0.25186663  0.75317542  0.25205877  1
  Ti  Ti27  1  0.24985550  0.74824483  0.74911409  1
  Ti  Ti28  1  0.74869583  0.25063404  0.24878716  1
  Ti  Ti29  1  0.74904819  0.24978841  0.75132114  1
  Ti  Ti30  1  0.74938822  0.75025927  0.24788259  1
  Ti  Ti31  1  0.75018994  0.74965653  0.75125249  1
  Al  Al32  1  0.08817812  0.08815757  0.07969051  1
  Al  Al33  1  0.08926960  0.09224323  0.57469438  1
  Al  Al34  1  0.07431479  0.57391055  0.06838036  1
  Al  Al35  1  0.08772156  0.58941808  0.58651889  1
  Al  Al36  1  0.58175240  0.09414091  0.08600588  1
  Al  Al37  1  0.58020074  0.08028303  0.59298417  1
  Al  Al38  1  0.57868206  0.58450049  0.08674326  1
  Al  Al39  1  0.58700791  0.57204332  0.59255581  1
  Al  Al40  1  0.41848784  0.41050026  0.07729477  1
  Al  Al41  1  0.42427265  0.41345286  0.59029760  1
  Al  Al42  1  0.41660752  0.90894659  0.08233727  1
  Al  Al43  1  0.41393171  0.91430658  0.57497831  1
  Al  Al44  1  0.90595359  0.40983148  0.08050139  1
  Al  Al45  1  0.91932235  0.41892213  0.58543795  1
  Al  Al46  1  0.92137150  0.92376304  0.08544974  1
  Al  Al47  1  0.92184962  0.91059528  0.58747141  1
  Al  Al48  1  0.40845217  0.08399427  0.41446222  1
  Al  Al49  1  0.41525691  0.09278236  0.91999072  1
  Al  Al50  1  0.41051955  0.59208602  0.41861597  1
  Al  Al51  1  0.41635770  0.57628071  0.92284223  1
  Al  Al52  1  0.92409261  0.07896406  0.41736448  1
  Al  Al53  1  0.90831315  0.09118320  0.92211171  1
  Al  Al54  1  0.91773822  0.57686293  0.40660951  1
  Al  Al55  1  0.92228864  0.58201616  0.90883779  1
  Al  Al56  1  0.07535763  0.41817186  0.42463598  1
  Al  Al57  1  0.09206847  0.42131294  0.91269260  1
  Al  Al58  1  0.08798852  0.91842344  0.41952470  1
  Al  Al59  1  0.08096907  0.91152527  0.92167707  1
  Al  Al60  1  0.57832516  0.41396124  0.40765422  1
  Al  Al61  1  0.59091817  0.40785624  0.90928845  1
  Al  Al62  1  0.58351547  0.92229254  0.41670580  1
  Al  Al63  1  0.57791659  0.92290317  0.92260128  1
  Al  Al64  1  0.09788374  0.08930674  0.41935756  1
  Al  Al65  1  0.08368361  0.09381468  0.92462537  1
  Al  Al66  1  0.07904474  0.58950889  0.42660812  1
  Al  Al67  1  0.08464274  0.58407244  0.90244546  1
  Al  Al68  1  0.58121199  0.07849633  0.41050759  1
  Al  Al69  1  0.58071357  0.09073175  0.92047980  1
  Al  Al70  1  0.57447585  0.57532001  0.41496663  1
  Al  Al71  1  0.59103803  0.56888657  0.91529304  1
  Al  Al72  1  0.42276614  0.41324181  0.41189639  1
  Al  Al73  1  0.41992664  0.40543971  0.91285406  1
  Al  Al74  1  0.40913764  0.92034148  0.41545477  1
  Al  Al75  1  0.41038549  0.91753451  0.92544542  1
  Al  Al76  1  0.90933280  0.42237066  0.41581938  1
  Al  Al77  1  0.90798160  0.41425786  0.91993494  1
  Al  Al78  1  0.92003228  0.91923532  0.42099880  1
  Al  Al79  1  0.92063988  0.91956353  0.91645576  1
  Al  Al80  1  0.07985119  0.41225477  0.07293899  1
  Al  Al81  1  0.08015541  0.41772360  0.58716342  1
  Al  Al82  1  0.08356222  0.91474951  0.08032392  1
  Al  Al83  1  0.07982069  0.90649388  0.58217382  1
  Al  Al84  1  0.58845286  0.40857679  0.07666771  1
  Al  Al85  1  0.58397468  0.41332396  0.60141051  1
  Al  Al86  1  0.57762997  0.91703908  0.08847779  1
  Al  Al87  1  0.58514566  0.92391266  0.58450733  1
  Al  Al88  1  0.41759555  0.09465163  0.08312836  1
  Al  Al89  1  0.41380749  0.08987581  0.57791326  1
  Al  Al90  1  0.42101491  0.59155518  0.08692328  1
  Al  Al91  1  0.41006054  0.58698736  0.57614099  1
  Al  Al92  1  0.91027956  0.08502204  0.07957520  1
  Al  Al93  1  0.92533703  0.07760846  0.58088004  1
  Al  Al94  1  0.91280778  0.57431801  0.07889369  1
  Al  Al95  1  0.92251992  0.57997469  0.59015751  1
  Al  Al96  1  0.25260157  0.13531708  0.13175969  1
  Al  Al97  1  0.25250326  0.13826698  0.63102965  1
  Al  Al98  1  0.25036342  0.63792904  0.13587228  1
  Al  Al99  1  0.25123262  0.63277054  0.63708595  1
  Al  Al100  1  0.74733350  0.13833108  0.13336501  1
  Al  Al101  1  0.74220709  0.13386172  0.63542666  1
  Al  Al102  1  0.75543661  0.63349745  0.13307375  1
  Al  Al103  1  0.74791618  0.63635001  0.63837228  1
  Al  Al104  1  0.25093852  0.35958064  0.13591274  1
  Al  Al105  1  0.24870193  0.36539268  0.63679371  1
  Al  Al106  1  0.25546884  0.86802286  0.13552289  1
  Al  Al107  1  0.25223517  0.85874706  0.62780922  1
  Al  Al108  1  0.74835263  0.36004042  0.13047932  1
  Al  Al109  1  0.74285552  0.36499760  0.63791599  1
  Al  Al110  1  0.74640340  0.86477732  0.13002188  1
  Al  Al111  1  0.74720897  0.86216479  0.63759674  1
  Al  Al112  1  0.25160814  0.13266773  0.36384640  1
  Al  Al113  1  0.25227925  0.13907769  0.86927223  1
  Al  Al114  1  0.25585549  0.63917882  0.36670054  1
  Al  Al115  1  0.25035832  0.63011734  0.86329003  1
  Al  Al116  1  0.74245718  0.13590178  0.36256084  1
  Al  Al117  1  0.74869560  0.13895185  0.86680738  1
  Al  Al118  1  0.75207285  0.63444159  0.36335281  1
  Al  Al119  1  0.74770859  0.63447702  0.86248447  1
  Al  Al120  1  0.25225436  0.36083462  0.36338946  1
  Al  Al121  1  0.25011274  0.36752978  0.86430387  1
  Al  Al122  1  0.25248936  0.86927910  0.37163249  1
  Al  Al123  1  0.25011082  0.86325575  0.86136748  1
  Al  Al124  1  0.75013933  0.36339080  0.36369899  1
  Al  Al125  1  0.74756561  0.36297515  0.86911679  1
  Al  Al126  1  0.74525530  0.86496148  0.36465555  1
  Al  Al127  1  0.75155915  0.86435406  0.86812867  1
  Al  Al128  1  0.13623966  0.24648042  0.12728642  1
  Al  Al129  1  0.13712161  0.24739205  0.63669573  1
  Al  Al130  1  0.13785467  0.75410077  0.13646343  1
  Al  Al131  1  0.12985698  0.74772622  0.63707743  1
  Al  Al132  1  0.62835682  0.25169964  0.13565895  1
  Al  Al133  1  0.62564182  0.25298407  0.63879115  1
  Al  Al134  1  0.63473244  0.74835481  0.13568822  1
  Al  Al135  1  0.62831498  0.74889733  0.64067467  1
  Al  Al136  1  0.13482279  0.24349635  0.36510649  1
  Al  Al137  1  0.13485038  0.25026121  0.87016640  1
  Al  Al138  1  0.13806759  0.75582202  0.36718654  1
  Al  Al139  1  0.13405361  0.74763959  0.86238343  1
  Al  Al140  1  0.63243091  0.25307013  0.36500908  1
  Al  Al141  1  0.63266695  0.25446213  0.86639464  1
  Al  Al142  1  0.63211052  0.75036695  0.35988119  1
  Al  Al143  1  0.63456793  0.75430390  0.86491559  1
  Al  Al144  1  0.37283722  0.24648466  0.13595377  1
  Al  Al145  1  0.36944843  0.25058377  0.63687888  1
  Al  Al146  1  0.36454273  0.75098681  0.13580893  1
  Al  Al147  1  0.36754968  0.74859524  0.63447368  1
  Al  Al148  1  0.86195640  0.24962384  0.13041561  1
  Al  Al149  1  0.86075014  0.24878050  0.63721537  1
  Al  Al150  1  0.86298559  0.75252915  0.12980421  1
  Al  Al151  1  0.86958784  0.74895157  0.63841289  1
  Al  Al152  1  0.36512859  0.24620417  0.36529917  1
  Al  Al153  1  0.36614300  0.25054676  0.86554258  1
  Al  Al154  1  0.36685752  0.75253864  0.36897954  1
  Al  Al155  1  0.36579720  0.75338967  0.86578740  1
  Al  Al156  1  0.86737301  0.24869240  0.36136087  1
  Al  Al157  1  0.86535200  0.25032447  0.87072481  1
  Al  Al158  1  0.86245600  0.75307028  0.36062841  1
  Al  Al159  1  0.86534647  0.74824036  0.86818020  1
  Al  Al160  1  0.13592815  0.13084269  0.24908520  1
  Al  Al161  1  0.13676564  0.13939608  0.75327213  1
  Al  Al162  1  0.13843604  0.63904483  0.25536776  1
  Al  Al163  1  0.13127972  0.63194981  0.75074777  1
  Al  Al164  1  0.63317782  0.13352717  0.24590102  1
  Al  Al165  1  0.63310074  0.13681887  0.74924765  1
  Al  Al166  1  0.63400552  0.63371323  0.24628847  1
  Al  Al167  1  0.63432770  0.63032840  0.75052235  1
  Al  Al168  1  0.36452803  0.13229640  0.25064368  1
  Al  Al169  1  0.36285599  0.13633697  0.74847507  1
  Al  Al170  1  0.36462755  0.63598816  0.24804364  1
  Al  Al171  1  0.36702174  0.63349223  0.75095919  1
  Al  Al172  1  0.86786389  0.13706843  0.24963152  1
  Al  Al173  1  0.86394595  0.13590627  0.74974841  1
  Al  Al174  1  0.86339921  0.62963460  0.24985676  1
  Al  Al175  1  0.87034329  0.63585386  0.75063561  1
  Al  Al176  1  0.13232686  0.35627343  0.25068826  1
  Al  Al177  1  0.13607631  0.36782453  0.75280183  1
  Al  Al178  1  0.14052679  0.87185501  0.25320249  1
  Al  Al179  1  0.13449375  0.86354772  0.74431001  1
  Al  Al180  1  0.62964599  0.36306373  0.24743832  1
  Al  Al181  1  0.63403312  0.36724679  0.75355369  1
  Al  Al182  1  0.63724208  0.87310726  0.24882741  1
  Al  Al183  1  0.63071232  0.86623054  0.74805963  1
  Al  Al184  1  0.37106987  0.35994377  0.24886491  1
  Al  Al185  1  0.36989747  0.36403239  0.75178451  1
  Al  Al186  1  0.36386247  0.87019505  0.25758341  1
  Al  Al187  1  0.36724601  0.86264353  0.74691088  1
  Al  Al188  1  0.86232589  0.36955853  0.24743486  1
  Al  Al189  1  0.86194183  0.36411616  0.75395717  1
  Al  Al190  1  0.86210040  0.86609678  0.25009440  1
  Al  Al191  1  0.86532290  0.86377543  0.74855016  1
  Al  Al192  1  0.32812195  0.49800568  0.32562459  1
  Al  Al193  1  0.66829626  0.67049129  0.49997310  1
  Al  Al194  1  -0.00033570  0.81442030  0.81565857  1
  Al  Al195  1  0.67708564  0.49745858  0.17196174  1
  Al  Al196  1  0.49950021  0.18653235  0.81997788  1
  Al  Al197  1  -0.00112012  0.32021321  0.68202977  1
  Al  Al198  1  0.32008447  0.31115906  0.00060401  1
  Al  Al199  1  0.32482328  0.50150571  0.67880955  1
  Al  Al200  1  0.32750912  0.00158885  0.17242271  1
  Al  Al201  1  0.66899711  0.00045319  0.81588565  1
  Al  Al202  1  0.32896568  0.00122826  0.82654939  1
  Al  Al203  1  0.50060765  0.18193767  0.31581831  1
  Al  Al204  1  0.81655451  -0.00154862  0.66608629  1
  Al  Al205  1  0.82540917  0.82684446  0.50136694  1
  Al  Al206  1  0.32956688  0.31819644  0.50041805  1
  Al  Al207  1  0.16857130  0.67205411  -0.00236233  1
  Al  Al208  1  0.49963139  0.81074413  0.18411724  1
  Al  Al209  1  0.00095247  0.68254204  0.32680628  1
  Al  Al210  1  0.32976453  0.49751351  0.17175455  1
  Al  Al211  1  0.82486485  0.00111717  0.82608647  1
  Al  Al212  1  0.18904756  0.82330091  -0.00026469  1
  Al  Al213  1  0.16993745  0.50209151  0.33122603  1
  Al  Al214  1  -0.00462170  0.17855129  0.82241827  1
  Al  Al215  1  0.17288803  0.00172080  0.67028340  1
  Al  Al216  1  0.67151229  0.82682942  0.50102540  1
  Al  Al217  1  0.68138654  0.18849348  0.00049990  1
  Al  Al218  1  0.81655626  0.49939484  0.67463739  1
  Al  Al219  1  0.67570801  0.67341079  -0.00051937  1
  Al  Al220  1  0.17126875  0.49928264  0.16947031  1
  Al  Al221  1  0.82265444  0.16981636  0.49917868  1
  Al  Al222  1  0.00119241  0.66782204  0.17659222  1
  Al  Al223  1  0.81230886  0.00063248  0.33355715  1
  Al  Al224  1  0.82389383  0.32833000  0.50170634  1
  Al  Al225  1  0.17356836  0.00233489  0.83396633  1
  Al  Al226  1  0.50288745  0.67396136  0.82597031  1
  Al  Al227  1  0.18759304  0.68017322  0.50205306  1
  Al  Al228  1  0.32373824  0.68579779  0.00002390  1
  Al  Al229  1  0.00081633  0.82686135  0.18294515  1
  Al  Al230  1  0.66576492  0.32462205  0.50059375  1
  Al  Al231  1  0.32743209  -0.00074196  0.67107448  1
  Al  Al232  1  0.83214130  0.67269733  0.50008475  1
  Al  Al233  1  0.50106294  0.67883762  0.31421964  1
  Al  Al234  1  0.17566389  0.31373775  0.49937492  1
  Al  Al235  1  0.81481133  0.00181403  0.17510203  1
  Al  Al236  1  -0.00095001  0.32285507  0.17696104  1
  Al  Al237  1  0.68168544  0.49876531  0.32469164  1
  Al  Al238  1  0.81514337  0.49999459  0.82628385  1
  Au  Au239  1  0.50366162  0.65949098  0.83431375  1
  Au  Au240  1  0.66375745  0.00365075  0.17043322  1
  Au  Au241  1  0.17731082  0.00345580  0.85067515  1
  Au  Au242  1  -0.00028538  0.32786472  0.16555229  1
  Au  Au243  1  0.17309608  -0.00262862  0.65402272  1
  Au  Au244  1  0.16045136  0.32039129  0.50341764  1
  Au  Au245  1  0.17586619  0.50522411  0.34678789  1
  Au  Au246  1  0.00069675  0.67360881  0.67577051  1
  Au  Au247  1  0.32829865  0.49486324  0.83469112  1
  Au  Au248  1  0.00094551  0.83224555  0.33339303  1
  Au  Au249  1  0.17738939  0.49985703  0.15372612  1
  Au  Au250  1  0.82816978  -0.00000597  0.32698560  1
  Au  Au251  1  0.83264805  0.66459965  -0.00694246  1
  Au  Au252  1  -0.00299007  0.16851907  0.16166244  1
  Au  Au253  1  0.66725036  0.66433173  -0.00022794  1
  Au  Au254  1  0.17745706  0.82575048  0.50066241  1
  Au  Au255  1  0.83865797  0.17617502  0.49952674  1
  Au  Au256  1  0.00071203  0.67343087  0.16063642  1
  Au  Au257  1  0.49427154  0.83716425  0.83574370  1
  Au  Au258  1  -0.00061578  0.16994552  0.83048581  1
  Au  Au259  1  0.49777807  0.66675427  0.66147308  1
  Au  Au260  1  0.49812726  0.66977699  0.32296284  1
  Au  Au261  1  0.49774649  0.17004999  0.32779134  1
  Au  Au262  1  0.50053582  0.32870813  0.16939680  1
  Au  Au263  1  -0.00042875  0.34355783  0.82890878  1
  Au  Au264  1  0.33999012  -0.00010992  0.17473006  1
  Au  Au265  1  0.16255705  0.49949027  0.67717977  1
  Au  Au266  1  0.66394564  0.15950420  0.50161990  1
  Au  Au267  1  0.00585788  0.16607119  0.33361382  1
  Au  Au268  1  0.65250131  0.67380084  0.50122869  1
  Au  Au269  1  0.66987279  0.00371063  0.83251568  1
  Au  Au270  1  0.32836495  0.67372199  -0.00006410  1
  Au  Au271  1  0.66348780  0.83012837  0.00144365  1
  Au  Au272  1  0.49705482  0.17459295  0.67218467  1
  Au  Au273  1  0.16617947  0.00039577  0.16688363  1
  Au  Au274  1  0.17304250  0.32298934  -0.00341465  1
  Au  Au275  1  -0.00613395  0.33593144  0.33192371  1
  Au  Au276  1  0.83265025  -0.00254186  0.67213842  1
  Au  Au277  1  0.82503312  0.49689600  0.17265823  1
  Au  Au278  1  0.33323950  0.49894195  0.66996098  1
  Au  Au279  1  0.49953946  0.84179891  0.32838741  1
  Au  Au280  1  0.00326802  0.17322619  0.66534317  1
  Au  Au281  1  0.66773288  0.33737519  0.50036333  1
  Au  Au282  1  0.34601675  0.32232522  0.50004607  1
  Au  Au283  1  -0.00006664  0.82994687  0.82310435  1
  Au  Au284  1  0.83483069  0.83858109  0.00236751  1
  Au  Au285  1  0.84754154  0.67235707  0.49531902  1
  Au  Au286  1  0.49938429  0.83690246  0.66569330  1
  Au  Au287  1  0.17968328  0.00058892  0.33642709  1
