# generated using pymatgen
data_Ca24Ti8Al207Au49
_symmetry_space_group_name_H-M   'P 1'
_cell_length_a   17.32431080
_cell_length_b   17.32151963
_cell_length_c   17.32329016
_cell_angle_alpha   89.99547266
_cell_angle_beta   89.99613563
_cell_angle_gamma   89.99969807
_symmetry_Int_Tables_number   1
_chemical_formula_structural   Ca24Ti8Al207Au49
_chemical_formula_sum   'Ca24 Ti8 Al207 Au49'
_cell_volume   5198.43160169
_cell_formula_units_Z   1
loop_
 _symmetry_equiv_pos_site_id
 _symmetry_equiv_pos_as_xyz
  1  'x, y, z'
loop_
 _atom_site_type_symbol
 _atom_site_label
 _atom_site_symmetry_multiplicity
 _atom_site_fract_x
 _atom_site_fract_y
 _atom_site_fract_z
 _atom_site_occupancy
  Ca  Ca0  1  0.24040227  -0.00160903  0.00066393  1
  Ca  Ca1  1  0.24582121  -0.00955406  0.49970564  1
  Ca  Ca2  1  0.25004925  0.50377357  0.00277720  1
  Ca  Ca3  1  0.25284399  0.50827893  0.49958426  1
  Ca  Ca4  1  0.75818163  -0.00480748  -0.00325280  1
  Ca  Ca5  1  0.75398262  -0.00492200  0.50041305  1
  Ca  Ca6  1  0.75172309  0.50495266  -0.00281288  1
  Ca  Ca7  1  0.75133097  0.50808095  0.50238419  1
  Ca  Ca8  1  0.00053177  0.24432107  0.00424787  1
  Ca  Ca9  1  0.00156051  0.25002767  0.49822845  1
  Ca  Ca10  1  -0.00137070  0.75376335  0.00424114  1
  Ca  Ca11  1  0.00035112  0.75209902  0.49930657  1
  Ca  Ca12  1  0.49662133  0.24750248  0.00010783  1
  Ca  Ca13  1  0.50368340  0.24763917  0.50632561  1
  Ca  Ca14  1  0.50024343  0.74825448  -0.00395196  1
  Ca  Ca15  1  0.50070505  0.74436775  0.50898316  1
  Ca  Ca16  1  0.00209981  -0.00652924  0.24429012  1
  Ca  Ca17  1  0.00159503  -0.00711748  0.75169457  1
  Ca  Ca18  1  0.00310027  0.50318083  0.24680898  1
  Ca  Ca19  1  -0.00172029  0.50423291  0.74450374  1
  Ca  Ca20  1  0.49655965  -0.00727134  0.25022236  1
  Ca  Ca21  1  0.50187990  -0.00427639  0.75064456  1
  Ca  Ca22  1  0.49236972  0.49972075  0.24984387  1
  Ca  Ca23  1  0.50074776  0.50353993  0.74515948  1
  Ti  Ti24  1  0.24771647  0.24883242  0.24837787  1
  Ti  Ti25  1  0.24903558  0.24855652  0.75010112  1
  Ti  Ti26  1  0.24829146  0.75064608  0.24930983  1
  Ti  Ti27  1  0.25048248  0.75079478  0.75177184  1
  Ti  Ti28  1  0.75399603  0.24713861  0.24842231  1
  Ti  Ti29  1  0.75124710  0.24937161  0.74898668  1
  Ti  Ti30  1  0.75167622  0.75075006  0.24893414  1
  Ti  Ti31  1  0.74917304  0.75006850  0.75147951  1
  Al  Al32  1  0.08049350  0.09146277  0.08537017  1
  Al  Al33  1  0.07691495  0.07416895  0.58477986  1
  Al  Al34  1  0.08132109  0.59458253  0.08983301  1
  Al  Al35  1  0.07575428  0.58715875  0.57620342  1
  Al  Al36  1  0.58691839  0.07352923  0.07651168  1
  Al  Al37  1  0.58173515  0.07486815  0.58298353  1
  Al  Al38  1  0.58349041  0.58653354  0.07732508  1
  Al  Al39  1  0.59118793  0.59405620  0.59158877  1
  Al  Al40  1  0.40638511  0.42872228  0.08166022  1
  Al  Al41  1  0.40992904  0.42799579  0.58711937  1
  Al  Al42  1  0.40937940  0.91498866  0.07438944  1
  Al  Al43  1  0.41607267  0.89876559  0.58889603  1
  Al  Al44  1  0.92601511  0.41316606  0.08887593  1
  Al  Al45  1  0.91454452  0.41566312  0.58774860  1
  Al  Al46  1  0.91192321  0.90989332  0.08918148  1
  Al  Al47  1  0.91984027  0.91024808  0.59038929  1
  Al  Al48  1  0.41782894  0.07640848  0.41881640  1
  Al  Al49  1  0.41723180  0.08828422  0.91691238  1
  Al  Al50  1  0.41897315  0.58466217  0.42301994  1
  Al  Al51  1  0.41986213  0.58581580  0.91619127  1
  Al  Al52  1  0.92280672  0.08247277  0.41781021  1
  Al  Al53  1  0.92491039  0.07426743  0.92184338  1
  Al  Al54  1  0.91732255  0.59540081  0.42241516  1
  Al  Al55  1  0.91449914  0.58828680  0.92074649  1
  Al  Al56  1  0.08438350  0.42735349  0.40337859  1
  Al  Al57  1  0.08159023  0.41475371  0.92555914  1
  Al  Al58  1  0.08802993  0.90661235  0.41210285  1
  Al  Al59  1  0.07944930  0.90645695  0.91945522  1
  Al  Al60  1  0.57424792  0.42949176  0.42983683  1
  Al  Al61  1  0.58533720  0.42163635  0.91388988  1
  Al  Al62  1  0.58183902  0.91812435  0.43342353  1
  Al  Al63  1  0.59013250  0.90662503  0.91636173  1
  Al  Al64  1  0.07825036  0.07146646  0.40966737  1
  Al  Al65  1  0.08441223  0.08746764  0.92410487  1
  Al  Al66  1  0.08813120  0.58553455  0.41283155  1
  Al  Al67  1  0.07921915  0.59135378  0.92511976  1
  Al  Al68  1  0.57502240  0.08001642  0.42278202  1
  Al  Al69  1  0.57901980  0.08066345  0.91560709  1
  Al  Al70  1  0.58517406  0.59528649  0.43002834  1
  Al  Al71  1  0.58516374  0.58721270  0.91360240  1
  Al  Al72  1  0.41296984  0.42451399  0.42587417  1
  Al  Al73  1  0.42022332  0.42229984  0.91950778  1
  Al  Al74  1  0.40438922  0.91159361  0.43023433  1
  Al  Al75  1  0.41544592  0.90944749  0.91787021  1
  Al  Al76  1  0.92682257  0.41552581  0.42637198  1
  Al  Al77  1  0.92121138  0.42527254  0.91856870  1
  Al  Al78  1  0.92680332  0.90742489  0.41420941  1
  Al  Al79  1  0.91614834  0.90439925  0.91832614  1
  Al  Al80  1  0.08342040  0.41053963  0.08975888  1
  Al  Al81  1  0.07184264  0.41498921  0.58973099  1
  Al  Al82  1  0.07807008  0.90625602  0.08399603  1
  Al  Al83  1  0.08251392  0.90163288  0.58297954  1
  Al  Al84  1  0.58363927  0.42813467  0.06999250  1
  Al  Al85  1  0.58520580  0.43184421  0.59126079  1
  Al  Al86  1  0.59846758  0.91058307  0.07304387  1
  Al  Al87  1  0.57910579  0.90184368  0.59184385  1
  Al  Al88  1  0.41103728  0.07774099  0.07377414  1
  Al  Al89  1  0.42032565  0.07649605  0.57984291  1
  Al  Al90  1  0.40945860  0.58251929  0.08623761  1
  Al  Al91  1  0.41608138  0.59106433  0.59380368  1
  Al  Al92  1  0.91865195  0.07520359  0.09380133  1
  Al  Al93  1  0.91661757  0.07666249  0.58716381  1
  Al  Al94  1  0.91866055  0.59723399  0.08490418  1
  Al  Al95  1  0.90985022  0.59142788  0.58342989  1
  Al  Al96  1  0.24461078  0.13052748  0.13330944  1
  Al  Al97  1  0.24930443  0.13330891  0.63459964  1
  Al  Al98  1  0.24785341  0.63656364  0.12954198  1
  Al  Al99  1  0.25282997  0.63819982  0.63613575  1
  Al  Al100  1  0.75429525  0.12915220  0.12978253  1
  Al  Al101  1  0.75165611  0.13630412  0.62980010  1
  Al  Al102  1  0.75200898  0.63768898  0.13431958  1
  Al  Al103  1  0.74802080  0.63298141  0.63517657  1
  Al  Al104  1  0.24831096  0.36777883  0.13545645  1
  Al  Al105  1  0.25186755  0.36516478  0.63684799  1
  Al  Al106  1  0.24329086  0.86782914  0.13383312  1
  Al  Al107  1  0.25103023  0.86111777  0.63227358  1
  Al  Al108  1  0.75254633  0.36344840  0.13696144  1
  Al  Al109  1  0.75036185  0.37191061  0.63776577  1
  Al  Al110  1  0.75833798  0.86651499  0.13129992  1
  Al  Al111  1  0.74780079  0.86173417  0.63688088  1
  Al  Al112  1  0.25077915  0.13249199  0.36353883  1
  Al  Al113  1  0.24538321  0.12949529  0.86376310  1
  Al  Al114  1  0.24616095  0.63574797  0.36430691  1
  Al  Al115  1  0.25157392  0.64007723  0.86962511  1
  Al  Al116  1  0.75359952  0.13414644  0.36918659  1
  Al  Al117  1  0.75033952  0.13026509  0.86884238  1
  Al  Al118  1  0.75323106  0.63860679  0.36788427  1
  Al  Al119  1  0.74708228  0.63857647  0.86313322  1
  Al  Al120  1  0.24704814  0.36795644  0.36054256  1
  Al  Al121  1  0.24759671  0.36597249  0.86355874  1
  Al  Al122  1  0.24772384  0.86252243  0.36774181  1
  Al  Al123  1  0.24751821  0.86958549  0.86149760  1
  Al  Al124  1  0.75413631  0.36153479  0.36457854  1
  Al  Al125  1  0.75283921  0.36509647  0.86235746  1
  Al  Al126  1  0.75154871  0.86405216  0.36404603  1
  Al  Al127  1  0.74925471  0.86835865  0.86284043  1
  Al  Al128  1  0.13111107  0.24865799  0.13833006  1
  Al  Al129  1  0.12902418  0.24724720  0.63746488  1
  Al  Al130  1  0.13314112  0.75199475  0.13302037  1
  Al  Al131  1  0.13553790  0.75501664  0.63395004  1
  Al  Al132  1  0.63996167  0.24494118  0.13307231  1
  Al  Al133  1  0.63460442  0.24639178  0.63708276  1
  Al  Al134  1  0.64229512  0.75416250  0.12379541  1
  Al  Al135  1  0.63341666  0.74707898  0.63575122  1
  Al  Al136  1  0.13459355  0.24716028  0.36243648  1
  Al  Al137  1  0.13446415  0.24739474  0.86277287  1
  Al  Al138  1  0.13192103  0.75627351  0.36646470  1
  Al  Al139  1  0.13190787  0.75400715  0.87126800  1
  Al  Al140  1  0.63743270  0.24700027  0.36451652  1
  Al  Al141  1  0.63819112  0.24866353  0.86151755  1
  Al  Al142  1  0.63629017  0.74888930  0.36514191  1
  Al  Al143  1  0.63142517  0.75198455  0.86658051  1
  Al  Al144  1  0.36111862  0.24684386  0.13626576  1
  Al  Al145  1  0.36592262  0.24947539  0.63786948  1
  Al  Al146  1  0.36397037  0.74970393  0.13528231  1
  Al  Al147  1  0.36826054  0.74982542  0.63730121  1
  Al  Al148  1  0.86928942  0.24642705  0.13206805  1
  Al  Al149  1  0.87122863  0.24682770  0.63740964  1
  Al  Al150  1  0.86971738  0.75338567  0.13397014  1
  Al  Al151  1  0.86190499  0.74951182  0.63402036  1
  Al  Al152  1  0.35935292  0.25045508  0.36130971  1
  Al  Al153  1  0.36217790  0.25096870  0.86210928  1
  Al  Al154  1  0.36025036  0.75037634  0.36346150  1
  Al  Al155  1  0.37219398  0.74905897  0.86158854  1
  Al  Al156  1  0.86753284  0.24590438  0.36165607  1
  Al  Al157  1  0.86423292  0.24800282  0.86683229  1
  Al  Al158  1  0.86880070  0.75177707  0.36281310  1
  Al  Al159  1  0.86697083  0.75673931  0.86742940  1
  Al  Al160  1  0.13259796  0.13212386  0.24362068  1
  Al  Al161  1  0.13524806  0.12722259  0.74882554  1
  Al  Al162  1  0.13476092  0.63805453  0.24828555  1
  Al  Al163  1  0.13570031  0.63988786  0.75078964  1
  Al  Al164  1  0.64051467  0.13323701  0.24660145  1
  Al  Al165  1  0.64081838  0.12674198  0.74988567  1
  Al  Al166  1  0.63661094  0.64289268  0.24592905  1
  Al  Al167  1  0.62918079  0.63738490  0.74674272  1
  Al  Al168  1  0.35927161  0.12831165  0.24764253  1
  Al  Al169  1  0.36231058  0.13112094  0.75193765  1
  Al  Al170  1  0.36079826  0.63489644  0.24691288  1
  Al  Al171  1  0.36786014  0.63322302  0.74814611  1
  Al  Al172  1  0.86667360  0.12888920  0.24274520  1
  Al  Al173  1  0.86390345  0.13284719  0.75070681  1
  Al  Al174  1  0.86826418  0.63898528  0.24663388  1
  Al  Al175  1  0.86435527  0.63760707  0.74825610  1
  Al  Al176  1  0.13445356  0.36689770  0.24759594  1
  Al  Al177  1  0.13442861  0.36589239  0.74457975  1
  Al  Al178  1  0.12849335  0.86084073  0.24742169  1
  Al  Al179  1  0.13255857  0.86407934  0.75153844  1
  Al  Al180  1  0.63726181  0.36206174  0.25023311  1
  Al  Al181  1  0.63386665  0.36528137  0.74751812  1
  Al  Al182  1  0.64049969  0.86462893  0.24094875  1
  Al  Al183  1  0.63055864  0.86396963  0.75020729  1
  Al  Al184  1  0.36260482  0.36773134  0.24528804  1
  Al  Al185  1  0.36365381  0.37137140  0.75044308  1
  Al  Al186  1  0.35719891  0.87046002  0.24766479  1
  Al  Al187  1  0.36967752  0.86423387  0.74985752  1
  Al  Al188  1  0.86750478  0.36184538  0.24609051  1
  Al  Al189  1  0.86632347  0.36502649  0.74379827  1
  Al  Al190  1  0.87008012  0.86302320  0.24635207  1
  Al  Al191  1  0.86919968  0.86162532  0.75042336  1
  Al  Al192  1  0.66655846  0.50621591  0.32773091  1
  Al  Al193  1  0.18176753  0.50250044  0.18154659  1
  Al  Al194  1  0.17533123  0.16811899  0.49817154  1
  Al  Al195  1  -0.00070440  0.68618378  0.82457051  1
  Al  Al196  1  0.50237775  0.82097894  0.16721813  1
  Al  Al197  1  0.00119492  0.32588611  0.31686428  1
  Al  Al198  1  0.49845755  0.17228928  0.32494444  1
  Al  Al199  1  0.67130770  -0.00042459  0.32041184  1
  Al  Al200  1  0.67534474  0.32204135  -0.00135965  1
  Al  Al201  1  0.00018626  0.68845377  0.67275087  1
  Al  Al202  1  0.49758524  0.32557934  0.67301774  1
  Al  Al203  1  0.83059733  0.50178761  0.17274469  1
  Al  Al204  1  0.67613825  0.50076667  0.17196142  1
  Al  Al205  1  0.67688934  0.81198204  0.50124440  1
  Al  Al206  1  0.32752242  0.32771862  -0.00042269  1
  Al  Al207  1  0.82946677  0.49984467  0.33037680  1
  Al  Al208  1  0.00004185  0.17432864  0.82058266  1
  Al  Al209  1  -0.00014705  0.33382323  0.81348830  1
  Al  Al210  1  0.82608270  0.50200453  0.81956913  1
  Al  Al211  1  0.83177294  0.32479610  0.00102566  1
  Al  Al212  1  0.17824356  -0.00393302  0.31619224  1
  Al  Al213  1  0.67405380  0.50177180  0.81455130  1
  Al  Al214  1  0.67209551  0.32934093  0.50324351  1
  Al  Al215  1  0.83189434  -0.00390775  0.31962587  1
  Al  Al216  1  0.32225884  -0.00632983  0.67365194  1
  Al  Al217  1  0.30724585  0.81717104  -0.00247990  1
  Al  Al218  1  0.49843595  0.67306746  0.32326354  1
  Al  Al219  1  0.17455919  0.68471860  0.50008242  1
  Al  Al220  1  0.49814856  0.82918873  0.33481682  1
  Al  Al221  1  0.49911669  0.16765064  0.16859273  1
  Al  Al222  1  0.00086259  0.17258571  0.31286053  1
  Al  Al223  1  0.17914240  0.50272135  0.82913454  1
  Al  Al224  1  0.50046315  0.17951390  0.81894050  1
  Al  Al225  1  0.31628624  0.50159483  0.31792225  1
  Al  Al226  1  0.82903564  0.81826710  0.49921677  1
  Al  Al227  1  0.18138559  0.50268523  0.66817052  1
  Al  Al228  1  0.32387711  0.32281501  0.50091920  1
  Al  Al229  1  0.49791601  0.32898089  0.33298653  1
  Al  Al230  1  0.31110128  0.17559532  -0.00174104  1
  Al  Al231  1  0.82874343  0.31839202  0.50134186  1
  Al  Al232  1  0.17248835  0.30500859  0.00118706  1
  Al  Al233  1  0.16895309  0.33229619  0.49958260  1
  Al  Al234  1  0.32689499  0.68426578  0.50051707  1
  Al  Al235  1  0.00183039  0.68594227  0.31367862  1
  Al  Al236  1  0.81867940  0.69023238  -0.00045927  1
  Al  Al237  1  0.50098417  0.33264384  0.16516769  1
  Al  Al238  1  0.82008079  -0.00278445  0.68079336  1
  Au  Au239  1  0.50065499  0.83298079  0.82478812  1
  Au  Au240  1  0.16504235  0.50511342  0.66458266  1
  Au  Au241  1  0.83927617  0.16955085  0.50135964  1
  Au  Au242  1  0.82886374  0.33729457  0.00228322  1
  Au  Au243  1  0.84516841  0.49576380  0.33045189  1
  Au  Au244  1  0.34263847  0.17536303  0.49878529  1
  Au  Au245  1  0.32850461  0.50384031  0.32999412  1
  Au  Au246  1  0.15949072  -0.00238779  0.16630218  1
  Au  Au247  1  0.17089115  0.34836631  0.49522264  1
  Au  Au248  1  0.49884900  0.65649348  0.17474730  1
  Au  Au249  1  0.16936252  0.50379430  0.84321717  1
  Au  Au250  1  0.66760848  0.16469666  0.49893857  1
  Au  Au251  1  0.49748588  0.33662026  0.66684137  1
  Au  Au252  1  0.16639134  -0.00999397  0.66635275  1
  Au  Au253  1  0.67201842  0.67791703  -0.00306206  1
  Au  Au254  1  0.82627208  0.50273496  0.66934964  1
  Au  Au255  1  0.65051729  0.50944169  0.32377457  1
  Au  Au256  1  0.17510514  0.32183393  0.00378618  1
  Au  Au257  1  0.84119810  -0.00482982  0.82846115  1
  Au  Au258  1  0.33205129  -0.00015480  0.83749917  1
  Au  Au259  1  0.67006789  -0.00130560  0.83471250  1
  Au  Au260  1  0.50050274  0.32609468  0.84074429  1
  Au  Au261  1  0.33248867  0.67236303  -0.00066466  1
  Au  Au262  1  0.68390718  -0.00360846  0.15735657  1
  Au  Au263  1  0.84733377  -0.00460981  0.32494805  1
  Au  Au264  1  0.50081686  0.66746537  0.82026938  1
  Au  Au265  1  0.16610396  0.68474890  0.00268384  1
  Au  Au266  1  -0.00003154  0.16910146  0.67071045  1
  Au  Au267  1  0.16100412  -0.00267199  0.83848281  1
  Au  Au268  1  0.83838931  0.16096854  0.00342443  1
  Au  Au269  1  0.49876525  0.15173568  0.17427783  1
  Au  Au270  1  0.66261522  0.17320810  -0.00393090  1
  Au  Au271  1  0.32701486  -0.00207297  0.16440850  1
  Au  Au272  1  0.67846382  0.34517085  0.50370585  1
  Au  Au273  1  0.67278752  -0.00646726  0.66244959  1
  Au  Au274  1  -0.00039848  0.32796299  0.82990077  1
  Au  Au275  1  0.32573531  -0.00292932  0.33742347  1
  Au  Au276  1  0.50270764  0.83317107  0.15605533  1
  Au  Au277  1  0.49639380  0.32282687  0.34885911  1
  Au  Au278  1  0.32758107  -0.00162889  0.66336939  1
  Au  Au279  1  0.65755838  -0.00205124  0.32999106  1
  Au  Au280  1  0.49714986  0.82279257  0.35029096  1
  Au  Au281  1  0.50192783  0.16178332  0.67384145  1
  Au  Au282  1  0.16717188  0.15409241  0.49664800  1
  Au  Au283  1  0.16676101  0.50259569  0.17360129  1
  Au  Au284  1  0.33999671  0.50154210  0.82344098  1
  Au  Au285  1  -0.00107453  0.67379986  0.82817329  1
  Au  Au286  1  0.50068642  0.34833443  0.16110152  1
  Au  Au287  1  0.00297093  0.67663075  0.32798814  1
