# generated using pymatgen
data_La17.92Ce19.84Pr12.16Nd7.68Sm6.4Bi64S128O32F32
_symmetry_space_group_name_H-M   'P 1'
_cell_length_a   16.14348000
_cell_length_b   16.14348000
_cell_length_c   26.80580000
_cell_angle_alpha   90.00000000
_cell_angle_beta   90.00000000
_cell_angle_gamma   90.00000000
_symmetry_Int_Tables_number   1
_chemical_formula_structural
La17.92Ce19.84Pr12.16Nd7.68Sm6.4Bi64S128O32F32
_chemical_formula_sum
'La17.92 Ce19.84 Pr12.16 Nd7.68 Sm6.4 Bi64 S128 O32 F32'
_cell_volume   6985.91171577
_cell_formula_units_Z   1
loop_
 _symmetry_equiv_pos_site_id
 _symmetry_equiv_pos_as_xyz
  1  'x, y, z'
loop_
 _atom_type_symbol
 _atom_type_oxidation_number
  La3+  3.0
  Ce3+  3.0
  Pr3+  3.0
  Nd3+  3.0
  Sm3+  3.0
  Bi2+  2.0
  S2-  -2.0
  O-  -1.0
  F-  -1.0
loop_
 _atom_site_type_symbol
 _atom_site_label
 _atom_site_symmetry_multiplicity
 _atom_site_fract_x
 _atom_site_fract_y
 _atom_site_fract_z
 _atom_site_occupancy
  La3+  Sm1  1  0.50000000  0.12500000  0.04937500  1.0
  La3+  Sm1  1  0.75000000  0.37500000  0.04937500  1.0
  La3+  Sm1  1  0.62500000  0.50000000  0.45062500  1.0
  La3+  Sm1  1  0.87500000  0.25000000  0.45062500  1.0
  La3+  Sm1  1  0.37500000  0.50000000  0.95062500  1.0
  La3+  Sm1  1  0.12500000  0.25000000  0.45062500  1.0
  La3+  Sm1  1  0.62500000  0.00000000  0.45062500  1.0
  La3+  Sm1  1  0.87500000  0.50000000  0.95062500  1.0
  La3+  Sm1  1  0.00000000  0.12500000  0.04937500  1.0
  La3+  Sm1  1  0.37500000  0.75000000  0.95062500  1.0
  La3+  Sm1  1  0.00000000  0.87500000  0.54937500  1.0
  La3+  Sm1  1  0.62500000  0.50000000  0.95062500  1.0
  La3+  Sm1  1  0.37500000  0.50000000  0.45062500  1.0
  La3+  Sm1  1  0.75000000  0.12500000  0.54937500  1.0
  La3+  Sm1  1  0.50000000  0.87500000  0.04937500  1.0
  La3+  Sm1  1  0.00000000  0.62500000  0.54937500  1.0
  La3+  Sm1  1  0.25000000  0.37500000  0.54937500  1.0
  La3+  Sm1  1  0.25000000  0.12500000  0.04937500  1.0
  Ce3+  Sm1  1  0.00000000  0.37500000  0.04937500  1.0
  Ce3+  Sm1  1  0.62500000  0.00000000  0.95062500  1.0
  Ce3+  Sm1  1  0.25000000  0.87500000  0.04937500  1.0
  Ce3+  Sm1  1  0.75000000  0.62500000  0.04937500  1.0
  Ce3+  Sm1  1  0.12500000  0.00000000  0.95062500  1.0
  Ce3+  Sm1  1  0.75000000  0.12500000  0.04937500  1.0
  Ce3+  Sm1  1  0.87500000  0.50000000  0.45062500  1.0
  Ce3+  Sm1  1  0.12500000  0.00000000  0.45062500  1.0
  Ce3+  Sm1  1  0.00000000  0.37500000  0.54937500  1.0
  Ce3+  Sm1  1  0.37500000  0.25000000  0.45062500  1.0
  Ce3+  Sm1  1  0.50000000  0.62500000  0.04937500  1.0
  Ce3+  Sm1  1  0.50000000  0.87500000  0.54937500  1.0
  Ce3+  Sm1  1  0.62500000  0.75000000  0.45062500  1.0
  Ce3+  Sm1  1  0.37500000  0.25000000  0.95062500  1.0
  Ce3+  Sm1  1  0.50000000  0.62500000  0.54937500  1.0
  Ce3+  Sm1  1  0.25000000  0.62500000  0.04937500  1.0
  Ce3+  Sm1  1  0.62500000  0.25000000  0.95062500  1.0
  Ce3+  Sm1  1  0.62500000  0.25000000  0.45062500  1.0
  Ce3+  Sm1  1  0.12500000  0.25000000  0.95062500  1.0
  Ce3+  Sm1  1  0.37500000  0.00000000  0.95062500  1.0
  Pr3+  Sm1  1  0.25000000  0.87500000  0.54937500  1.0
  Pr3+  Sm1  1  0.75000000  0.87500000  0.04937500  1.0
  Pr3+  Sm1  1  0.00000000  0.62500000  0.04937500  1.0
  Pr3+  Sm1  1  0.50000000  0.12500000  0.54937500  1.0
  Pr3+  Sm1  1  0.87500000  0.25000000  0.95062500  1.0
  Pr3+  Sm1  1  0.75000000  0.87500000  0.54937500  1.0
  Pr3+  Sm1  1  0.75000000  0.37500000  0.54937500  1.0
  Pr3+  Sm1  1  0.00000000  0.87500000  0.04937500  1.0
  Pr3+  Sm1  1  0.50000000  0.37500000  0.54937500  1.0
  Pr3+  Sm1  1  0.87500000  0.75000000  0.45062500  1.0
  Pr3+  Sm1  1  0.12500000  0.75000000  0.95062500  1.0
  Pr3+  Sm1  1  0.12500000  0.50000000  0.45062500  1.0
  Nd3+  Sm1  1  0.37500000  0.75000000  0.45062500  1.0
  Nd3+  Sm1  1  0.75000000  0.62500000  0.54937500  1.0
  Nd3+  Sm1  1  0.12500000  0.50000000  0.95062500  1.0
  Nd3+  Sm1  1  0.87500000  0.00000000  0.95062500  1.0
  Nd3+  Sm1  1  0.12500000  0.75000000  0.45062500  1.0
  Nd3+  Sm1  1  0.25000000  0.62500000  0.54937500  1.0
  Nd3+  Sm1  1  0.87500000  0.75000000  0.95062500  1.0
  Nd3+  Sm1  1  0.25000000  0.12500000  0.54937500  1.0
  Sm3+  Sm1  1  0.37500000  0.00000000  0.45062500  1.0
  Sm3+  Sm1  1  0.00000000  0.12500000  0.54937500  1.0
  Sm3+  Sm1  1  0.62500000  0.75000000  0.95062500  1.0
  Sm3+  Sm1  1  0.87500000  0.00000000  0.45062500  1.0
  Sm3+  Sm1  1  0.50000000  0.37500000  0.04937500  1.0
  Sm3+  Sm1  1  0.25000000  0.37500000  0.04937500  1.0
  Bi2+  Bi1  1  0.00000000  0.12500000  0.31208500  1.0
  Bi2+  Bi1  1  0.00000000  0.12500000  0.81208500  1.0
  Bi2+  Bi1  1  0.00000000  0.37500000  0.31208500  1.0
  Bi2+  Bi1  1  0.00000000  0.37500000  0.81208500  1.0
  Bi2+  Bi1  1  0.00000000  0.62500000  0.31208500  1.0
  Bi2+  Bi1  1  0.00000000  0.62500000  0.81208500  1.0
  Bi2+  Bi1  1  0.00000000  0.87500000  0.31208500  1.0
  Bi2+  Bi1  1  0.00000000  0.87500000  0.81208500  1.0
  Bi2+  Bi1  1  0.25000000  0.12500000  0.31208500  1.0
  Bi2+  Bi1  1  0.25000000  0.12500000  0.81208500  1.0
  Bi2+  Bi1  1  0.25000000  0.37500000  0.31208500  1.0
  Bi2+  Bi1  1  0.25000000  0.37500000  0.81208500  1.0
  Bi2+  Bi1  1  0.25000000  0.62500000  0.31208500  1.0
  Bi2+  Bi1  1  0.25000000  0.62500000  0.81208500  1.0
  Bi2+  Bi1  1  0.25000000  0.87500000  0.31208500  1.0
  Bi2+  Bi1  1  0.25000000  0.87500000  0.81208500  1.0
  Bi2+  Bi1  1  0.50000000  0.12500000  0.31208500  1.0
  Bi2+  Bi1  1  0.50000000  0.12500000  0.81208500  1.0
  Bi2+  Bi1  1  0.50000000  0.37500000  0.31208500  1.0
  Bi2+  Bi1  1  0.50000000  0.37500000  0.81208500  1.0
  Bi2+  Bi1  1  0.50000000  0.62500000  0.31208500  1.0
  Bi2+  Bi1  1  0.50000000  0.62500000  0.81208500  1.0
  Bi2+  Bi1  1  0.50000000  0.87500000  0.31208500  1.0
  Bi2+  Bi1  1  0.50000000  0.87500000  0.81208500  1.0
  Bi2+  Bi1  1  0.75000000  0.12500000  0.31208500  1.0
  Bi2+  Bi1  1  0.75000000  0.12500000  0.81208500  1.0
  Bi2+  Bi1  1  0.75000000  0.37500000  0.31208500  1.0
  Bi2+  Bi1  1  0.75000000  0.37500000  0.81208500  1.0
  Bi2+  Bi1  1  0.75000000  0.62500000  0.31208500  1.0
  Bi2+  Bi1  1  0.75000000  0.62500000  0.81208500  1.0
  Bi2+  Bi1  1  0.75000000  0.87500000  0.31208500  1.0
  Bi2+  Bi1  1  0.75000000  0.87500000  0.81208500  1.0
  Bi2+  Bi1  1  0.12500000  0.00000000  0.18791500  1.0
  Bi2+  Bi1  1  0.12500000  0.00000000  0.68791500  1.0
  Bi2+  Bi1  1  0.12500000  0.25000000  0.18791500  1.0
  Bi2+  Bi1  1  0.12500000  0.25000000  0.68791500  1.0
  Bi2+  Bi1  1  0.12500000  0.50000000  0.18791500  1.0
  Bi2+  Bi1  1  0.12500000  0.50000000  0.68791500  1.0
  Bi2+  Bi1  1  0.12500000  0.75000000  0.18791500  1.0
  Bi2+  Bi1  1  0.12500000  0.75000000  0.68791500  1.0
  Bi2+  Bi1  1  0.37500000  0.00000000  0.18791500  1.0
  Bi2+  Bi1  1  0.37500000  0.00000000  0.68791500  1.0
  Bi2+  Bi1  1  0.37500000  0.25000000  0.18791500  1.0
  Bi2+  Bi1  1  0.37500000  0.25000000  0.68791500  1.0
  Bi2+  Bi1  1  0.37500000  0.50000000  0.18791500  1.0
  Bi2+  Bi1  1  0.37500000  0.50000000  0.68791500  1.0
  Bi2+  Bi1  1  0.37500000  0.75000000  0.18791500  1.0
  Bi2+  Bi1  1  0.37500000  0.75000000  0.68791500  1.0
  Bi2+  Bi1  1  0.62500000  0.00000000  0.18791500  1.0
  Bi2+  Bi1  1  0.62500000  0.00000000  0.68791500  1.0
  Bi2+  Bi1  1  0.62500000  0.25000000  0.18791500  1.0
  Bi2+  Bi1  1  0.62500000  0.25000000  0.68791500  1.0
  Bi2+  Bi1  1  0.62500000  0.50000000  0.18791500  1.0
  Bi2+  Bi1  1  0.62500000  0.50000000  0.68791500  1.0
  Bi2+  Bi1  1  0.62500000  0.75000000  0.18791500  1.0
  Bi2+  Bi1  1  0.62500000  0.75000000  0.68791500  1.0
  Bi2+  Bi1  1  0.87500000  0.00000000  0.18791500  1.0
  Bi2+  Bi1  1  0.87500000  0.00000000  0.68791500  1.0
  Bi2+  Bi1  1  0.87500000  0.25000000  0.18791500  1.0
  Bi2+  Bi1  1  0.87500000  0.25000000  0.68791500  1.0
  Bi2+  Bi1  1  0.87500000  0.50000000  0.18791500  1.0
  Bi2+  Bi1  1  0.87500000  0.50000000  0.68791500  1.0
  Bi2+  Bi1  1  0.87500000  0.75000000  0.18791500  1.0
  Bi2+  Bi1  1  0.87500000  0.75000000  0.68791500  1.0
  S2-  S1  1  0.00000000  0.12500000  0.18750000  1.0
  S2-  S1  1  0.00000000  0.12500000  0.68750000  1.0
  S2-  S1  1  0.00000000  0.37500000  0.18750000  1.0
  S2-  S1  1  0.00000000  0.37500000  0.68750000  1.0
  S2-  S1  1  0.00000000  0.62500000  0.18750000  1.0
  S2-  S1  1  0.00000000  0.62500000  0.68750000  1.0
  S2-  S1  1  0.00000000  0.87500000  0.18750000  1.0
  S2-  S1  1  0.00000000  0.87500000  0.68750000  1.0
  S2-  S1  1  0.25000000  0.12500000  0.18750000  1.0
  S2-  S1  1  0.25000000  0.12500000  0.68750000  1.0
  S2-  S1  1  0.25000000  0.37500000  0.18750000  1.0
  S2-  S1  1  0.25000000  0.37500000  0.68750000  1.0
  S2-  S1  1  0.25000000  0.62500000  0.18750000  1.0
  S2-  S1  1  0.25000000  0.62500000  0.68750000  1.0
  S2-  S1  1  0.25000000  0.87500000  0.18750000  1.0
  S2-  S1  1  0.25000000  0.87500000  0.68750000  1.0
  S2-  S1  1  0.50000000  0.12500000  0.18750000  1.0
  S2-  S1  1  0.50000000  0.12500000  0.68750000  1.0
  S2-  S1  1  0.50000000  0.37500000  0.18750000  1.0
  S2-  S1  1  0.50000000  0.37500000  0.68750000  1.0
  S2-  S1  1  0.50000000  0.62500000  0.18750000  1.0
  S2-  S1  1  0.50000000  0.62500000  0.68750000  1.0
  S2-  S1  1  0.50000000  0.87500000  0.18750000  1.0
  S2-  S1  1  0.50000000  0.87500000  0.68750000  1.0
  S2-  S1  1  0.75000000  0.12500000  0.18750000  1.0
  S2-  S1  1  0.75000000  0.12500000  0.68750000  1.0
  S2-  S1  1  0.75000000  0.37500000  0.18750000  1.0
  S2-  S1  1  0.75000000  0.37500000  0.68750000  1.0
  S2-  S1  1  0.75000000  0.62500000  0.18750000  1.0
  S2-  S1  1  0.75000000  0.62500000  0.68750000  1.0
  S2-  S1  1  0.75000000  0.87500000  0.18750000  1.0
  S2-  S1  1  0.75000000  0.87500000  0.68750000  1.0
  S2-  S1  1  0.12500000  0.00000000  0.31250000  1.0
  S2-  S1  1  0.12500000  0.00000000  0.81250000  1.0
  S2-  S1  1  0.12500000  0.25000000  0.31250000  1.0
  S2-  S1  1  0.12500000  0.25000000  0.81250000  1.0
  S2-  S1  1  0.12500000  0.50000000  0.31250000  1.0
  S2-  S1  1  0.12500000  0.50000000  0.81250000  1.0
  S2-  S1  1  0.12500000  0.75000000  0.31250000  1.0
  S2-  S1  1  0.12500000  0.75000000  0.81250000  1.0
  S2-  S1  1  0.37500000  0.00000000  0.31250000  1.0
  S2-  S1  1  0.37500000  0.00000000  0.81250000  1.0
  S2-  S1  1  0.37500000  0.25000000  0.31250000  1.0
  S2-  S1  1  0.37500000  0.25000000  0.81250000  1.0
  S2-  S1  1  0.37500000  0.50000000  0.31250000  1.0
  S2-  S1  1  0.37500000  0.50000000  0.81250000  1.0
  S2-  S1  1  0.37500000  0.75000000  0.31250000  1.0
  S2-  S1  1  0.37500000  0.75000000  0.81250000  1.0
  S2-  S1  1  0.62500000  0.00000000  0.31250000  1.0
  S2-  S1  1  0.62500000  0.00000000  0.81250000  1.0
  S2-  S1  1  0.62500000  0.25000000  0.31250000  1.0
  S2-  S1  1  0.62500000  0.25000000  0.81250000  1.0
  S2-  S1  1  0.62500000  0.50000000  0.31250000  1.0
  S2-  S1  1  0.62500000  0.50000000  0.81250000  1.0
  S2-  S1  1  0.62500000  0.75000000  0.31250000  1.0
  S2-  S1  1  0.62500000  0.75000000  0.81250000  1.0
  S2-  S1  1  0.87500000  0.00000000  0.31250000  1.0
  S2-  S1  1  0.87500000  0.00000000  0.81250000  1.0
  S2-  S1  1  0.87500000  0.25000000  0.31250000  1.0
  S2-  S1  1  0.87500000  0.25000000  0.81250000  1.0
  S2-  S1  1  0.87500000  0.50000000  0.31250000  1.0
  S2-  S1  1  0.87500000  0.50000000  0.81250000  1.0
  S2-  S1  1  0.87500000  0.75000000  0.31250000  1.0
  S2-  S1  1  0.87500000  0.75000000  0.81250000  1.0
  S2-  S2  1  0.00000000  0.12500000  0.40720000  1.0
  S2-  S2  1  0.00000000  0.12500000  0.90720000  1.0
  S2-  S2  1  0.00000000  0.37500000  0.40720000  1.0
  S2-  S2  1  0.00000000  0.37500000  0.90720000  1.0
  S2-  S2  1  0.00000000  0.62500000  0.40720000  1.0
  S2-  S2  1  0.00000000  0.62500000  0.90720000  1.0
  S2-  S2  1  0.00000000  0.87500000  0.40720000  1.0
  S2-  S2  1  0.00000000  0.87500000  0.90720000  1.0
  S2-  S2  1  0.25000000  0.12500000  0.40720000  1.0
  S2-  S2  1  0.25000000  0.12500000  0.90720000  1.0
  S2-  S2  1  0.25000000  0.37500000  0.40720000  1.0
  S2-  S2  1  0.25000000  0.37500000  0.90720000  1.0
  S2-  S2  1  0.25000000  0.62500000  0.40720000  1.0
  S2-  S2  1  0.25000000  0.62500000  0.90720000  1.0
  S2-  S2  1  0.25000000  0.87500000  0.40720000  1.0
  S2-  S2  1  0.25000000  0.87500000  0.90720000  1.0
  S2-  S2  1  0.50000000  0.12500000  0.40720000  1.0
  S2-  S2  1  0.50000000  0.12500000  0.90720000  1.0
  S2-  S2  1  0.50000000  0.37500000  0.40720000  1.0
  S2-  S2  1  0.50000000  0.37500000  0.90720000  1.0
  S2-  S2  1  0.50000000  0.62500000  0.40720000  1.0
  S2-  S2  1  0.50000000  0.62500000  0.90720000  1.0
  S2-  S2  1  0.50000000  0.87500000  0.40720000  1.0
  S2-  S2  1  0.50000000  0.87500000  0.90720000  1.0
  S2-  S2  1  0.75000000  0.12500000  0.40720000  1.0
  S2-  S2  1  0.75000000  0.12500000  0.90720000  1.0
  S2-  S2  1  0.75000000  0.37500000  0.40720000  1.0
  S2-  S2  1  0.75000000  0.37500000  0.90720000  1.0
  S2-  S2  1  0.75000000  0.62500000  0.40720000  1.0
  S2-  S2  1  0.75000000  0.62500000  0.90720000  1.0
  S2-  S2  1  0.75000000  0.87500000  0.40720000  1.0
  S2-  S2  1  0.75000000  0.87500000  0.90720000  1.0
  S2-  S2  1  0.12500000  0.00000000  0.09280000  1.0
  S2-  S2  1  0.12500000  0.00000000  0.59280000  1.0
  S2-  S2  1  0.12500000  0.25000000  0.09280000  1.0
  S2-  S2  1  0.12500000  0.25000000  0.59280000  1.0
  S2-  S2  1  0.12500000  0.50000000  0.09280000  1.0
  S2-  S2  1  0.12500000  0.50000000  0.59280000  1.0
  S2-  S2  1  0.12500000  0.75000000  0.09280000  1.0
  S2-  S2  1  0.12500000  0.75000000  0.59280000  1.0
  S2-  S2  1  0.37500000  0.00000000  0.09280000  1.0
  S2-  S2  1  0.37500000  0.00000000  0.59280000  1.0
  S2-  S2  1  0.37500000  0.25000000  0.09280000  1.0
  S2-  S2  1  0.37500000  0.25000000  0.59280000  1.0
  S2-  S2  1  0.37500000  0.50000000  0.09280000  1.0
  S2-  S2  1  0.37500000  0.50000000  0.59280000  1.0
  S2-  S2  1  0.37500000  0.75000000  0.09280000  1.0
  S2-  S2  1  0.37500000  0.75000000  0.59280000  1.0
  S2-  S2  1  0.62500000  0.00000000  0.09280000  1.0
  S2-  S2  1  0.62500000  0.00000000  0.59280000  1.0
  S2-  S2  1  0.62500000  0.25000000  0.09280000  1.0
  S2-  S2  1  0.62500000  0.25000000  0.59280000  1.0
  S2-  S2  1  0.62500000  0.50000000  0.09280000  1.0
  S2-  S2  1  0.62500000  0.50000000  0.59280000  1.0
  S2-  S2  1  0.62500000  0.75000000  0.09280000  1.0
  S2-  S2  1  0.62500000  0.75000000  0.59280000  1.0
  S2-  S2  1  0.87500000  0.00000000  0.09280000  1.0
  S2-  S2  1  0.87500000  0.00000000  0.59280000  1.0
  S2-  S2  1  0.87500000  0.25000000  0.09280000  1.0
  S2-  S2  1  0.87500000  0.25000000  0.59280000  1.0
  S2-  S2  1  0.87500000  0.50000000  0.09280000  1.0
  S2-  S2  1  0.87500000  0.50000000  0.59280000  1.0
  S2-  S2  1  0.87500000  0.75000000  0.09280000  1.0
  S2-  S2  1  0.87500000  0.75000000  0.59280000  1.0
