# generated using pymatgen
data_HfZrTaTiMo
_symmetry_space_group_name_H-M   'P 1'
_cell_length_a   15.93655905
_cell_length_b   15.93235546
_cell_length_c   15.19917228
_cell_angle_alpha   89.96260978
_cell_angle_beta   90.02209402
_cell_angle_gamma   90.05258899
_symmetry_Int_Tables_number   1
_chemical_formula_structural   HfZrTaTiMo
_chemical_formula_sum   'Hf40 Zr40 Ta40 Ti40 Mo40'
_cell_volume   3859.17234157
_cell_formula_units_Z   40
loop_
 _symmetry_equiv_pos_site_id
 _symmetry_equiv_pos_as_xyz
  1  'x, y, z'
loop_
 _atom_site_type_symbol
 _atom_site_label
 _atom_site_symmetry_multiplicity
 _atom_site_fract_x
 _atom_site_fract_y
 _atom_site_fract_z
 _atom_site_occupancy
  Hf  Hf0  1  0.20160148  -0.00669949  -0.00461097  1
  Hf  Hf1  1  0.49902415  0.89017213  0.87572463  1
  Hf  Hf2  1  0.10848560  0.88910883  0.13759996  1
  Hf  Hf3  1  0.69967233  0.29787396  0.87827100  1
  Hf  Hf4  1  0.60745769  0.80593758  0.02163871  1
  Hf  Hf5  1  0.01327598  0.20248832  0.50411487  1
  Hf  Hf6  1  0.49732308  0.09614033  0.11923993  1
  Hf  Hf7  1  0.00617175  -0.00447196  -0.00471572  1
  Hf  Hf8  1  0.69257816  0.49669998  0.62263615  1
  Hf  Hf9  1  0.91619199  0.68679569  0.85834550  1
  Hf  Hf10  1  0.29634523  0.10668209  0.37225317  1
  Hf  Hf11  1  -0.00245878  0.37589501  0.24670760  1
  Hf  Hf12  1  0.80741290  0.40250474  0.24315154  1
  Hf  Hf13  1  0.69340427  0.28800486  0.63491522  1
  Hf  Hf14  1  0.49509806  0.50435804  0.36443902  1
  Hf  Hf15  1  0.28674851  0.70316140  0.15026094  1
  Hf  Hf16  1  0.40476575  -0.00063036  0.74946706  1
  Hf  Hf17  1  0.17621838  0.62282245  0.74233355  1
  Hf  Hf18  1  0.59822330  0.19492667  0.48893058  1
  Hf  Hf19  1  0.08190222  0.50909669  0.86171284  1
  Hf  Hf20  1  0.89948688  0.30227742  0.87076353  1
  Hf  Hf21  1  0.60524493  -0.00722381  0.74764768  1
  Hf  Hf22  1  0.48162052  0.48774909  0.61729374  1
  Hf  Hf23  1  0.19769665  0.00553723  0.25049362  1
  Hf  Hf24  1  0.30592082  0.10680548  0.87148524  1
  Hf  Hf25  1  0.79352434  0.60443055  0.49851705  1
  Hf  Hf26  1  0.89755879  0.09741256  0.62976598  1
  Hf  Hf27  1  0.29896907  0.30705080  0.12240678  1
  Hf  Hf28  1  0.80974753  0.20094246  0.48731523  1
  Hf  Hf29  1  0.50209730  0.89825613  0.37760510  1
  Hf  Hf30  1  0.10425719  0.90180443  0.38182362  1
  Hf  Hf31  1  0.38694545  0.60338183  0.49320286  1
  Hf  Hf32  1  0.60479017  -0.00359723  0.50557616  1
  Hf  Hf33  1  0.50674608  0.10335917  0.87752018  1
  Hf  Hf34  1  0.80602825  0.59730166  0.01755668  1
  Hf  Hf35  1  0.00285976  0.20044175  0.01811491  1
  Hf  Hf36  1  0.20409376  0.00935781  0.50829610  1
  Hf  Hf37  1  0.62029646  0.80028181  0.73518001  1
  Hf  Hf38  1  0.39829192  0.59944959  0.75133631  1
  Hf  Hf39  1  0.30420085  0.89044977  0.63361242  1
  Zr  Zr40  1  0.80192860  0.40050021  0.49661088  1
  Zr  Zr41  1  0.60843995  0.19221542  0.00334019  1
  Zr  Zr42  1  0.59723748  0.20163270  0.24737052  1
  Zr  Zr43  1  0.69988757  0.30029907  0.12160957  1
  Zr  Zr44  1  0.57446580  0.38291791  0.75504487  1
  Zr  Zr45  1  0.39643034  0.80052240  0.02069964  1
  Zr  Zr46  1  0.70167792  0.30126884  0.36464359  1
  Zr  Zr47  1  0.59969128  -0.00454830  0.24485199  1
  Zr  Zr48  1  0.60066078  0.60797433  0.01636682  1
  Zr  Zr49  1  0.60126093  0.79698301  0.23614990  1
  Zr  Zr50  1  0.10054875  0.87965184  0.61718770  1
  Zr  Zr51  1  0.48947062  0.49773135  0.12552373  1
  Zr  Zr52  1  0.19369288  0.20292469  -0.00320774  1
  Zr  Zr53  1  0.29766546  0.72353046  0.86164771  1
  Zr  Zr54  1  0.09486096  0.31204435  0.86513099  1
  Zr  Zr55  1  0.20549966  0.21244833  0.74216554  1
  Zr  Zr56  1  0.90908046  0.87728846  0.86299551  1
  Zr  Zr57  1  0.90145795  0.10513370  0.86160675  1
  Zr  Zr58  1  0.69502337  0.49824733  0.88076769  1
  Zr  Zr59  1  0.80801380  0.79742292  0.01742597  1
  Zr  Zr60  1  0.71396778  0.70931888  0.87395849  1
  Zr  Zr61  1  0.09503857  0.49410452  0.37987835  1
  Zr  Zr62  1  0.90897117  0.90797275  0.13970890  1
  Zr  Zr63  1  0.58910467  0.39463451  0.49315012  1
  Zr  Zr64  1  0.20195764  0.38802642  0.49498735  1
  Zr  Zr65  1  0.19872985  0.00289432  0.74750338  1
  Zr  Zr66  1  0.79427651  -0.00222776  -0.01233412  1
  Zr  Zr67  1  0.50269040  0.69871371  0.87508701  1
  Zr  Zr68  1  0.09283576  0.49278953  0.62364091  1
  Zr  Zr69  1  0.70614054  0.09766416  0.62897434  1
  Zr  Zr70  1  0.29765024  0.10196218  0.12495287  1
  Zr  Zr71  1  -0.00244470  0.59668441  0.02083187  1
  Zr  Zr72  1  0.59750763  0.59533936  0.74536967  1
  Zr  Zr73  1  0.90020137  0.70927486  0.62298833  1
  Zr  Zr74  1  0.79461897  -0.02195576  0.75439050  1
  Zr  Zr75  1  0.39363620  0.21485768  0.50285204  1
  Zr  Zr76  1  0.19127454  0.41332993  0.00657345  1
  Zr  Zr77  1  0.48920593  0.09401519  0.36935390  1
  Zr  Zr78  1  0.18929767  0.61576577  -0.00103751  1
  Zr  Zr79  1  0.40151363  0.79820057  0.49621421  1
  Ta  Ta80  1  0.48760017  0.48925831  0.89479711  1
  Ta  Ta81  1  0.49843503  0.70135136  0.62379487  1
  Ta  Ta82  1  0.00685779  -0.00611309  0.73807825  1
  Ta  Ta83  1  0.79474283  0.40170471  0.74648905  1
  Ta  Ta84  1  0.10639098  0.88257890  0.86192258  1
  Ta  Ta85  1  0.00917880  0.19857320  0.73268753  1
  Ta  Ta86  1  0.80302685  0.80160226  0.25858791  1
  Ta  Ta87  1  0.80678633  0.40614229  0.00969805  1
  Ta  Ta88  1  0.10315184  0.69347956  0.37500402  1
  Ta  Ta89  1  0.00331323  0.00624124  0.50327757  1
  Ta  Ta90  1  0.31047307  0.11178375  0.63255858  1
  Ta  Ta91  1  0.39546979  -0.01008531  0.00024965  1
  Ta  Ta92  1  0.29080239  0.50033453  0.63759125  1
  Ta  Ta93  1  0.90318350  0.89610763  0.61720361  1
  Ta  Ta94  1  -0.00533609  0.59227689  0.25530941  1
  Ta  Ta95  1  0.29664158  0.50803868  0.14073942  1
  Ta  Ta96  1  0.69602175  0.69923511  0.36953329  1
  Ta  Ta97  1  0.90104080  0.30364762  0.63410749  1
  Ta  Ta98  1  0.19509239  0.39449723  0.25120624  1
  Ta  Ta99  1  0.39717440  0.20511163  0.24240336  1
  Ta  Ta100  1  0.70667902  0.89839308  0.37717720  1
  Ta  Ta101  1  0.40258502  0.00607035  0.51601642  1
  Ta  Ta102  1  0.39275248  0.39669741  0.25553474  1
  Ta  Ta103  1  0.69245222  0.50704380  0.36313159  1
  Ta  Ta104  1  0.82474100  0.20539782  0.25093430  1
  Ta  Ta105  1  0.30766966  0.90691944  0.36806737  1
  Ta  Ta106  1  0.49902025  0.69724809  0.36242796  1
  Ta  Ta107  1  0.90536692  0.70255754  0.14858859  1
  Ta  Ta108  1  0.89894762  0.50021689  0.63370700  1
  Ta  Ta109  1  -0.00765233  0.40310046  0.02020377  1
  Ta  Ta110  1  0.89903472  0.69570993  0.37111534  1
  Ta  Ta111  1  0.71796446  0.09523384  0.14045158  1
  Ta  Ta112  1  0.50527690  0.11344365  0.63470162  1
  Ta  Ta113  1  0.59358112  0.40080844  0.24400625  1
  Ta  Ta114  1  0.38391537  0.59960562  -0.00024318  1
  Ta  Ta115  1  0.28932723  0.50417685  0.86323514  1
  Ta  Ta116  1  0.41806210  0.22295989  0.75593501  1
  Ta  Ta117  1  0.89653058  0.49706594  0.85871255  1
  Ta  Ta118  1  0.59313625  0.60468570  0.49725735  1
  Ta  Ta119  1  0.00218884  0.79970584  0.26706761  1
  Ti  Ti120  1  0.19580436  0.20455469  0.51266200  1
  Ti  Ti121  1  0.70495516  0.10621778  0.86031365  1
  Ti  Ti122  1  0.90184389  0.90586144  0.37567727  1
  Ti  Ti123  1  0.50350711  0.89497734  0.62182443  1
  Ti  Ti124  1  0.49492356  0.30905669  0.11179127  1
  Ti  Ti125  1  0.48825576  0.68869966  0.14319144  1
  Ti  Ti126  1  0.60729730  -0.00691525  0.00402413  1
  Ti  Ti127  1  0.72435929  0.87926875  0.59876476  1
  Ti  Ti128  1  -0.00395464  0.79517124  0.48528586  1
  Ti  Ti129  1  0.80696184  0.19601096  0.00874752  1
  Ti  Ti130  1  0.90299896  0.09512219  0.13622704  1
  Ti  Ti131  1  0.30936406  0.31839369  0.87715202  1
  Ti  Ti132  1  0.29159153  0.51142854  0.35674412  1
  Ti  Ti133  1  0.60663293  0.79068953  0.49920974  1
  Ti  Ti134  1  0.10177185  0.50198923  0.14404613  1
  Ti  Ti135  1  0.79622037  0.60091236  0.24750461  1
  Ti  Ti136  1  0.79244486  0.60665727  0.73651831  1
  Ti  Ti137  1  0.91387670  0.10395836  0.37016656  1
  Ti  Ti138  1  0.38496229  0.40287465  0.48186634  1
  Ti  Ti139  1  0.20391996  0.80749421  -0.00159041  1
  Ti  Ti140  1  0.09964961  0.70053666  0.15355235  1
  Ti  Ti141  1  0.80871478  0.00025680  0.48825229  1
  Ti  Ti142  1  0.69327399  0.50127799  0.13334559  1
  Ti  Ti143  1  0.39831137  0.81075560  0.24722218  1
  Ti  Ti144  1  0.21157353  0.78767777  0.48593775  1
  Ti  Ti145  1  0.29022108  0.29434695  0.36052317  1
  Ti  Ti146  1  0.71220670  0.09291094  0.35966098  1
  Ti  Ti147  1  -0.00325838  0.38721383  0.49500232  1
  Ti  Ti148  1  0.71561947  0.90950207  0.14147154  1
  Ti  Ti149  1  0.49066552  0.30043753  0.36639869  1
  Ti  Ti150  1  0.29699630  0.70251420  0.63083711  1
  Ti  Ti151  1  0.31065065  0.31965516  0.63827408  1
  Ti  Ti152  1  0.40025974  0.20638694  -0.00355280  1
  Ti  Ti153  1  -0.00393611  0.59804031  0.49903003  1
  Ti  Ti154  1  0.01331789  0.78887239  0.00875677  1
  Ti  Ti155  1  0.17524829  0.20028885  0.24265700  1
  Ti  Ti156  1  0.01045109  0.01383826  0.25966611  1
  Ti  Ti157  1  0.89682945  0.49883691  0.37446737  1
  Ti  Ti158  1  0.20131329  0.60137274  0.49973364  1
  Ti  Ti159  1  0.09606558  0.10041068  0.86631738  1
  Mo  Mo160  1  0.10391152  0.09773899  0.62457797  1
  Mo  Mo161  1  0.01474948  0.78828628  0.73659346  1
  Mo  Mo162  1  0.59916543  0.40079323  0.01092917  1
  Mo  Mo163  1  0.20077198  0.40822923  0.75150158  1
  Mo  Mo164  1  0.10137476  0.30060219  0.12897349  1
  Mo  Mo165  1  0.00446280  0.19056947  0.24341821  1
  Mo  Mo166  1  0.39481077  0.60281501  0.25791832  1
  Mo  Mo167  1  0.19062546  0.59657531  0.25704972  1
  Mo  Mo168  1  0.10531783  0.28870767  0.36787879  1
  Mo  Mo169  1  0.59813311  0.19535757  0.76324290  1
  Mo  Mo170  1  0.09200914  0.71149581  0.88105822  1
  Mo  Mo171  1  0.30135083  0.90227750  0.86512489  1
  Mo  Mo172  1  0.80612277  0.80236126  0.47497259  1
  Mo  Mo173  1  0.19990995  0.80136044  0.27396201  1
  Mo  Mo174  1  0.90648793  0.29850045  0.38511657  1
  Mo  Mo175  1  0.69718482  0.69907969  0.60539458  1
  Mo  Mo176  1  0.41076748  0.79950828  0.73402185  1
  Mo  Mo177  1  0.10104387  0.30386715  0.63344759  1
  Mo  Mo178  1  0.70865135  0.69808304  0.14557017  1
  Mo  Mo179  1  0.69692761  0.89935633  0.88548083  1
  Mo  Mo180  1  0.30106028  0.90000356  0.14159114  1
  Mo  Mo181  1  0.38764545  0.40715352  -0.00127267  1
  Mo  Mo182  1  0.49154552  0.29734296  0.61526197  1
  Mo  Mo183  1  0.29956638  0.70355274  0.36391953  1
  Mo  Mo184  1  -0.00630950  0.59894218  0.73378012  1
  Mo  Mo185  1  0.49594285  0.90296304  0.11858429  1
  Mo  Mo186  1  0.81080546  0.00375336  0.26835862  1
  Mo  Mo187  1  0.10162316  0.10216060  0.38711574  1
  Mo  Mo188  1  0.49604878  0.30484525  0.90410689  1
  Mo  Mo189  1  0.89624145  0.29488218  0.11137496  1
  Mo  Mo190  1  0.60214356  0.59902235  0.24794775  1
  Mo  Mo191  1  0.39214433  0.40323625  0.76242399  1
  Mo  Mo192  1  0.10054572  0.69634797  0.58976011  1
  Mo  Mo193  1  0.89952179  0.49983238  0.14069195  1
  Mo  Mo194  1  0.39642550  -0.00367835  0.23663954  1
  Mo  Mo195  1  0.09254510  0.09120893  0.12139846  1
  Mo  Mo196  1  0.80353468  0.20466091  0.74991740  1
  Mo  Mo197  1  0.20088048  0.79993152  0.74342210  1
  Mo  Mo198  1  0.80412079  0.79553021  0.74265987  1
  Mo  Mo199  1  -0.00633617  0.39849084  0.74223291  1
