# generated using pymatgen
data_HfZrTaTiMo
_symmetry_space_group_name_H-M   'P 1'
_cell_length_a   15.93539999
_cell_length_b   15.92378078
_cell_length_c   15.20502201
_cell_angle_alpha   89.96886240
_cell_angle_beta   89.98088706
_cell_angle_gamma   90.15111381
_symmetry_Int_Tables_number   1
_chemical_formula_structural   HfZrTaTiMo
_chemical_formula_sum   'Hf40 Zr40 Ta40 Ti40 Mo40'
_cell_volume   3858.28774302
_cell_formula_units_Z   40
loop_
 _symmetry_equiv_pos_site_id
 _symmetry_equiv_pos_as_xyz
  1  'x, y, z'
loop_
 _atom_site_type_symbol
 _atom_site_label
 _atom_site_symmetry_multiplicity
 _atom_site_fract_x
 _atom_site_fract_y
 _atom_site_fract_z
 _atom_site_occupancy
  Hf  Hf0  1  0.01188675  0.39960739  0.73815623  1
  Hf  Hf1  1  0.71790831  0.30609549  0.12145039  1
  Hf  Hf2  1  0.51065211  0.29351077  0.39220584  1
  Hf  Hf3  1  0.60742732  0.39732035  -0.00988304  1
  Hf  Hf4  1  0.78884277  0.61309603  0.49917041  1
  Hf  Hf5  1  0.31134402  0.10070761  0.11604521  1
  Hf  Hf6  1  0.10332946  0.70178841  0.89892561  1
  Hf  Hf7  1  0.80489583  0.60515736  0.00440344  1
  Hf  Hf8  1  0.51416360  0.09199240  0.38793562  1
  Hf  Hf9  1  0.49402427  0.70414358  0.38193032  1
  Hf  Hf10  1  0.70335677  0.09987564  0.12026450  1
  Hf  Hf11  1  0.39309348  0.58981840  0.26048716  1
  Hf  Hf12  1  0.39475327  -0.00033769  0.49666739  1
  Hf  Hf13  1  0.40109439  0.19435120  0.74784773  1
  Hf  Hf14  1  0.20225663  0.39692214  0.74201615  1
  Hf  Hf15  1  0.58928645  0.39751992  0.24837146  1
  Hf  Hf16  1  0.30077107  0.29157274  0.87687113  1
  Hf  Hf17  1  0.69363101  0.90710830  0.36747892  1
  Hf  Hf18  1  0.39118377  0.78982424  0.73987508  1
  Hf  Hf19  1  0.70215362  0.69564432  0.86141556  1
  Hf  Hf20  1  0.30979914  0.88657318  0.36592783  1
  Hf  Hf21  1  0.10923784  0.90863729  0.89680706  1
  Hf  Hf22  1  0.58470944  0.81029268  0.23507311  1
  Hf  Hf23  1  0.48993689  0.89084157  0.87492901  1
  Hf  Hf24  1  0.90411501  0.90293732  0.87219889  1
  Hf  Hf25  1  0.20138247  0.79539842  0.50852513  1
  Hf  Hf26  1  0.80527110  0.80384014  0.24140666  1
  Hf  Hf27  1  -0.00939780  0.80090608  0.01664805  1
  Hf  Hf28  1  0.31472461  0.50860603  0.61680165  1
  Hf  Hf29  1  -0.00821812  0.58849024  0.25130102  1
  Hf  Hf30  1  0.19933682  0.39986586  0.24788775  1
  Hf  Hf31  1  0.40675544  0.59399701  0.76136186  1
  Hf  Hf32  1  0.80155729  0.19248030  0.51586855  1
  Hf  Hf33  1  0.60267786  0.59620018  -0.00262559  1
  Hf  Hf34  1  0.29678393  0.70717406  0.89267826  1
  Hf  Hf35  1  0.50450578  0.66728411  0.61101556  1
  Hf  Hf36  1  0.80691090  0.00206198  0.50383875  1
  Hf  Hf37  1  0.49667021  0.89540375  0.61833067  1
  Hf  Hf38  1  0.90229692  0.30259568  0.86075802  1
  Hf  Hf39  1  0.10579148  0.51172745  0.61203986  1
  Zr  Zr40  1  0.60499947  0.40670550  0.52665889  1
  Zr  Zr41  1  0.20169435  0.39601015  0.49521915  1
  Zr  Zr42  1  0.89636081  0.51377891  0.62629449  1
  Zr  Zr43  1  0.59190845  0.00641159  0.75548478  1
  Zr  Zr44  1  0.80164203  0.80408029  0.49690237  1
  Zr  Zr45  1  0.08920772  0.29018618  0.37096748  1
  Zr  Zr46  1  0.58807940  0.40716804  0.74577206  1
  Zr  Zr47  1  0.70539385  0.29209838  0.37733707  1
  Zr  Zr48  1  0.01766576  0.00921013  0.75157213  1
  Zr  Zr49  1  0.21405136  0.60892698  0.47902841  1
  Zr  Zr50  1  0.79629438  0.40380748  0.51290982  1
  Zr  Zr51  1  0.29300561  0.68517026  0.11952339  1
  Zr  Zr52  1  -0.00033993  0.01828466  0.51092548  1
  Zr  Zr53  1  0.69319443  0.91492551  0.12717020  1
  Zr  Zr54  1  0.20128422  0.00217308  0.48816508  1
  Zr  Zr55  1  0.89623004  0.29379908  0.63749932  1
  Zr  Zr56  1  0.09298184  0.90173287  0.36557533  1
  Zr  Zr57  1  0.70682126  0.89492536  0.64312093  1
  Zr  Zr58  1  0.82601449  0.40445988  0.26737696  1
  Zr  Zr59  1  0.19331308  0.80102025  0.74182321  1
  Zr  Zr60  1  0.19388456  0.19093275  0.74384301  1
  Zr  Zr61  1  0.40324084  0.18926397  0.25980741  1
  Zr  Zr62  1  0.49556276  0.28849707  0.11037804  1
  Zr  Zr63  1  -0.00324177  0.80303662  0.51464715  1
  Zr  Zr64  1  0.09496655  0.70869876  0.36159009  1
  Zr  Zr65  1  0.60485760  0.19273829  0.24053770  1
  Zr  Zr66  1  0.58960653  0.59902740  0.25060692  1
  Zr  Zr67  1  0.19360269  0.19175321  0.50426327  1
  Zr  Zr68  1  0.09847158  0.69420703  0.12092658  1
  Zr  Zr69  1  0.00993892  0.61749794  0.74255098  1
  Zr  Zr70  1  0.89564942  0.50396022  0.87187487  1
  Zr  Zr71  1  0.69571549  0.50249672  0.37362238  1
  Zr  Zr72  1  0.70556069  0.49641288  0.13082635  1
  Zr  Zr73  1  0.79737209  0.80013779  0.00746965  1
  Zr  Zr74  1  0.20600371  0.00239891  0.24530914  1
  Zr  Zr75  1  0.80574012  0.20872907  -0.00947654  1
  Zr  Zr76  1  0.70190257  0.89647390  0.86439973  1
  Zr  Zr77  1  0.20450545  0.40091588  0.00710351  1
  Zr  Zr78  1  0.09941763  0.50444805  0.88556124  1
  Zr  Zr79  1  0.09782746  0.09956654  0.10963607  1
  Ta  Ta80  1  0.50466085  0.08510402  0.10812840  1
  Ta  Ta81  1  0.89828324  0.92108958  0.12198862  1
  Ta  Ta82  1  0.70499571  0.10113817  0.37556294  1
  Ta  Ta83  1  0.60499818  0.19473711  -0.01465206  1
  Ta  Ta84  1  0.80740633  0.60358118  0.25369051  1
  Ta  Ta85  1  -0.00196961  0.39726967  0.50505905  1
  Ta  Ta86  1  0.59997543  -0.00141285  -0.01705382  1
  Ta  Ta87  1  0.70230245  0.30169237  0.86193678  1
  Ta  Ta88  1  0.20750238  0.60944646  0.74583966  1
  Ta  Ta89  1  0.40102701  0.39662286  0.74747533  1
  Ta  Ta90  1  0.80512606  0.01488160  0.25220610  1
  Ta  Ta91  1  0.78172051  0.40910032  0.73920684  1
  Ta  Ta92  1  0.89823590  0.90762227  0.64876049  1
  Ta  Ta93  1  0.61177749  -0.00035870  0.51247041  1
  Ta  Ta94  1  0.09654151  0.29295243  0.88371626  1
  Ta  Ta95  1  0.50166373  0.10118915  0.61844616  1
  Ta  Ta96  1  0.40076436  0.79942923  0.23153822  1
  Ta  Ta97  1  0.90630301  0.11163663  0.36874271  1
  Ta  Ta98  1  0.40055677  0.80381709  0.01798985  1
  Ta  Ta99  1  0.49692047  0.69827258  0.88809799  1
  Ta  Ta100  1  0.39073135  -0.00144462  0.75357666  1
  Ta  Ta101  1  0.30458441  0.29806686  0.12796136  1
  Ta  Ta102  1  0.59034960  0.78261115  0.74121971  1
  Ta  Ta103  1  0.59558025  0.79745172  0.00744099  1
  Ta  Ta104  1  0.48728324  0.49346085  0.11505876  1
  Ta  Ta105  1  0.48713378  0.10067694  0.88741698  1
  Ta  Ta106  1  0.39412507  0.19579914  0.50030621  1
  Ta  Ta107  1  0.90283766  0.49362694  0.11013423  1
  Ta  Ta108  1  0.90426013  0.10478367  0.86962418  1
  Ta  Ta109  1  0.30077703  0.29225696  0.37248658  1
  Ta  Ta110  1  0.69713192  0.69844336  0.13342661  1
  Ta  Ta111  1  0.39974641  0.39833371  0.26194058  1
  Ta  Ta112  1  -0.00316829  0.01035616  0.23854514  1
  Ta  Ta113  1  0.60819891  0.79079108  0.50960852  1
  Ta  Ta114  1  0.09744367  0.50177882  0.11433396  1
  Ta  Ta115  1  0.50460984  0.89429291  0.39073054  1
  Ta  Ta116  1  0.90355506  0.91044774  0.36044383  1
  Ta  Ta117  1  0.40103824  0.39877047  0.49349275  1
  Ta  Ta118  1  0.39687316  0.39774008  -0.00630871  1
  Ta  Ta119  1  0.19868332  0.58773526  0.25715412  1
  Ti  Ti120  1  0.69303674  0.70752099  0.36071175  1
  Ti  Ti121  1  0.41820291  -0.00981218  0.24913227  1
  Ti  Ti122  1  0.29993797  0.09288319  0.62790382  1
  Ti  Ti123  1  0.90166085  0.70281731  0.86524483  1
  Ti  Ti124  1  0.20702308  -0.00156252  0.75700181  1
  Ti  Ti125  1  0.90219242  0.70858309  0.36733200  1
  Ti  Ti126  1  0.09459358  0.29852618  0.11626283  1
  Ti  Ti127  1  0.49656056  0.49674912  0.88514169  1
  Ti  Ti128  1  0.29885586  0.90158184  0.62395234  1
  Ti  Ti129  1  0.81344167  0.20398975  0.24640586  1
  Ti  Ti130  1  0.20099610  0.19868353  0.24712411  1
  Ti  Ti131  1  -0.00811150  0.20765911  0.23190379  1
  Ti  Ti132  1  0.59806075  0.19930645  0.75680053  1
  Ti  Ti133  1  0.21195835  0.82581467  0.02471766  1
  Ti  Ti134  1  0.79812676  0.00888153  -0.01451782  1
  Ti  Ti135  1  0.00162862  0.39888854  0.24570300  1
  Ti  Ti136  1  0.00979101  0.19709682  0.73656832  1
  Ti  Ti137  1  0.90171330  0.10810469  0.10941853  1
  Ti  Ti138  1  0.49642214  0.69017383  0.11495103  1
  Ti  Ti139  1  0.49695677  0.29530491  0.87748032  1
  Ti  Ti140  1  0.29679527  0.49877421  0.87144536  1
  Ti  Ti141  1  0.38744997  -0.01463375  -0.00347280  1
  Ti  Ti142  1  0.08914889  0.49642430  0.38191740  1
  Ti  Ti143  1  0.09193745  0.10678693  0.36312644  1
  Ti  Ti144  1  0.20361968  0.20196422  0.00378371  1
  Ti  Ti145  1  0.70554382  0.10177652  0.64578502  1
  Ti  Ti146  1  0.49834341  0.29161316  0.61971199  1
  Ti  Ti147  1  -0.00270379  0.80998668  0.22937279  1
  Ti  Ti148  1  0.09740324  0.10554535  0.89540757  1
  Ti  Ti149  1  0.38714170  0.78059748  0.50876106  1
  Ti  Ti150  1  0.88790355  0.71099783  0.63893388  1
  Ti  Ti151  1  0.39074032  0.58811244  0.00050733  1
  Ti  Ti152  1  0.29324749  0.09016141  0.88841234  1
  Ti  Ti153  1  0.00735045  0.80278276  0.74585415  1
  Ti  Ti154  1  0.30430529  0.29755308  0.61997605  1
  Ti  Ti155  1  0.20189286  0.80123778  0.23537627  1
  Ti  Ti156  1  -0.00795031  0.39149518  0.00100132  1
  Ti  Ti157  1  -0.00615831  0.60918707  0.49490781  1
  Ti  Ti158  1  0.10396741  0.90840935  0.62423030  1
  Ti  Ti159  1  0.90725690  0.29489664  0.38991993  1
  Mo  Mo160  1  0.69825929  0.69885736  0.64040835  1
  Mo  Mo161  1  0.69171738  0.28287842  0.64560634  1
  Mo  Mo162  1  0.20329054  0.59065696  -0.00139353  1
  Mo  Mo163  1  0.49741174  0.49634756  0.39302043  1
  Mo  Mo164  1  0.39972702  0.59370252  0.47725334  1
  Mo  Mo165  1  0.30520753  0.10102920  0.36478115  1
  Mo  Mo166  1  0.80789257  0.79932101  0.75345900  1
  Mo  Mo167  1  0.49718362  0.90767255  0.10897883  1
  Mo  Mo168  1  0.80462510  0.00673922  0.76052110  1
  Mo  Mo169  1  -0.00771831  0.00604863  -0.00045048  1
  Mo  Mo170  1  -0.00495699  0.60026431  0.00970197  1
  Mo  Mo171  1  0.09930688  0.29865609  0.61462793  1
  Mo  Mo172  1  0.59751378  0.00322515  0.25929052  1
  Mo  Mo173  1  0.89541475  0.69746090  0.13983208  1
  Mo  Mo174  1  0.09747225  0.90394188  0.12427789  1
  Mo  Mo175  1  0.39910464  0.19604083  -0.00696135  1
  Mo  Mo176  1  0.60399231  0.60365030  0.48352673  1
  Mo  Mo177  1  0.29841374  0.70448881  0.35030863  1
  Mo  Mo178  1  0.30370259  0.48880567  0.13149632  1
  Mo  Mo179  1  0.00169284  0.20677194  -0.00215361  1
  Mo  Mo180  1  0.10542928  0.09690188  0.62765777  1
  Mo  Mo181  1  0.29983805  0.90179946  0.87476180  1
  Mo  Mo182  1  0.09836326  0.70018521  0.61835843  1
  Mo  Mo183  1  0.90755777  0.50498989  0.39470053  1
  Mo  Mo184  1  0.89635907  0.09726532  0.65018219  1
  Mo  Mo185  1  0.49388893  0.49415489  0.61630979  1
  Mo  Mo186  1  -0.00301287  0.19986511  0.51454105  1
  Mo  Mo187  1  0.90851222  0.30569689  0.12146007  1
  Mo  Mo188  1  0.80102552  0.40491296  -0.02023639  1
  Mo  Mo189  1  0.29798545  0.49083135  0.37281937  1
  Mo  Mo190  1  0.69732577  0.10358133  0.87334143  1
  Mo  Mo191  1  0.69895767  0.49994876  0.86508183  1
  Mo  Mo192  1  0.68450333  0.53420074  0.64058556  1
  Mo  Mo193  1  0.30241289  0.69472600  0.62850084  1
  Mo  Mo194  1  0.60608333  0.19254932  0.52207461  1
  Mo  Mo195  1  0.30485121  0.90490652  0.13974920  1
  Mo  Mo196  1  0.20346968  0.00273898  0.00260965  1
  Mo  Mo197  1  0.79746957  0.60392236  0.74521424  1
  Mo  Mo198  1  0.59257493  0.59657089  0.76988963  1
  Mo  Mo199  1  0.79501228  0.19794348  0.75711546  1
