# generated using pymatgen
data_HfZrTaTiMo
_symmetry_space_group_name_H-M   'P 1'
_cell_length_a   15.93642386
_cell_length_b   15.95255852
_cell_length_c   15.16493245
_cell_angle_alpha   90.06263921
_cell_angle_beta   90.04035024
_cell_angle_gamma   90.10830408
_symmetry_Int_Tables_number   1
_chemical_formula_structural   HfZrTaTiMo
_chemical_formula_sum   'Hf40 Zr40 Ta40 Ti40 Mo40'
_cell_volume   3855.32109678
_cell_formula_units_Z   40
loop_
 _symmetry_equiv_pos_site_id
 _symmetry_equiv_pos_as_xyz
  1  'x, y, z'
loop_
 _atom_site_type_symbol
 _atom_site_label
 _atom_site_symmetry_multiplicity
 _atom_site_fract_x
 _atom_site_fract_y
 _atom_site_fract_z
 _atom_site_occupancy
  Hf  Hf0  1  0.48591431  0.09127083  0.86836738  1
  Hf  Hf1  1  0.00504882  0.41001533  -0.00941788  1
  Hf  Hf2  1  0.10481397  0.29566563  0.61268496  1
  Hf  Hf3  1  0.69869990  0.10009352  0.11448385  1
  Hf  Hf4  1  0.20231750  -0.00483891  0.01296741  1
  Hf  Hf5  1  0.40050980  0.00026113  0.23076504  1
  Hf  Hf6  1  0.30911606  0.30903826  0.86133801  1
  Hf  Hf7  1  0.31498657  0.50254194  0.62255587  1
  Hf  Hf8  1  0.20113709  0.40716959  -0.00518671  1
  Hf  Hf9  1  0.28703790  0.90335087  0.35736053  1
  Hf  Hf10  1  0.30097904  0.89764274  0.87424746  1
  Hf  Hf11  1  0.19827911  0.60627014  0.73038164  1
  Hf  Hf12  1  0.08556019  0.89483224  0.88149965  1
  Hf  Hf13  1  0.52082234  0.51380696  0.61476667  1
  Hf  Hf14  1  0.61106153  0.60241775  0.76755660  1
  Hf  Hf15  1  0.39783323  0.20399350  0.00089002  1
  Hf  Hf16  1  0.89468855  0.90767122  0.64637075  1
  Hf  Hf17  1  -0.00399218  0.19511405  0.26092129  1
  Hf  Hf18  1  0.19769558  0.40460825  0.73647208  1
  Hf  Hf19  1  0.20254952  0.60087332  0.49277394  1
  Hf  Hf20  1  0.69115841  0.90329518  0.35844222  1
  Hf  Hf21  1  0.30056320  0.89545488  0.62343544  1
  Hf  Hf22  1  0.69598704  0.70271457  0.37043059  1
  Hf  Hf23  1  0.69759162  0.30148846  0.11313634  1
  Hf  Hf24  1  0.77630435  0.01585689  0.48813269  1
  Hf  Hf25  1  0.90834062  0.71054251  0.37319059  1
  Hf  Hf26  1  0.00971693  0.60142242  0.01048688  1
  Hf  Hf27  1  0.80852728  0.40470845  -0.00614799  1
  Hf  Hf28  1  0.59583725  0.39892099  0.24126633  1
  Hf  Hf29  1  0.62529997  0.40198810  0.74958547  1
  Hf  Hf30  1  0.69976821  0.69646824  0.12550013  1
  Hf  Hf31  1  0.79032928  0.39755457  0.50260169  1
  Hf  Hf32  1  0.39906229  0.80361883  0.02636214  1
  Hf  Hf33  1  0.78370389  0.21507052  0.75992894  1
  Hf  Hf34  1  0.11370442  0.50353978  0.15173978  1
  Hf  Hf35  1  0.88088668  0.09629274  0.63464199  1
  Hf  Hf36  1  0.89401469  0.10041340  0.11769642  1
  Hf  Hf37  1  0.79799964  0.20593524  -0.02077057  1
  Hf  Hf38  1  0.30271221  0.09585000  0.63387996  1
  Hf  Hf39  1  0.19618251  0.79395325  0.02743194  1
  Zr  Zr40  1  0.62409666  0.18447158  0.52250480  1
  Zr  Zr41  1  0.10774029  0.29903691  0.38842028  1
  Zr  Zr42  1  0.39371742  0.78917719  0.24687222  1
  Zr  Zr43  1  0.09785896  0.30970658  0.13680565  1
  Zr  Zr44  1  0.89547773  0.29998803  0.62438281  1
  Zr  Zr45  1  0.40736050  -0.00584711  0.49196913  1
  Zr  Zr46  1  0.68969568  0.91737864  0.64331575  1
  Zr  Zr47  1  0.30785077  0.50517759  0.86180268  1
  Zr  Zr48  1  0.50333341  0.30413088  0.63422331  1
  Zr  Zr49  1  0.29762642  0.30809705  0.12614635  1
  Zr  Zr50  1  0.20123695  0.79034884  0.74375625  1
  Zr  Zr51  1  -0.02527911  -0.01470010  0.47807131  1
  Zr  Zr52  1  0.10636492  0.08580035  0.37467776  1
  Zr  Zr53  1  0.51162852  0.10046976  0.36061360  1
  Zr  Zr54  1  0.00486348  0.20093660  0.75217549  1
  Zr  Zr55  1  0.89637212  0.29922649  0.38237260  1
  Zr  Zr56  1  0.09784980  0.10161082  0.12222881  1
  Zr  Zr57  1  0.09012716  0.09196245  0.61950194  1
  Zr  Zr58  1  0.59080604  0.80543091  0.50212614  1
  Zr  Zr59  1  0.79145973  0.40246459  0.26114845  1
  Zr  Zr60  1  0.91125345  0.50473808  0.14836379  1
  Zr  Zr61  1  0.50880042  0.29947412  0.38896824  1
  Zr  Zr62  1  0.58890824  -0.01052350  0.00100620  1
  Zr  Zr63  1  0.90373765  0.08389811  0.86904100  1
  Zr  Zr64  1  0.80594684  0.81048542  0.50502079  1
  Zr  Zr65  1  0.40984397  0.18897482  0.50901195  1
  Zr  Zr66  1  0.40694720  0.40258664  0.24719341  1
  Zr  Zr67  1  0.90217673  0.30340641  0.13699069  1
  Zr  Zr68  1  0.88988561  0.50862334  0.62448098  1
  Zr  Zr69  1  0.00100120  0.21236650  -0.01094296  1
  Zr  Zr70  1  0.18958821  -0.00113703  0.75453262  1
  Zr  Zr71  1  0.09563087  0.89767523  0.60440432  1
  Zr  Zr72  1  0.41665066  0.62356136  0.74863767  1
  Zr  Zr73  1  0.59482730  0.78193857  0.75064354  1
  Zr  Zr74  1  0.89775486  0.70023194  0.86729529  1
  Zr  Zr75  1  0.20757027  0.20314009  0.25590240  1
  Zr  Zr76  1  0.49529486  0.88378422  0.87231638  1
  Zr  Zr77  1  0.81307972  0.60522860  0.00702332  1
  Zr  Zr78  1  0.10271561  0.69524995  0.87991259  1
  Zr  Zr79  1  -0.00355413  0.79013793  0.73470914  1
  Ta  Ta80  1  0.48675053  0.89310516  0.64449144  1
  Ta  Ta81  1  0.20924987  0.59493652  0.01084088  1
  Ta  Ta82  1  -0.01021074  0.19130236  0.49634583  1
  Ta  Ta83  1  0.00094236  0.60158221  0.49142377  1
  Ta  Ta84  1  0.30491122  0.10123061  0.36372907  1
  Ta  Ta85  1  0.49828074  0.50818002  0.11016633  1
  Ta  Ta86  1  0.30307855  0.29988712  0.62307340  1
  Ta  Ta87  1  0.31435476  0.50196749  0.37866761  1
  Ta  Ta88  1  0.60072018  0.20117893  0.76062218  1
  Ta  Ta89  1  0.21249083  0.60807965  0.27249503  1
  Ta  Ta90  1  0.69920193  0.89397152  0.11842541  1
  Ta  Ta91  1  0.30922167  0.70219257  0.88907028  1
  Ta  Ta92  1  0.50064637  0.49955376  0.88214975  1
  Ta  Ta93  1  -0.00039312  0.79945541  0.23872458  1
  Ta  Ta94  1  -0.00676953  -0.00801008  0.24757731  1
  Ta  Ta95  1  -0.00798487  0.79220644  0.02472662  1
  Ta  Ta96  1  0.10060434  0.09488207  0.88188018  1
  Ta  Ta97  1  0.69223201  0.08826883  0.87010536  1
  Ta  Ta98  1  0.69545279  0.68174818  0.60793759  1
  Ta  Ta99  1  0.78637841  0.19609554  0.25791388  1
  Ta  Ta100  1  0.89161664  0.90002683  0.12404073  1
  Ta  Ta101  1  0.90682968  0.50765110  0.85449851  1
  Ta  Ta102  1  0.09447033  0.88630150  0.36474690  1
  Ta  Ta103  1  0.69364438  0.50570612  0.11853005  1
  Ta  Ta104  1  0.80089989  0.59772133  0.25966911  1
  Ta  Ta105  1  0.40059986  0.80015285  0.48377131  1
  Ta  Ta106  1  0.00399246  0.41260884  0.50129182  1
  Ta  Ta107  1  0.49756891  0.31201233  0.86928794  1
  Ta  Ta108  1  0.88992919  0.88744560  0.87994858  1
  Ta  Ta109  1  0.20146390  0.20311699  -0.01441189  1
  Ta  Ta110  1  0.00576670  0.60097514  0.72403452  1
  Ta  Ta111  1  0.69117650  0.50091698  0.38650629  1
  Ta  Ta112  1  0.59517331  0.20484690  -0.01737894  1
  Ta  Ta113  1  0.50614484  0.68692405  0.11818861  1
  Ta  Ta114  1  0.79659132  0.00101600  0.24731823  1
  Ta  Ta115  1  0.30926511  0.29929626  0.38968474  1
  Ta  Ta116  1  0.20189756  0.20015192  0.75707752  1
  Ta  Ta117  1  0.50973436  0.08060733  0.65122912  1
  Ta  Ta118  1  0.00719929  0.41134561  0.73598208  1
  Ta  Ta119  1  0.40489649  0.40299315  0.50467077  1
  Ti  Ti120  1  -0.00202776  -0.01164429  0.01077324  1
  Ti  Ti121  1  0.79260897  0.60144454  0.74535911  1
  Ti  Ti122  1  0.69293813  0.29000971  0.38241464  1
  Ti  Ti123  1  0.50628531  0.49933967  0.38643758  1
  Ti  Ti124  1  0.39834106  0.40813338  0.00944136  1
  Ti  Ti125  1  0.31434339  0.70842838  0.61041595  1
  Ti  Ti126  1  0.59821259  0.00069506  0.23113640  1
  Ti  Ti127  1  0.20618828  -0.00097875  0.49475129  1
  Ti  Ti128  1  0.70812135  0.50352926  0.88855831  1
  Ti  Ti129  1  0.69855258  0.71442507  0.90064352  1
  Ti  Ti130  1  0.00457317  0.41640478  0.28585582  1
  Ti  Ti131  1  0.20197783  0.79234491  0.48029203  1
  Ti  Ti132  1  0.29489914  0.10534868  0.12946608  1
  Ti  Ti133  1  0.80327561  0.80086245  0.24241617  1
  Ti  Ti134  1  0.09300011  0.70503405  0.59832376  1
  Ti  Ti135  1  0.80230294  0.60158202  0.48869149  1
  Ti  Ti136  1  0.50099613  0.10929956  0.11737501  1
  Ti  Ti137  1  0.78733661  0.78887168  0.74347896  1
  Ti  Ti138  1  0.49982466  0.69474987  0.36531963  1
  Ti  Ti139  1  0.20581986  0.40652432  0.49958625  1
  Ti  Ti140  1  0.50031073  0.89978885  0.35722518  1
  Ti  Ti141  1  0.59713728  0.40089573  -0.00407923  1
  Ti  Ti142  1  0.40900596  0.60941571  0.49151088  1
  Ti  Ti143  1  0.40010336  0.20083025  0.74858718  1
  Ti  Ti144  1  0.59604340  0.20672656  0.23497567  1
  Ti  Ti145  1  0.39326871  -0.00294915  0.01934988  1
  Ti  Ti146  1  0.29755592  0.09722699  0.87190340  1
  Ti  Ti147  1  0.30712229  0.67537144  0.13324633  1
  Ti  Ti148  1  0.10143632  0.69164317  0.14948587  1
  Ti  Ti149  1  0.79359366  -0.01146183  -0.00853909  1
  Ti  Ti150  1  0.88598146  0.09958257  0.36959942  1
  Ti  Ti151  1  0.59159174  -0.00098500  0.50051843  1
  Ti  Ti152  1  0.40783571  0.20779162  0.24066931  1
  Ti  Ti153  1  0.90226582  0.31912568  0.85499878  1
  Ti  Ti154  1  0.10316994  0.30586576  0.86483176  1
  Ti  Ti155  1  0.10119605  0.50807040  0.86465493  1
  Ti  Ti156  1  0.59626918  0.59175370  0.25338372  1
  Ti  Ti157  1  0.20855738  0.19052155  0.49813297  1
  Ti  Ti158  1  0.20962840  0.40656730  0.27211341  1
  Ti  Ti159  1  0.59186471  0.80034576  0.23419702  1
  Mo  Mo160  1  0.41040113  0.40377447  0.73508621  1
  Mo  Mo161  1  0.41219153  0.59406144  0.26099343  1
  Mo  Mo162  1  0.70282358  0.30119884  0.62165384  1
  Mo  Mo163  1  0.69110426  0.10183171  0.35307541  1
  Mo  Mo164  1  0.39863790  0.59729089  -0.00167003  1
  Mo  Mo165  1  0.09414386  0.89730634  0.13469767  1
  Mo  Mo166  1  -0.00378983  -0.00766028  0.76404496  1
  Mo  Mo167  1  0.80042716  0.19499735  0.49216461  1
  Mo  Mo168  1  0.59513993  -0.00761594  0.76963644  1
  Mo  Mo169  1  0.50221696  0.89626041  0.13240805  1
  Mo  Mo170  1  0.49989469  0.69390913  0.90385262  1
  Mo  Mo171  1  0.89243952  0.89987342  0.35106749  1
  Mo  Mo172  1  0.59933430  0.60491863  0.47942122  1
  Mo  Mo173  1  0.30635605  0.70025226  0.38090905  1
  Mo  Mo174  1  0.79244975  -0.00938948  0.77374595  1
  Mo  Mo175  1  0.80112239  0.41276896  0.75744521  1
  Mo  Mo176  1  0.10872366  0.50294896  0.37978394  1
  Mo  Mo177  1  0.69424365  0.30793406  0.88950935  1
  Mo  Mo178  1  0.39470199  0.79244464  0.75058870  1
  Mo  Mo179  1  0.59959594  0.79410235  0.01139705  1
  Mo  Mo180  1  0.70489541  0.88943569  0.88158190  1
  Mo  Mo181  1  0.89077201  0.70065743  0.61532589  1
  Mo  Mo182  1  0.30257936  0.50579798  0.14291444  1
  Mo  Mo183  1  0.29240935  0.90187539  0.13834705  1
  Mo  Mo184  1  0.60343161  0.59501436  -0.01084627  1
  Mo  Mo185  1  0.19566456  -0.00312798  0.23706305  1
  Mo  Mo186  1  0.80301733  0.80211265  0.01300331  1
  Mo  Mo187  1  0.10126673  0.50301061  0.60699621  1
  Mo  Mo188  1  0.50302036  0.30183513  0.10318719  1
  Mo  Mo189  1  0.39285301  -0.00350372  0.75118500  1
  Mo  Mo190  1  -0.00167051  0.79936845  0.49981240  1
  Mo  Mo191  1  0.70173088  0.50684654  0.61033958  1
  Mo  Mo192  1  0.60485205  0.39920493  0.50548734  1
  Mo  Mo193  1  0.49924954  0.70486658  0.60600546  1
  Mo  Mo194  1  0.69686792  0.09942942  0.65385541  1
  Mo  Mo195  1  0.90154671  0.69840565  0.14698023  1
  Mo  Mo196  1  0.00829295  0.60208622  0.27242347  1
  Mo  Mo197  1  0.10305993  0.70587562  0.37293933  1
  Mo  Mo198  1  0.19600360  0.79277856  0.24391140  1
  Mo  Mo199  1  0.89747547  0.50706355  0.38272530  1
