# generated using pymatgen
data_HfZrTaTiMo
_symmetry_space_group_name_H-M   'P 1'
_cell_length_a   15.92463026
_cell_length_b   15.92686502
_cell_length_c   15.19163660
_cell_angle_alpha   89.94333808
_cell_angle_beta   89.99731192
_cell_angle_gamma   90.06170996
_symmetry_Int_Tables_number   1
_chemical_formula_structural   HfZrTaTiMo
_chemical_formula_sum   'Hf40 Zr40 Ta40 Ti40 Mo40'
_cell_volume   3853.04210840
_cell_formula_units_Z   40
loop_
 _symmetry_equiv_pos_site_id
 _symmetry_equiv_pos_as_xyz
  1  'x, y, z'
loop_
 _atom_site_type_symbol
 _atom_site_label
 _atom_site_symmetry_multiplicity
 _atom_site_fract_x
 _atom_site_fract_y
 _atom_site_fract_z
 _atom_site_occupancy
  Hf  Hf0  1  0.60397486  0.80355808  0.50523157  1
  Hf  Hf1  1  0.38521370  0.19993191  0.74674952  1
  Hf  Hf2  1  0.90271363  0.29428375  0.63840165  1
  Hf  Hf3  1  0.49591356  0.29828279  0.13212979  1
  Hf  Hf4  1  0.50232427  0.69525010  0.38667311  1
  Hf  Hf5  1  0.48510226  0.88628031  0.64087026  1
  Hf  Hf6  1  0.39880426  0.79529152  0.24521820  1
  Hf  Hf7  1  0.21120462  0.60838912  0.24950404  1
  Hf  Hf8  1  0.70334780  0.89490146  0.12156197  1
  Hf  Hf9  1  0.30435348  0.50234237  0.61611423  1
  Hf  Hf10  1  -0.01558501  0.20685409  0.47570900  1
  Hf  Hf11  1  0.28389853  0.88689041  0.11659451  1
  Hf  Hf12  1  0.59445011  0.79015171  0.75895998  1
  Hf  Hf13  1  0.10773553  0.91931468  0.36483055  1
  Hf  Hf14  1  0.59561507  0.19388114  0.75879220  1
  Hf  Hf15  1  0.49183268  0.29706363  0.87715502  1
  Hf  Hf16  1  0.28675670  0.09312883  0.37878670  1
  Hf  Hf17  1  0.20358101  0.60496283  0.74746188  1
  Hf  Hf18  1  0.39867530  0.59249454  0.23576614  1
  Hf  Hf19  1  0.80866483  0.60174186  0.75982113  1
  Hf  Hf20  1  0.70631756  0.29422604  0.62471250  1
  Hf  Hf21  1  0.50208398  0.50321732  0.38158215  1
  Hf  Hf22  1  0.70600484  0.08949018  0.63295105  1
  Hf  Hf23  1  0.59318003  0.18919639  -0.00197834  1
  Hf  Hf24  1  0.20593234  0.60875705  0.50213524  1
  Hf  Hf25  1  0.29062460  0.30358128  0.61398385  1
  Hf  Hf26  1  0.80448097  0.60443768  0.49120298  1
  Hf  Hf27  1  0.91219420  0.48603518  0.62461953  1
  Hf  Hf28  1  0.08941440  0.30953844  0.60619662  1
  Hf  Hf29  1  0.58508361  -0.00623426  0.24228614  1
  Hf  Hf30  1  0.29633968  0.90622894  0.87083482  1
  Hf  Hf31  1  0.19654848  0.01250664  0.73088242  1
  Hf  Hf32  1  0.00440930  0.61248989  0.00747130  1
  Hf  Hf33  1  0.18978039  0.01268539  0.00566926  1
  Hf  Hf34  1  0.00475405  0.60603334  0.24655920  1
  Hf  Hf35  1  0.20961902  0.39269697  -0.00717571  1
  Hf  Hf36  1  0.49085053  0.08402985  0.63752626  1
  Hf  Hf37  1  0.80053551  0.40103147  0.24791936  1
  Hf  Hf38  1  0.90765725  0.49944977  0.36675228  1
  Hf  Hf39  1  0.18252180  0.20679583  0.74897391  1
  Zr  Zr40  1  0.21320436  0.40308474  0.25918168  1
  Zr  Zr41  1  0.39821846  0.40067092  0.00127965  1
  Zr  Zr42  1  0.60382913  0.60177920  0.23693654  1
  Zr  Zr43  1  0.10686376  0.71676253  0.37407522  1
  Zr  Zr44  1  -0.00220461  0.60913817  0.49551293  1
  Zr  Zr45  1  0.68975408  0.89675813  0.36706841  1
  Zr  Zr46  1  0.81390685  0.18698227  0.25711861  1
  Zr  Zr47  1  0.59926935  0.79620798  -0.01147771  1
  Zr  Zr48  1  0.69876216  0.29072294  0.12824957  1
  Zr  Zr49  1  0.80295855  0.38574713  -0.00585201  1
  Zr  Zr50  1  0.90890919  0.49848999  0.88958374  1
  Zr  Zr51  1  0.10514079  0.49316046  0.11996246  1
  Zr  Zr52  1  0.20265822  0.40011809  0.76323165  1
  Zr  Zr53  1  0.37788825  -0.01548904  0.50505143  1
  Zr  Zr54  1  0.70515991  0.70210381  0.62453493  1
  Zr  Zr55  1  0.80316361  0.60929037  0.00864095  1
  Zr  Zr56  1  -0.00962868  0.80901841  0.75751549  1
  Zr  Zr57  1  0.48975389  0.28817612  0.36638328  1
  Zr  Zr58  1  0.69686384  0.49755204  0.11508560  1
  Zr  Zr59  1  0.80048992  0.19905016  0.77465295  1
  Zr  Zr60  1  0.21094982  0.83516158  0.51417999  1
  Zr  Zr61  1  0.80765027  -0.00504116  0.49235419  1
  Zr  Zr62  1  0.59526056  0.00057142  -0.00127201  1
  Zr  Zr63  1  0.81345239  0.38307704  0.48186847  1
  Zr  Zr64  1  0.60037638  0.39821105  0.75605273  1
  Zr  Zr65  1  -0.00845436  0.82018159  0.49774046  1
  Zr  Zr66  1  0.00468750  0.59995783  0.75202369  1
  Zr  Zr67  1  0.80129385  0.18623905  -0.00566240  1
  Zr  Zr68  1  0.38827940  0.78692785  -0.01044006  1
  Zr  Zr69  1  0.39199087  0.00028676  0.23927116  1
  Zr  Zr70  1  0.71009810  0.49283318  0.61975033  1
  Zr  Zr71  1  0.69507902  0.29023065  0.36762735  1
  Zr  Zr72  1  0.09916522  0.71001473  0.62313153  1
  Zr  Zr73  1  0.89288484  0.90222658  0.12142198  1
  Zr  Zr74  1  0.59292620  0.19186600  0.50532651  1
  Zr  Zr75  1  0.11246670  0.72743449  0.12568370  1
  Zr  Zr76  1  0.60206758  0.59321707  0.75300486  1
  Zr  Zr77  1  0.22149631  0.61365000  0.00587709  1
  Zr  Zr78  1  0.41114681  0.60124002  0.74634244  1
  Zr  Zr79  1  0.40038179  0.39098274  0.49231651  1
  Ta  Ta80  1  0.60529145  0.39543660  0.49248485  1
  Ta  Ta81  1  0.19887940  0.80830643  0.74906832  1
  Ta  Ta82  1  0.39948503  0.00867921  0.00126596  1
  Ta  Ta83  1  0.80276583  0.39616179  0.77265430  1
  Ta  Ta84  1  0.69521022  0.50065180  0.88786931  1
  Ta  Ta85  1  -0.00657791  0.01343877  0.24423516  1
  Ta  Ta86  1  -0.00339704  0.00508987  0.00440845  1
  Ta  Ta87  1  0.31773772  0.72121369  0.62653098  1
  Ta  Ta88  1  0.90977752  0.49161986  0.12758059  1
  Ta  Ta89  1  0.01190692  0.39056833  0.77042647  1
  Ta  Ta90  1  0.80222735  0.79431966  0.26270192  1
  Ta  Ta91  1  0.10325110  0.49102672  0.61136879  1
  Ta  Ta92  1  0.38997712  0.19367773  0.24404321  1
  Ta  Ta93  1  0.59450953  0.39932730  0.25667420  1
  Ta  Ta94  1  0.80648996  0.80102311  0.48421039  1
  Ta  Ta95  1  0.01304174  0.38685628  0.26116464  1
  Ta  Ta96  1  0.30927901  0.71160829  0.38795769  1
  Ta  Ta97  1  0.50678256  0.49973371  0.60477777  1
  Ta  Ta98  1  0.40369428  0.40291143  0.75157013  1
  Ta  Ta99  1  0.70316771  0.89927919  0.64076573  1
  Ta  Ta100  1  0.70173586  0.90216481  0.86470439  1
  Ta  Ta101  1  0.09158562  0.90707033  0.12666652  1
  Ta  Ta102  1  0.10680915  0.70989515  0.87857797  1
  Ta  Ta103  1  0.49394859  0.89379280  0.11288969  1
  Ta  Ta104  1  0.39085989  0.19841225  0.00134557  1
  Ta  Ta105  1  0.10501022  0.29293211  0.11816020  1
  Ta  Ta106  1  0.80490252  0.60560565  0.24513905  1
  Ta  Ta107  1  0.90395219  0.10362695  0.63128497  1
  Ta  Ta108  1  0.70434838  0.08656509  0.13163824  1
  Ta  Ta109  1  0.09516521  0.91261886  0.87392582  1
  Ta  Ta110  1  0.59470493  -0.00651989  0.50652048  1
  Ta  Ta111  1  0.69800061  0.69448220  0.37382262  1
  Ta  Ta112  1  0.09691025  0.10591689  0.36800869  1
  Ta  Ta113  1  0.59006998  0.18182162  0.24316721  1
  Ta  Ta114  1  0.29483586  0.10619955  0.87997225  1
  Ta  Ta115  1  0.69050395  0.09158926  0.37117861  1
  Ta  Ta116  1  0.80793200  0.80403145  -0.02096270  1
  Ta  Ta117  1  0.31161941  0.50686359  0.87281083  1
  Ta  Ta118  1  0.10524686  0.50340401  0.88927826  1
  Ta  Ta119  1  0.91690387  0.29815244  0.12722758  1
  Ti  Ti120  1  0.48763534  0.89516825  0.38026898  1
  Ti  Ti121  1  0.18941175  0.18947148  0.50589736  1
  Ti  Ti122  1  0.09453968  0.10868442  0.87553830  1
  Ti  Ti123  1  0.30891364  0.50709738  0.38507977  1
  Ti  Ti124  1  0.19529655  0.00873564  0.23146775  1
  Ti  Ti125  1  0.50426593  0.69907876  0.11352868  1
  Ti  Ti126  1  0.10640583  0.49519281  0.38731798  1
  Ti  Ti127  1  0.80975908  -0.00509468  0.76137654  1
  Ti  Ti128  1  0.29933084  0.30192236  0.13515593  1
  Ti  Ti129  1  0.91957552  0.29044138  0.88394002  1
  Ti  Ti130  1  0.40223784  0.59403572  0.01021015  1
  Ti  Ti131  1  0.49961602  0.69281701  0.60816566  1
  Ti  Ti132  1  0.49308950  0.09084851  0.38092431  1
  Ti  Ti133  1  0.49612647  0.91246447  0.86396795  1
  Ti  Ti134  1  0.69781603  0.50352445  0.37420500  1
  Ti  Ti135  1  0.89894462  0.09886764  0.11916613  1
  Ti  Ti136  1  0.39274503  0.18905436  0.50759004  1
  Ti  Ti137  1  0.70286748  0.70798741  0.12199399  1
  Ti  Ti138  1  0.28938980  0.11394433  0.11793406  1
  Ti  Ti139  1  0.80482092  -0.00522108  0.26250398  1
  Ti  Ti140  1  0.89555466  0.70815274  0.62616642  1
  Ti  Ti141  1  0.29242077  0.29073709  0.37955532  1
  Ti  Ti142  1  0.50258255  0.49164948  0.12162313  1
  Ti  Ti143  1  0.19082043  0.20398646  0.25057998  1
  Ti  Ti144  1  -0.00102424  0.80943599  -0.01106715  1
  Ti  Ti145  1  0.90062542  0.71175276  0.12761285  1
  Ti  Ti146  1  0.69278438  0.08441878  0.86889392  1
  Ti  Ti147  1  0.01163901  0.19317261  0.00734428  1
  Ti  Ti148  1  0.49920590  0.30187046  0.62489823  1
  Ti  Ti149  1  0.70185166  0.69435082  0.88110219  1
  Ti  Ti150  1  0.80554329  0.79908527  0.76743307  1
  Ti  Ti151  1  0.89362713  0.90555718  0.63130518  1
  Ti  Ti152  1  0.00224721  0.00947049  0.74425517  1
  Ti  Ti153  1  0.90936787  0.09265518  0.87576977  1
  Ti  Ti154  1  -0.00662709  0.81079090  0.25809536  1
  Ti  Ti155  1  0.49733167  0.68234428  0.88565252  1
  Ti  Ti156  1  0.00620768  0.00915148  0.50616067  1
  Ti  Ti157  1  0.80105779  0.18838503  0.48668646  1
  Ti  Ti158  1  0.59817696  0.39620283  -0.00788884  1
  Ti  Ti159  1  0.59514905  0.79600644  0.24466003  1
  Mo  Mo160  1  0.20456993  0.80991476  0.26212604  1
  Mo  Mo161  1  0.11012030  0.29737499  0.38124723  1
  Mo  Mo162  1  0.40191464  0.80275443  0.49305310  1
  Mo  Mo163  1  0.18964368  0.81014375  -0.02107078  1
  Mo  Mo164  1  0.30058734  0.29928410  0.86617102  1
  Mo  Mo165  1  0.08457271  0.11110668  0.61556767  1
  Mo  Mo166  1  0.40014953  0.60369003  0.50901995  1
  Mo  Mo167  1  0.08903952  0.91202954  0.63956321  1
  Mo  Mo168  1  0.30452796  0.70173230  0.13026760  1
  Mo  Mo169  1  0.59491215  0.59864875  0.00225855  1
  Mo  Mo170  1  0.39314342  0.00336548  0.76090040  1
  Mo  Mo171  1  0.00539229  0.40022465  0.48058487  1
  Mo  Mo172  1  0.20194236  0.20202593  -0.00311311  1
  Mo  Mo173  1  0.69609779  0.29888340  0.88107302  1
  Mo  Mo174  1  0.89861594  0.70263668  0.36188423  1
  Mo  Mo175  1  0.90125576  0.91178789  0.87886638  1
  Mo  Mo176  1  0.00653836  0.39400397  -0.00043236  1
  Mo  Mo177  1  0.90533698  0.29676784  0.35093655  1
  Mo  Mo178  1  0.00660617  0.20006942  0.24790449  1
  Mo  Mo179  1  0.18602038  0.01081298  0.51696807  1
  Mo  Mo180  1  0.49044665  0.09997784  0.12330032  1
  Mo  Mo181  1  0.30263626  0.90387858  0.65119317  1
  Mo  Mo182  1  0.60728748  0.59610656  0.50193869  1
  Mo  Mo183  1  0.79926390  0.00044518  -0.01307422  1
  Mo  Mo184  1  0.09836617  0.29638803  0.89515361  1
  Mo  Mo185  1  0.39923508  0.39779164  0.25349684  1
  Mo  Mo186  1  0.40133158  0.79351655  0.77041120  1
  Mo  Mo187  1  0.48739564  0.09352864  0.86561854  1
  Mo  Mo188  1  0.20167538  0.40145130  0.48421199  1
  Mo  Mo189  1  0.29271207  0.10517154  0.61289192  1
  Mo  Mo190  1  0.90530766  0.90292558  0.36366980  1
  Mo  Mo191  1  0.60109726  -0.00775435  0.74977375  1
  Mo  Mo192  1  0.50184904  0.50082118  0.89072786  1
  Mo  Mo193  1  0.29330071  0.90354014  0.35703447  1
  Mo  Mo194  1  0.90540200  0.70585156  0.88195145  1
  Mo  Mo195  1  0.90317745  0.09065962  0.37600216  1
  Mo  Mo196  1  0.30834997  0.49686116  0.12525618  1
  Mo  Mo197  1  -0.00010365  0.19757594  0.76053337  1
  Mo  Mo198  1  0.29932145  0.70045454  0.85595349  1
  Mo  Mo199  1  0.09601580  0.10601804  0.13522284  1
