# generated using pymatgen
data_HfZrTaTiMo
_symmetry_space_group_name_H-M   'P 1'
_cell_length_a   15.93103691
_cell_length_b   15.92065734
_cell_length_c   15.19283700
_cell_angle_alpha   89.99921223
_cell_angle_beta   89.95399979
_cell_angle_gamma   90.06528781
_symmetry_Int_Tables_number   1
_chemical_formula_structural   HfZrTaTiMo
_chemical_formula_sum   'Hf40 Zr40 Ta40 Ti40 Mo40'
_cell_volume   3853.39469958
_cell_formula_units_Z   40
loop_
 _symmetry_equiv_pos_site_id
 _symmetry_equiv_pos_as_xyz
  1  'x, y, z'
loop_
 _atom_site_type_symbol
 _atom_site_label
 _atom_site_symmetry_multiplicity
 _atom_site_fract_x
 _atom_site_fract_y
 _atom_site_fract_z
 _atom_site_occupancy
  Hf  Hf0  1  0.09365451  0.49876290  0.39637097  1
  Hf  Hf1  1  0.28480628  0.48951772  0.61483639  1
  Hf  Hf2  1  0.39278931  0.79618236  0.50763786  1
  Hf  Hf3  1  0.50266636  0.30411329  0.12585552  1
  Hf  Hf4  1  0.60022575  0.79208957  0.74235383  1
  Hf  Hf5  1  0.20230276  0.00372713  0.25000906  1
  Hf  Hf6  1  0.70831836  0.10012063  0.13021267  1
  Hf  Hf7  1  0.10490951  0.90236804  0.86147430  1
  Hf  Hf8  1  0.70722552  0.09715409  0.36715909  1
  Hf  Hf9  1  0.69288842  0.71506634  0.38671172  1
  Hf  Hf10  1  0.49210213  0.70626237  0.37325925  1
  Hf  Hf11  1  0.60199713  0.40461549  0.25641565  1
  Hf  Hf12  1  0.29966918  0.08677533  0.88911043  1
  Hf  Hf13  1  0.11361726  0.31967497  0.63064047  1
  Hf  Hf14  1  0.21091346  0.00368922  0.50236678  1
  Hf  Hf15  1  0.10560174  0.30861570  0.38800828  1
  Hf  Hf16  1  0.70482791  0.69966705  0.13208400  1
  Hf  Hf17  1  0.80415545  -0.01210496  0.49437228  1
  Hf  Hf18  1  0.09631029  0.89772122  0.38734695  1
  Hf  Hf19  1  0.28821581  0.89714921  0.64290116  1
  Hf  Hf20  1  0.08606997  0.69929520  0.38228816  1
  Hf  Hf21  1  0.10228783  0.11045349  0.38619598  1
  Hf  Hf22  1  -0.00103370  0.20106899  -0.01579240  1
  Hf  Hf23  1  0.28857430  0.49134871  0.37079616  1
  Hf  Hf24  1  0.39044148  0.38785354  0.49204834  1
  Hf  Hf25  1  0.11066146  0.31779690  0.87675322  1
  Hf  Hf26  1  0.39827077  0.19858254  0.49831451  1
  Hf  Hf27  1  0.29595009  0.49725470  0.12478048  1
  Hf  Hf28  1  0.39176692  0.60009034  -0.00763544  1
  Hf  Hf29  1  0.40511647  0.19909866  -0.00333417  1
  Hf  Hf30  1  0.80816714  -0.01172923  -0.00818572  1
  Hf  Hf31  1  0.30597115  0.88731047  0.36265087  1
  Hf  Hf32  1  0.69405598  0.08603213  0.86853783  1
  Hf  Hf33  1  0.90300866  0.69688469  0.12886039  1
  Hf  Hf34  1  0.79678906  0.80030836  -0.00998863  1
  Hf  Hf35  1  0.11065215  0.10777471  0.10923415  1
  Hf  Hf36  1  -0.01274887  0.61337199  0.52459282  1
  Hf  Hf37  1  0.80184936  0.19698786  -0.01643228  1
  Hf  Hf38  1  0.50815789  0.09998237  0.12330769  1
  Hf  Hf39  1  0.00034513  0.00078180  0.25584573  1
  Zr  Zr40  1  0.50553797  0.90158316  0.62640151  1
  Zr  Zr41  1  0.89986407  0.30338820  0.12189341  1
  Zr  Zr42  1  0.18298041  0.60041801  0.25226807  1
  Zr  Zr43  1  0.60670721  0.80203744  0.00160611  1
  Zr  Zr44  1  0.78781634  0.40346347  0.74802836  1
  Zr  Zr45  1  0.50895010  0.10282953  0.63062446  1
  Zr  Zr46  1  0.29076264  0.70202360  0.12863554  1
  Zr  Zr47  1  0.10380352  0.90114521  0.11564592  1
  Zr  Zr48  1  0.90966810  0.50545239  0.37711354  1
  Zr  Zr49  1  0.49580175  0.70524470  0.87560336  1
  Zr  Zr50  1  0.39814184  0.82522003  0.01540035  1
  Zr  Zr51  1  0.80624277  0.19884986  0.50129664  1
  Zr  Zr52  1  0.08874987  0.90364013  0.62740734  1
  Zr  Zr53  1  0.70482994  0.49853956  0.12484247  1
  Zr  Zr54  1  0.60189987  0.59736170  -0.00077117  1
  Zr  Zr55  1  0.51005596  0.89368357  0.36964215  1
  Zr  Zr56  1  0.60253782  -0.01482686  0.01103929  1
  Zr  Zr57  1  0.90439282  0.09857671  0.12955816  1
  Zr  Zr58  1  0.59467624  0.58737894  0.74747498  1
  Zr  Zr59  1  0.67672290  0.49286556  0.61448180  1
  Zr  Zr60  1  0.49439908  0.91387771  0.85814363  1
  Zr  Zr61  1  0.49528248  0.69861386  0.13807554  1
  Zr  Zr62  1  0.79912961  0.60227566  0.26492170  1
  Zr  Zr63  1  0.39613347  0.19292086  0.24961354  1
  Zr  Zr64  1  0.39494590  0.59220442  0.75554654  1
  Zr  Zr65  1  0.70223415  0.29443970  0.12427651  1
  Zr  Zr66  1  0.50778130  0.31586093  0.63339285  1
  Zr  Zr67  1  0.21555692  0.20434346  0.75006028  1
  Zr  Zr68  1  0.39405603  0.40336026  0.75810972  1
  Zr  Zr69  1  -0.00921353  0.80525022  -0.01028823  1
  Zr  Zr70  1  0.91338612  0.08202639  0.62983087  1
  Zr  Zr71  1  0.28669296  0.68890775  0.63600379  1
  Zr  Zr72  1  0.40109466  0.00518757  0.49832630  1
  Zr  Zr73  1  0.80367978  0.19607986  0.75624875  1
  Zr  Zr74  1  0.01500389  0.18909945  0.76291001  1
  Zr  Zr75  1  0.91426450  0.30664654  0.63591427  1
  Zr  Zr76  1  0.69908323  0.08990986  0.63126892  1
  Zr  Zr77  1  0.29171163  0.29081031  0.12188580  1
  Zr  Zr78  1  0.59618628  0.20116413  0.48287009  1
  Zr  Zr79  1  0.80376602  0.40066655  0.50442700  1
  Ta  Ta80  1  0.00111794  0.79733013  0.24472568  1
  Ta  Ta81  1  -0.00448011  0.40954216  -0.00694124  1
  Ta  Ta82  1  0.00714895  0.40724986  0.23598973  1
  Ta  Ta83  1  0.61021566  -0.01162824  0.48725707  1
  Ta  Ta84  1  0.40187390  0.40418655  -0.00146311  1
  Ta  Ta85  1  0.90025905  0.88948796  0.63380909  1
  Ta  Ta86  1  0.01301198  0.21142612  0.24885466  1
  Ta  Ta87  1  0.69766254  0.50213096  0.38504792  1
  Ta  Ta88  1  0.79691739  0.60421694  0.50883297  1
  Ta  Ta89  1  0.09835966  0.70152940  0.86720381  1
  Ta  Ta90  1  0.60346081  0.20015944  0.26118871  1
  Ta  Ta91  1  0.60023261  0.39970480  -0.00362075  1
  Ta  Ta92  1  0.10009152  0.50524627  0.62398697  1
  Ta  Ta93  1  0.59626865  0.59864567  0.26250458  1
  Ta  Ta94  1  -0.00518011  0.60354044  -0.01529539  1
  Ta  Ta95  1  0.90301304  0.50479843  0.12193736  1
  Ta  Ta96  1  0.69054926  0.29465822  0.62757021  1
  Ta  Ta97  1  0.19001058  0.39219945  0.24099269  1
  Ta  Ta98  1  0.19756414  0.78844252  0.49957009  1
  Ta  Ta99  1  0.10409377  0.10354225  0.61063563  1
  Ta  Ta100  1  0.09764043  0.50589610  0.10609847  1
  Ta  Ta101  1  0.20225715  0.80032388  -0.00964602  1
  Ta  Ta102  1  0.89351144  0.70050002  0.85198070  1
  Ta  Ta103  1  0.09757112  0.70478771  0.64141369  1
  Ta  Ta104  1  0.38951683  0.59807328  0.49121253  1
  Ta  Ta105  1  0.29850848  0.08789535  0.10973228  1
  Ta  Ta106  1  0.70858187  0.30322763  0.37049688  1
  Ta  Ta107  1  0.59888862  0.20363250  0.76325565  1
  Ta  Ta108  1  0.29815530  0.90015912  0.86242100  1
  Ta  Ta109  1  0.21853336  0.21254608  0.51174542  1
  Ta  Ta110  1  0.50273767  0.29954082  0.88025477  1
  Ta  Ta111  1  0.00075754  0.59765424  0.75195957  1
  Ta  Ta112  1  0.90345327  0.31280078  0.86662452  1
  Ta  Ta113  1  0.90846837  0.88763384  0.38601518  1
  Ta  Ta114  1  -0.00058820  0.00406869  -0.02177963  1
  Ta  Ta115  1  0.50018459  0.68945050  0.61283645  1
  Ta  Ta116  1  0.80786875  0.40065190  0.25850740  1
  Ta  Ta117  1  0.40184667  0.20111463  0.75728710  1
  Ta  Ta118  1  0.91428074  0.30479552  0.37450174  1
  Ta  Ta119  1  0.89493032  0.50545973  0.86564332  1
  Ti  Ti120  1  0.19530516  0.79690224  0.25116187  1
  Ti  Ti121  1  0.50255279  0.49287771  0.88117912  1
  Ti  Ti122  1  0.59070094  0.59853960  0.49138575  1
  Ti  Ti123  1  0.49416712  0.49990586  0.13447318  1
  Ti  Ti124  1  0.90181912  0.70499141  0.37534797  1
  Ti  Ti125  1  0.39206452  0.60089607  0.26121570  1
  Ti  Ti126  1  0.10391034  0.30383752  0.10749348  1
  Ti  Ti127  1  0.80185125  0.40543203  -0.00798051  1
  Ti  Ti128  1  0.69445957  0.30415163  0.87733000  1
  Ti  Ti129  1  0.80546790  -0.01148832  0.25961286  1
  Ti  Ti130  1  0.80488736  0.79421738  0.51065754  1
  Ti  Ti131  1  0.70383682  0.89836434  0.63301810  1
  Ti  Ti132  1  0.81318498  0.20466899  0.25992370  1
  Ti  Ti133  1  0.09590306  0.69793680  0.11189076  1
  Ti  Ti134  1  0.40245962  -0.01135162  0.23387836  1
  Ti  Ti135  1  0.19539313  0.58561620  0.77203445  1
  Ti  Ti136  1  0.70521330  0.89527806  0.84934538  1
  Ti  Ti137  1  0.90040148  0.89903747  0.12941681  1
  Ti  Ti138  1  0.69819141  0.69834167  0.61851998  1
  Ti  Ti139  1  0.48972753  0.30321790  0.35749259  1
  Ti  Ti140  1  0.60655834  0.80823606  0.23948105  1
  Ti  Ti141  1  0.70808855  0.69095461  0.86071102  1
  Ti  Ti142  1  0.29917476  0.30751672  0.88823779  1
  Ti  Ti143  1  0.00296033  0.20670318  0.50730908  1
  Ti  Ti144  1  0.70096762  0.50165407  0.87368365  1
  Ti  Ti145  1  0.89887805  0.50268462  0.64046720  1
  Ti  Ti146  1  0.39274127  0.01429070  0.73905336  1
  Ti  Ti147  1  0.80226813  0.80848093  0.25614943  1
  Ti  Ti148  1  0.39802742  0.79285536  0.74368420  1
  Ti  Ti149  1  0.49177595  0.49927920  0.37258361  1
  Ti  Ti150  1  0.29262468  0.70492284  0.87234393  1
  Ti  Ti151  1  0.80369236  0.60029960  -0.00812404  1
  Ti  Ti152  1  0.61116050  -0.00809284  0.24841538  1
  Ti  Ti153  1  0.19122957  0.01720369  0.74559734  1
  Ti  Ti154  1  0.91050967  0.10288090  0.37906230  1
  Ti  Ti155  1  0.89872750  0.90053084  0.84405116  1
  Ti  Ti156  1  0.59161049  0.39612772  0.48171480  1
  Ti  Ti157  1  0.50203954  0.09043342  0.36337801  1
  Ti  Ti158  1  0.50223938  0.09732372  0.87938140  1
  Ti  Ti159  1  0.29607572  0.10785223  0.36651616  1
  Mo  Mo160  1  0.30149618  0.10213422  0.63170691  1
  Mo  Mo161  1  0.80043462  -0.00836107  0.74819720  1
  Mo  Mo162  1  0.00463188  0.41485444  0.76085596  1
  Mo  Mo163  1  0.89111670  0.69957448  0.64077854  1
  Mo  Mo164  1  0.79364540  0.79462812  0.74205458  1
  Mo  Mo165  1  0.79527348  0.59909009  0.73614162  1
  Mo  Mo166  1  0.59851487  -0.00097099  0.75307188  1
  Mo  Mo167  1  0.28857817  0.49358003  0.89437532  1
  Mo  Mo168  1  0.10914485  0.09869617  0.88873487  1
  Mo  Mo169  1  0.71415143  0.90014405  0.14418443  1
  Mo  Mo170  1  0.29255005  0.29363366  0.35408964  1
  Mo  Mo171  1  0.60618270  0.79888915  0.51723332  1
  Mo  Mo172  1  0.20106209  0.79364842  0.76251722  1
  Mo  Mo173  1  0.00114977  0.60056270  0.23358008  1
  Mo  Mo174  1  0.40250499  -0.00259577  0.01197793  1
  Mo  Mo175  1  0.19965599  0.40361526  0.00893548  1
  Mo  Mo176  1  0.09656913  0.50764763  0.88651762  1
  Mo  Mo177  1  0.20159368  0.39739650  0.49722894  1
  Mo  Mo178  1  0.19335791  0.20104291  0.24886893  1
  Mo  Mo179  1  0.00301386  0.00287737  0.76169679  1
  Mo  Mo180  1  0.29125031  0.69785837  0.37320756  1
  Mo  Mo181  1  0.29802396  0.89851941  0.13936511  1
  Mo  Mo182  1  0.20605079  -0.01421012  0.00035123  1
  Mo  Mo183  1  0.39813699  0.40301177  0.25308761  1
  Mo  Mo184  1  -0.00212371  0.79702746  0.74977350  1
  Mo  Mo185  1  -0.00185570  0.00376525  0.48878220  1
  Mo  Mo186  1  0.39724928  0.79935867  0.24276603  1
  Mo  Mo187  1  0.70954922  0.89572440  0.36885366  1
  Mo  Mo188  1  0.19313025  0.60710378  -0.01118385  1
  Mo  Mo189  1  0.19451570  0.60620901  0.49822530  1
  Mo  Mo190  1  0.60208442  0.20068419  -0.01574196  1
  Mo  Mo191  1  0.20511210  0.41186236  0.76646282  1
  Mo  Mo192  1  0.90122792  0.09239224  0.86632979  1
  Mo  Mo193  1  -0.00724153  0.79943313  0.51487770  1
  Mo  Mo194  1  0.49074537  0.50518112  0.59658522  1
  Mo  Mo195  1  -0.00236910  0.40465258  0.52001367  1
  Mo  Mo196  1  0.50597491  0.90228124  0.14429055  1
  Mo  Mo197  1  0.20144034  0.19892100  -0.01236806  1
  Mo  Mo198  1  0.59859689  0.39653438  0.76999996  1
  Mo  Mo199  1  0.30686405  0.29923396  0.63743854  1
