# generated using pymatgen
data_HfZrTaTiMo
_symmetry_space_group_name_H-M   'P 1'
_cell_length_a   15.93104193
_cell_length_b   15.93351568
_cell_length_c   15.21511312
_cell_angle_alpha   90.02282639
_cell_angle_beta   90.02786045
_cell_angle_gamma   89.90816448
_symmetry_Int_Tables_number   1
_chemical_formula_structural   HfZrTaTiMo
_chemical_formula_sum   'Hf40 Zr40 Ta40 Ti40 Mo40'
_cell_volume   3862.16065054
_cell_formula_units_Z   40
loop_
 _symmetry_equiv_pos_site_id
 _symmetry_equiv_pos_as_xyz
  1  'x, y, z'
loop_
 _atom_site_type_symbol
 _atom_site_label
 _atom_site_symmetry_multiplicity
 _atom_site_fract_x
 _atom_site_fract_y
 _atom_site_fract_z
 _atom_site_occupancy
  Hf  Hf0  1  0.19265115  0.60974185  -0.00160387  1
  Hf  Hf1  1  0.68443734  0.49888852  0.36675290  1
  Hf  Hf2  1  0.09360388  0.89990832  0.12908652  1
  Hf  Hf3  1  0.00130499  0.80609909  0.50400127  1
  Hf  Hf4  1  0.50033291  0.88754006  0.62186218  1
  Hf  Hf5  1  0.60370838  0.79633573  0.75462020  1
  Hf  Hf6  1  0.71361312  0.11417663  0.60764272  1
  Hf  Hf7  1  0.39598781  -0.00155333  0.50770380  1
  Hf  Hf8  1  0.70106191  0.90709943  0.87621845  1
  Hf  Hf9  1  0.09787162  0.69435670  0.38216805  1
  Hf  Hf10  1  0.60493131  0.00578602  0.74629156  1
  Hf  Hf11  1  0.39923505  0.59683069  0.75657730  1
  Hf  Hf12  1  0.89884823  0.09627238  0.87341918  1
  Hf  Hf13  1  0.20275319  0.20200470  0.74812995  1
  Hf  Hf14  1  -0.00935807  0.39760162  0.76162089  1
  Hf  Hf15  1  0.20312164  0.80474881  0.24806770  1
  Hf  Hf16  1  0.89301526  0.89383236  0.13450986  1
  Hf  Hf17  1  0.80077667  0.59190339  0.48167991  1
  Hf  Hf18  1  0.10456513  0.49629528  0.36182998  1
  Hf  Hf19  1  0.11095282  0.89528415  0.85965022  1
  Hf  Hf20  1  0.39202932  0.60624970  -0.00833551  1
  Hf  Hf21  1  0.39735738  0.21553222  0.50017589  1
  Hf  Hf22  1  0.20075807  0.60416494  0.76241905  1
  Hf  Hf23  1  0.40748630  0.39689588  0.23509132  1
  Hf  Hf24  1  0.52118832  0.10239905  0.39629217  1
  Hf  Hf25  1  0.90129041  0.50020860  0.62122714  1
  Hf  Hf26  1  0.31184828  0.69347287  0.37941211  1
  Hf  Hf27  1  0.68819218  0.28372685  0.37620964  1
  Hf  Hf28  1  -0.00373327  0.19793321  0.74656977  1
  Hf  Hf29  1  0.89875477  0.29201906  0.13563030  1
  Hf  Hf30  1  0.00155158  0.79922054  -0.00940263  1
  Hf  Hf31  1  0.19141186  0.20379441  0.50288347  1
  Hf  Hf32  1  0.80231454  0.38975268  0.47765391  1
  Hf  Hf33  1  0.00347052  0.60238401  0.76461876  1
  Hf  Hf34  1  0.20163605  0.60447840  0.24486896  1
  Hf  Hf35  1  0.40908313  0.80076593  0.24350053  1
  Hf  Hf36  1  0.59689077  0.80408817  0.24924478  1
  Hf  Hf37  1  0.48944569  0.71206392  0.87598984  1
  Hf  Hf38  1  0.30205864  0.90547836  0.85920358  1
  Hf  Hf39  1  0.70938643  0.70334595  0.11344835  1
  Zr  Zr40  1  0.20417763  0.40057948  0.75197512  1
  Zr  Zr41  1  0.60349247  0.21003780  0.75005095  1
  Zr  Zr42  1  0.71421767  0.09883016  0.10240023  1
  Zr  Zr43  1  0.60167842  0.39365990  0.75814262  1
  Zr  Zr44  1  0.69780605  0.29499104  0.11586818  1
  Zr  Zr45  1  -0.00208179  0.39291466  0.48567701  1
  Zr  Zr46  1  0.10963576  0.09334038  0.87293259  1
  Zr  Zr47  1  0.40234052  0.19599089  0.24789083  1
  Zr  Zr48  1  0.10258625  0.69651231  0.61706342  1
  Zr  Zr49  1  0.40982294  -0.00003355  0.25011028  1
  Zr  Zr50  1  0.40440520  0.20929717  0.75608062  1
  Zr  Zr51  1  0.20754966  0.39701047  0.50183615  1
  Zr  Zr52  1  0.80262662  0.39798414  0.25570270  1
  Zr  Zr53  1  0.89760373  0.69658222  0.61806042  1
  Zr  Zr54  1  0.79111959  0.59689452  0.76518883  1
  Zr  Zr55  1  0.60350244  0.00421136  0.24321770  1
  Zr  Zr56  1  0.69733345  0.90440150  0.39354374  1
  Zr  Zr57  1  0.10582862  0.91590124  0.38494533  1
  Zr  Zr58  1  0.28590579  0.09980935  0.38370145  1
  Zr  Zr59  1  0.88984291  0.90467453  0.38059491  1
  Zr  Zr60  1  0.70458105  0.90124171  0.11842234  1
  Zr  Zr61  1  0.70417284  0.48574138  0.62260024  1
  Zr  Zr62  1  0.29804762  0.50022447  0.12577296  1
  Zr  Zr63  1  0.20593315  0.00617470  0.23775726  1
  Zr  Zr64  1  0.70032293  0.70640057  0.61121059  1
  Zr  Zr65  1  -0.00102635  0.39650304  0.01185312  1
  Zr  Zr66  1  0.50412204  0.10588926  0.61844800  1
  Zr  Zr67  1  0.87674641  0.29392389  0.62699031  1
  Zr  Zr68  1  0.09799648  0.49868260  0.89275129  1
  Zr  Zr69  1  0.58939039  0.61109077  0.24424256  1
  Zr  Zr70  1  -0.00688768  0.01206242  0.25617601  1
  Zr  Zr71  1  0.59265628  0.19570563  0.23449039  1
  Zr  Zr72  1  0.48892496  0.50555419  0.37357702  1
  Zr  Zr73  1  0.59775144  0.59775714  0.75452847  1
  Zr  Zr74  1  -0.00169957  0.20246362  -0.00312466  1
  Zr  Zr75  1  0.09808543  0.50341685  0.61519392  1
  Zr  Zr76  1  0.30705023  0.89473287  0.38865233  1
  Zr  Zr77  1  0.89942438  0.69312354  0.88666219  1
  Zr  Zr78  1  -0.00705721  0.19519593  0.49008743  1
  Zr  Zr79  1  0.70469620  0.50341320  0.12082121  1
  Ta  Ta80  1  0.20235541  0.80297585  0.00830547  1
  Ta  Ta81  1  0.50320006  0.50182286  0.10784655  1
  Ta  Ta82  1  0.90074303  0.69867613  0.37478032  1
  Ta  Ta83  1  0.40547193  0.39859801  0.76561117  1
  Ta  Ta84  1  0.09162578  0.69918346  0.12629144  1
  Ta  Ta85  1  0.49937190  0.70651488  0.39554886  1
  Ta  Ta86  1  0.80201449  0.80479451  0.75949738  1
  Ta  Ta87  1  0.50079278  0.49387882  0.89058480  1
  Ta  Ta88  1  0.00112669  -0.00732743  -0.00460035  1
  Ta  Ta89  1  0.80238038  0.00422927  0.74233831  1
  Ta  Ta90  1  0.59678753  0.80263455  -0.00730662  1
  Ta  Ta91  1  0.49829550  0.09955972  0.88430959  1
  Ta  Ta92  1  0.60170253  0.60764506  -0.00928688  1
  Ta  Ta93  1  0.19964625  0.20288036  0.00617627  1
  Ta  Ta94  1  0.70489986  0.90081265  0.61283872  1
  Ta  Ta95  1  -0.00101594  -0.00504547  0.73868824  1
  Ta  Ta96  1  0.29642550  0.09891169  0.62621030  1
  Ta  Ta97  1  0.20451778  -0.00655947  0.00797952  1
  Ta  Ta98  1  0.39783498  0.39332869  0.00200455  1
  Ta  Ta99  1  0.00176856  0.19532171  0.25667186  1
  Ta  Ta100  1  0.30539291  0.09789822  0.88365248  1
  Ta  Ta101  1  0.59238074  0.59645436  0.50763930  1
  Ta  Ta102  1  0.10498871  0.29995635  0.35255795  1
  Ta  Ta103  1  0.29541567  0.30872282  0.35852190  1
  Ta  Ta104  1  0.80640720  0.39660785  -0.00107752  1
  Ta  Ta105  1  0.09790901  0.10222006  0.11489229  1
  Ta  Ta106  1  0.30729157  0.70505070  0.63078356  1
  Ta  Ta107  1  0.30242819  0.49970838  0.36180036  1
  Ta  Ta108  1  0.49707069  0.90549488  0.10522351  1
  Ta  Ta109  1  0.10468035  0.29868368  0.87627229  1
  Ta  Ta110  1  0.89424780  0.89779247  0.62430824  1
  Ta  Ta111  1  0.29527791  0.90056062  0.63897614  1
  Ta  Ta112  1  0.49252266  0.49244196  0.62562932  1
  Ta  Ta113  1  0.79338887  0.20361136  0.76604648  1
  Ta  Ta114  1  0.30331449  0.70431699  0.12673955  1
  Ta  Ta115  1  0.20507675  0.80438986  0.51270011  1
  Ta  Ta116  1  0.08914298  0.49996687  0.13772985  1
  Ta  Ta117  1  0.00027598  0.80044473  0.75053242  1
  Ta  Ta118  1  0.80705829  0.17797287  0.26449396  1
  Ta  Ta119  1  0.30656821  0.09806034  0.10683183  1
  Ti  Ti120  1  0.69519979  0.70530275  0.38427854  1
  Ti  Ti121  1  0.50678803  0.89488931  0.39945808  1
  Ti  Ti122  1  0.79659663  0.79496593  0.25942307  1
  Ti  Ti123  1  0.38973694  0.81114610  0.00390193  1
  Ti  Ti124  1  0.91561870  0.50431731  0.35369148  1
  Ti  Ti125  1  0.79525549  0.39200694  0.77172500  1
  Ti  Ti126  1  0.89994432  0.69001069  0.12257707  1
  Ti  Ti127  1  0.49704908  0.70295330  0.10946061  1
  Ti  Ti128  1  0.21059475  0.59612062  0.49937747  1
  Ti  Ti129  1  0.29004167  0.72272747  0.86224721  1
  Ti  Ti130  1  -0.00342105  0.79280440  0.25582755  1
  Ti  Ti131  1  -0.00011201  0.00681941  0.51158913  1
  Ti  Ti132  1  0.70002264  0.29633393  0.89898289  1
  Ti  Ti133  1  0.30285794  0.49920867  0.63109630  1
  Ti  Ti134  1  0.09511157  0.30497590  0.63026225  1
  Ti  Ti135  1  0.30847405  0.30763452  0.63082510  1
  Ti  Ti136  1  0.49406465  0.10793157  0.09374881  1
  Ti  Ti137  1  0.40347948  0.00687486  0.74554992  1
  Ti  Ti138  1  0.80122427  0.80069058  -0.01519928  1
  Ti  Ti139  1  0.40013043  0.59895439  0.51625444  1
  Ti  Ti140  1  0.59217927  0.39354826  0.50824440  1
  Ti  Ti141  1  0.29814599  0.29756313  0.88693020  1
  Ti  Ti142  1  0.59614168  -0.00015593  -0.00568726  1
  Ti  Ti143  1  0.81457760  -0.01004421  -0.01205819  1
  Ti  Ti144  1  0.69910055  0.49644359  0.89457133  1
  Ti  Ti145  1  0.49969349  0.30476609  0.37865810  1
  Ti  Ti146  1  0.49213357  0.90638771  0.87388827  1
  Ti  Ti147  1  0.39646661  0.40483698  0.49778459  1
  Ti  Ti148  1  0.69898909  0.10446571  0.88688448  1
  Ti  Ti149  1  0.89888288  0.09456992  0.11499939  1
  Ti  Ti150  1  0.30129002  0.29110769  0.12494447  1
  Ti  Ti151  1  0.50513567  0.29626839  0.90134745  1
  Ti  Ti152  1  0.10302059  0.09193020  0.62767302  1
  Ti  Ti153  1  0.29794574  0.48916939  0.88605823  1
  Ti  Ti154  1  0.19635003  0.39044410  0.01614690  1
  Ti  Ti155  1  0.71112911  0.08870464  0.39540847  1
  Ti  Ti156  1  0.80303705  0.60474966  0.25391365  1
  Ti  Ti157  1  0.89589744  0.50070450  0.89340792  1
  Ti  Ti158  1  0.19627031  0.19645470  0.23934729  1
  Ti  Ti159  1  0.59243085  0.39458199  0.23651836  1
  Mo  Mo160  1  0.30466585  0.90010909  0.11879422  1
  Mo  Mo161  1  0.90231141  0.29606946  0.35459474  1
  Mo  Mo162  1  0.81211804  0.00253755  0.52050844  1
  Mo  Mo163  1  0.80010102  0.00369674  0.24539258  1
  Mo  Mo164  1  0.59944828  0.79454144  0.50120668  1
  Mo  Mo165  1  0.19298727  -0.00004299  0.52112564  1
  Mo  Mo166  1  0.20415386  0.39426400  0.23769724  1
  Mo  Mo167  1  0.90098298  0.09778848  0.63348681  1
  Mo  Mo168  1  0.49370399  0.31437554  0.61783214  1
  Mo  Mo169  1  0.39825520  0.79380627  0.51520110  1
  Mo  Mo170  1  0.60020340  0.40233210  -0.00136199  1
  Mo  Mo171  1  0.40069171  0.80205068  0.74359918  1
  Mo  Mo172  1  0.49594041  0.69126406  0.61965800  1
  Mo  Mo173  1  -0.00545271  0.59811388  0.01929477  1
  Mo  Mo174  1  0.09823007  0.90279227  0.62881184  1
  Mo  Mo175  1  0.60127068  0.21249632  0.50736533  1
  Mo  Mo176  1  0.89912631  0.50658107  0.12935951  1
  Mo  Mo177  1  0.69831487  0.30026112  0.61191891  1
  Mo  Mo178  1  0.19690224  0.79893763  0.73533078  1
  Mo  Mo179  1  -0.00196522  0.59650596  0.48216116  1
  Mo  Mo180  1  0.39500277  0.20288503  -0.00698268  1
  Mo  Mo181  1  0.59825074  0.19646714  -0.00463534  1
  Mo  Mo182  1  0.69827385  0.70452189  0.88762223  1
  Mo  Mo183  1  -0.00633991  0.60456000  0.24409795  1
  Mo  Mo184  1  0.80165397  0.79777462  0.49201719  1
  Mo  Mo185  1  0.60307992  -0.00025282  0.51433862  1
  Mo  Mo186  1  0.00292328  0.39669665  0.24330971  1
  Mo  Mo187  1  0.80495846  0.19849090  0.47851700  1
  Mo  Mo188  1  0.20236817  0.00583933  0.73787244  1
  Mo  Mo189  1  0.10365225  0.70592777  0.88541651  1
  Mo  Mo190  1  0.49804895  0.30193718  0.10481973  1
  Mo  Mo191  1  0.40170675  -0.00252227  -0.00966178  1
  Mo  Mo192  1  0.89466855  0.30140580  0.87139068  1
  Mo  Mo193  1  0.40387363  0.60611131  0.23522096  1
  Mo  Mo194  1  0.90263091  0.90109740  0.85702133  1
  Mo  Mo195  1  0.80397536  0.19964553  -0.01531362  1
  Mo  Mo196  1  0.10606921  0.29579894  0.13788456  1
  Mo  Mo197  1  0.89717733  0.09462331  0.38415774  1
  Mo  Mo198  1  0.79937353  0.59473546  -0.00028197  1
  Mo  Mo199  1  0.09994339  0.10540528  0.37938324  1
