# generated using pymatgen
data_HfZrTaTiMo
_symmetry_space_group_name_H-M   'P 1'
_cell_length_a   15.92369145
_cell_length_b   15.93528420
_cell_length_c   15.20531224
_cell_angle_alpha   89.94302144
_cell_angle_beta   89.98582271
_cell_angle_gamma   90.01880707
_symmetry_Int_Tables_number   1
_chemical_formula_structural   HfZrTaTiMo
_chemical_formula_sum   'Hf40 Zr40 Ta40 Ti40 Mo40'
_cell_volume   3858.32368046
_cell_formula_units_Z   40
loop_
 _symmetry_equiv_pos_site_id
 _symmetry_equiv_pos_as_xyz
  1  'x, y, z'
loop_
 _atom_site_type_symbol
 _atom_site_label
 _atom_site_symmetry_multiplicity
 _atom_site_fract_x
 _atom_site_fract_y
 _atom_site_fract_z
 _atom_site_occupancy
  Hf  Hf0  1  0.69883253  0.90540422  0.88447310  1
  Hf  Hf1  1  0.28707629  0.71159960  0.85956570  1
  Hf  Hf2  1  0.69490847  0.69995051  0.87409535  1
  Hf  Hf3  1  0.69826558  0.30268791  0.11921382  1
  Hf  Hf4  1  0.20064237  0.20081338  0.51724470  1
  Hf  Hf5  1  0.51184700  0.52563028  0.63052457  1
  Hf  Hf6  1  0.09935587  0.50840739  0.88660408  1
  Hf  Hf7  1  0.19932179  0.59172561  0.25449808  1
  Hf  Hf8  1  0.30993969  0.69928199  0.13693549  1
  Hf  Hf9  1  0.69651969  0.49741767  0.12392947  1
  Hf  Hf10  1  0.09760022  0.90138888  0.61061714  1
  Hf  Hf11  1  0.29872043  0.68773550  0.62534568  1
  Hf  Hf12  1  0.40100576  0.39859229  -0.02885203  1
  Hf  Hf13  1  0.29446925  0.10760453  0.12782875  1
  Hf  Hf14  1  -0.00027818  0.39905923  0.24384901  1
  Hf  Hf15  1  0.59454667  0.80749888  0.01803778  1
  Hf  Hf16  1  0.30646374  0.49726092  0.11200983  1
  Hf  Hf17  1  0.80369993  0.79760164  0.01640789  1
  Hf  Hf18  1  0.11215856  0.30029171  0.36964528  1
  Hf  Hf19  1  0.09423450  0.09279377  0.13784953  1
  Hf  Hf20  1  0.30522280  0.09432007  0.63153887  1
  Hf  Hf21  1  0.90004392  0.89843543  0.88040206  1
  Hf  Hf22  1  0.00154570  0.58146081  0.73274041  1
  Hf  Hf23  1  0.90064166  0.68617390  0.87265132  1
  Hf  Hf24  1  0.70410701  0.89439063  0.37248010  1
  Hf  Hf25  1  0.60022277  0.00383038  0.74042129  1
  Hf  Hf26  1  0.19742315  -0.01372618  -0.00356773  1
  Hf  Hf27  1  0.59125025  0.80497902  0.73899262  1
  Hf  Hf28  1  0.80133221  0.20156247  0.50033439  1
  Hf  Hf29  1  0.60642555  0.39694948  -0.02720495  1
  Hf  Hf30  1  0.40187844  0.80111644  0.50195789  1
  Hf  Hf31  1  0.40723339  -0.00770537  0.00189857  1
  Hf  Hf32  1  0.81071685  0.40158709  0.75685799  1
  Hf  Hf33  1  0.71351171  0.50819885  0.62674211  1
  Hf  Hf34  1  0.69824038  0.49761338  0.37907432  1
  Hf  Hf35  1  0.29163203  0.30065934  0.86030042  1
  Hf  Hf36  1  0.20249314  0.80328391  0.49139906  1
  Hf  Hf37  1  0.50511578  0.10808874  0.38713210  1
  Hf  Hf38  1  0.11178565  0.87830426  0.87358954  1
  Hf  Hf39  1  0.30144323  0.52239627  0.86409591  1
  Zr  Zr40  1  0.89416609  0.49486340  0.12542959  1
  Zr  Zr41  1  0.60399000  0.39625814  0.75495466  1
  Zr  Zr42  1  0.19395194  -0.01548280  0.26528305  1
  Zr  Zr43  1  0.69377550  0.09710954  0.36917009  1
  Zr  Zr44  1  0.00406173  0.20329687  0.50825237  1
  Zr  Zr45  1  0.89049057  0.68753929  0.61268850  1
  Zr  Zr46  1  0.40513290  0.40671884  0.74250881  1
  Zr  Zr47  1  0.79852627  0.00420561  0.50753413  1
  Zr  Zr48  1  0.49382381  0.30475227  0.10842950  1
  Zr  Zr49  1  0.09413907  0.49629078  0.38669109  1
  Zr  Zr50  1  0.39117116  0.21704443  0.26556353  1
  Zr  Zr51  1  0.59925448  0.60410797  0.25604506  1
  Zr  Zr52  1  0.40436732  0.40011205  0.26072870  1
  Zr  Zr53  1  0.01219461  0.79830922  0.01722572  1
  Zr  Zr54  1  0.00007619  0.61258416  0.02722619  1
  Zr  Zr55  1  0.59542310  -0.00468258  0.22868279  1
  Zr  Zr56  1  0.51060206  0.90115992  0.38226297  1
  Zr  Zr57  1  0.18945375  0.41844430  0.73548259  1
  Zr  Zr58  1  0.29444827  0.48949193  0.39291654  1
  Zr  Zr59  1  0.79559831  0.19982689  -0.01298957  1
  Zr  Zr60  1  0.90799618  0.09074317  0.36754120  1
  Zr  Zr61  1  0.41107644  0.59352380  0.26740878  1
  Zr  Zr62  1  0.09844761  0.10133198  0.37019306  1
  Zr  Zr63  1  0.28766260  0.88609863  0.13640544  1
  Zr  Zr64  1  -0.00315292  0.19398959  -0.00863146  1
  Zr  Zr65  1  0.49662010  0.11041289  0.11321833  1
  Zr  Zr66  1  0.00715456  0.78340716  0.73753395  1
  Zr  Zr67  1  0.69567084  0.29910182  0.38275998  1
  Zr  Zr68  1  0.80123959  0.80215104  0.74619047  1
  Zr  Zr69  1  0.00039570  -0.00986145  0.74769645  1
  Zr  Zr70  1  0.19561116  0.62239324  0.00784678  1
  Zr  Zr71  1  0.19355240  0.19650105  -0.01396302  1
  Zr  Zr72  1  0.80176274  0.20392306  0.24531074  1
  Zr  Zr73  1  0.79438432  0.20092977  0.76049635  1
  Zr  Zr74  1  0.39989433  -0.00142641  0.25445426  1
  Zr  Zr75  1  0.90915694  0.48558436  0.89827831  1
  Zr  Zr76  1  0.49232942  0.69784202  0.87872969  1
  Zr  Zr77  1  0.50135127  0.51168799  0.09982281  1
  Zr  Zr78  1  0.30559887  0.09455907  0.87131103  1
  Zr  Zr79  1  0.69039840  0.68976380  0.62149591  1
  Ta  Ta80  1  -0.00058504  0.60527532  0.25176349  1
  Ta  Ta81  1  0.08382670  0.30880458  0.86346231  1
  Ta  Ta82  1  0.89850912  0.09083629  0.86640253  1
  Ta  Ta83  1  0.60173587  0.00117569  0.51573841  1
  Ta  Ta84  1  0.29893017  0.69764886  0.37745259  1
  Ta  Ta85  1  0.80052146  0.60426610  0.25471926  1
  Ta  Ta86  1  0.00624277  0.81005676  0.25643425  1
  Ta  Ta87  1  0.79543757  -0.00127147  0.73887539  1
  Ta  Ta88  1  0.20202149  -0.00631699  0.75151364  1
  Ta  Ta89  1  0.90094370  0.30509247  0.10775470  1
  Ta  Ta90  1  0.21195561  0.38691735  0.23790348  1
  Ta  Ta91  1  0.10388850  0.49434990  0.12560433  1
  Ta  Ta92  1  0.89972738  0.29892169  0.62689992  1
  Ta  Ta93  1  0.40643781  0.79878517  0.26578908  1
  Ta  Ta94  1  0.29575363  0.10829532  0.37923215  1
  Ta  Ta95  1  0.41192069  0.19597082  0.75499728  1
  Ta  Ta96  1  0.89889822  0.89631534  0.60596307  1
  Ta  Ta97  1  0.59689422  0.40390858  0.51065389  1
  Ta  Ta98  1  0.40498992  0.59971566  0.50043144  1
  Ta  Ta99  1  0.79236033  0.60702333  0.01733439  1
  Ta  Ta100  1  0.30330733  0.29651377  0.63695182  1
  Ta  Ta101  1  0.40023046  0.40012476  0.51897191  1
  Ta  Ta102  1  0.40042077  0.80721444  0.74199580  1
  Ta  Ta103  1  0.69978457  0.30085601  0.62239520  1
  Ta  Ta104  1  0.70942731  0.51301548  0.87533503  1
  Ta  Ta105  1  0.59289192  0.20975459  0.24716499  1
  Ta  Ta106  1  0.90363751  0.10018887  0.63577981  1
  Ta  Ta107  1  0.89934348  0.89667399  0.37775615  1
  Ta  Ta108  1  0.10481034  0.29356258  0.12831089  1
  Ta  Ta109  1  0.19514592  0.39519718  0.52559896  1
  Ta  Ta110  1  0.38723596  0.80486753  -0.00723591  1
  Ta  Ta111  1  0.09647106  0.69859596  0.37689733  1
  Ta  Ta112  1  0.18878965  0.19752211  0.74623141  1
  Ta  Ta113  1  0.49901355  0.10428567  0.61919017  1
  Ta  Ta114  1  0.19507989  0.39694542  -0.00071134  1
  Ta  Ta115  1  0.59542903  0.19709192  -0.02436185  1
  Ta  Ta116  1  0.80341697  0.60276226  0.47790320  1
  Ta  Ta117  1  0.30068680  0.90430178  0.62630099  1
  Ta  Ta118  1  0.59054144  0.39967765  0.25947492  1
  Ta  Ta119  1  0.39747037  0.20669794  0.50376854  1
  Ti  Ti120  1  0.69399507  0.11215951  0.62492638  1
  Ti  Ti121  1  0.80242681  0.00141950  0.00957253  1
  Ti  Ti122  1  0.80064599  0.39750695  0.25690287  1
  Ti  Ti123  1  0.49560897  0.69940693  0.11627392  1
  Ti  Ti124  1  0.90677011  0.90564318  0.13858058  1
  Ti  Ti125  1  0.40782099  -0.00439714  0.75544035  1
  Ti  Ti126  1  0.80805325  0.40151224  0.50386699  1
  Ti  Ti127  1  0.90324226  0.49862518  0.37910201  1
  Ti  Ti128  1  0.50177683  0.30554556  0.39530292  1
  Ti  Ti129  1  0.00012302  -0.00308704  0.00290248  1
  Ti  Ti130  1  0.50764989  0.29162685  0.62511068  1
  Ti  Ti131  1  0.20226801  0.00201541  0.49580459  1
  Ti  Ti132  1  0.70736107  0.89811723  0.13209712  1
  Ti  Ti133  1  0.50940836  0.69896190  0.38813877  1
  Ti  Ti134  1  0.10065886  0.68195071  0.59646341  1
  Ti  Ti135  1  0.69494025  0.10146352  0.11685501  1
  Ti  Ti136  1  0.90866291  0.30780695  0.38272235  1
  Ti  Ti137  1  0.49456963  0.90827415  0.61705671  1
  Ti  Ti138  1  0.89867579  0.09886424  0.12689044  1
  Ti  Ti139  1  0.30178913  0.29279922  0.10465557  1
  Ti  Ti140  1  0.50379213  0.90382894  0.87891335  1
  Ti  Ti141  1  0.08409455  0.90553771  0.38776756  1
  Ti  Ti142  1  0.70589416  0.89266371  0.61259736  1
  Ti  Ti143  1  0.69632207  0.08798072  0.87966974  1
  Ti  Ti144  1  0.39371008  0.00156998  0.49301354  1
  Ti  Ti145  1  0.50519017  0.52071764  0.86793521  1
  Ti  Ti146  1  0.09274102  0.09462541  0.86448278  1
  Ti  Ti147  1  0.89857245  0.70573004  0.36683684  1
  Ti  Ti148  1  0.70287199  0.70928939  0.37335103  1
  Ti  Ti149  1  -0.00448453  0.20585581  0.24561664  1
  Ti  Ti150  1  0.11741721  0.72100608  0.15314388  1
  Ti  Ti151  1  0.59811479  0.79546711  0.23690409  1
  Ti  Ti152  1  0.19571082  0.79722316  0.72794665  1
  Ti  Ti153  1  0.80253916  -0.00116351  0.24382471  1
  Ti  Ti154  1  0.59850726  0.19920491  0.76350787  1
  Ti  Ti155  1  -0.00121212  0.39755545  0.72871797  1
  Ti  Ti156  1  -0.00782895  0.79261638  0.49284122  1
  Ti  Ti157  1  0.60043886  0.79703221  0.50853015  1
  Ti  Ti158  1  0.89343721  0.70910812  0.15003350  1
  Ti  Ti159  1  0.09599309  0.09660327  0.63137232  1
  Mo  Mo160  1  0.48925697  0.88424416  0.12754032  1
  Mo  Mo161  1  -0.00459511  0.39697508  0.51076415  1
  Mo  Mo162  1  0.70080961  0.70028479  0.13715575  1
  Mo  Mo163  1  0.50749809  0.09035633  0.87630389  1
  Mo  Mo164  1  0.60354484  0.60383617  0.48339569  1
  Mo  Mo165  1  0.01093600  0.39252800  0.01554395  1
  Mo  Mo166  1  0.49764619  0.29112163  0.86611220  1
  Mo  Mo167  1  0.09600328  0.29714835  0.64157971  1
  Mo  Mo168  1  0.49795553  0.70763366  0.61919288  1
  Mo  Mo169  1  0.30014791  0.50317152  0.61963819  1
  Mo  Mo170  1  0.29745515  0.30070596  0.40097157  1
  Mo  Mo171  1  0.20075514  0.59842596  0.49260546  1
  Mo  Mo172  1  0.79983241  0.39822840  -0.01128586  1
  Mo  Mo173  1  0.18490439  0.61042268  0.73962962  1
  Mo  Mo174  1  0.50379720  0.49544497  0.40090763  1
  Mo  Mo175  1  -0.00826331  -0.00311732  0.24481641  1
  Mo  Mo176  1  0.59799925  0.20395515  0.51353982  1
  Mo  Mo177  1  0.09525554  0.89776923  0.12829916  1
  Mo  Mo178  1  0.19966666  0.79827505  0.27965753  1
  Mo  Mo179  1  0.60437971  0.60438306  -0.00153705  1
  Mo  Mo180  1  -0.00748884  0.60020240  0.48237563  1
  Mo  Mo181  1  -0.00032659  -0.00001876  0.51395454  1
  Mo  Mo182  1  -0.00272979  0.19908267  0.75245115  1
  Mo  Mo183  1  0.60394634  0.60324604  0.76302859  1
  Mo  Mo184  1  0.30477930  0.89663833  0.85299895  1
  Mo  Mo185  1  0.60826019  0.00025861  0.01052920  1
  Mo  Mo186  1  0.89814449  0.49498448  0.60528698  1
  Mo  Mo187  1  0.90800117  0.29767754  0.87611414  1
  Mo  Mo188  1  0.20430070  0.20501129  0.24671281  1
  Mo  Mo189  1  0.80217421  0.80241931  0.24990587  1
  Mo  Mo190  1  0.10085132  0.69393782  0.85906858  1
  Mo  Mo191  1  0.09350498  0.50213478  0.60229930  1
  Mo  Mo192  1  0.39892369  0.60797408  -0.00600524  1
  Mo  Mo193  1  0.30298123  0.90219021  0.38648352  1
  Mo  Mo194  1  0.40217575  0.60949642  0.73698261  1
  Mo  Mo195  1  0.40011856  0.19980169  -0.02536390  1
  Mo  Mo196  1  0.70286838  0.30087599  0.87124879  1
  Mo  Mo197  1  0.80560024  0.59483251  0.75814935  1
  Mo  Mo198  1  0.20386417  0.80081818  0.00079336  1
  Mo  Mo199  1  0.79985856  0.79708375  0.48599410  1
