# generated using pymatgen
data_HfZrTaTiMo
_symmetry_space_group_name_H-M   'P 1'
_cell_length_a   15.93597103
_cell_length_b   15.93149592
_cell_length_c   15.20238027
_cell_angle_alpha   89.98601725
_cell_angle_beta   89.96036770
_cell_angle_gamma   89.98923741
_symmetry_Int_Tables_number   1
_chemical_formula_structural   HfZrTaTiMo
_chemical_formula_sum   'Hf40 Zr40 Ta40 Ti40 Mo40'
_cell_volume   3859.63784005
_cell_formula_units_Z   40
loop_
 _symmetry_equiv_pos_site_id
 _symmetry_equiv_pos_as_xyz
  1  'x, y, z'
loop_
 _atom_site_type_symbol
 _atom_site_label
 _atom_site_symmetry_multiplicity
 _atom_site_fract_x
 _atom_site_fract_y
 _atom_site_fract_z
 _atom_site_occupancy
  Hf  Hf0  1  0.69193285  0.69151089  0.87667817  1
  Hf  Hf1  1  0.91235052  0.09791334  0.12448482  1
  Hf  Hf2  1  0.29715799  0.90641641  0.36975335  1
  Hf  Hf3  1  0.79812286  0.59725171  0.74005730  1
  Hf  Hf4  1  0.60573941  0.60532259  0.26080332  1
  Hf  Hf5  1  0.20553504  0.39135663  0.74817879  1
  Hf  Hf6  1  0.41177047  0.20705588  0.00754510  1
  Hf  Hf7  1  0.59700323  0.60803889  0.50539695  1
  Hf  Hf8  1  0.30546058  0.69472919  0.87474382  1
  Hf  Hf9  1  0.51350241  0.10942647  0.87846816  1
  Hf  Hf10  1  -0.00865126  0.39046145  0.50333018  1
  Hf  Hf11  1  0.08927757  0.70632723  0.64299078  1
  Hf  Hf12  1  0.10471502  0.09576069  0.37437784  1
  Hf  Hf13  1  0.89998757  0.69773669  0.11721083  1
  Hf  Hf14  1  0.10345828  0.69747972  0.36642929  1
  Hf  Hf15  1  0.71047394  0.49408122  0.39101432  1
  Hf  Hf16  1  0.22110445  0.19871842  0.25616602  1
  Hf  Hf17  1  0.19947626  0.40462514  -0.01273396  1
  Hf  Hf18  1  0.31593966  0.70617451  0.12165171  1
  Hf  Hf19  1  0.30500023  0.29709479  0.87480501  1
  Hf  Hf20  1  0.49514318  0.29367524  0.37240662  1
  Hf  Hf21  1  0.49268265  0.70985359  0.36928671  1
  Hf  Hf22  1  -0.00521788  0.39257219  0.74334360  1
  Hf  Hf23  1  0.20001964  0.60365238  0.00201045  1
  Hf  Hf24  1  0.39575553  0.20087732  0.50710763  1
  Hf  Hf25  1  0.09958489  0.49905397  0.61666188  1
  Hf  Hf26  1  0.11116431  0.28615337  0.62134171  1
  Hf  Hf27  1  0.79691125  -0.00148920  0.24197740  1
  Hf  Hf28  1  0.37635620  0.39150731  0.25931653  1
  Hf  Hf29  1  0.51217883  0.09136897  0.62279494  1
  Hf  Hf30  1  0.10158679  0.90240818  0.36160062  1
  Hf  Hf31  1  0.21854414  0.60006514  0.73234090  1
  Hf  Hf32  1  0.09350688  0.48008663  0.12203361  1
  Hf  Hf33  1  0.79057481  0.80029458  0.24449416  1
  Hf  Hf34  1  0.49267157  0.49836633  0.14474225  1
  Hf  Hf35  1  0.49021225  0.70781373  0.63498244  1
  Hf  Hf36  1  0.90588261  0.90373990  0.11052476  1
  Hf  Hf37  1  0.80457711  0.38766470  0.73731076  1
  Hf  Hf38  1  0.90136946  0.49383462  0.12536293  1
  Hf  Hf39  1  0.80474414  0.59995439  0.25284139  1
  Zr  Zr40  1  0.69374130  0.28743348  0.86556851  1
  Zr  Zr41  1  0.90145226  0.49624046  0.87574349  1
  Zr  Zr42  1  -0.00628659  0.79781690  0.49825022  1
  Zr  Zr43  1  0.20296673  0.79680667  0.51088926  1
  Zr  Zr44  1  -0.01123667  0.20076731  0.75572193  1
  Zr  Zr45  1  0.59126830  0.58470899  -0.00509995  1
  Zr  Zr46  1  0.38147419  0.61160076  0.51602040  1
  Zr  Zr47  1  0.40522809  0.00038218  0.76339564  1
  Zr  Zr48  1  0.79942719  0.81069843  0.76443116  1
  Zr  Zr49  1  0.70084116  0.71789233  0.62335303  1
  Zr  Zr50  1  0.90576282  0.89882639  0.64495494  1
  Zr  Zr51  1  0.02081137  0.20987512  0.24784713  1
  Zr  Zr52  1  0.70251790  0.48797937  0.14007324  1
  Zr  Zr53  1  0.59456792  0.81645173  0.76599678  1
  Zr  Zr54  1  0.30431232  0.90563197  0.63253689  1
  Zr  Zr55  1  0.09674266  0.51340437  0.86009077  1
  Zr  Zr56  1  0.80002149  0.19244293  0.50686480  1
  Zr  Zr57  1  0.79593387  0.39299934  -0.00744060  1
  Zr  Zr58  1  0.48513563  0.50161608  0.38189383  1
  Zr  Zr59  1  0.59993783  0.39587425  0.73246260  1
  Zr  Zr60  1  0.91644513  0.69509867  0.86636495  1
  Zr  Zr61  1  0.39983162  0.20328928  0.73727069  1
  Zr  Zr62  1  0.38906272  0.01275011  0.24373202  1
  Zr  Zr63  1  0.48333258  0.89239427  0.11950003  1
  Zr  Zr64  1  0.78814217  0.19460896  0.01257430  1
  Zr  Zr65  1  0.09523161  0.09363084  0.63605636  1
  Zr  Zr66  1  0.52426831  0.09879094  0.12226806  1
  Zr  Zr67  1  0.50626773  0.90627920  0.61350006  1
  Zr  Zr68  1  -0.00584026  -0.00351647  0.49683404  1
  Zr  Zr69  1  -0.00505565  0.80086905  0.24854400  1
  Zr  Zr70  1  0.20053610  0.58428461  0.24214421  1
  Zr  Zr71  1  0.68130094  0.90801965  0.10999845  1
  Zr  Zr72  1  0.29057194  0.30161274  0.11296570  1
  Zr  Zr73  1  0.29994777  0.69900962  0.35513629  1
  Zr  Zr74  1  0.70728526  0.71080415  0.38979918  1
  Zr  Zr75  1  0.91115176  0.30608809  0.12769152  1
  Zr  Zr76  1  0.29774267  0.89710777  0.89170360  1
  Zr  Zr77  1  0.49618984  0.69748231  0.12945665  1
  Zr  Zr78  1  0.59875886  0.38452808  0.00693122  1
  Zr  Zr79  1  0.79633779  0.80138813  -0.01185991  1
  Ta  Ta80  1  0.69239774  0.70013707  0.11499822  1
  Ta  Ta81  1  0.50270999  0.29662828  0.14709351  1
  Ta  Ta82  1  -0.00622385  0.19324597  0.50020440  1
  Ta  Ta83  1  0.40921208  0.40714809  -0.00101821  1
  Ta  Ta84  1  0.59648739  0.39061430  0.50115673  1
  Ta  Ta85  1  0.49637752  0.49777971  0.61543865  1
  Ta  Ta86  1  0.39810235  0.80782002  0.49523064  1
  Ta  Ta87  1  0.70087307  0.09738410  0.85987346  1
  Ta  Ta88  1  0.88888769  0.08623128  0.64038274  1
  Ta  Ta89  1  0.09250752  0.91102797  0.11540000  1
  Ta  Ta90  1  0.79643030  0.00313738  -0.00942256  1
  Ta  Ta91  1  0.00568038  0.59954164  0.00850721  1
  Ta  Ta92  1  0.20553033  0.81391430  0.22457939  1
  Ta  Ta93  1  0.89491343  0.29759614  0.37082491  1
  Ta  Ta94  1  0.49783905  0.90769746  0.37611407  1
  Ta  Ta95  1  0.70278420  0.49796323  0.60844860  1
  Ta  Ta96  1  0.19851762  0.00473235  0.76518219  1
  Ta  Ta97  1  0.70241461  0.10855596  0.35696094  1
  Ta  Ta98  1  0.70436456  0.92826055  0.63099055  1
  Ta  Ta99  1  0.09473101  0.29345697  0.88595550  1
  Ta  Ta100  1  0.89721812  0.50183475  0.61433257  1
  Ta  Ta101  1  0.19612304  0.00655951  0.22710059  1
  Ta  Ta102  1  0.59916665  0.80908438  0.25586277  1
  Ta  Ta103  1  0.28612893  0.48734151  0.39494154  1
  Ta  Ta104  1  0.90117902  0.10220432  0.35664755  1
  Ta  Ta105  1  0.70499360  0.29704927  0.37190866  1
  Ta  Ta106  1  0.09845072  0.10099498  0.88519256  1
  Ta  Ta107  1  0.10364950  0.11005346  0.10379723  1
  Ta  Ta108  1  0.00076978  0.59323180  0.25339242  1
  Ta  Ta109  1  0.40106034  0.39733231  0.73076005  1
  Ta  Ta110  1  0.10780375  0.30082922  0.39216930  1
  Ta  Ta111  1  0.09866502  0.70207626  0.12854956  1
  Ta  Ta112  1  0.20166222  0.00201191  0.50865749  1
  Ta  Ta113  1  0.09943581  0.90372918  0.64764780  1
  Ta  Ta114  1  0.50051127  0.30381267  0.86784685  1
  Ta  Ta115  1  0.79594313  0.59531366  -0.00021607  1
  Ta  Ta116  1  0.79938042  0.00334656  0.49009652  1
  Ta  Ta117  1  0.30746783  0.50377102  0.11796644  1
  Ta  Ta118  1  0.09992635  0.49777707  0.38923150  1
  Ta  Ta119  1  0.59693005  0.59442664  0.73934335  1
  Ti  Ti120  1  0.20280970  0.80535330  0.75455744  1
  Ti  Ti121  1  0.60037703  -0.00004439  0.26059760  1
  Ti  Ti122  1  0.61189821  0.01180084  0.48637569  1
  Ti  Ti123  1  0.20876985  0.19417845  0.49257874  1
  Ti  Ti124  1  0.09279705  0.90289251  0.87522266  1
  Ti  Ti125  1  -0.00337622  0.60581116  0.50213535  1
  Ti  Ti126  1  0.90113046  0.70015457  0.37443670  1
  Ti  Ti127  1  0.00889008  0.79857618  -0.00817350  1
  Ti  Ti128  1  0.19852277  0.60642996  0.50896684  1
  Ti  Ti129  1  0.18817397  0.38849508  0.25624056  1
  Ti  Ti130  1  0.80035370  0.19951131  0.73988698  1
  Ti  Ti131  1  0.89903471  0.09915954  0.87793300  1
  Ti  Ti132  1  0.69596645  0.28442753  0.15609413  1
  Ti  Ti133  1  0.40480417  0.00072069  -0.00316960  1
  Ti  Ti134  1  0.60280036  0.39796114  0.26659580  1
  Ti  Ti135  1  0.19803969  -0.00093940  0.00221663  1
  Ti  Ti136  1  0.60310767  0.19552842  0.49698259  1
  Ti  Ti137  1  0.49546395  0.49718431  0.85754454  1
  Ti  Ti138  1  0.19652985  0.80152364  0.00945166  1
  Ti  Ti139  1  0.58769181  0.80167884  -0.01439875  1
  Ti  Ti140  1  0.39170366  0.01016603  0.49437227  1
  Ti  Ti141  1  0.80662776  0.81356816  0.50684969  1
  Ti  Ti142  1  0.81126017  0.61331519  0.51004046  1
  Ti  Ti143  1  0.28666452  0.10592280  0.63505814  1
  Ti  Ti144  1  0.69491862  0.49509790  0.86599290  1
  Ti  Ti145  1  0.70220321  0.29877788  0.60966767  1
  Ti  Ti146  1  0.31662580  0.50225821  0.87089526  1
  Ti  Ti147  1  0.89809577  0.90543191  0.36570108  1
  Ti  Ti148  1  0.49185532  0.68724525  0.86954527  1
  Ti  Ti149  1  0.29575971  0.10598552  0.88457215  1
  Ti  Ti150  1  0.40181857  0.80484379  0.76456857  1
  Ti  Ti151  1  0.30039424  0.48368383  0.61046046  1
  Ti  Ti152  1  0.60030254  0.81355556  0.49541747  1
  Ti  Ti153  1  0.70078363  0.90487306  0.37971849  1
  Ti  Ti154  1  0.10306199  0.70192979  0.86604073  1
  Ti  Ti155  1  0.49657528  0.10316707  0.36924348  1
  Ti  Ti156  1  0.30044992  0.10186581  0.10715986  1
  Ti  Ti157  1  0.00245698  0.40325017  0.27052237  1
  Ti  Ti158  1  0.60402904  0.20025319  0.72860670  1
  Ti  Ti159  1  0.89946859  0.50031755  0.38561519  1
  Mo  Mo160  1  0.69643635  0.90782031  0.88444881  1
  Mo  Mo161  1  0.50495565  0.29824672  0.61143818  1
  Mo  Mo162  1  -0.00059397  -0.00062294  0.77209192  1
  Mo  Mo163  1  0.39266814  0.59160484  0.26183965  1
  Mo  Mo164  1  -0.00058456  0.39852211  -0.01717685  1
  Mo  Mo165  1  0.29455321  0.29970240  0.38625760  1
  Mo  Mo166  1  0.29705347  0.29441231  0.62458486  1
  Mo  Mo167  1  0.60450333  0.20295099  0.00975032  1
  Mo  Mo168  1  0.00825245  0.80236453  0.76813782  1
  Mo  Mo169  1  0.90202788  0.69808394  0.62997040  1
  Mo  Mo170  1  0.40480471  0.79248979  -0.01842006  1
  Mo  Mo171  1  0.80587033  0.39699716  0.26864156  1
  Mo  Mo172  1  0.90722535  0.90728169  0.88316890  1
  Mo  Mo173  1  0.59939706  0.19843886  0.26401661  1
  Mo  Mo174  1  0.60543337  0.00115423  0.76262652  1
  Mo  Mo175  1  0.39682154  0.39343119  0.50892302  1
  Mo  Mo176  1  0.10084544  0.29749022  0.10653889  1
  Mo  Mo177  1  0.70370473  0.09980463  0.14002779  1
  Mo  Mo178  1  0.90096044  0.29164632  0.88557179  1
  Mo  Mo179  1  -0.00391824  0.59771967  0.73102701  1
  Mo  Mo180  1  0.80387713  0.00432402  0.76968035  1
  Mo  Mo181  1  0.79883084  0.39580827  0.50012426  1
  Mo  Mo182  1  0.19941744  0.19269934  0.76974413  1
  Mo  Mo183  1  -0.00432756  0.20189267  -0.00777490  1
  Mo  Mo184  1  0.19856287  0.39284393  0.50602154  1
  Mo  Mo185  1  0.00060978  0.00074199  -0.01430063  1
  Mo  Mo186  1  0.00445381  0.00386026  0.24946840  1
  Mo  Mo187  1  0.70165299  0.09755077  0.63675047  1
  Mo  Mo188  1  0.80451358  0.19979831  0.24469923  1
  Mo  Mo189  1  0.60616590  0.00437870  -0.01465721  1
  Mo  Mo190  1  0.40189494  0.58887877  -0.01185177  1
  Mo  Mo191  1  0.20195290  0.19631397  -0.00888324  1
  Mo  Mo192  1  0.40475692  0.58840258  0.74178700  1
  Mo  Mo193  1  0.29393252  0.90531714  0.10911294  1
  Mo  Mo194  1  0.40106940  0.19734008  0.24163301  1
  Mo  Mo195  1  0.89882961  0.29126701  0.61197192  1
  Mo  Mo196  1  0.29975190  0.09709204  0.38264419  1
  Mo  Mo197  1  0.39937584  0.80907324  0.26119676  1
  Mo  Mo198  1  0.30256447  0.71421550  0.64347547  1
  Mo  Mo199  1  0.49812085  0.90419255  0.89344186  1
