# generated using pymatgen
data_HfZrTaTiMo
_symmetry_space_group_name_H-M   'P 1'
_cell_length_a   15.93094206
_cell_length_b   15.93384020
_cell_length_c   15.21363018
_cell_angle_alpha   90.00287803
_cell_angle_beta   90.00618862
_cell_angle_gamma   90.16296023
_symmetry_Int_Tables_number   1
_chemical_formula_structural   HfZrTaTiMo
_chemical_formula_sum   'Hf40 Zr40 Ta40 Ti40 Mo40'
_cell_volume   3861.82874452
_cell_formula_units_Z   40
loop_
 _symmetry_equiv_pos_site_id
 _symmetry_equiv_pos_as_xyz
  1  'x, y, z'
loop_
 _atom_site_type_symbol
 _atom_site_label
 _atom_site_symmetry_multiplicity
 _atom_site_fract_x
 _atom_site_fract_y
 _atom_site_fract_z
 _atom_site_occupancy
  Hf  Hf0  1  0.40073476  0.00232564  -0.00397725  1
  Hf  Hf1  1  0.71045995  0.70105217  0.36724256  1
  Hf  Hf2  1  0.59924294  0.59490413  0.48875555  1
  Hf  Hf3  1  0.39712156  0.40213299  0.48947929  1
  Hf  Hf4  1  0.00417472  0.80020912  0.50891558  1
  Hf  Hf5  1  0.60269363  0.39783013  0.25258945  1
  Hf  Hf6  1  0.60766616  0.80755581  0.24560754  1
  Hf  Hf7  1  0.69679579  0.29782476  0.61414491  1
  Hf  Hf8  1  0.28882063  0.29400091  0.62721241  1
  Hf  Hf9  1  0.69347736  0.50266789  0.62364391  1
  Hf  Hf10  1  0.12236533  0.91449737  0.38358705  1
  Hf  Hf11  1  0.30086903  0.71265017  0.38402037  1
  Hf  Hf12  1  0.91208898  0.68179715  0.14124891  1
  Hf  Hf13  1  0.10241568  0.67481257  0.63433395  1
  Hf  Hf14  1  0.10140930  0.88873568  0.87959794  1
  Hf  Hf15  1  0.02304669  0.00239332  0.24382949  1
  Hf  Hf16  1  0.09274788  0.30786709  0.10558824  1
  Hf  Hf17  1  0.09103838  0.31263221  0.87163165  1
  Hf  Hf18  1  0.89697983  0.70087692  0.37003952  1
  Hf  Hf19  1  0.49646843  0.70276362  0.61113064  1
  Hf  Hf20  1  0.60544265  0.20687849  0.00563025  1
  Hf  Hf21  1  0.79098544  0.59075641  0.00428179  1
  Hf  Hf22  1  0.51146857  0.89452237  0.87479922  1
  Hf  Hf23  1  0.50979193  0.10050845  0.86357253  1
  Hf  Hf24  1  0.89684049  0.48851884  0.86804563  1
  Hf  Hf25  1  0.70909378  0.10083722  0.36852902  1
  Hf  Hf26  1  0.88435357  0.48157761  0.13349835  1
  Hf  Hf27  1  0.49390323  0.49733855  0.62851445  1
  Hf  Hf28  1  -0.00530211  0.39356416  0.27173666  1
  Hf  Hf29  1  0.40248516  0.79147202  0.75153703  1
  Hf  Hf30  1  0.20200853  0.80207483  0.52362335  1
  Hf  Hf31  1  0.28227291  0.49224296  0.88303031  1
  Hf  Hf32  1  0.71089512  0.30641055  0.87400498  1
  Hf  Hf33  1  0.90055521  0.90486748  0.63077399  1
  Hf  Hf34  1  0.49904500  0.50688806  0.86738602  1
  Hf  Hf35  1  0.20832291  0.00825968  -0.01027402  1
  Hf  Hf36  1  0.00922085  0.00512240  0.51249769  1
  Hf  Hf37  1  0.50766840  0.90524135  0.62932295  1
  Hf  Hf38  1  0.18833522  0.18928307  0.26531311  1
  Hf  Hf39  1  0.80655200  0.78923560  0.00047638  1
  Zr  Zr40  1  0.80688157  0.41303903  0.50581381  1
  Zr  Zr41  1  0.00766541  0.79941199  0.74078264  1
  Zr  Zr42  1  0.39218085  0.19038265  0.48956204  1
  Zr  Zr43  1  0.07954484  0.50702542  0.13153075  1
  Zr  Zr44  1  0.38866273  0.19638477  -0.01474309  1
  Zr  Zr45  1  0.90694102  0.09338962  0.37858850  1
  Zr  Zr46  1  0.29975689  0.69631558  0.11582583  1
  Zr  Zr47  1  0.60248873  0.00130740  0.24678983  1
  Zr  Zr48  1  0.60156314  0.00498225  0.49480251  1
  Zr  Zr49  1  0.18763166  0.39657215  0.27306283  1
  Zr  Zr50  1  0.69326129  0.50223768  0.86129153  1
  Zr  Zr51  1  0.49751266  0.70255200  0.37459960  1
  Zr  Zr52  1  0.49148459  0.89602743  0.38272372  1
  Zr  Zr53  1  0.79757177  -0.00132020  0.00377863  1
  Zr  Zr54  1  0.90517279  0.11701549  0.86977588  1
  Zr  Zr55  1  0.39853382  0.39718481  -0.00289123  1
  Zr  Zr56  1  0.89928607  0.89651481  0.87128476  1
  Zr  Zr57  1  0.91810827  0.88449795  0.11841403  1
  Zr  Zr58  1  0.17832469  0.60374417  -0.00537993  1
  Zr  Zr59  1  0.49329624  0.29549511  0.62727022  1
  Zr  Zr60  1  0.10791850  0.11746817  0.63836678  1
  Zr  Zr61  1  0.37429126  0.60076116  0.73932009  1
  Zr  Zr62  1  0.18788056  0.61596390  0.25335017  1
  Zr  Zr63  1  0.49496583  0.29746734  0.13427443  1
  Zr  Zr64  1  0.00926637  0.00598114  -0.00732004  1
  Zr  Zr65  1  0.39396248  -0.00295665  0.76093727  1
  Zr  Zr66  1  0.89643454  0.29163270  0.39910340  1
  Zr  Zr67  1  0.50147168  0.30586906  0.86728634  1
  Zr  Zr68  1  0.50017308  0.89748439  0.11625598  1
  Zr  Zr69  1  0.59474038  0.19705069  0.49012211  1
  Zr  Zr70  1  0.78778572  0.79613158  0.74478636  1
  Zr  Zr71  1  0.80564683  -0.00985563  0.23358003  1
  Zr  Zr72  1  0.29084309  0.29449960  0.13175150  1
  Zr  Zr73  1  0.80414308  0.21398595  0.23988629  1
  Zr  Zr74  1  0.28914196  0.49242887  0.12532700  1
  Zr  Zr75  1  0.21186942  0.79151577  0.74454048  1
  Zr  Zr76  1  0.61359824  0.79659167  0.00358616  1
  Zr  Zr77  1  0.00621554  0.20247030  0.25205472  1
  Zr  Zr78  1  0.38144335  -0.00965752  0.24038738  1
  Zr  Zr79  1  0.02253547  0.79719402  0.25720666  1
  Ta  Ta80  1  0.59878796  0.59861833  0.01468704  1
  Ta  Ta81  1  -0.00731355  0.60138808  -0.01632978  1
  Ta  Ta82  1  -0.00469058  0.58996465  0.49508290  1
  Ta  Ta83  1  0.19550245  0.40064097  0.50004888  1
  Ta  Ta84  1  0.39354668  0.79728437  0.23679226  1
  Ta  Ta85  1  0.70518574  0.10434075  0.86762542  1
  Ta  Ta86  1  0.90255637  0.68951792  0.62958448  1
  Ta  Ta87  1  0.49750484  0.10501431  0.13052654  1
  Ta  Ta88  1  0.39792177  0.59719957  0.25570981  1
  Ta  Ta89  1  0.70597085  0.50330010  0.36431630  1
  Ta  Ta90  1  0.71732319  0.89516956  0.38107893  1
  Ta  Ta91  1  0.80267706  -0.00170924  0.50945363  1
  Ta  Ta92  1  0.90098492  0.89619431  0.37913875  1
  Ta  Ta93  1  0.70085481  0.10773197  0.12659558  1
  Ta  Ta94  1  0.79897723  0.59860769  0.73864878  1
  Ta  Ta95  1  0.49524748  0.50172567  0.13514154  1
  Ta  Ta96  1  0.70018634  0.09652816  0.63679360  1
  Ta  Ta97  1  -0.00165711  0.39844473  0.72524102  1
  Ta  Ta98  1  0.20907175  0.82305171  0.23180806  1
  Ta  Ta99  1  0.50119349  0.69326634  0.13063014  1
  Ta  Ta100  1  0.90167526  0.69206719  0.86058026  1
  Ta  Ta101  1  0.20008233  -0.00207263  0.75874891  1
  Ta  Ta102  1  0.60804783  0.20196514  0.74861353  1
  Ta  Ta103  1  0.80317705  0.20681511  0.00755848  1
  Ta  Ta104  1  0.90981261  0.11027503  0.11651287  1
  Ta  Ta105  1  0.60733926  0.00707501  0.00595915  1
  Ta  Ta106  1  0.29672747  0.69718811  0.88848908  1
  Ta  Ta107  1  0.80735953  0.39582879  0.73095498  1
  Ta  Ta108  1  0.60752325  0.41265464  0.01389135  1
  Ta  Ta109  1  0.39606752  0.00515677  0.50939981  1
  Ta  Ta110  1  0.39678902  0.40331356  0.26634649  1
  Ta  Ta111  1  0.28333602  0.07950189  0.37467835  1
  Ta  Ta112  1  0.61233236  0.80048846  0.50354621  1
  Ta  Ta113  1  0.19805687  0.20180372  -0.02344946  1
  Ta  Ta114  1  0.00590880  0.40139147  0.50985101  1
  Ta  Ta115  1  0.38297500  0.39987093  0.74773974  1
  Ta  Ta116  1  0.50144154  0.10087873  0.64124939  1
  Ta  Ta117  1  0.00882529  0.00755881  0.75200946  1
  Ta  Ta118  1  0.29457896  0.50697685  0.37780333  1
  Ta  Ta119  1  0.70889321  0.69640124  0.14213991  1
  Ti  Ti120  1  0.39517685  0.59538512  0.49578750  1
  Ti  Ti121  1  0.69772344  0.90868298  0.86785844  1
  Ti  Ti122  1  0.30047841  0.88761950  0.88481407  1
  Ti  Ti123  1  0.18957926  0.79642635  0.00983492  1
  Ti  Ti124  1  0.60580169  0.79466791  0.74392241  1
  Ti  Ti125  1  0.69740036  0.69374574  0.87274320  1
  Ti  Ti126  1  0.71869453  0.32115029  0.12234320  1
  Ti  Ti127  1  0.20194016  0.20553714  0.76820923  1
  Ti  Ti128  1  0.49670742  0.29457165  0.36689693  1
  Ti  Ti129  1  0.80078991  0.79829300  0.51412681  1
  Ti  Ti130  1  0.59934978  0.61445860  0.74032508  1
  Ti  Ti131  1  0.40228506  0.79211189  0.00060287  1
  Ti  Ti132  1  0.59762304  0.59590054  0.24765915  1
  Ti  Ti133  1  0.39141282  0.19566461  0.25891197  1
  Ti  Ti134  1  0.60187668  0.20135813  0.24968801  1
  Ti  Ti135  1  0.59982589  0.39735990  0.74385932  1
  Ti  Ti136  1  0.69960415  0.90499425  0.62510072  1
  Ti  Ti137  1  0.70405401  0.30198203  0.38024442  1
  Ti  Ti138  1  0.79982384  0.00590141  0.74852154  1
  Ti  Ti139  1  0.30458479  0.89875614  0.38909146  1
  Ti  Ti140  1  0.80092693  0.18792127  0.51261024  1
  Ti  Ti141  1  0.50322872  0.69473040  0.87985754  1
  Ti  Ti142  1  0.30919815  0.90088215  0.62606768  1
  Ti  Ti143  1  0.20727633  0.00540472  0.52665212  1
  Ti  Ti144  1  0.29470499  0.10249103  0.12942586  1
  Ti  Ti145  1  0.89354738  0.50804685  0.36617335  1
  Ti  Ti146  1  0.10348352  0.69817213  0.39017963  1
  Ti  Ti147  1  0.80689621  0.20947631  0.74101204  1
  Ti  Ti148  1  0.40426766  0.59771492  0.00170900  1
  Ti  Ti149  1  0.30748232  0.10698768  0.64306870  1
  Ti  Ti150  1  0.59238399  0.40398315  0.48059431  1
  Ti  Ti151  1  0.90346078  0.30470840  0.88295619  1
  Ti  Ti152  1  0.48850372  0.09574231  0.36029155  1
  Ti  Ti153  1  0.29404633  0.29410040  0.37819708  1
  Ti  Ti154  1  0.10635718  0.10930535  0.10997045  1
  Ti  Ti155  1  0.20078960  0.59134735  0.50331494  1
  Ti  Ti156  1  0.18909754  0.19725408  0.49175691  1
  Ti  Ti157  1  0.90265812  0.10662344  0.63333877  1
  Ti  Ti158  1  0.19112408  0.41743701  0.73108279  1
  Ti  Ti159  1  0.80104033  0.60445125  0.51051787  1
  Mo  Mo160  1  0.39850699  0.20403726  0.75305112  1
  Mo  Mo161  1  -0.00725740  0.40760639  -0.00448907  1
  Mo  Mo162  1  0.19283220  0.39845909  -0.00333197  1
  Mo  Mo163  1  0.90054582  0.29368033  0.61721035  1
  Mo  Mo164  1  0.90238364  0.30311758  0.10878683  1
  Mo  Mo165  1  0.10105994  0.10747250  0.86229493  1
  Mo  Mo166  1  0.29432041  0.49813649  0.60856667  1
  Mo  Mo167  1  -0.00045277  0.20440064  0.00034814  1
  Mo  Mo168  1  0.61164151  -0.00123440  0.75358809  1
  Mo  Mo169  1  0.09118822  0.70760037  0.12583542  1
  Mo  Mo170  1  0.69357978  0.50202454  0.14056003  1
  Mo  Mo171  1  0.09998777  0.49838308  0.61496009  1
  Mo  Mo172  1  0.00026308  0.59007060  0.75996278  1
  Mo  Mo173  1  0.29099910  0.30718047  0.85773947  1
  Mo  Mo174  1  0.79748114  0.59623330  0.24605423  1
  Mo  Mo175  1  0.19492644  0.59408554  0.75888167  1
  Mo  Mo176  1  0.49719779  0.50002648  0.36362470  1
  Mo  Mo177  1  0.90291825  0.50587169  0.63123191  1
  Mo  Mo178  1  0.70710653  0.89989810  0.11828706  1
  Mo  Mo179  1  0.79736666  0.39683295  0.27002176  1
  Mo  Mo180  1  0.19866493  0.00019325  0.22936472  1
  Mo  Mo181  1  0.00154757  0.20215989  0.51714613  1
  Mo  Mo182  1  0.09572006  0.50368721  0.38980908  1
  Mo  Mo183  1  0.01052726  0.77546053  -0.00787344  1
  Mo  Mo184  1  0.00156471  0.59541149  0.27730544  1
  Mo  Mo185  1  0.10197758  0.30098029  0.62534785  1
  Mo  Mo186  1  -0.00644019  0.21258848  0.73863858  1
  Mo  Mo187  1  0.30171836  0.69354805  0.60811151  1
  Mo  Mo188  1  0.09552350  0.29575006  0.40177100  1
  Mo  Mo189  1  0.09895673  0.69229756  0.85958454  1
  Mo  Mo190  1  0.30024731  0.10513315  0.85962404  1
  Mo  Mo191  1  0.30009150  0.89538493  0.10054402  1
  Mo  Mo192  1  0.70080102  0.70050715  0.61395691  1
  Mo  Mo193  1  0.79339799  0.39802395  -0.00661476  1
  Mo  Mo194  1  0.40043209  0.80602223  0.51528464  1
  Mo  Mo195  1  0.10766401  0.90163269  0.10596355  1
  Mo  Mo196  1  0.08922859  0.49558714  0.86825194  1
  Mo  Mo197  1  0.10848146  0.91096135  0.63482647  1
  Mo  Mo198  1  0.10691126  0.09517075  0.39363288  1
  Mo  Mo199  1  0.80565004  0.80293434  0.24501828  1
