# generated using pymatgen
data_HfZrTaTiMo
_symmetry_space_group_name_H-M   'P 1'
_cell_length_a   15.93281013
_cell_length_b   15.91882322
_cell_length_c   15.20328857
_cell_angle_alpha   89.96567944
_cell_angle_beta   89.95166260
_cell_angle_gamma   89.87675657
_symmetry_Int_Tables_number   1
_chemical_formula_structural   HfZrTaTiMo
_chemical_formula_sum   'Hf40 Zr40 Ta40 Ti40 Mo40'
_cell_volume   3856.02324004
_cell_formula_units_Z   40
loop_
 _symmetry_equiv_pos_site_id
 _symmetry_equiv_pos_as_xyz
  1  'x, y, z'
loop_
 _atom_site_type_symbol
 _atom_site_label
 _atom_site_symmetry_multiplicity
 _atom_site_fract_x
 _atom_site_fract_y
 _atom_site_fract_z
 _atom_site_occupancy
  Hf  Hf0  1  0.29582477  0.70677216  0.62522077  1
  Hf  Hf1  1  0.51005021  0.89947303  0.88766752  1
  Hf  Hf2  1  0.89437009  0.51614349  0.63337334  1
  Hf  Hf3  1  0.28352144  0.69176568  0.36151087  1
  Hf  Hf4  1  0.79710048  -0.01172560  0.23501953  1
  Hf  Hf5  1  0.39128113  0.39901731  0.75265837  1
  Hf  Hf6  1  0.10077231  0.30270198  0.63099170  1
  Hf  Hf7  1  0.30109039  0.30355715  0.12062439  1
  Hf  Hf8  1  0.40785777  0.00847252  0.48838543  1
  Hf  Hf9  1  0.69498678  0.30493873  0.37892826  1
  Hf  Hf10  1  0.78950637  0.40723061  0.51390642  1
  Hf  Hf11  1  0.17770435  0.79505377  0.48811370  1
  Hf  Hf12  1  -0.01804878  0.60537716  0.25293923  1
  Hf  Hf13  1  0.07984149  0.31664465  0.38124219  1
  Hf  Hf14  1  0.29441996  0.90548923  0.61757471  1
  Hf  Hf15  1  -0.00852749  0.39460384  -0.01667845  1
  Hf  Hf16  1  0.60411409  0.59784401  0.25124111  1
  Hf  Hf17  1  0.19043092  -0.00736781  0.00193917  1
  Hf  Hf18  1  0.81232560  0.78994650  -0.00591386  1
  Hf  Hf19  1  0.59689942  0.39745164  0.74847720  1
  Hf  Hf20  1  0.79665638  0.20479157  0.24836251  1
  Hf  Hf21  1  0.49896872  0.49387420  0.62158541  1
  Hf  Hf22  1  0.89595478  0.89443718  0.37041649  1
  Hf  Hf23  1  0.81017176  -0.00784978  0.51563982  1
  Hf  Hf24  1  0.41061333  0.19219417  0.74582976  1
  Hf  Hf25  1  0.90729931  0.10197967  0.11228845  1
  Hf  Hf26  1  0.41245571  0.78554285  0.00667036  1
  Hf  Hf27  1  0.48890053  0.50745101  0.12433123  1
  Hf  Hf28  1  0.29055548  0.29333472  0.62381226  1
  Hf  Hf29  1  0.49648426  0.30411686  0.11838099  1
  Hf  Hf30  1  0.70373692  0.10939722  0.64590774  1
  Hf  Hf31  1  0.39310685  0.59841834  0.74978522  1
  Hf  Hf32  1  0.39545943  0.59569717  0.49493485  1
  Hf  Hf33  1  0.00491489  0.61168828  0.50792105  1
  Hf  Hf34  1  0.39986032  0.39694842  0.49130999  1
  Hf  Hf35  1  0.80017496  0.40906572  0.25441010  1
  Hf  Hf36  1  0.40036905  0.80399308  0.48744974  1
  Hf  Hf37  1  0.10038078  0.50026243  0.86106375  1
  Hf  Hf38  1  -0.00349157  0.19648013  0.49410179  1
  Hf  Hf39  1  0.00554438  -0.00054954  0.76526565  1
  Zr  Zr40  1  0.69652940  0.70579487  0.86687769  1
  Zr  Zr41  1  0.80199875  0.19718805  0.49556115  1
  Zr  Zr42  1  0.60231952  -0.00451324  0.51150963  1
  Zr  Zr43  1  0.00483914  -0.00481683  0.50729820  1
  Zr  Zr44  1  0.59255570  0.00507303  0.74475169  1
  Zr  Zr45  1  0.58949262  0.18751327  0.50598513  1
  Zr  Zr46  1  0.90636316  0.48549265  0.39196096  1
  Zr  Zr47  1  0.90605021  0.09290517  0.35703427  1
  Zr  Zr48  1  0.50742566  0.29883843  0.36838678  1
  Zr  Zr49  1  0.81306040  0.21337005  -0.01900870  1
  Zr  Zr50  1  0.58947832  0.61112330  0.00166674  1
  Zr  Zr51  1  0.30863779  0.10192008  0.89798866  1
  Zr  Zr52  1  0.00068928  0.79515933  0.24655316  1
  Zr  Zr53  1  0.08523417  0.49640096  0.12524092  1
  Zr  Zr54  1  0.71564583  0.88832004  0.63978029  1
  Zr  Zr55  1  0.41161004  0.00195191  0.25016148  1
  Zr  Zr56  1  0.69293631  0.08918326  0.36673733  1
  Zr  Zr57  1  0.10732337  0.10442706  0.63222268  1
  Zr  Zr58  1  0.41493119  0.79879314  0.25278885  1
  Zr  Zr59  1  0.29821596  0.30127498  0.87904815  1
  Zr  Zr60  1  0.70732869  0.68976503  0.11806201  1
  Zr  Zr61  1  0.80761533  0.78595404  0.23699013  1
  Zr  Zr62  1  0.39614945  -0.00125334  0.74954034  1
  Zr  Zr63  1  0.61113077  0.59009603  0.51140865  1
  Zr  Zr64  1  0.39325848  0.19147558  0.48996583  1
  Zr  Zr65  1  0.10279249  0.89708845  0.63463857  1
  Zr  Zr66  1  0.37614092  0.60257198  -0.02174813  1
  Zr  Zr67  1  0.28935533  0.50612409  0.13678659  1
  Zr  Zr68  1  0.28144709  0.90448772  0.35834833  1
  Zr  Zr69  1  0.10176690  0.50852990  0.37231276  1
  Zr  Zr70  1  0.50397288  0.49572703  0.88020244  1
  Zr  Zr71  1  0.90673997  0.30999234  0.12570715  1
  Zr  Zr72  1  0.60687530  0.20315676  0.00800148  1
  Zr  Zr73  1  0.30082752  0.10242017  0.12463576  1
  Zr  Zr74  1  0.30338665  0.69079207  0.14610644  1
  Zr  Zr75  1  0.19465112  0.20673958  0.25060932  1
  Zr  Zr76  1  0.51214937  0.69657560  0.37931279  1
  Zr  Zr77  1  0.89845868  0.29808802  0.63610946  1
  Zr  Zr78  1  0.09684714  0.69472073  0.87054976  1
  Zr  Zr79  1  0.20651813  0.78734801  -0.00257474  1
  Ta  Ta80  1  0.49940145  0.70319076  0.62786871  1
  Ta  Ta81  1  0.09962958  0.08833094  0.35181503  1
  Ta  Ta82  1  0.30921726  0.89746100  0.89146240  1
  Ta  Ta83  1  0.60870824  0.79668798  0.51372364  1
  Ta  Ta84  1  0.19461283  0.19555054  0.48098813  1
  Ta  Ta85  1  0.71174553  0.70432275  0.38679517  1
  Ta  Ta86  1  0.60336053  0.59999569  0.74047498  1
  Ta  Ta87  1  0.79449885  0.40509825  0.75744570  1
  Ta  Ta88  1  0.60418897  -0.00252570  0.23033307  1
  Ta  Ta89  1  -0.01140188  0.80121700  0.50237634  1
  Ta  Ta90  1  0.19051354  0.39675482  0.24582555  1
  Ta  Ta91  1  0.69489279  0.29947901  0.63518813  1
  Ta  Ta92  1  0.69757367  0.09871751  0.87615832  1
  Ta  Ta93  1  0.70625267  0.09705373  0.11163647  1
  Ta  Ta94  1  0.70359735  0.89979624  0.09839841  1
  Ta  Ta95  1  0.90139767  0.09929813  0.64598858  1
  Ta  Ta96  1  0.51094893  0.89631053  0.11408296  1
  Ta  Ta97  1  0.49967760  0.29636328  0.88911139  1
  Ta  Ta98  1  0.50540111  0.10307310  0.89337426  1
  Ta  Ta99  1  0.09055708  0.10310877  0.12551979  1
  Ta  Ta100  1  0.20068374  0.19113638  0.76582939  1
  Ta  Ta101  1  0.20554968  0.80683040  0.76579951  1
  Ta  Ta102  1  0.18546024  0.20914287  0.00282308  1
  Ta  Ta103  1  0.19417238  0.40528900  -0.00140765  1
  Ta  Ta104  1  0.80746315  0.59482259  -0.01739641  1
  Ta  Ta105  1  0.20267226  -0.00144724  0.77398412  1
  Ta  Ta106  1  0.61283040  0.80525451  0.24033936  1
  Ta  Ta107  1  0.49459434  0.89306283  0.62183944  1
  Ta  Ta108  1  0.10661578  0.68990960  0.12613953  1
  Ta  Ta109  1  0.09951667  0.30187068  0.86332618  1
  Ta  Ta110  1  0.30018921  0.89610463  0.12667748  1
  Ta  Ta111  1  0.29396118  0.49715628  0.36765038  1
  Ta  Ta112  1  0.40058921  0.40140950  0.26029006  1
  Ta  Ta113  1  0.60135073  0.40341904  0.23643571  1
  Ta  Ta114  1  0.90803802  0.90155354  0.10771204  1
  Ta  Ta115  1  0.70128802  0.90278710  0.88165448  1
  Ta  Ta116  1  0.90376033  0.51253929  0.85531941  1
  Ta  Ta117  1  0.50104787  0.70540806  0.85482427  1
  Ta  Ta118  1  0.91229717  0.90036018  0.88696455  1
  Ta  Ta119  1  0.80980006  -0.00038530  0.76766122  1
  Ti  Ti120  1  0.29196068  0.09758331  0.35962027  1
  Ti  Ti121  1  0.19208683  0.40368352  0.50140411  1
  Ti  Ti122  1  0.59987940  0.19456100  0.23448248  1
  Ti  Ti123  1  0.29078501  0.30352744  0.37252588  1
  Ti  Ti124  1  0.39703561  0.80367964  0.75335585  1
  Ti  Ti125  1  0.80128135  0.20418028  0.76993454  1
  Ti  Ti126  1  0.70511163  0.31094318  0.11792339  1
  Ti  Ti127  1  0.89231315  0.70957845  0.62921615  1
  Ti  Ti128  1  0.09894325  0.69977587  0.64180365  1
  Ti  Ti129  1  -0.00496536  0.19778655  0.76976092  1
  Ti  Ti130  1  0.41095518  0.00222368  0.01655926  1
  Ti  Ti131  1  -0.00027127  0.40686438  0.74249518  1
  Ti  Ti132  1  0.19508923  0.59972587  0.50699222  1
  Ti  Ti133  1  -0.00144689  0.80130684  0.75574120  1
  Ti  Ti134  1  0.39254065  0.40546835  -0.00658276  1
  Ti  Ti135  1  0.71535871  0.69009477  0.62932651  1
  Ti  Ti136  1  0.40643707  0.19837981  0.25445959  1
  Ti  Ti137  1  0.79916782  0.40614630  -0.02060306  1
  Ti  Ti138  1  0.70394999  0.89096876  0.38152987  1
  Ti  Ti139  1  0.70120310  0.49520554  0.11014048  1
  Ti  Ti140  1  0.88835535  0.50706819  0.11780653  1
  Ti  Ti141  1  0.20365192  0.59705660  0.74848323  1
  Ti  Ti142  1  -0.00124885  0.21387460  0.25279247  1
  Ti  Ti143  1  0.79985744  0.59774596  0.26381880  1
  Ti  Ti144  1  0.19619742  0.00753073  0.48992071  1
  Ti  Ti145  1  0.10174593  0.90070296  0.13417191  1
  Ti  Ti146  1  0.59792192  0.80017557  0.73833502  1
  Ti  Ti147  1  0.68974698  0.49742728  0.38118698  1
  Ti  Ti148  1  0.50353767  0.29270052  0.62343860  1
  Ti  Ti149  1  0.69101904  0.30513227  0.87283528  1
  Ti  Ti150  1  0.29287899  0.09906949  0.62259886  1
  Ti  Ti151  1  -0.00489462  0.60285673  -0.00208955  1
  Ti  Ti152  1  0.09498818  0.90548802  0.35511159  1
  Ti  Ti153  1  0.69755869  0.50390219  0.87288553  1
  Ti  Ti154  1  0.52219854  0.90280770  0.37544839  1
  Ti  Ti155  1  0.81499343  0.80039171  0.76648235  1
  Ti  Ti156  1  0.01007693  0.79935714  0.00274782  1
  Ti  Ti157  1  0.09244889  0.10143933  0.89194184  1
  Ti  Ti158  1  0.28526342  0.49272635  0.62391315  1
  Ti  Ti159  1  0.80702497  0.00471273  -0.01460823  1
  Mo  Mo160  1  0.90413127  0.89520559  0.64856712  1
  Mo  Mo161  1  0.19945242  0.39956914  0.74688425  1
  Mo  Mo162  1  0.40194619  0.20226984  0.00365600  1
  Mo  Mo163  1  -0.00622476  0.40095651  0.23927605  1
  Mo  Mo164  1  0.00172271  0.40415377  0.52684655  1
  Mo  Mo165  1  0.40595418  0.58721733  0.27298340  1
  Mo  Mo166  1  0.60295226  0.79963174  0.00549742  1
  Mo  Mo167  1  0.10305674  0.50322603  0.63108534  1
  Mo  Mo168  1  0.49573504  0.09853313  0.63134054  1
  Mo  Mo169  1  0.18780306  0.59865944  0.25521954  1
  Mo  Mo170  1  0.30211659  0.70366402  0.85626410  1
  Mo  Mo171  1  0.00426753  -0.00450616  0.00145597  1
  Mo  Mo172  1  0.90963544  0.69122536  0.10434521  1
  Mo  Mo173  1  0.80053169  0.60449936  0.49430364  1
  Mo  Mo174  1  0.79942173  0.60814308  0.76447433  1
  Mo  Mo175  1  0.10365274  0.89697301  0.87615515  1
  Mo  Mo176  1  0.50596235  0.10167883  0.12643181  1
  Mo  Mo177  1  -0.00090716  -0.00238227  0.23039605  1
  Mo  Mo178  1  0.60208035  0.39339132  0.51786616  1
  Mo  Mo179  1  0.80398692  0.79655463  0.50728579  1
  Mo  Mo180  1  0.00581318  0.20256953  -0.01448858  1
  Mo  Mo181  1  0.09233115  0.70665564  0.36930560  1
  Mo  Mo182  1  0.89394250  0.69804743  0.39328773  1
  Mo  Mo183  1  0.19652199  -0.00008475  0.23118397  1
  Mo  Mo184  1  0.50431558  0.70167256  0.14447607  1
  Mo  Mo185  1  0.90819696  0.70103936  0.87683914  1
  Mo  Mo186  1  0.60011909  0.20463923  0.76575146  1
  Mo  Mo187  1  0.19315670  0.80031133  0.24099911  1
  Mo  Mo188  1  0.90242891  0.10244099  0.87597401  1
  Mo  Mo189  1  0.89775088  0.30157655  0.37394014  1
  Mo  Mo190  1  0.50447212  0.09823612  0.34911525  1
  Mo  Mo191  1  0.70283488  0.50231347  0.64278712  1
  Mo  Mo192  1  0.09754570  0.29959663  0.11813378  1
  Mo  Mo193  1  -0.00056685  0.61052272  0.73481074  1
  Mo  Mo194  1  0.50368323  0.49246783  0.37133473  1
  Mo  Mo195  1  0.60926667  0.40269839  0.00701894  1
  Mo  Mo196  1  0.19106239  0.59408334  -0.01035945  1
  Mo  Mo197  1  0.28695940  0.49937732  0.87258417  1
  Mo  Mo198  1  0.60657532  0.00269820  0.00447520  1
  Mo  Mo199  1  0.90253472  0.31065344  0.85595744  1
