# generated using pymatgen
data_HfZrTaTiMo
_symmetry_space_group_name_H-M   'P 1'
_cell_length_a   15.93738723
_cell_length_b   15.93108904
_cell_length_c   15.20984142
_cell_angle_alpha   89.99026382
_cell_angle_beta   89.89849695
_cell_angle_gamma   89.93733420
_symmetry_Int_Tables_number   1
_chemical_formula_structural   HfZrTaTiMo
_chemical_formula_sum   'Hf40 Zr40 Ta40 Ti40 Mo40'
_cell_volume   3861.76932433
_cell_formula_units_Z   40
loop_
 _symmetry_equiv_pos_site_id
 _symmetry_equiv_pos_as_xyz
  1  'x, y, z'
loop_
 _atom_site_type_symbol
 _atom_site_label
 _atom_site_symmetry_multiplicity
 _atom_site_fract_x
 _atom_site_fract_y
 _atom_site_fract_z
 _atom_site_occupancy
  Hf  Hf0  1  -0.00605042  0.20359690  0.48179642  1
  Hf  Hf1  1  0.48813342  0.50458198  0.39582071  1
  Hf  Hf2  1  0.09434025  0.09650586  0.87472920  1
  Hf  Hf3  1  0.89674344  0.69148768  0.37202225  1
  Hf  Hf4  1  0.20210569  -0.00055210  0.49387815  1
  Hf  Hf5  1  0.20263448  0.20609844  0.27012712  1
  Hf  Hf6  1  -0.00856841  0.59363567  0.22482024  1
  Hf  Hf7  1  0.79353929  0.17737662  0.00623967  1
  Hf  Hf8  1  0.38096834  0.01123755  0.74756081  1
  Hf  Hf9  1  0.39637520  0.80115263  -0.00553819  1
  Hf  Hf10  1  0.20738393  0.39751161  0.25202969  1
  Hf  Hf11  1  0.90419203  0.69926938  0.88015963  1
  Hf  Hf12  1  0.49786659  0.91153258  0.12054732  1
  Hf  Hf13  1  0.30629431  0.69168611  0.12325776  1
  Hf  Hf14  1  0.40215263  0.81747565  0.74511617  1
  Hf  Hf15  1  0.88592979  0.89619238  0.62130424  1
  Hf  Hf16  1  0.60209637  0.80332800  0.24818157  1
  Hf  Hf17  1  0.79531276  0.40292566  0.76909388  1
  Hf  Hf18  1  0.89871521  0.29014171  0.64030425  1
  Hf  Hf19  1  0.70235104  0.29566061  0.62139293  1
  Hf  Hf20  1  0.00718292  -0.00974464  0.73863019  1
  Hf  Hf21  1  0.59297140  0.60417685  0.25307934  1
  Hf  Hf22  1  0.10600252  0.49381417  0.87735627  1
  Hf  Hf23  1  0.20105248  0.00211777  0.00468209  1
  Hf  Hf24  1  0.59468718  0.41234736  0.25550996  1
  Hf  Hf25  1  0.30669513  0.48851215  0.12252656  1
  Hf  Hf26  1  0.40461206  0.19802476  0.74767150  1
  Hf  Hf27  1  0.60797065  0.40417351  0.75292193  1
  Hf  Hf28  1  0.50027526  0.69932814  0.63061562  1
  Hf  Hf29  1  0.79627289  -0.00264161  0.21969444  1
  Hf  Hf30  1  0.78417514  -0.00739135  0.77173856  1
  Hf  Hf31  1  0.50244933  0.07902419  0.38236891  1
  Hf  Hf32  1  0.49606222  0.70288879  0.39803369  1
  Hf  Hf33  1  0.09857013  0.28963633  0.63458176  1
  Hf  Hf34  1  0.50253890  0.91156728  0.88304770  1
  Hf  Hf35  1  -0.00935117  0.58871042  0.51653254  1
  Hf  Hf36  1  0.41110462  0.79596881  0.24699795  1
  Hf  Hf37  1  0.31591796  0.31841845  0.38909040  1
  Hf  Hf38  1  0.59735630  0.80015255  -0.00044439  1
  Hf  Hf39  1  0.59560049  0.81011885  0.50568808  1
  Zr  Zr40  1  0.00028586  0.79201806  0.73366575  1
  Zr  Zr41  1  0.89597015  0.48577381  0.36523781  1
  Zr  Zr42  1  -0.00281814  0.00251362  0.49707642  1
  Zr  Zr43  1  0.71531394  0.31261037  0.36978289  1
  Zr  Zr44  1  0.59222586  0.00568793  0.74818612  1
  Zr  Zr45  1  0.68864204  0.69103367  0.11356420  1
  Zr  Zr46  1  -0.00114071  0.39263460  0.75801575  1
  Zr  Zr47  1  0.59881872  0.20261778  0.25623238  1
  Zr  Zr48  1  0.61055448  0.81137060  0.75230260  1
  Zr  Zr49  1  0.39304297  0.20404550  -0.00184286  1
  Zr  Zr50  1  0.29927685  0.10792324  0.13601485  1
  Zr  Zr51  1  0.69027345  0.29839393  0.11516091  1
  Zr  Zr52  1  0.09320294  0.89592578  0.36371340  1
  Zr  Zr53  1  0.21025819  0.79921786  0.26419895  1
  Zr  Zr54  1  0.70290846  0.10355248  0.61140369  1
  Zr  Zr55  1  0.29257514  0.30576597  0.87357909  1
  Zr  Zr56  1  0.19599194  0.81957369  0.73707486  1
  Zr  Zr57  1  0.89863331  0.10328877  0.63345726  1
  Zr  Zr58  1  0.11713978  0.29290685  0.10540736  1
  Zr  Zr59  1  0.29640845  0.70138112  0.85793582  1
  Zr  Zr60  1  0.69656056  0.90629998  0.37709516  1
  Zr  Zr61  1  0.81139634  0.40871404  0.51112953  1
  Zr  Zr62  1  0.19361281  0.40595693  0.50340449  1
  Zr  Zr63  1  0.20954290  0.18175730  0.75274745  1
  Zr  Zr64  1  0.20063099  0.80152202  0.00025112  1
  Zr  Zr65  1  0.09244002  0.50190162  0.36480553  1
  Zr  Zr66  1  0.19342883  0.59965631  0.50676215  1
  Zr  Zr67  1  0.09430902  0.89703759  0.88591763  1
  Zr  Zr68  1  0.10970283  0.69582763  0.13188439  1
  Zr  Zr69  1  0.48971327  0.31813621  0.11698466  1
  Zr  Zr70  1  0.40389745  0.21006341  0.25597986  1
  Zr  Zr71  1  0.19725751  0.19829250  0.48818015  1
  Zr  Zr72  1  0.89529389  0.89474229  0.36527682  1
  Zr  Zr73  1  0.79525221  0.59048651  0.23179767  1
  Zr  Zr74  1  0.50602879  0.30080888  0.62131598  1
  Zr  Zr75  1  0.79363351  0.19490522  0.77608360  1
  Zr  Zr76  1  0.00497718  0.78822391  0.51246936  1
  Zr  Zr77  1  0.30901009  0.69005277  0.39236307  1
  Zr  Zr78  1  0.90247902  0.89761767  0.88776110  1
  Zr  Zr79  1  0.09712107  0.09487725  0.14294178  1
  Ta  Ta80  1  -0.00154501  0.39871740  0.51623328  1
  Ta  Ta81  1  0.80158444  0.59542265  -0.00154440  1
  Ta  Ta82  1  0.09654464  0.50517729  0.64753352  1
  Ta  Ta83  1  0.39613812  0.41439124  -0.02283091  1
  Ta  Ta84  1  0.79855599  0.79460616  0.22861848  1
  Ta  Ta85  1  0.00270133  0.59723237  0.00610335  1
  Ta  Ta86  1  0.70144019  0.90549266  0.61225812  1
  Ta  Ta87  1  0.10220001  0.09720954  0.62773420  1
  Ta  Ta88  1  0.49965505  0.30578847  0.87082913  1
  Ta  Ta89  1  0.50350188  0.69782669  0.86275265  1
  Ta  Ta90  1  0.40544461  0.59353201  0.24694927  1
  Ta  Ta91  1  0.49830289  0.50340639  0.85749221  1
  Ta  Ta92  1  0.79893244  0.80497021  0.01280837  1
  Ta  Ta93  1  0.40464393  0.59991945  -0.01478708  1
  Ta  Ta94  1  0.89727807  0.09999359  0.34896935  1
  Ta  Ta95  1  0.70660948  0.70192884  0.62771340  1
  Ta  Ta96  1  0.60945137  0.60018408  0.51024998  1
  Ta  Ta97  1  0.39243641  0.00393441  -0.00401274  1
  Ta  Ta98  1  0.09260142  0.69616079  0.36408133  1
  Ta  Ta99  1  0.19870956  0.79966354  0.50459121  1
  Ta  Ta100  1  0.60013627  0.19764147  0.76369664  1
  Ta  Ta101  1  -0.00364949  0.39554389  0.22120880  1
  Ta  Ta102  1  0.09649075  0.69176054  0.87014329  1
  Ta  Ta103  1  0.90895860  0.29083665  0.89098217  1
  Ta  Ta104  1  0.60476734  0.20115028  0.48227591  1
  Ta  Ta105  1  0.88653065  0.68278213  0.63714578  1
  Ta  Ta106  1  0.30151908  0.30185614  0.62674575  1
  Ta  Ta107  1  0.29703607  0.50380311  0.64674500  1
  Ta  Ta108  1  0.20975329  0.59265250  -0.01312529  1
  Ta  Ta109  1  0.70368972  0.70044801  0.88011907  1
  Ta  Ta110  1  0.10882720  0.49328892  0.10986688  1
  Ta  Ta111  1  0.30174633  0.90648662  0.13542785  1
  Ta  Ta112  1  0.50205024  0.09957624  0.60934113  1
  Ta  Ta113  1  0.70534548  0.09999344  0.36683659  1
  Ta  Ta114  1  0.39644838  0.41307138  0.52371367  1
  Ta  Ta115  1  0.29976654  0.69987188  0.62591621  1
  Ta  Ta116  1  0.70383740  0.69800411  0.38188132  1
  Ta  Ta117  1  0.90655428  0.49788806  0.88521025  1
  Ta  Ta118  1  0.69143468  0.49316248  0.10654985  1
  Ta  Ta119  1  0.79893788  0.39842357  -0.00748395  1
  Ti  Ti120  1  0.20217698  0.39853486  0.74968290  1
  Ti  Ti121  1  0.69142037  0.29312446  0.89197324  1
  Ti  Ti122  1  0.30222329  0.90646674  0.61044520  1
  Ti  Ti123  1  -0.00068320  0.79402969  0.02082081  1
  Ti  Ti124  1  0.61583466  0.01320613  0.00769807  1
  Ti  Ti125  1  0.70303040  0.50912523  0.38314835  1
  Ti  Ti126  1  0.90270811  0.29686786  0.10600054  1
  Ti  Ti127  1  0.90422191  0.09236526  0.87961506  1
  Ti  Ti128  1  0.08282784  0.31264014  0.36883029  1
  Ti  Ti129  1  0.59371648  0.40866388  -0.01716521  1
  Ti  Ti130  1  0.59433010  0.59723075  -0.01606361  1
  Ti  Ti131  1  0.79865277  0.79039701  0.50138100  1
  Ti  Ti132  1  0.60029790  0.00200353  0.23920674  1
  Ti  Ti133  1  -0.01583953  -0.00013858  0.02657461  1
  Ti  Ti134  1  -0.00026508  0.18790766  0.00565813  1
  Ti  Ti135  1  0.10111021  0.90190067  0.13948897  1
  Ti  Ti136  1  0.79820320  0.59498908  0.76862593  1
  Ti  Ti137  1  0.71545789  0.51370872  0.62479699  1
  Ti  Ti138  1  0.49965529  0.50834562  0.11363763  1
  Ti  Ti139  1  0.39869328  0.59862365  0.75154666  1
  Ti  Ti140  1  0.40121591  0.19915725  0.50292403  1
  Ti  Ti141  1  0.79395453  0.80070757  0.75901993  1
  Ti  Ti142  1  0.31570962  0.09222141  0.37852432  1
  Ti  Ti143  1  0.09905961  0.29261114  0.88675878  1
  Ti  Ti144  1  0.61330198  0.59980584  0.75302458  1
  Ti  Ti145  1  0.20857846  0.59344522  0.25752136  1
  Ti  Ti146  1  -0.01131622  0.79625651  0.23202655  1
  Ti  Ti147  1  0.80787525  0.20221867  0.47920234  1
  Ti  Ti148  1  0.50254672  0.10456503  0.12185808  1
  Ti  Ti149  1  0.80272332  0.20114099  0.23545438  1
  Ti  Ti150  1  0.21297713  -0.00291832  0.26459280  1
  Ti  Ti151  1  0.80183517  0.00771868  0.48809536  1
  Ti  Ti152  1  0.08886226  0.09370339  0.35762886  1
  Ti  Ti153  1  0.60595005  0.40790061  0.50618640  1
  Ti  Ti154  1  0.80672242  0.39682350  0.22451748  1
  Ti  Ti155  1  -0.00794881  0.20890819  0.24562960  1
  Ti  Ti156  1  0.32949371  0.90190324  0.38385546  1
  Ti  Ti157  1  0.50217921  0.50502754  0.63370139  1
  Ti  Ti158  1  0.50137572  0.10612354  0.88673790  1
  Ti  Ti159  1  0.50109621  0.31187525  0.38992973  1
  Mo  Mo160  1  0.49404904  0.68926948  0.11111459  1
  Mo  Mo161  1  0.69607272  0.90058198  0.11677459  1
  Mo  Mo162  1  0.60511247  0.00423148  0.50461744  1
  Mo  Mo163  1  -0.00462619  -0.00316220  0.24174528  1
  Mo  Mo164  1  0.90012293  0.10580284  0.13249626  1
  Mo  Mo165  1  0.19876152  0.19387398  -0.01045364  1
  Mo  Mo166  1  0.90369749  0.30094783  0.35438515  1
  Mo  Mo167  1  0.59257022  0.19950525  -0.00937046  1
  Mo  Mo168  1  0.30228971  0.50328334  0.85790375  1
  Mo  Mo169  1  0.89809077  0.50032249  0.65065463  1
  Mo  Mo170  1  0.30785845  0.50244905  0.36902545  1
  Mo  Mo171  1  0.40221316  0.40259339  0.74485405  1
  Mo  Mo172  1  0.69778490  0.50409293  0.88915694  1
  Mo  Mo173  1  0.20030028  -0.00131951  0.73275318  1
  Mo  Mo174  1  0.89802902  0.69740676  0.10996965  1
  Mo  Mo175  1  0.10120734  0.69369181  0.63738477  1
  Mo  Mo176  1  0.89916578  0.48952798  0.10266541  1
  Mo  Mo177  1  0.20587420  0.40046232  -0.00756454  1
  Mo  Mo178  1  0.29585010  0.09738082  0.88504264  1
  Mo  Mo179  1  0.29864811  0.91001542  0.87674868  1
  Mo  Mo180  1  0.70241339  0.90007596  0.89684010  1
  Mo  Mo181  1  0.90406816  0.89585021  0.12071511  1
  Mo  Mo182  1  0.19555956  0.60461544  0.75139305  1
  Mo  Mo183  1  0.79747266  -0.00430035  0.00367122  1
  Mo  Mo184  1  0.10291273  0.90123189  0.60540872  1
  Mo  Mo185  1  -0.00548851  0.59544604  0.75436671  1
  Mo  Mo186  1  0.00014619  0.39489884  -0.00021464  1
  Mo  Mo187  1  0.49548716  0.90212175  0.37538161  1
  Mo  Mo188  1  0.39749300  0.80477784  0.51822528  1
  Mo  Mo189  1  0.49773140  0.90947877  0.61757545  1
  Mo  Mo190  1  0.40304449  -0.00082935  0.24422037  1
  Mo  Mo191  1  0.30182513  0.10628226  0.60314534  1
  Mo  Mo192  1  0.79747970  0.60409989  0.50396469  1
  Mo  Mo193  1  0.68872376  0.10128931  0.13181040  1
  Mo  Mo194  1  0.00087572  0.19289228  0.76850989  1
  Mo  Mo195  1  0.40682617  0.41068893  0.25565223  1
  Mo  Mo196  1  0.40176480  0.00000979  0.51400978  1
  Mo  Mo197  1  0.40155228  0.59629454  0.53182344  1
  Mo  Mo198  1  0.30062172  0.30791210  0.11092218  1
  Mo  Mo199  1  0.68857150  0.09805626  0.88615830  1
