# generated using pymatgen
data_HfZrTaTiMo
_symmetry_space_group_name_H-M   'P 1'
_cell_length_a   15.92066782
_cell_length_b   15.92906322
_cell_length_c   15.21388524
_cell_angle_alpha   89.89036526
_cell_angle_beta   90.02310757
_cell_angle_gamma   90.02741220
_symmetry_Int_Tables_number   1
_chemical_formula_structural   HfZrTaTiMo
_chemical_formula_sum   'Hf40 Zr40 Ta40 Ti40 Mo40'
_cell_volume   3858.25362572
_cell_formula_units_Z   40
loop_
 _symmetry_equiv_pos_site_id
 _symmetry_equiv_pos_as_xyz
  1  'x, y, z'
loop_
 _atom_site_type_symbol
 _atom_site_label
 _atom_site_symmetry_multiplicity
 _atom_site_fract_x
 _atom_site_fract_y
 _atom_site_fract_z
 _atom_site_occupancy
  Hf  Hf0  1  0.00461469  -0.00220791  0.75691923  1
  Hf  Hf1  1  0.69535450  0.29914752  0.88594388  1
  Hf  Hf2  1  0.40315868  -0.00609448  0.25995338  1
  Hf  Hf3  1  0.69414198  0.70147143  0.38067278  1
  Hf  Hf4  1  0.90132375  0.11997754  0.36235737  1
  Hf  Hf5  1  0.09491309  0.68815916  0.61890185  1
  Hf  Hf6  1  0.08147095  0.30040344  0.36019608  1
  Hf  Hf7  1  0.61406075  0.20266665  0.23605530  1
  Hf  Hf8  1  0.70307884  0.69065686  0.62804889  1
  Hf  Hf9  1  0.00006453  0.20053244  0.76273985  1
  Hf  Hf10  1  0.60192774  0.20065284  0.74648534  1
  Hf  Hf11  1  0.40611913  0.61185593  0.26899432  1
  Hf  Hf12  1  0.78931962  0.79491041  0.22782689  1
  Hf  Hf13  1  0.89924681  0.10755205  0.62608962  1
  Hf  Hf14  1  0.40733078  0.00260038  0.49917926  1
  Hf  Hf15  1  0.71850854  0.07799919  0.12596126  1
  Hf  Hf16  1  0.79894691  0.38803496  0.23238605  1
  Hf  Hf17  1  0.50930311  0.70230780  0.87672947  1
  Hf  Hf18  1  -0.00545431  0.79497592  -0.00201610  1
  Hf  Hf19  1  0.79114890  0.79098527  0.00870348  1
  Hf  Hf20  1  0.11968637  0.90508637  0.61287572  1
  Hf  Hf21  1  0.69012018  0.48588049  0.36256013  1
  Hf  Hf22  1  0.80653477  -0.00333418  0.50497032  1
  Hf  Hf23  1  0.30690639  0.49883158  0.14287932  1
  Hf  Hf24  1  0.10613161  0.50841309  0.13096026  1
  Hf  Hf25  1  0.50117994  0.89219993  0.11884438  1
  Hf  Hf26  1  0.19600407  0.60442438  -0.01858375  1
  Hf  Hf27  1  0.59492567  0.18883002  0.01289472  1
  Hf  Hf28  1  0.88517037  0.91838766  0.11965792  1
  Hf  Hf29  1  0.51106018  0.31203519  0.36204789  1
  Hf  Hf30  1  0.20601548  0.20023561  0.73904252  1
  Hf  Hf31  1  0.40076033  0.80774435  0.74952033  1
  Hf  Hf32  1  0.30150163  0.49766381  0.38127739  1
  Hf  Hf33  1  0.11093120  0.10284563  0.89177928  1
  Hf  Hf34  1  0.39196788  0.59980133  0.75068265  1
  Hf  Hf35  1  0.69329714  0.49635788  0.88071684  1
  Hf  Hf36  1  0.29695715  0.48003771  0.86582339  1
  Hf  Hf37  1  0.28971002  0.89474446  0.40655401  1
  Hf  Hf38  1  0.79979076  0.59218008  0.49051531  1
  Hf  Hf39  1  -0.00098998  0.40649832  0.00420967  1
  Zr  Zr40  1  0.81016527  0.39710213  0.48936554  1
  Zr  Zr41  1  0.70820806  0.09682801  0.36634389  1
  Zr  Zr42  1  0.28685677  0.29089231  0.14012504  1
  Zr  Zr43  1  -0.00761249  0.60779365  -0.00500778  1
  Zr  Zr44  1  0.89604006  0.70565038  0.36943961  1
  Zr  Zr45  1  0.11385990  0.30608946  0.87655903  1
  Zr  Zr46  1  0.39213734  0.79430835  -0.01660089  1
  Zr  Zr47  1  0.09709031  0.71553042  0.39108617  1
  Zr  Zr48  1  0.18486964  0.58960548  0.75572961  1
  Zr  Zr49  1  0.00037193  0.60859246  0.24359148  1
  Zr  Zr50  1  0.40193833  0.39909595  0.00470410  1
  Zr  Zr51  1  0.29794007  0.90009454  0.11448387  1
  Zr  Zr52  1  -0.00069206  0.80177573  0.75824951  1
  Zr  Zr53  1  0.40251315  0.79563794  0.26809327  1
  Zr  Zr54  1  0.00584784  0.00503065  0.49155562  1
  Zr  Zr55  1  0.01108252  0.41838870  0.76290238  1
  Zr  Zr56  1  0.80256104  -0.00270220  0.75751837  1
  Zr  Zr57  1  0.70728588  0.29995401  0.62876221  1
  Zr  Zr58  1  0.40415454  0.20999689  0.49904165  1
  Zr  Zr59  1  0.29814646  0.09543557  0.12463687  1
  Zr  Zr60  1  0.19401342  0.80099771  0.25333295  1
  Zr  Zr61  1  -0.00571011  0.58737991  0.48998439  1
  Zr  Zr62  1  0.19399799  -0.00263809  0.26778330  1
  Zr  Zr63  1  0.10117797  0.91850544  0.10206621  1
  Zr  Zr64  1  0.90051327  0.30411427  0.63485240  1
  Zr  Zr65  1  0.29554235  0.70770404  0.60737247  1
  Zr  Zr66  1  0.60274728  0.20223778  0.50054029  1
  Zr  Zr67  1  0.69966842  0.89689769  0.37461585  1
  Zr  Zr68  1  0.49757028  0.30748867  0.86882587  1
  Zr  Zr69  1  0.49451008  0.30518533  0.14079409  1
  Zr  Zr70  1  0.29502940  0.69593915  0.12373628  1
  Zr  Zr71  1  0.10903400  0.11705280  0.12490473  1
  Zr  Zr72  1  0.49388792  0.09738954  0.86260563  1
  Zr  Zr73  1  0.90210590  0.50757510  0.63809116  1
  Zr  Zr74  1  0.20383268  0.79971896  0.76515841  1
  Zr  Zr75  1  0.59687870  0.59504015  0.75362143  1
  Zr  Zr76  1  0.28816487  0.09112459  0.61069022  1
  Zr  Zr77  1  0.59834183  -0.00815374  0.74805306  1
  Zr  Zr78  1  0.40436368  0.58867697  -0.01279489  1
  Zr  Zr79  1  0.89964245  0.89769776  0.36311547  1
  Ta  Ta80  1  0.50359602  0.50281809  0.15003855  1
  Ta  Ta81  1  0.29741584  0.10656110  0.37993464  1
  Ta  Ta82  1  0.79540135  0.59765564  0.24081213  1
  Ta  Ta83  1  0.70238294  0.49373197  0.63485106  1
  Ta  Ta84  1  0.29613171  0.50448752  0.60670378  1
  Ta  Ta85  1  0.50121199  0.09921052  0.62869702  1
  Ta  Ta86  1  0.80126325  0.19700120  0.77291939  1
  Ta  Ta87  1  0.80798075  0.19233155  -0.00167795  1
  Ta  Ta88  1  0.19426540  0.39671498  0.49727253  1
  Ta  Ta89  1  0.19009122  0.79755185  -0.02013291  1
  Ta  Ta90  1  0.20568634  0.39656535  0.72383727  1
  Ta  Ta91  1  0.60106593  0.59591609  0.00337661  1
  Ta  Ta92  1  0.59730298  0.40518647  0.01701925  1
  Ta  Ta93  1  0.49944604  0.49794691  0.62270455  1
  Ta  Ta94  1  0.70613517  0.10160533  0.62319962  1
  Ta  Ta95  1  0.60175087  0.80062504  0.74211175  1
  Ta  Ta96  1  0.80646783  0.79923228  0.51970009  1
  Ta  Ta97  1  0.49978164  0.69910956  0.61672648  1
  Ta  Ta98  1  0.50979319  0.89297980  0.38674700  1
  Ta  Ta99  1  0.09672847  0.29906071  0.61816661  1
  Ta  Ta100  1  0.00011890  0.20867228  0.00573690  1
  Ta  Ta101  1  0.19357832  0.40082392  0.25594977  1
  Ta  Ta102  1  0.30371621  0.29097249  0.87584823  1
  Ta  Ta103  1  0.79923178  0.80009809  0.74828089  1
  Ta  Ta104  1  0.40252634  0.19308611  0.25732262  1
  Ta  Ta105  1  0.60368796  -0.00826354  0.00470248  1
  Ta  Ta106  1  0.50405771  0.69626263  0.11625880  1
  Ta  Ta107  1  0.00277450  0.80494984  0.22536868  1
  Ta  Ta108  1  0.50298718  0.49669804  0.37284040  1
  Ta  Ta109  1  0.00229855  0.00250941  0.25299012  1
  Ta  Ta110  1  0.30591098  0.10525611  0.87805837  1
  Ta  Ta111  1  0.60169572  0.00030064  0.50828213  1
  Ta  Ta112  1  0.20252461  -0.00335371  0.76372207  1
  Ta  Ta113  1  0.70105684  0.89823590  0.62336301  1
  Ta  Ta114  1  0.59898745  0.59094825  0.50168194  1
  Ta  Ta115  1  0.50965171  0.09597059  0.36654092  1
  Ta  Ta116  1  0.80140200  0.40208896  0.76944254  1
  Ta  Ta117  1  0.39679163  0.39406279  0.72912352  1
  Ta  Ta118  1  0.40141050  0.19589582  0.01097563  1
  Ta  Ta119  1  0.19935844  0.39876870  0.01309915  1
  Ti  Ti120  1  0.70167576  0.09152478  0.88429709  1
  Ti  Ti121  1  0.60107843  0.79744799  0.51162624  1
  Ti  Ti122  1  0.39111505  -0.00405770  0.73822921  1
  Ti  Ti123  1  0.41004457  0.60121014  0.49496097  1
  Ti  Ti124  1  -0.00953041  0.80979223  0.51618802  1
  Ti  Ti125  1  0.59749585  0.39904416  0.51205298  1
  Ti  Ti126  1  0.40243596  0.39663511  0.50793557  1
  Ti  Ti127  1  0.19152532  0.20577059  0.49378514  1
  Ti  Ti128  1  -0.01293283  0.01026675  -0.01370348  1
  Ti  Ti129  1  0.69554947  0.50166104  0.12680067  1
  Ti  Ti130  1  0.70000790  0.70184630  0.87598131  1
  Ti  Ti131  1  0.89807112  0.30326845  0.88449400  1
  Ti  Ti132  1  0.90877849  0.10068105  0.12715686  1
  Ti  Ti133  1  -0.00848995  0.21090034  0.49970427  1
  Ti  Ti134  1  0.41226434  0.01011307  0.00491942  1
  Ti  Ti135  1  0.81086374  0.20792710  0.22483436  1
  Ti  Ti136  1  0.29635828  0.69972030  0.39945333  1
  Ti  Ti137  1  0.30371303  0.91452582  0.88509022  1
  Ti  Ti138  1  0.09883351  0.49804514  0.37022448  1
  Ti  Ti139  1  0.39587914  0.20632224  0.72918515  1
  Ti  Ti140  1  0.80596653  0.59943209  0.76807894  1
  Ti  Ti141  1  0.29799683  0.30056237  0.36994905  1
  Ti  Ti142  1  0.90839783  0.48188458  0.35021778  1
  Ti  Ti143  1  0.19917732  0.60875644  0.26382758  1
  Ti  Ti144  1  0.71647564  0.29039207  0.37670206  1
  Ti  Ti145  1  0.79953776  0.60169347  0.00638677  1
  Ti  Ti146  1  0.69309521  0.89056041  0.88184363  1
  Ti  Ti147  1  0.50513057  0.90062432  0.88140389  1
  Ti  Ti148  1  0.60116824  0.60829279  0.25195942  1
  Ti  Ti149  1  -0.00586491  0.60443800  0.78109782  1
  Ti  Ti150  1  0.89956531  0.69762952  0.63545641  1
  Ti  Ti151  1  0.59505269  0.79231734  0.24521490  1
  Ti  Ti152  1  0.89045751  0.90011096  0.88386277  1
  Ti  Ti153  1  0.60144425  -0.00996741  0.24078935  1
  Ti  Ti154  1  0.00052305  0.39981705  0.49895686  1
  Ti  Ti155  1  0.09770450  0.11183348  0.36755207  1
  Ti  Ti156  1  0.89674150  0.50243105  0.12663619  1
  Ti  Ti157  1  0.09845657  0.10416615  0.62014182  1
  Ti  Ti158  1  0.79900124  0.39963991  0.00674129  1
  Ti  Ti159  1  0.49706266  0.89574515  0.61541610  1
  Mo  Mo160  1  0.60821958  0.40338905  0.23688919  1
  Mo  Mo161  1  0.70420008  0.29672930  0.10255680  1
  Mo  Mo162  1  0.49996264  0.30266869  0.63010932  1
  Mo  Mo163  1  0.90024613  0.29819367  0.10690139  1
  Mo  Mo164  1  0.19919986  0.59380739  0.48902660  1
  Mo  Mo165  1  0.19421031  0.01214362  0.48684904  1
  Mo  Mo166  1  0.90299729  0.10500475  0.88100640  1
  Mo  Mo167  1  0.79701934  -0.00300644  -0.01861446  1
  Mo  Mo168  1  0.50186578  0.49344589  0.85757276  1
  Mo  Mo169  1  0.88468154  0.70288056  0.86952158  1
  Mo  Mo170  1  0.88846067  0.50069542  0.88513933  1
  Mo  Mo171  1  -0.00392835  0.40141001  0.23060827  1
  Mo  Mo172  1  0.40795059  0.79889731  0.50358349  1
  Mo  Mo173  1  0.20057450  0.20354736  0.27231178  1
  Mo  Mo174  1  0.68996952  0.89402552  0.12317795  1
  Mo  Mo175  1  0.09025341  0.90243471  0.38400613  1
  Mo  Mo176  1  0.59812357  0.40100436  0.74018820  1
  Mo  Mo177  1  0.80610234  0.00094073  0.25407310  1
  Mo  Mo178  1  0.30460094  0.90604908  0.62235909  1
  Mo  Mo179  1  0.10164725  0.49629328  0.88881572  1
  Mo  Mo180  1  0.20921693  0.20828346  -0.00593239  1
  Mo  Mo181  1  0.89535944  0.69570264  0.13144459  1
  Mo  Mo182  1  0.30019394  0.69997363  0.86869425  1
  Mo  Mo183  1  0.89870523  0.30087936  0.36744559  1
  Mo  Mo184  1  0.19287904  0.79989431  0.50544343  1
  Mo  Mo185  1  0.10353615  0.49306173  0.60512621  1
  Mo  Mo186  1  0.10347390  0.70822497  0.12448390  1
  Mo  Mo187  1  0.68874271  0.68697069  0.12374160  1
  Mo  Mo188  1  0.60085668  0.79598817  -0.00156099  1
  Mo  Mo189  1  0.50897685  0.69951546  0.39616767  1
  Mo  Mo190  1  0.09256900  0.70308107  0.86773378  1
  Mo  Mo191  1  0.90191740  0.89677603  0.63131050  1
  Mo  Mo192  1  0.20961380  0.00190691  -0.01555742  1
  Mo  Mo193  1  0.09703117  0.30588739  0.13501813  1
  Mo  Mo194  1  0.50198064  0.09357372  0.14093628  1
  Mo  Mo195  1  0.09847689  0.90730486  0.88547973  1
  Mo  Mo196  1  0.29607142  0.30261855  0.60609115  1
  Mo  Mo197  1  -0.00236148  0.20535368  0.22705694  1
  Mo  Mo198  1  0.80501301  0.19886881  0.49878486  1
  Mo  Mo199  1  0.39757987  0.40181470  0.26467903  1
