# generated using pymatgen
data_HfZrTaTiMo
_symmetry_space_group_name_H-M   'P 1'
_cell_length_a   15.93400826
_cell_length_b   15.92196477
_cell_length_c   15.18890414
_cell_angle_alpha   89.94040191
_cell_angle_beta   89.91074345
_cell_angle_gamma   89.99773637
_symmetry_Int_Tables_number   1
_chemical_formula_structural   HfZrTaTiMo
_chemical_formula_sum   'Hf40 Zr40 Ta40 Ti40 Mo40'
_cell_volume   3853.42912447
_cell_formula_units_Z   40
loop_
 _symmetry_equiv_pos_site_id
 _symmetry_equiv_pos_as_xyz
  1  'x, y, z'
loop_
 _atom_site_type_symbol
 _atom_site_label
 _atom_site_symmetry_multiplicity
 _atom_site_fract_x
 _atom_site_fract_y
 _atom_site_fract_z
 _atom_site_occupancy
  Hf  Hf0  1  0.20862600  0.80054107  0.48491086  1
  Hf  Hf1  1  0.29954691  0.89697937  0.62002300  1
  Hf  Hf2  1  0.91155295  0.31151820  0.36580095  1
  Hf  Hf3  1  0.69933729  0.30485275  0.87776713  1
  Hf  Hf4  1  0.70548152  0.69153379  0.63207124  1
  Hf  Hf5  1  0.70406224  0.30156614  0.12328501  1
  Hf  Hf6  1  0.20414470  0.19073634  0.74932065  1
  Hf  Hf7  1  0.89429488  0.29712609  0.12748877  1
  Hf  Hf8  1  0.40742571  0.20347540  0.50581598  1
  Hf  Hf9  1  0.71286464  0.29832970  0.35250235  1
  Hf  Hf10  1  0.02031529  0.21329899  0.24330833  1
  Hf  Hf11  1  0.38737069  0.40027106  0.00395651  1
  Hf  Hf12  1  0.89220469  0.70338795  0.62540244  1
  Hf  Hf13  1  0.59618864  -0.00974675  0.24111132  1
  Hf  Hf14  1  0.60212919  0.19777309  -0.00354171  1
  Hf  Hf15  1  0.29868433  0.50462432  0.61867335  1
  Hf  Hf16  1  -0.01603694  0.59811871  0.48946736  1
  Hf  Hf17  1  0.90035740  0.90688650  0.11080929  1
  Hf  Hf18  1  0.39345671  -0.00055035  0.25719717  1
  Hf  Hf19  1  0.90086697  0.90702039  0.86965075  1
  Hf  Hf20  1  0.69795107  0.09778245  0.38285590  1
  Hf  Hf21  1  0.00650704  0.80271875  0.74446862  1
  Hf  Hf22  1  0.19407322  0.39674273  0.50368248  1
  Hf  Hf23  1  0.29744209  0.09538462  0.11407797  1
  Hf  Hf24  1  0.09889357  0.89935307  0.11329236  1
  Hf  Hf25  1  0.68306345  0.50099776  0.89597972  1
  Hf  Hf26  1  0.39736335  0.59962056  0.75822833  1
  Hf  Hf27  1  0.50088741  0.69488250  0.61127919  1
  Hf  Hf28  1  0.71450819  0.09148603  0.10877048  1
  Hf  Hf29  1  0.50282081  0.69847828  0.89031786  1
  Hf  Hf30  1  0.51363364  0.30145398  0.35864343  1
  Hf  Hf31  1  0.68665900  0.31457453  0.64311556  1
  Hf  Hf32  1  0.09231987  0.29991688  0.63680106  1
  Hf  Hf33  1  0.40815059  0.00282774  0.73782246  1
  Hf  Hf34  1  0.09512512  0.10150531  0.40133869  1
  Hf  Hf35  1  0.89504380  0.30291259  0.64229810  1
  Hf  Hf36  1  0.09608084  0.50699856  0.87850553  1
  Hf  Hf37  1  0.79517637  0.41282474  0.49618449  1
  Hf  Hf38  1  0.50424103  0.50030917  0.12435863  1
  Hf  Hf39  1  0.49551380  0.08913489  0.10610411  1
  Zr  Zr40  1  0.10172136  0.50069091  0.13320144  1
  Zr  Zr41  1  0.09598708  0.70231421  0.36978357  1
  Zr  Zr42  1  0.70993256  0.89355314  0.63294959  1
  Zr  Zr43  1  0.89948097  0.11303040  0.38324688  1
  Zr  Zr44  1  0.49678042  0.90143572  0.38895083  1
  Zr  Zr45  1  0.39737948  0.80506081  0.24014063  1
  Zr  Zr46  1  0.70137406  0.89343524  0.36746256  1
  Zr  Zr47  1  0.50540407  0.30652718  0.86967357  1
  Zr  Zr48  1  0.61138979  0.79419792  0.01053241  1
  Zr  Zr49  1  0.59739897  0.18694044  0.75314935  1
  Zr  Zr50  1  0.50756494  0.90232043  0.88639215  1
  Zr  Zr51  1  0.30310094  0.69555321  0.61286658  1
  Zr  Zr52  1  0.79608122  0.20869455  0.51377564  1
  Zr  Zr53  1  0.28652418  0.49612768  0.35442584  1
  Zr  Zr54  1  0.60092030  0.18526297  0.24061480  1
  Zr  Zr55  1  0.30792219  0.89548042  0.87653736  1
  Zr  Zr56  1  0.89438927  0.71069835  0.13176617  1
  Zr  Zr57  1  0.89895595  0.10010993  0.11026904  1
  Zr  Zr58  1  0.28930959  0.29402577  0.13658605  1
  Zr  Zr59  1  0.10891052  0.09658223  0.11453982  1
  Zr  Zr60  1  0.08332400  0.48444891  0.36597702  1
  Zr  Zr61  1  0.09877195  0.70059572  0.12999553  1
  Zr  Zr62  1  0.20920297  0.19716056  0.51602991  1
  Zr  Zr63  1  0.30715830  0.30410474  0.85614745  1
  Zr  Zr64  1  0.50639600  0.49528688  0.61772299  1
  Zr  Zr65  1  0.61275674  0.79490999  0.50528819  1
  Zr  Zr66  1  0.40688553  0.40160766  0.48727809  1
  Zr  Zr67  1  -0.00014391  0.40003580  0.00078354  1
  Zr  Zr68  1  0.28943223  0.49785641  0.14129841  1
  Zr  Zr69  1  0.19529533  -0.00515991  0.75068534  1
  Zr  Zr70  1  0.80159428  0.60327480  0.77936749  1
  Zr  Zr71  1  0.49668400  0.50151435  0.89564614  1
  Zr  Zr72  1  0.50539618  0.70868209  0.37277014  1
  Zr  Zr73  1  0.00844714  0.00335368  0.25209273  1
  Zr  Zr74  1  0.90266397  0.90946118  0.38593485  1
  Zr  Zr75  1  0.00768624  0.19876966  -0.01356861  1
  Zr  Zr76  1  0.79175632  0.80094111  -0.01678259  1
  Zr  Zr77  1  0.21043856  0.79272507  0.00434591  1
  Zr  Zr78  1  -0.00182904  0.60398338  0.75475022  1
  Zr  Zr79  1  0.29686178  0.29351208  0.36569013  1
  Ta  Ta80  1  0.19869524  0.79235973  0.75083450  1
  Ta  Ta81  1  -0.00195459  0.80067705  0.50298401  1
  Ta  Ta82  1  0.09665743  0.30059342  0.85619066  1
  Ta  Ta83  1  0.79587587  0.19406264  0.75795808  1
  Ta  Ta84  1  -0.01082096  0.60256882  0.25295248  1
  Ta  Ta85  1  0.89721351  0.29950096  0.86870549  1
  Ta  Ta86  1  0.59711550  0.59919748  0.75504777  1
  Ta  Ta87  1  0.09352582  0.89767608  0.88339610  1
  Ta  Ta88  1  0.19783412  0.60517925  0.75506435  1
  Ta  Ta89  1  0.10059473  0.70494488  0.88687029  1
  Ta  Ta90  1  0.19618662  0.59703784  0.48532560  1
  Ta  Ta91  1  0.78896803  0.60851676  0.00448284  1
  Ta  Ta92  1  0.49853797  0.09022807  0.88806137  1
  Ta  Ta93  1  0.80025365  0.41361409  0.76560135  1
  Ta  Ta94  1  0.40884272  0.79935926  0.74135751  1
  Ta  Ta95  1  0.20530180  0.81341820  0.26144158  1
  Ta  Ta96  1  0.09449742  0.50697426  0.62506728  1
  Ta  Ta97  1  0.19752807  0.39601851  -0.01405030  1
  Ta  Ta98  1  0.70137960  0.50627655  0.63006645  1
  Ta  Ta99  1  0.50855319  0.09921096  0.61461096  1
  Ta  Ta100  1  0.49729825  0.29861692  0.12690990  1
  Ta  Ta101  1  0.20227009  0.20531090  -0.02169673  1
  Ta  Ta102  1  0.31067780  0.30712280  0.63748903  1
  Ta  Ta103  1  0.39847143  0.00081943  0.51021131  1
  Ta  Ta104  1  -0.00879572  0.41220774  0.75675976  1
  Ta  Ta105  1  0.60975414  0.58887292  0.47650518  1
  Ta  Ta106  1  0.90348615  0.09868814  0.63687676  1
  Ta  Ta107  1  0.19942987  0.41357731  0.75102972  1
  Ta  Ta108  1  0.90437400  0.09716614  0.86686365  1
  Ta  Ta109  1  0.90127146  0.90320894  0.62803920  1
  Ta  Ta110  1  0.31074125  0.09746990  0.87901943  1
  Ta  Ta111  1  0.40294097  0.60255189  0.25691830  1
  Ta  Ta112  1  0.10326007  0.69750788  0.61256064  1
  Ta  Ta113  1  0.09032197  0.09572548  0.62494180  1
  Ta  Ta114  1  0.39772711  0.20248991  -0.00205190  1
  Ta  Ta115  1  0.40130355  0.18919277  0.25322077  1
  Ta  Ta116  1  0.69690896  0.49273921  0.34713701  1
  Ta  Ta117  1  0.89004402  0.50486655  0.62568378  1
  Ta  Ta118  1  0.89158034  0.50481668  0.12844734  1
  Ta  Ta119  1  0.60142041  0.60568664  0.24799553  1
  Ti  Ti120  1  0.16418920  0.36301209  0.25467842  1
  Ti  Ti121  1  0.90772386  0.70764679  0.88295520  1
  Ti  Ti122  1  0.40622944  0.19342058  0.73848861  1
  Ti  Ti123  1  0.09814524  0.90166886  0.61400721  1
  Ti  Ti124  1  0.38879710  0.60588743  0.01069168  1
  Ti  Ti125  1  0.60036363  0.79682045  0.75216657  1
  Ti  Ti126  1  0.49961850  0.89947292  0.11180002  1
  Ti  Ti127  1  0.71144684  0.89459757  0.13419806  1
  Ti  Ti128  1  0.40773771  0.40826980  0.74741094  1
  Ti  Ti129  1  0.10119101  0.91104957  0.39288794  1
  Ti  Ti130  1  0.29187420  0.69150774  0.14431182  1
  Ti  Ti131  1  0.80214562  0.40537185  -0.00240418  1
  Ti  Ti132  1  0.80666333  0.78815553  0.48217731  1
  Ti  Ti133  1  0.39580863  0.79365503  0.01452565  1
  Ti  Ti134  1  -0.00506135  0.80896931  0.26251782  1
  Ti  Ti135  1  0.79235795  0.60287656  0.47521649  1
  Ti  Ti136  1  0.40790206  0.39952361  0.25085452  1
  Ti  Ti137  1  0.30212588  0.69945311  0.87336350  1
  Ti  Ti138  1  0.59974586  0.21023597  0.50836553  1
  Ti  Ti139  1  0.29691611  0.90845917  0.11676404  1
  Ti  Ti140  1  0.20356758  -0.00620552  0.26446510  1
  Ti  Ti141  1  0.29941386  0.08854737  0.39039516  1
  Ti  Ti142  1  0.50464493  0.69790843  0.12659779  1
  Ti  Ti143  1  0.70075982  0.08256804  0.88502577  1
  Ti  Ti144  1  0.70188027  0.09919445  0.62565880  1
  Ti  Ti145  1  -0.00725806  0.39965620  0.51228250  1
  Ti  Ti146  1  0.39832895  0.59938692  0.47105220  1
  Ti  Ti147  1  0.60385745  0.40108157  0.49076777  1
  Ti  Ti148  1  0.50401829  0.09860968  0.38771708  1
  Ti  Ti149  1  0.19688498  0.00532302  -0.01990644  1
  Ti  Ti150  1  0.79478233  0.00032131  0.75294959  1
  Ti  Ti151  1  0.60222166  -0.00381459  0.51228635  1
  Ti  Ti152  1  0.70124120  0.50251272  0.12922764  1
  Ti  Ti153  1  0.20215605  0.18161947  0.26296002  1
  Ti  Ti154  1  0.80378177  0.00452710  0.25283869  1
  Ti  Ti155  1  -0.00980568  0.60389762  0.00369953  1
  Ti  Ti156  1  0.21031727  0.59331088  -0.00911720  1
  Ti  Ti157  1  0.80067624  0.00052815  0.50987205  1
  Ti  Ti158  1  0.88702726  0.49834683  0.34990009  1
  Ti  Ti159  1  0.59895203  -0.00595192  0.74365537  1
  Mo  Mo160  1  0.60640956  0.60541778  0.02493436  1
  Mo  Mo161  1  0.19963155  0.61537583  0.26496612  1
  Mo  Mo162  1  0.80678625  0.19195387  0.25698653  1
  Mo  Mo163  1  0.69860350  0.90180243  0.85313853  1
  Mo  Mo164  1  0.39501877  -0.00495992  0.00258230  1
  Mo  Mo165  1  0.89507450  0.50283408  0.90152002  1
  Mo  Mo166  1  0.59979040  0.39756775  0.02337853  1
  Mo  Mo167  1  0.59974562  0.41412461  0.74752869  1
  Mo  Mo168  1  0.10169183  0.09502825  0.86901568  1
  Mo  Mo169  1  0.70539112  0.69564133  0.35819146  1
  Mo  Mo170  1  0.79664283  0.60233286  0.24762994  1
  Mo  Mo171  1  0.00441256  -0.00012288  -0.01363007  1
  Mo  Mo172  1  0.00088536  0.79708387  -0.00780443  1
  Mo  Mo173  1  0.10703718  0.29683504  0.10504508  1
  Mo  Mo174  1  0.60792615  -0.01041831  0.00561203  1
  Mo  Mo175  1  0.80413411  0.80470549  0.25823050  1
  Mo  Mo176  1  0.50498871  0.50047172  0.36064783  1
  Mo  Mo177  1  0.60194283  0.80079485  0.23127385  1
  Mo  Mo178  1  0.00121142  -0.00167083  0.74188080  1
  Mo  Mo179  1  0.30407574  0.70077879  0.37068874  1
  Mo  Mo180  1  0.80223379  0.40316976  0.23856426  1
  Mo  Mo181  1  0.80191403  0.19918671  -0.02843892  1
  Mo  Mo182  1  0.59926773  0.40176246  0.23713558  1
  Mo  Mo183  1  0.89685881  0.70533725  0.36611341  1
  Mo  Mo184  1  0.69126441  0.70043198  0.86295529  1
  Mo  Mo185  1  -0.00366192  0.40341323  0.23253975  1
  Mo  Mo186  1  0.79863121  -0.00230282  -0.01764446  1
  Mo  Mo187  1  0.70317319  0.70209958  0.14638407  1
  Mo  Mo188  1  0.29919046  0.90518877  0.38698603  1
  Mo  Mo189  1  0.08904775  0.29164069  0.39959886  1
  Mo  Mo190  1  0.30504992  0.10053426  0.62373429  1
  Mo  Mo191  1  0.29564981  0.50681008  0.87390058  1
  Mo  Mo192  1  0.50321919  0.89766763  0.62362583  1
  Mo  Mo193  1  -0.00389409  -0.00124720  0.52032755  1
  Mo  Mo194  1  0.80094425  0.80027688  0.76281606  1
  Mo  Mo195  1  0.40519099  0.80131631  0.51069096  1
  Mo  Mo196  1  0.19942397  -0.00128182  0.50740075  1
  Mo  Mo197  1  -0.00212874  0.19791376  0.75524942  1
  Mo  Mo198  1  0.49929801  0.30035715  0.63468961  1
  Mo  Mo199  1  -0.00234814  0.20792059  0.51795784  1
