# generated using pymatgen
data_HfZrTaTiMo
_symmetry_space_group_name_H-M   'P 1'
_cell_length_a   15.91875257
_cell_length_b   15.92111068
_cell_length_c   15.19179532
_cell_angle_alpha   90.00516128
_cell_angle_beta   90.02690191
_cell_angle_gamma   89.95801499
_symmetry_Int_Tables_number   1
_chemical_formula_structural   HfZrTaTiMo
_chemical_formula_sum   'Hf40 Zr40 Ta40 Ti40 Mo40'
_cell_volume   3850.27126505
_cell_formula_units_Z   40
loop_
 _symmetry_equiv_pos_site_id
 _symmetry_equiv_pos_as_xyz
  1  'x, y, z'
loop_
 _atom_site_type_symbol
 _atom_site_label
 _atom_site_symmetry_multiplicity
 _atom_site_fract_x
 _atom_site_fract_y
 _atom_site_fract_z
 _atom_site_occupancy
  Hf  Hf0  1  0.49404838  0.69767505  0.38316587  1
  Hf  Hf1  1  0.80451773  0.80235415  -0.00733793  1
  Hf  Hf2  1  0.59608400  0.59264560  0.24867124  1
  Hf  Hf3  1  0.71042090  0.29951364  0.36823272  1
  Hf  Hf4  1  0.90252884  0.48312088  0.87916087  1
  Hf  Hf5  1  0.59392774  0.59771573  0.51211361  1
  Hf  Hf6  1  0.81153167  0.78741934  0.25672885  1
  Hf  Hf7  1  0.30054226  0.31568930  0.14270074  1
  Hf  Hf8  1  0.61104561  -0.01311706  0.48508936  1
  Hf  Hf9  1  0.30486107  0.10825653  0.38481914  1
  Hf  Hf10  1  0.39300018  0.40321558  -0.01066692  1
  Hf  Hf11  1  0.89281714  0.10685206  0.90849616  1
  Hf  Hf12  1  0.39757192  0.19331834  0.74656536  1
  Hf  Hf13  1  0.00314976  0.79434680  0.75157353  1
  Hf  Hf14  1  0.40177860  0.00027447  0.74792440  1
  Hf  Hf15  1  0.00586305  0.79975006  0.48956563  1
  Hf  Hf16  1  0.39408961  0.39948162  0.75420102  1
  Hf  Hf17  1  0.30281542  0.30341976  0.37782865  1
  Hf  Hf18  1  0.82062732  0.19840463  0.23885267  1
  Hf  Hf19  1  0.08488991  0.30649595  0.62646710  1
  Hf  Hf20  1  0.80667351  0.00149008  0.76531625  1
  Hf  Hf21  1  0.60538063  0.19364212  0.48936835  1
  Hf  Hf22  1  0.71261776  0.30000898  0.89456213  1
  Hf  Hf23  1  0.90122660  0.48666076  0.61946892  1
  Hf  Hf24  1  0.49052354  0.50585380  0.10950712  1
  Hf  Hf25  1  0.08132868  0.31058531  0.86940460  1
  Hf  Hf26  1  0.29759399  0.69892408  0.10892787  1
  Hf  Hf27  1  0.70674567  0.69659670  0.11916844  1
  Hf  Hf28  1  0.70728233  0.90180655  0.63174218  1
  Hf  Hf29  1  0.30188216  0.50391670  0.37710015  1
  Hf  Hf30  1  -0.00311213  -0.01006728  0.00940450  1
  Hf  Hf31  1  0.70468842  0.49368882  0.11539996  1
  Hf  Hf32  1  0.08516667  0.69744207  0.12819919  1
  Hf  Hf33  1  0.50223626  0.30112360  0.62924316  1
  Hf  Hf34  1  0.39857302  -0.00038554  0.24920179  1
  Hf  Hf35  1  -0.00704051  0.41142483  0.25936817  1
  Hf  Hf36  1  0.39975915  0.60812267  0.74649649  1
  Hf  Hf37  1  0.39166063  0.19888171  0.00313210  1
  Hf  Hf38  1  0.60428481  0.79496532  0.24631090  1
  Hf  Hf39  1  0.79698974  0.59025149  0.74697074  1
  Zr  Zr40  1  0.91931052  0.67858790  0.87846602  1
  Zr  Zr41  1  0.28506078  0.30017062  0.86698186  1
  Zr  Zr42  1  0.90727811  0.51618085  0.11820992  1
  Zr  Zr43  1  0.19477045  0.60897635  0.50087369  1
  Zr  Zr44  1  0.59986974  0.20281620  0.01037975  1
  Zr  Zr45  1  0.40335971  0.81070336  -0.02194943  1
  Zr  Zr46  1  0.39512924  0.60567388  0.25214077  1
  Zr  Zr47  1  0.00358918  0.40031669  0.47664356  1
  Zr  Zr48  1  0.49084060  0.29707089  0.36858554  1
  Zr  Zr49  1  0.51319441  0.09833883  0.62174509  1
  Zr  Zr50  1  0.60157830  -0.01357583  -0.00057142  1
  Zr  Zr51  1  0.70252856  0.29556257  0.61623726  1
  Zr  Zr52  1  0.10192535  0.90963718  0.86530574  1
  Zr  Zr53  1  0.50344748  0.50732664  0.87198604  1
  Zr  Zr54  1  0.59486588  0.40580582  0.48958795  1
  Zr  Zr55  1  0.79555814  0.19399547  0.75597830  1
  Zr  Zr56  1  0.40075437  -0.00864414  0.51388831  1
  Zr  Zr57  1  0.89351972  0.69783228  0.61397183  1
  Zr  Zr58  1  0.19716450  0.19270875  0.73150071  1
  Zr  Zr59  1  0.89797825  0.09384425  0.60079191  1
  Zr  Zr60  1  0.80757966  0.80047088  0.76270215  1
  Zr  Zr61  1  -0.01577419  0.19577096  0.75184356  1
  Zr  Zr62  1  0.09178771  0.10033491  0.14576791  1
  Zr  Zr63  1  0.10061526  0.89053618  0.14369364  1
  Zr  Zr64  1  0.40177310  0.79914440  0.51330759  1
  Zr  Zr65  1  0.88999057  0.28966237  0.59444402  1
  Zr  Zr66  1  0.50031233  0.09972062  0.37138882  1
  Zr  Zr67  1  0.19877302  -0.00096699  0.50207932  1
  Zr  Zr68  1  0.49391704  0.09090610  0.11830795  1
  Zr  Zr69  1  0.30289505  0.89856259  0.12393648  1
  Zr  Zr70  1  0.19333624  0.20781857  0.01706105  1
  Zr  Zr71  1  0.09776042  0.10832718  0.88115860  1
  Zr  Zr72  1  0.08882765  0.51207254  0.85920961  1
  Zr  Zr73  1  0.20106839  0.80521520  0.50219780  1
  Zr  Zr74  1  0.70709634  0.68802661  0.38689006  1
  Zr  Zr75  1  0.40119647  0.80034390  0.75255259  1
  Zr  Zr76  1  0.19183130  0.41016887  0.49626628  1
  Zr  Zr77  1  0.20928116  0.00549070  0.01136352  1
  Zr  Zr78  1  0.09242247  0.91054277  0.63481453  1
  Zr  Zr79  1  0.19068767  0.41295200  0.00721308  1
  Ta  Ta80  1  0.29968567  0.30294790  0.61312982  1
  Ta  Ta81  1  0.20562807  0.19998539  0.25256483  1
  Ta  Ta82  1  0.60778750  0.00560961  0.76276567  1
  Ta  Ta83  1  0.40046386  0.59804946  0.51315528  1
  Ta  Ta84  1  0.09803401  0.10476735  0.36775933  1
  Ta  Ta85  1  0.50119903  0.89505026  0.36406634  1
  Ta  Ta86  1  0.68970876  0.70506201  0.63211486  1
  Ta  Ta87  1  0.60827030  -0.00677726  0.24399185  1
  Ta  Ta88  1  0.40036240  0.79568047  0.24900047  1
  Ta  Ta89  1  0.19464672  0.60131235  0.25417974  1
  Ta  Ta90  1  0.19135556  0.20331335  0.50053777  1
  Ta  Ta91  1  0.09787062  0.31029574  0.15094637  1
  Ta  Ta92  1  0.30282394  0.89456680  0.36700529  1
  Ta  Ta93  1  0.80107888  -0.01016757  0.24632104  1
  Ta  Ta94  1  0.60197267  0.60307387  -0.00446831  1
  Ta  Ta95  1  0.29882591  0.50012581  0.62786933  1
  Ta  Ta96  1  0.79593571  0.80520357  0.49123859  1
  Ta  Ta97  1  0.19128307  0.79811457  -0.01632124  1
  Ta  Ta98  1  0.80414472  0.59699789  0.24979040  1
  Ta  Ta99  1  0.00729892  0.59858223  0.49885358  1
  Ta  Ta100  1  0.19318495  0.60943490  0.73711264  1
  Ta  Ta101  1  0.70417170  0.49665829  0.88231909  1
  Ta  Ta102  1  0.80123970  -0.00599962  0.47115349  1
  Ta  Ta103  1  0.90611221  0.88474300  0.13421676  1
  Ta  Ta104  1  0.61115258  0.39799536  0.75989322  1
  Ta  Ta105  1  0.88351864  0.51051388  0.39033955  1
  Ta  Ta106  1  0.49561312  0.70107516  0.10614406  1
  Ta  Ta107  1  0.60471674  0.79816670  -0.00617721  1
  Ta  Ta108  1  0.60048283  0.40006605  0.24492606  1
  Ta  Ta109  1  0.89854966  0.90415884  0.61138814  1
  Ta  Ta110  1  0.60473239  0.19470000  0.76381540  1
  Ta  Ta111  1  0.50172473  0.89133675  0.12681992  1
  Ta  Ta112  1  0.20338693  0.79775528  0.75096668  1
  Ta  Ta113  1  0.50508492  0.50059948  0.64286656  1
  Ta  Ta114  1  0.00101520  -0.00416529  0.47476150  1
  Ta  Ta115  1  0.52036089  0.88993871  0.64252771  1
  Ta  Ta116  1  0.70834745  0.09621297  0.12537478  1
  Ta  Ta117  1  0.60562321  0.20094019  0.23688400  1
  Ta  Ta118  1  0.60011354  0.39865245  0.00116290  1
  Ta  Ta119  1  0.50483517  0.29771699  0.87268668  1
  Ti  Ti120  1  -0.00970624  0.20822737  0.03566596  1
  Ti  Ti121  1  0.20411325  0.00148778  0.25774247  1
  Ti  Ti122  1  0.70964387  0.09731654  0.61500865  1
  Ti  Ti123  1  0.80216080  0.60166104  -0.00713704  1
  Ti  Ti124  1  0.29751173  0.70300082  0.62669441  1
  Ti  Ti125  1  -0.01261981  0.00225883  0.75874987  1
  Ti  Ti126  1  0.29203848  0.69249655  0.88021762  1
  Ti  Ti127  1  -0.01365101  0.61464480  0.26760980  1
  Ti  Ti128  1  0.69419318  0.69111853  0.86626808  1
  Ti  Ti129  1  0.00215635  0.79492966  -0.01109080  1
  Ti  Ti130  1  0.50964640  0.69935484  0.87366647  1
  Ti  Ti131  1  0.79978763  -0.01239713  0.01705659  1
  Ti  Ti132  1  0.89776212  0.30021567  0.90424402  1
  Ti  Ti133  1  0.19259049  0.40751706  0.73796644  1
  Ti  Ti134  1  0.69705631  0.89574617  0.86985000  1
  Ti  Ti135  1  0.40560711  0.40985393  0.50551760  1
  Ti  Ti136  1  0.09901578  0.70356259  0.36538486  1
  Ti  Ti137  1  0.50033105  0.30782214  0.12697549  1
  Ti  Ti138  1  0.49786195  0.09558738  0.88271744  1
  Ti  Ti139  1  0.08557042  0.10397641  0.60896415  1
  Ti  Ti140  1  0.70159176  0.49792651  0.37604746  1
  Ti  Ti141  1  0.39982885  0.19703197  0.23472349  1
  Ti  Ti142  1  0.80422354  0.40204515  0.24792828  1
  Ti  Ti143  1  0.00571523  0.40408418  0.02157364  1
  Ti  Ti144  1  0.70682057  0.09810026  0.35660856  1
  Ti  Ti145  1  0.18728893  0.60081653  0.00010531  1
  Ti  Ti146  1  0.29004634  0.50951240  0.86800774  1
  Ti  Ti147  1  0.29683869  0.90997053  0.87025049  1
  Ti  Ti148  1  0.70297369  0.10055076  0.89851763  1
  Ti  Ti149  1  0.40975997  0.41401906  0.25358837  1
  Ti  Ti150  1  0.80465352  0.38794494  0.75313478  1
  Ti  Ti151  1  0.20916572  0.00839730  0.73336641  1
  Ti  Ti152  1  0.60180072  0.80167892  0.49669155  1
  Ti  Ti153  1  0.70247329  0.49266711  0.62514799  1
  Ti  Ti154  1  0.20670785  0.79179203  0.26148732  1
  Ti  Ti155  1  0.10270945  0.29771212  0.36057317  1
  Ti  Ti156  1  -0.01183562  0.00266294  0.25879196  1
  Ti  Ti157  1  0.90514711  0.89285371  0.36703175  1
  Ti  Ti158  1  0.29786368  0.09732168  0.87898463  1
  Ti  Ti159  1  0.29196459  0.50669705  0.12868320  1
  Mo  Mo160  1  0.29998260  0.90101480  0.64500018  1
  Mo  Mo161  1  0.80059277  0.18839760  0.47130265  1
  Mo  Mo162  1  0.90027494  0.69298475  0.39510031  1
  Mo  Mo163  1  0.00238136  0.20660728  0.25517834  1
  Mo  Mo164  1  0.10333078  0.90455889  0.35622194  1
  Mo  Mo165  1  0.19910905  0.40830587  0.25641160  1
  Mo  Mo166  1  0.50670843  0.70085424  0.62424885  1
  Mo  Mo167  1  0.09539026  0.50221420  0.63619549  1
  Mo  Mo168  1  0.80238670  0.39890323  0.01116711  1
  Mo  Mo169  1  0.39490790  0.20458751  0.51601369  1
  Mo  Mo170  1  0.09804637  0.70235475  0.62927556  1
  Mo  Mo171  1  0.10766294  0.69950260  0.87299147  1
  Mo  Mo172  1  0.89869091  0.30028745  0.37638342  1
  Mo  Mo173  1  0.49898815  0.49829776  0.37490152  1
  Mo  Mo174  1  0.70095186  0.89557518  0.36423803  1
  Mo  Mo175  1  0.29805742  0.70512631  0.37573163  1
  Mo  Mo176  1  0.60466807  0.79884642  0.76464285  1
  Mo  Mo177  1  0.29803196  0.10562397  0.13556352  1
  Mo  Mo178  1  0.51065375  0.90098374  0.86172324  1
  Mo  Mo179  1  0.89944877  0.09023945  0.12712324  1
  Mo  Mo180  1  0.70390800  0.89610145  0.13249718  1
  Mo  Mo181  1  0.60643309  0.59829535  0.74475401  1
  Mo  Mo182  1  -0.01178493  0.39352476  0.74779712  1
  Mo  Mo183  1  0.79166080  0.59557558  0.51868463  1
  Mo  Mo184  1  0.00449847  0.19647245  0.47396839  1
  Mo  Mo185  1  0.10430108  0.50644709  0.14226109  1
  Mo  Mo186  1  0.00127041  0.79773679  0.26714690  1
  Mo  Mo187  1  0.09417700  0.51295401  0.35839577  1
  Mo  Mo188  1  0.70049638  0.30294164  0.13451474  1
  Mo  Mo189  1  0.29855322  0.10601582  0.60889762  1
  Mo  Mo190  1  0.39972188  0.00114828  -0.01808328  1
  Mo  Mo191  1  0.79445278  0.40094227  0.48651198  1
  Mo  Mo192  1  0.90095296  0.90342050  0.88968354  1
  Mo  Mo193  1  0.00251584  0.59668151  0.72532494  1
  Mo  Mo194  1  0.80270937  0.19922922  0.02573941  1
  Mo  Mo195  1  0.90057458  0.31143285  0.12341281  1
  Mo  Mo196  1  0.90191674  0.09691640  0.37020868  1
  Mo  Mo197  1  0.90337865  0.70212292  0.11289057  1
  Mo  Mo198  1  0.39360275  0.60531626  -0.01681289  1
  Mo  Mo199  1  0.00957238  0.59680475  0.00639638  1
