# generated using pymatgen
data_HfZrTaTiMo
_symmetry_space_group_name_H-M   'P 1'
_cell_length_a   15.93077296
_cell_length_b   15.93654364
_cell_length_c   15.19569683
_cell_angle_alpha   90.02706453
_cell_angle_beta   89.95395795
_cell_angle_gamma   90.06067298
_symmetry_Int_Tables_number   1
_chemical_formula_structural   HfZrTaTiMo
_chemical_formula_sum   'Hf40 Zr40 Ta40 Ti40 Mo40'
_cell_volume   3857.90183675
_cell_formula_units_Z   40
loop_
 _symmetry_equiv_pos_site_id
 _symmetry_equiv_pos_as_xyz
  1  'x, y, z'
loop_
 _atom_site_type_symbol
 _atom_site_label
 _atom_site_symmetry_multiplicity
 _atom_site_fract_x
 _atom_site_fract_y
 _atom_site_fract_z
 _atom_site_occupancy
  Hf  Hf0  1  0.80065136  0.79489226  0.74983896  1
  Hf  Hf1  1  0.69905192  0.09119146  0.11401196  1
  Hf  Hf2  1  0.09597713  0.50260423  0.10013108  1
  Hf  Hf3  1  0.49854961  0.89867382  0.13067359  1
  Hf  Hf4  1  0.61160499  -0.00597702  0.27312124  1
  Hf  Hf5  1  0.19464419  0.20212410  0.24123826  1
  Hf  Hf6  1  0.50944205  0.90690433  0.40363868  1
  Hf  Hf7  1  0.50773455  0.49202467  0.12557951  1
  Hf  Hf8  1  0.59709656  0.39785625  0.49711956  1
  Hf  Hf9  1  0.90304138  0.70693282  0.38402801  1
  Hf  Hf10  1  0.10145520  0.49949808  0.62811115  1
  Hf  Hf11  1  0.39436519  0.19110137  0.74564336  1
  Hf  Hf12  1  0.90401680  0.50445083  0.10295606  1
  Hf  Hf13  1  0.08757826  0.91851530  0.85114970  1
  Hf  Hf14  1  -0.00517470  0.21276519  0.50639977  1
  Hf  Hf15  1  0.71439043  0.68942787  0.38351590  1
  Hf  Hf16  1  0.20030857  0.80110832  0.50278568  1
  Hf  Hf17  1  0.10727797  0.49366070  0.88088762  1
  Hf  Hf18  1  0.18935316  0.20311262  0.01882118  1
  Hf  Hf19  1  0.29795843  0.68771296  0.38389773  1
  Hf  Hf20  1  0.20033001  0.60009133  0.24110960  1
  Hf  Hf21  1  0.60252167  0.40039799  0.76938173  1
  Hf  Hf22  1  0.60216580  0.59122650  0.50460196  1
  Hf  Hf23  1  0.60213868  0.20238213  0.49416889  1
  Hf  Hf24  1  -0.00426414  0.59839200  0.24722665  1
  Hf  Hf25  1  0.50424366  0.68792303  0.37802133  1
  Hf  Hf26  1  0.79657238  0.79901974  -0.01237113  1
  Hf  Hf27  1  0.59458781  -0.00915893  0.75176890  1
  Hf  Hf28  1  0.08097673  0.90248334  0.38701491  1
  Hf  Hf29  1  -0.00116100  0.19714041  0.24530025  1
  Hf  Hf30  1  0.09614954  0.91408447  0.61887411  1
  Hf  Hf31  1  0.09598754  0.71307759  0.11811045  1
  Hf  Hf32  1  0.29117583  0.10398127  0.88462885  1
  Hf  Hf33  1  0.80418197  0.38776705  -0.01343748  1
  Hf  Hf34  1  0.30114717  0.30462809  0.35639632  1
  Hf  Hf35  1  0.90323277  0.10050983  0.86153965  1
  Hf  Hf36  1  0.09693076  0.10246042  0.38985845  1
  Hf  Hf37  1  0.29983728  0.90182004  0.14208918  1
  Hf  Hf38  1  0.00343257  0.20824516  0.74307465  1
  Hf  Hf39  1  0.59472134  0.18774113  0.25904587  1
  Zr  Zr40  1  0.18587725  -0.00559170  0.00520234  1
  Zr  Zr41  1  0.39125415  0.39283748  0.75500462  1
  Zr  Zr42  1  -0.00234000  0.83360121  0.00327128  1
  Zr  Zr43  1  0.58783658  0.79393103  -0.01926338  1
  Zr  Zr44  1  0.80338055  0.18925150  0.24614871  1
  Zr  Zr45  1  0.59965981  0.17494245  0.75903249  1
  Zr  Zr46  1  0.39785702  0.39286250  0.50998686  1
  Zr  Zr47  1  0.40520145  0.79541366  0.50886119  1
  Zr  Zr48  1  0.40229641  0.00072705  0.75045657  1
  Zr  Zr49  1  0.50599193  0.29409760  0.63558388  1
  Zr  Zr50  1  0.19295906  0.00158266  0.25692801  1
  Zr  Zr51  1  0.79703261  0.40144807  0.50322364  1
  Zr  Zr52  1  0.19744102  0.80390677  0.74446121  1
  Zr  Zr53  1  0.80390600  0.80702869  0.24666003  1
  Zr  Zr54  1  0.31203614  0.10254870  0.12924152  1
  Zr  Zr55  1  0.28950363  0.30587263  0.89305792  1
  Zr  Zr56  1  0.80810155  0.59815569  0.75745437  1
  Zr  Zr57  1  0.81037073  -0.00741314  -0.01284525  1
  Zr  Zr58  1  0.32407031  0.71122177  0.85241792  1
  Zr  Zr59  1  0.39633344  -0.01904013  -0.02031885  1
  Zr  Zr60  1  0.69396337  0.90061413  0.11252687  1
  Zr  Zr61  1  0.28720749  0.49252879  0.63338652  1
  Zr  Zr62  1  0.50264926  0.09265880  0.11588760  1
  Zr  Zr63  1  0.90507692  0.30589561  0.36930371  1
  Zr  Zr64  1  0.20604659  0.81414198  -0.01792727  1
  Zr  Zr65  1  0.89409878  0.51305706  0.38264782  1
  Zr  Zr66  1  0.70228367  0.50408802  0.11302773  1
  Zr  Zr67  1  0.10456550  0.10798853  0.61256755  1
  Zr  Zr68  1  0.80675381  0.41018119  0.24461462  1
  Zr  Zr69  1  0.09214545  0.69550829  0.38940940  1
  Zr  Zr70  1  0.89696154  0.69878089  0.11544606  1
  Zr  Zr71  1  0.69146709  0.30170857  0.12661677  1
  Zr  Zr72  1  0.29804802  0.49564647  0.37753904  1
  Zr  Zr73  1  0.40040097  0.80338491  0.26743948  1
  Zr  Zr74  1  0.30676839  0.70560850  0.12731955  1
  Zr  Zr75  1  0.09928138  0.49835282  0.39242283  1
  Zr  Zr76  1  0.70318789  0.49413372  0.63948507  1
  Zr  Zr77  1  0.00181098  0.60733416  0.75417529  1
  Zr  Zr78  1  0.60682736  0.79694202  0.26101549  1
  Zr  Zr79  1  0.20830608  0.61637816  -0.01431286  1
  Ta  Ta80  1  0.89241407  0.30422744  0.63809143  1
  Ta  Ta81  1  0.20459584  0.01531156  0.74476345  1
  Ta  Ta82  1  0.70716295  0.28662660  0.86539627  1
  Ta  Ta83  1  0.89147914  0.10117030  0.62522248  1
  Ta  Ta84  1  0.80183676  -0.00320622  0.26423333  1
  Ta  Ta85  1  0.10107545  0.31218832  0.37067480  1
  Ta  Ta86  1  0.49557968  0.30450199  0.35519864  1
  Ta  Ta87  1  0.40406508  0.20239473  0.49222615  1
  Ta  Ta88  1  0.69947396  0.69018371  0.11304233  1
  Ta  Ta89  1  0.40616434  0.58997660  0.51440510  1
  Ta  Ta90  1  0.70847897  0.09681880  0.39146909  1
  Ta  Ta91  1  -0.01069478  0.20366785  -0.00055697  1
  Ta  Ta92  1  0.60814979  0.79437353  0.51492126  1
  Ta  Ta93  1  0.29955678  0.10089965  0.60259226  1
  Ta  Ta94  1  0.19370999  0.40474428  0.23141525  1
  Ta  Ta95  1  0.49621050  0.29741447  0.13278199  1
  Ta  Ta96  1  0.40395177  0.59548212  0.23898633  1
  Ta  Ta97  1  0.80227270  0.19766862  -0.00616807  1
  Ta  Ta98  1  0.30169896  0.69041381  0.62827943  1
  Ta  Ta99  1  0.19001428  0.80303285  0.26453439  1
  Ta  Ta100  1  0.41070385  0.01129960  0.27526210  1
  Ta  Ta101  1  0.41537296  0.60298064  -0.00813919  1
  Ta  Ta102  1  0.50232293  0.69096396  0.64148506  1
  Ta  Ta103  1  0.30494788  0.49770766  0.10760162  1
  Ta  Ta104  1  0.09513514  0.30213771  0.88224899  1
  Ta  Ta105  1  0.59744698  0.60000058  -0.02091694  1
  Ta  Ta106  1  0.09560967  0.10842202  0.87413414  1
  Ta  Ta107  1  0.49871965  0.29304282  0.87769161  1
  Ta  Ta108  1  0.30475902  0.50183715  0.87806182  1
  Ta  Ta109  1  0.49851174  0.08290467  0.60082812  1
  Ta  Ta110  1  0.30338130  0.91134435  0.61699674  1
  Ta  Ta111  1  0.30987392  0.30654381  0.12693897  1
  Ta  Ta112  1  0.69975806  0.90158199  0.62428584  1
  Ta  Ta113  1  0.89656514  0.90940364  0.63305021  1
  Ta  Ta114  1  0.49784343  0.49415312  0.35902724  1
  Ta  Ta115  1  0.30060693  0.10445742  0.38397972  1
  Ta  Ta116  1  0.69870219  0.30180115  0.36341251  1
  Ta  Ta117  1  0.50146055  0.50355693  0.64775527  1
  Ta  Ta118  1  0.70727518  0.29087302  0.64275321  1
  Ta  Ta119  1  0.60246673  0.19814649  -0.01101439  1
  Ti  Ti120  1  0.20397669  0.21063490  0.74520737  1
  Ti  Ti121  1  0.89731236  0.89852051  0.38860116  1
  Ti  Ti122  1  -0.00351967  0.40238066  0.75531519  1
  Ti  Ti123  1  0.89844523  0.09009087  0.11783545  1
  Ti  Ti124  1  -0.01597602  0.59935222  0.52426546  1
  Ti  Ti125  1  0.59780816  0.39411590  -0.01655975  1
  Ti  Ti126  1  0.90453527  0.90863445  0.84758138  1
  Ti  Ti127  1  0.79949330  -0.00603489  0.50044120  1
  Ti  Ti128  1  -0.01259021  -0.00889815  0.24612762  1
  Ti  Ti129  1  0.08842279  0.31357599  0.11872908  1
  Ti  Ti130  1  0.48005867  0.87118982  0.85061717  1
  Ti  Ti131  1  -0.01010944  0.80021313  0.52409184  1
  Ti  Ti132  1  0.70109133  0.09754756  0.61367500  1
  Ti  Ti133  1  0.10528044  0.69389568  0.61867735  1
  Ti  Ti134  1  0.60877602  0.59698953  0.24862676  1
  Ti  Ti135  1  0.91118702  0.50046155  0.89153301  1
  Ti  Ti136  1  0.69944792  0.49988057  0.36665886  1
  Ti  Ti137  1  0.91019656  0.70371017  0.88550939  1
  Ti  Ti138  1  0.19847067  0.60493962  0.76136711  1
  Ti  Ti139  1  0.11248013  0.31432057  0.62759032  1
  Ti  Ti140  1  0.79968042  0.20532380  0.50100184  1
  Ti  Ti141  1  0.20640091  0.21912730  0.49738055  1
  Ti  Ti142  1  0.40240248  0.79356186  0.00020792  1
  Ti  Ti143  1  0.80072049  0.79580676  0.51792179  1
  Ti  Ti144  1  0.78723238  0.00924280  0.75032004  1
  Ti  Ti145  1  0.90297474  0.09185590  0.39003992  1
  Ti  Ti146  1  0.59090741  -0.00187209  -0.03306232  1
  Ti  Ti147  1  0.81010948  0.39756295  0.76478619  1
  Ti  Ti148  1  -0.00527132  0.40109571  0.51585526  1
  Ti  Ti149  1  0.70477680  0.50348067  0.88039675  1
  Ti  Ti150  1  -0.00155130  0.79429076  0.73958354  1
  Ti  Ti151  1  0.60246111  0.79215223  0.74599770  1
  Ti  Ti152  1  0.50811613  0.69602817  0.12986498  1
  Ti  Ti153  1  0.08399212  0.09028174  0.12102488  1
  Ti  Ti154  1  0.70022369  0.69163542  0.63082704  1
  Ti  Ti155  1  0.29687266  0.90987076  0.38770194  1
  Ti  Ti156  1  0.69913747  0.89584194  0.86398839  1
  Ti  Ti157  1  0.40813376  0.20046226  -0.00262632  1
  Ti  Ti158  1  0.40926384  0.40118154  -0.00396685  1
  Ti  Ti159  1  0.90538950  0.30528532  0.12528284  1
  Mo  Mo160  1  0.61146238  -0.00141277  0.50630277  1
  Mo  Mo161  1  0.60346083  0.60089255  0.76483852  1
  Mo  Mo162  1  0.50268637  0.10331937  0.38942774  1
  Mo  Mo163  1  0.29233843  0.28945727  0.62318098  1
  Mo  Mo164  1  0.79261678  0.60564600  0.24348386  1
  Mo  Mo165  1  0.71235170  0.89496908  0.40259889  1
  Mo  Mo166  1  0.49731474  0.49612665  0.87792240  1
  Mo  Mo167  1  0.79714580  0.19374532  0.74584794  1
  Mo  Mo168  1  0.40353988  0.80278210  0.72014759  1
  Mo  Mo169  1  0.00369092  0.61127410  -0.01881827  1
  Mo  Mo170  1  0.39957648  0.00140898  0.49411460  1
  Mo  Mo171  1  0.09457077  0.90155437  0.14747646  1
  Mo  Mo172  1  0.90289751  0.49356910  0.62967629  1
  Mo  Mo173  1  0.89747435  0.90853881  0.13545833  1
  Mo  Mo174  1  0.79790383  0.60161472  -0.02187164  1
  Mo  Mo175  1  0.40021959  0.19845520  0.25920400  1
  Mo  Mo176  1  0.50308505  0.69311450  0.85319356  1
  Mo  Mo177  1  0.70089752  0.69828102  0.87368700  1
  Mo  Mo178  1  0.19013238  0.39266088  0.75826670  1
  Mo  Mo179  1  -0.00251556  0.39206351  -0.01111873  1
  Mo  Mo180  1  0.39829302  0.40514520  0.23353143  1
  Mo  Mo181  1  0.80147149  0.60393912  0.52312825  1
  Mo  Mo182  1  -0.00260622  0.01204631  0.00329089  1
  Mo  Mo183  1  0.50704918  0.89312416  0.62326106  1
  Mo  Mo184  1  0.49439316  0.10340813  0.88779315  1
  Mo  Mo185  1  -0.01545102  0.00360619  0.50823575  1
  Mo  Mo186  1  0.89851272  0.70346827  0.62146689  1
  Mo  Mo187  1  0.40044759  0.59395194  0.74890109  1
  Mo  Mo188  1  0.60108515  0.39954494  0.25862058  1
  Mo  Mo189  1  0.00066506  0.80871187  0.24599771  1
  Mo  Mo190  1  0.70079252  0.09331643  0.88642606  1
  Mo  Mo191  1  0.20180702  0.60119985  0.51428967  1
  Mo  Mo192  1  0.90180483  0.29789064  0.86129946  1
  Mo  Mo193  1  -0.00115354  0.00965971  0.73102060  1
  Mo  Mo194  1  0.20237288  0.00225307  0.49239117  1
  Mo  Mo195  1  0.29540401  0.90415084  0.84828124  1
  Mo  Mo196  1  0.09182093  0.70902363  0.87501467  1
  Mo  Mo197  1  0.20450387  0.40011189  0.01108012  1
  Mo  Mo198  1  0.19263212  0.39369837  0.49938418  1
  Mo  Mo199  1  0.00903445  0.39979267  0.24108996  1
