# generated using pymatgen
data_HfZrTaTiMo
_symmetry_space_group_name_H-M   'P 1'
_cell_length_a   15.93591569
_cell_length_b   15.93541057
_cell_length_c   15.21905588
_cell_angle_alpha   90.00475967
_cell_angle_beta   89.97952931
_cell_angle_gamma   89.93548070
_symmetry_Int_Tables_number   1
_chemical_formula_structural   HfZrTaTiMo
_chemical_formula_sum   'Hf40 Zr40 Ta40 Ti40 Mo40'
_cell_volume   3864.80590285
_cell_formula_units_Z   40
loop_
 _symmetry_equiv_pos_site_id
 _symmetry_equiv_pos_as_xyz
  1  'x, y, z'
loop_
 _atom_site_type_symbol
 _atom_site_label
 _atom_site_symmetry_multiplicity
 _atom_site_fract_x
 _atom_site_fract_y
 _atom_site_fract_z
 _atom_site_occupancy
  Hf  Hf0  1  0.20323107  0.80811054  0.50776282  1
  Hf  Hf1  1  0.71034679  0.69130210  0.88517820  1
  Hf  Hf2  1  0.51416899  0.71035939  0.12508285  1
  Hf  Hf3  1  0.89518265  0.91134647  0.60981947  1
  Hf  Hf4  1  0.00967980  0.17613163  0.48324633  1
  Hf  Hf5  1  0.59941036  0.60200857  0.74592089  1
  Hf  Hf6  1  0.20154418  0.59949631  0.24027039  1
  Hf  Hf7  1  0.10586116  0.91076431  0.13547074  1
  Hf  Hf8  1  0.39034828  0.20425334  0.74238874  1
  Hf  Hf9  1  0.48225003  0.09678194  0.61899906  1
  Hf  Hf10  1  0.30719385  0.69344292  0.63154752  1
  Hf  Hf11  1  0.69656061  0.08453866  0.12980227  1
  Hf  Hf12  1  0.89927930  0.29575835  0.62758200  1
  Hf  Hf13  1  0.39601697  -0.00271844  -0.01285017  1
  Hf  Hf14  1  -0.00075012  0.80189627  0.73442554  1
  Hf  Hf15  1  0.27595995  0.10432625  0.61380224  1
  Hf  Hf16  1  0.49727648  0.30011506  0.87066013  1
  Hf  Hf17  1  0.39502695  0.41327129  0.51092504  1
  Hf  Hf18  1  0.90328194  0.50181834  0.87741291  1
  Hf  Hf19  1  0.80302794  0.39641169  0.00381263  1
  Hf  Hf20  1  0.59895713  0.59090839  0.00156586  1
  Hf  Hf21  1  0.70039461  0.29638392  0.87055157  1
  Hf  Hf22  1  0.60985215  0.40804559  0.49383521  1
  Hf  Hf23  1  0.30510955  0.68838880  0.38622795  1
  Hf  Hf24  1  0.40110713  0.60279576  0.00895328  1
  Hf  Hf25  1  0.49801799  0.31035626  0.36726868  1
  Hf  Hf26  1  0.59851425  0.80559359  0.48962671  1
  Hf  Hf27  1  0.20485004  0.40046619  0.49867262  1
  Hf  Hf28  1  0.70142529  0.69304457  0.38312316  1
  Hf  Hf29  1  0.39779060  0.80402421  -0.01418098  1
  Hf  Hf30  1  0.71658541  0.30019371  0.63286455  1
  Hf  Hf31  1  0.30197919  0.29991818  0.12799765  1
  Hf  Hf32  1  0.49636276  0.10351217  0.37853086  1
  Hf  Hf33  1  0.00821670  0.80237204  0.51104898  1
  Hf  Hf34  1  0.39760392  0.19627245  0.25065010  1
  Hf  Hf35  1  0.89741859  0.70018945  0.37954831  1
  Hf  Hf36  1  0.50265653  0.69213811  0.38112676  1
  Hf  Hf37  1  0.10512588  0.28119291  0.62223939  1
  Hf  Hf38  1  0.60651405  0.79596248  0.75235697  1
  Hf  Hf39  1  0.29646411  0.69314381  0.85652754  1
  Zr  Zr40  1  0.60273963  -0.00032812  0.48960159  1
  Zr  Zr41  1  0.40925949  0.40410316  0.00985424  1
  Zr  Zr42  1  0.29508109  0.30336002  0.88841139  1
  Zr  Zr43  1  -0.00642887  0.21271475  0.01980540  1
  Zr  Zr44  1  0.10855943  0.29432404  0.36758629  1
  Zr  Zr45  1  0.20062024  0.80055083  -0.00560687  1
  Zr  Zr46  1  0.29210490  0.09044852  0.12494595  1
  Zr  Zr47  1  0.29692072  0.11413886  0.88455956  1
  Zr  Zr48  1  0.60210106  -0.00065419  0.75248811  1
  Zr  Zr49  1  0.69922649  0.10608459  0.87817149  1
  Zr  Zr50  1  0.40754304  0.80505497  0.26683151  1
  Zr  Zr51  1  0.19820303  0.00215902  0.76470090  1
  Zr  Zr52  1  0.49779927  0.50749047  0.37013704  1
  Zr  Zr53  1  0.09523621  0.10715266  0.88434049  1
  Zr  Zr54  1  0.80104328  0.19681334  0.24555315  1
  Zr  Zr55  1  0.71400673  0.89413630  0.61696551  1
  Zr  Zr56  1  0.90853918  0.89297578  0.88784837  1
  Zr  Zr57  1  0.09595036  0.30847529  0.87690033  1
  Zr  Zr58  1  0.00197339  0.59136174  0.50394586  1
  Zr  Zr59  1  0.59354763  0.40360190  0.74508357  1
  Zr  Zr60  1  0.71525967  0.09834967  0.62337997  1
  Zr  Zr61  1  0.49567410  0.90299570  0.62638903  1
  Zr  Zr62  1  0.89696216  0.10310486  0.88329653  1
  Zr  Zr63  1  0.09405954  0.91650260  0.37371573  1
  Zr  Zr64  1  0.59782342  -0.00361018  -0.00696088  1
  Zr  Zr65  1  0.00229224  0.40704940  0.24948737  1
  Zr  Zr66  1  0.50160607  0.90261000  0.12749555  1
  Zr  Zr67  1  0.60597523  0.20678043  0.49723140  1
  Zr  Zr68  1  0.18977642  0.80469939  0.73526306  1
  Zr  Zr69  1  -0.00844195  0.80237255  0.24743080  1
  Zr  Zr70  1  0.88356777  0.69821381  0.61038656  1
  Zr  Zr71  1  0.09769495  0.49117435  0.63366268  1
  Zr  Zr72  1  0.19487048  0.59951638  0.00876745  1
  Zr  Zr73  1  0.10405831  0.69675502  0.37550821  1
  Zr  Zr74  1  0.90381255  0.09972149  0.63196199  1
  Zr  Zr75  1  0.81051962  0.78428762  0.00840773  1
  Zr  Zr76  1  0.29969766  0.49936470  0.86360494  1
  Zr  Zr77  1  -0.00960264  0.39716323  0.48631505  1
  Zr  Zr78  1  0.70907110  0.49864949  0.62640257  1
  Zr  Zr79  1  -0.00939132  0.61160790  0.00838474  1
  Ta  Ta80  1  0.49824025  0.10925977  0.86939588  1
  Ta  Ta81  1  0.20483082  0.39380772  0.74234008  1
  Ta  Ta82  1  0.50806794  0.49240801  0.14221529  1
  Ta  Ta83  1  0.20858841  0.80583254  0.25948179  1
  Ta  Ta84  1  0.39099339  -0.00271331  0.26949581  1
  Ta  Ta85  1  0.19996026  -0.00828677  -0.00852187  1
  Ta  Ta86  1  0.70604742  0.09525170  0.36682774  1
  Ta  Ta87  1  0.79522405  0.40379192  0.26227397  1
  Ta  Ta88  1  0.59554323  0.20450241  0.01975841  1
  Ta  Ta89  1  -0.00413221  0.60369230  0.74256281  1
  Ta  Ta90  1  0.80849273  0.19960111  0.47555913  1
  Ta  Ta91  1  0.70141089  0.69570937  0.60753980  1
  Ta  Ta92  1  0.40233981  0.80282645  0.74858371  1
  Ta  Ta93  1  0.89390738  0.90304406  0.12400651  1
  Ta  Ta94  1  0.39880539  0.80558271  0.50008828  1
  Ta  Ta95  1  0.59670257  -0.01237544  0.26561991  1
  Ta  Ta96  1  0.29994357  0.90163263  0.13504115  1
  Ta  Ta97  1  0.19995971  0.40428742  0.23958405  1
  Ta  Ta98  1  0.89496794  0.90785654  0.38360178  1
  Ta  Ta99  1  0.00319207  0.18939540  0.23846928  1
  Ta  Ta100  1  0.89149453  0.50638048  0.13063632  1
  Ta  Ta101  1  0.18687063  0.40628423  0.02091435  1
  Ta  Ta102  1  0.80236733  -0.01079918  0.76844378  1
  Ta  Ta103  1  0.60845746  0.60241090  0.24374206  1
  Ta  Ta104  1  0.09176435  0.69586227  0.86366505  1
  Ta  Ta105  1  0.70531686  0.49594151  0.87670362  1
  Ta  Ta106  1  0.79339033  0.20341203  0.01837677  1
  Ta  Ta107  1  0.49536064  0.30456400  0.62117688  1
  Ta  Ta108  1  0.59580330  0.19967036  0.73505258  1
  Ta  Ta109  1  0.30590724  0.91474088  0.62514615  1
  Ta  Ta110  1  0.10099136  0.70752617  0.13644865  1
  Ta  Ta111  1  0.70045276  0.49633166  0.12926232  1
  Ta  Ta112  1  0.38703322  0.20912196  0.49383583  1
  Ta  Ta113  1  0.41460831  0.19776774  0.01563458  1
  Ta  Ta114  1  0.20841808  0.59052046  0.51518455  1
  Ta  Ta115  1  0.60186562  0.19761898  0.24904437  1
  Ta  Ta116  1  0.89481001  0.30673252  0.13718012  1
  Ta  Ta117  1  0.80298164  0.60225576  0.75381371  1
  Ta  Ta118  1  0.89175444  0.48823245  0.63557709  1
  Ta  Ta119  1  0.40144247  0.60340914  0.23394305  1
  Ti  Ti120  1  0.79892423  0.57392292  0.48446398  1
  Ti  Ti121  1  0.38424080  -0.00192292  0.48081772  1
  Ti  Ti122  1  0.70785727  0.69371311  0.12554593  1
  Ti  Ti123  1  0.09649035  0.89519997  0.88170290  1
  Ti  Ti124  1  0.30196508  0.71222381  0.12801101  1
  Ti  Ti125  1  0.60022181  0.39739390  0.00041893  1
  Ti  Ti126  1  0.79429368  0.79948919  0.25255510  1
  Ti  Ti127  1  0.18521468  0.20321798  0.02355104  1
  Ti  Ti128  1  0.30074629  0.30579177  0.36451444  1
  Ti  Ti129  1  0.80188192  0.59804079  0.25236580  1
  Ti  Ti130  1  0.49947910  0.09246272  0.13605452  1
  Ti  Ti131  1  0.69354657  0.30717779  0.13548047  1
  Ti  Ti132  1  0.30534923  0.50018950  0.36391224  1
  Ti  Ti133  1  0.80353166  0.79569164  0.75987050  1
  Ti  Ti134  1  0.49636065  0.90321839  0.86135442  1
  Ti  Ti135  1  -0.00290480  0.39724629  0.75220291  1
  Ti  Ti136  1  0.79205281  -0.01185865  -0.00352034  1
  Ti  Ti137  1  0.30572240  0.49795254  0.13027732  1
  Ti  Ti138  1  0.00259902  0.79527735  0.01313677  1
  Ti  Ti139  1  0.00203146  -0.00237246  0.75299566  1
  Ti  Ti140  1  0.89265495  0.29691573  0.86715359  1
  Ti  Ti141  1  0.50109000  0.69398156  0.61464189  1
  Ti  Ti142  1  0.10833766  0.50415664  0.37391051  1
  Ti  Ti143  1  0.00334203  0.19677656  0.75329046  1
  Ti  Ti144  1  0.80136675  0.39418614  0.47250208  1
  Ti  Ti145  1  0.80171415  -0.00874457  0.25462591  1
  Ti  Ti146  1  0.10487770  0.93614349  0.60896731  1
  Ti  Ti147  1  -0.00180347  0.60035768  0.24536736  1
  Ti  Ti148  1  0.00581475  0.40811985  0.02015029  1
  Ti  Ti149  1  0.49265055  0.50123834  0.86390216  1
  Ti  Ti150  1  0.29559774  0.29926884  0.62340699  1
  Ti  Ti151  1  0.89613232  0.08992917  0.12192837  1
  Ti  Ti152  1  0.60553293  0.80658244  -0.01709458  1
  Ti  Ti153  1  0.10300919  0.50326566  0.86657081  1
  Ti  Ti154  1  0.00610057  0.00111830  0.01273898  1
  Ti  Ti155  1  0.49735795  0.69517674  0.87148615  1
  Ti  Ti156  1  0.50559914  0.30706238  0.14178373  1
  Ti  Ti157  1  0.90380907  0.29275687  0.36041263  1
  Ti  Ti158  1  0.19750997  0.19224492  0.24740249  1
  Ti  Ti159  1  0.69383828  0.88709561  0.13502931  1
  Mo  Mo160  1  0.39804885  0.40091889  0.73433795  1
  Mo  Mo161  1  0.19121506  0.59699472  0.74172349  1
  Mo  Mo162  1  0.20453745  0.00172717  0.26193846  1
  Mo  Mo163  1  0.49699874  0.90073885  0.37908917  1
  Mo  Mo164  1  0.61181803  0.79852296  0.25769810  1
  Mo  Mo165  1  0.41000625  0.59981831  0.74139523  1
  Mo  Mo166  1  0.79942901  0.80404881  0.48495878  1
  Mo  Mo167  1  0.30392404  0.90019140  0.85611748  1
  Mo  Mo168  1  0.19463993  0.20812413  0.75275616  1
  Mo  Mo169  1  0.10437996  0.69134639  0.62962775  1
  Mo  Mo170  1  0.10036080  0.30182019  0.13737739  1
  Mo  Mo171  1  0.80256391  0.19805783  0.75852460  1
  Mo  Mo172  1  0.70459346  0.89603647  0.36345104  1
  Mo  Mo173  1  0.60578240  0.40015242  0.25553701  1
  Mo  Mo174  1  0.80831965  0.40090492  0.76675049  1
  Mo  Mo175  1  0.39647089  0.00194113  0.76038705  1
  Mo  Mo176  1  0.00086761  0.00535220  0.49717456  1
  Mo  Mo177  1  0.90423175  0.09033319  0.35874661  1
  Mo  Mo178  1  0.09609562  0.50602215  0.12995526  1
  Mo  Mo179  1  0.70210837  0.89167893  0.87524498  1
  Mo  Mo180  1  0.49778808  0.50820632  0.62100618  1
  Mo  Mo181  1  0.19544156  0.01294427  0.48419050  1
  Mo  Mo182  1  0.80498854  0.01077069  0.47676062  1
  Mo  Mo183  1  0.09635483  0.10160537  0.63610968  1
  Mo  Mo184  1  0.29572871  0.90009566  0.38351563  1
  Mo  Mo185  1  0.10035379  0.09614362  0.12676740  1
  Mo  Mo186  1  0.40040418  0.59929828  0.51480542  1
  Mo  Mo187  1  0.69927685  0.50106745  0.36384491  1
  Mo  Mo188  1  -0.01092695  0.00382941  0.23435282  1
  Mo  Mo189  1  0.29215209  0.10623627  0.37878703  1
  Mo  Mo190  1  0.70139220  0.29603157  0.36668112  1
  Mo  Mo191  1  0.90616300  0.69655488  0.86172556  1
  Mo  Mo192  1  0.79849345  0.59162513  0.01018805  1
  Mo  Mo193  1  0.20444548  0.20173998  0.48074744  1
  Mo  Mo194  1  0.10120256  0.09700054  0.34755988  1
  Mo  Mo195  1  0.60054119  0.59851588  0.51158655  1
  Mo  Mo196  1  0.89661418  0.69993796  0.14715320  1
  Mo  Mo197  1  0.39493122  0.40452594  0.24460283  1
  Mo  Mo198  1  0.89869287  0.50299094  0.35950184  1
  Mo  Mo199  1  0.30210304  0.49777992  0.64367960  1
