# generated using pymatgen
data_HfZrTaTiMo
_symmetry_space_group_name_H-M   'P 1'
_cell_length_a   15.93441774
_cell_length_b   15.94530745
_cell_length_c   15.16282484
_cell_angle_alpha   90.03944227
_cell_angle_beta   89.94279470
_cell_angle_gamma   90.05774581
_symmetry_Int_Tables_number   1
_chemical_formula_structural   HfZrTaTiMo
_chemical_formula_sum   'Hf40 Zr40 Ta40 Ti40 Mo40'
_cell_volume   3852.55346403
_cell_formula_units_Z   40
loop_
 _symmetry_equiv_pos_site_id
 _symmetry_equiv_pos_as_xyz
  1  'x, y, z'
loop_
 _atom_site_type_symbol
 _atom_site_label
 _atom_site_symmetry_multiplicity
 _atom_site_fract_x
 _atom_site_fract_y
 _atom_site_fract_z
 _atom_site_occupancy
  Hf  Hf0  1  0.79471902  0.20883626  0.00520657  1
  Hf  Hf1  1  0.70021233  0.89745960  0.62034065  1
  Hf  Hf2  1  0.60044095  0.60115329  0.50680541  1
  Hf  Hf3  1  0.49694532  0.90302337  0.36831681  1
  Hf  Hf4  1  -0.00043775  0.19690936  0.74959591  1
  Hf  Hf5  1  0.49154399  0.89798612  0.87126573  1
  Hf  Hf6  1  0.48467804  0.09886951  0.87198069  1
  Hf  Hf7  1  0.90316478  0.70410331  0.61994229  1
  Hf  Hf8  1  0.60627429  0.00149242  0.75482741  1
  Hf  Hf9  1  0.50277901  0.29929496  0.12924898  1
  Hf  Hf10  1  0.79650834  0.00564702  0.00806015  1
  Hf  Hf11  1  0.19470400  0.79845775  0.47812224  1
  Hf  Hf12  1  0.78192419  -0.00932585  0.25225364  1
  Hf  Hf13  1  0.60237583  0.60202396  0.26438889  1
  Hf  Hf14  1  0.70537709  0.30077554  0.61533331  1
  Hf  Hf15  1  0.39692640  0.60156400  0.25581333  1
  Hf  Hf16  1  0.48682549  0.89800948  0.63120815  1
  Hf  Hf17  1  0.90036125  0.50021237  0.39180708  1
  Hf  Hf18  1  0.60858733  0.39967046  -0.00615344  1
  Hf  Hf19  1  0.50893178  0.70657014  0.11588225  1
  Hf  Hf20  1  0.10640143  0.70864800  0.62550704  1
  Hf  Hf21  1  0.11120292  0.29203839  0.61581711  1
  Hf  Hf22  1  0.59762602  0.00495554  -0.00714797  1
  Hf  Hf23  1  0.17675970  0.00434337  0.48226207  1
  Hf  Hf24  1  0.21772710  0.39891217  0.74130860  1
  Hf  Hf25  1  0.70800865  0.70070066  0.12252815  1
  Hf  Hf26  1  0.28685048  0.89542233  0.62230462  1
  Hf  Hf27  1  0.49081578  0.09636666  0.37042555  1
  Hf  Hf28  1  0.18799714  0.78601858  0.23745508  1
  Hf  Hf29  1  0.00713875  0.79257090  0.00541142  1
  Hf  Hf30  1  0.20590703  0.41205594  0.49881923  1
  Hf  Hf31  1  -0.00084785  0.80799449  0.76444462  1
  Hf  Hf32  1  0.29562657  0.10200530  0.87342904  1
  Hf  Hf33  1  0.88987604  0.87785533  0.13731200  1
  Hf  Hf34  1  0.80441812  -0.00481035  0.75294977  1
  Hf  Hf35  1  0.90131030  0.70228266  0.37040269  1
  Hf  Hf36  1  0.39657354  0.21519864  0.74049511  1
  Hf  Hf37  1  0.59964628  0.19601404  0.74580181  1
  Hf  Hf38  1  -0.00402857  0.00346039  0.23735698  1
  Hf  Hf39  1  0.01133056  0.18396051  0.48383958  1
  Zr  Zr40  1  0.70281014  0.68942618  0.86697881  1
  Zr  Zr41  1  0.09753074  0.09632611  0.63031760  1
  Zr  Zr42  1  0.09584090  0.51070598  0.12991011  1
  Zr  Zr43  1  0.49014003  0.30971984  0.87907741  1
  Zr  Zr44  1  0.20100028  0.60226575  -0.00663658  1
  Zr  Zr45  1  0.80519751  0.79704517  0.75044628  1
  Zr  Zr46  1  0.51111968  0.49725398  0.13494958  1
  Zr  Zr47  1  0.71790890  0.49240454  0.83827542  1
  Zr  Zr48  1  0.38184631  0.78560614  0.75887467  1
  Zr  Zr49  1  0.69650141  0.30435408  0.14065422  1
  Zr  Zr50  1  0.90113618  0.10166117  0.88331931  1
  Zr  Zr51  1  0.29255965  0.10442643  0.36831547  1
  Zr  Zr52  1  0.40818121  0.40715250  0.51246348  1
  Zr  Zr53  1  0.32347888  0.50728007  0.86615987  1
  Zr  Zr54  1  0.80581959  0.40880287  0.01316717  1
  Zr  Zr55  1  0.49201263  0.68322550  0.87707634  1
  Zr  Zr56  1  0.90339086  0.49910702  0.62120431  1
  Zr  Zr57  1  0.70272059  0.30140361  0.85701555  1
  Zr  Zr58  1  0.90804108  0.68362464  0.13165337  1
  Zr  Zr59  1  0.19863815  0.19714577  0.01682365  1
  Zr  Zr60  1  -0.00553740  0.21128275  0.00921289  1
  Zr  Zr61  1  0.30016853  0.90291355  0.35446423  1
  Zr  Zr62  1  0.09586465  0.30827960  0.14178043  1
  Zr  Zr63  1  0.49699954  0.89954761  0.13411403  1
  Zr  Zr64  1  -0.00343862  0.40814775  -0.00935586  1
  Zr  Zr65  1  0.49761158  0.10137658  0.13774173  1
  Zr  Zr66  1  0.68897308  0.88619090  0.11189186  1
  Zr  Zr67  1  0.19140209  -0.00537136  0.75536326  1
  Zr  Zr68  1  0.79109804  0.58710633  0.25957590  1
  Zr  Zr69  1  0.61495340  0.58603195  -0.00122965  1
  Zr  Zr70  1  0.49230953  0.09836515  0.61750663  1
  Zr  Zr71  1  0.39612741  0.40467638  0.26264399  1
  Zr  Zr72  1  0.00714224  0.00454189  0.02370786  1
  Zr  Zr73  1  0.69068497  0.08995054  0.38227384  1
  Zr  Zr74  1  0.80354993  0.18678127  0.73591155  1
  Zr  Zr75  1  0.20321052  0.40351979  -0.00028720  1
  Zr  Zr76  1  0.81062227  0.19285514  0.49289246  1
  Zr  Zr77  1  0.29104072  0.10379305  0.61925630  1
  Zr  Zr78  1  0.20959350  0.60037224  0.26108507  1
  Zr  Zr79  1  0.00674835  0.39976166  0.74566729  1
  Ta  Ta80  1  0.19861693  0.80378783  0.00283482  1
  Ta  Ta81  1  0.01444559  0.60685627  0.49681306  1
  Ta  Ta82  1  0.30265489  0.29271866  0.60679678  1
  Ta  Ta83  1  0.89252994  0.89404576  0.36383590  1
  Ta  Ta84  1  0.21342220  0.61299550  0.75351309  1
  Ta  Ta85  1  0.10163004  0.10290093  0.87672459  1
  Ta  Ta86  1  0.08314472  0.90197475  0.61884936  1
  Ta  Ta87  1  -0.00314393  0.80887277  0.49010328  1
  Ta  Ta88  1  0.20837017  0.40788275  0.26248211  1
  Ta  Ta89  1  0.68933532  0.10487260  0.14004134  1
  Ta  Ta90  1  0.30557731  0.69514325  0.11057388  1
  Ta  Ta91  1  0.00086166  0.40485882  0.26803414  1
  Ta  Ta92  1  0.70653390  0.49752312  0.62267540  1
  Ta  Ta93  1  0.60864849  0.80080625  0.26906582  1
  Ta  Ta94  1  0.29666137  0.90673883  0.88707301  1
  Ta  Ta95  1  0.39020617  -0.00488034  0.49938629  1
  Ta  Ta96  1  0.19507842  0.80023731  0.76824731  1
  Ta  Ta97  1  0.39517743  0.79871873  -0.00317461  1
  Ta  Ta98  1  0.11056722  0.51498949  0.62826727  1
  Ta  Ta99  1  0.60063799  0.20795934  0.27004235  1
  Ta  Ta100  1  0.29944543  0.89807163  0.12538567  1
  Ta  Ta101  1  0.69748697  0.89192663  0.88188304  1
  Ta  Ta102  1  0.29905341  0.69577878  0.60478009  1
  Ta  Ta103  1  0.10694063  0.30053441  0.37378509  1
  Ta  Ta104  1  0.60309875  0.19600745  -0.00851800  1
  Ta  Ta105  1  0.59959568  0.79350802  0.74640549  1
  Ta  Ta106  1  0.49157176  0.70285591  0.61583189  1
  Ta  Ta107  1  0.80164923  0.39602478  0.26655242  1
  Ta  Ta108  1  0.48978909  0.70614606  0.39148963  1
  Ta  Ta109  1  -0.00015101  0.60718098  0.75689523  1
  Ta  Ta110  1  0.50114320  0.50454505  0.38544504  1
  Ta  Ta111  1  0.80085610  0.20312827  0.26369851  1
  Ta  Ta112  1  0.39640388  0.20923041  0.25506412  1
  Ta  Ta113  1  0.50663917  0.49906301  0.84959822  1
  Ta  Ta114  1  0.30275614  0.30115754  0.88016311  1
  Ta  Ta115  1  0.70019962  0.09267113  0.60629049  1
  Ta  Ta116  1  0.10645507  0.50388127  0.85702559  1
  Ta  Ta117  1  0.79750744  0.79996068  0.49788517  1
  Ta  Ta118  1  0.08606127  0.89797088  0.35326612  1
  Ta  Ta119  1  0.89279643  0.31292595  0.85899569  1
  Ti  Ti120  1  0.49967654  0.30118495  0.38395965  1
  Ti  Ti121  1  0.79440652  0.60377640  0.50587821  1
  Ti  Ti122  1  0.10809384  0.29592651  0.86933608  1
  Ti  Ti123  1  0.59843741  0.80014134  0.50242379  1
  Ti  Ti124  1  0.90175869  0.08930245  0.36857747  1
  Ti  Ti125  1  -0.00529205  0.59604048  -0.01970363  1
  Ti  Ti126  1  0.10439859  0.50424594  0.38170558  1
  Ti  Ti127  1  0.30180928  0.29879201  0.38762056  1
  Ti  Ti128  1  0.90858709  0.07550367  0.61217692  1
  Ti  Ti129  1  0.30179627  0.10116806  0.13876158  1
  Ti  Ti130  1  0.40200671  0.41324482  0.00963166  1
  Ti  Ti131  1  -0.00674262  -0.00569726  0.75835318  1
  Ti  Ti132  1  0.60101605  0.60365693  0.72655506  1
  Ti  Ti133  1  0.58612903  0.39374525  0.72545430  1
  Ti  Ti134  1  0.01629054  0.60913351  0.26262392  1
  Ti  Ti135  1  0.09965948  0.91022581  0.88935083  1
  Ti  Ti136  1  0.90357171  0.49277225  0.14445425  1
  Ti  Ti137  1  0.00894108  0.40044064  0.49938596  1
  Ti  Ti138  1  0.80747800  -0.01212873  0.49474406  1
  Ti  Ti139  1  0.70019932  0.70381265  0.38530330  1
  Ti  Ti140  1  0.90652285  0.30220920  0.38022770  1
  Ti  Ti141  1  0.89974109  0.90037811  0.89336016  1
  Ti  Ti142  1  0.59127059  0.20329837  0.49967304  1
  Ti  Ti143  1  0.61176464  0.40838496  0.27173733  1
  Ti  Ti144  1  0.90525654  0.29964816  0.61409276  1
  Ti  Ti145  1  0.81343710  0.58759058  -0.00363652  1
  Ti  Ti146  1  0.59304420  -0.00731993  0.50246672  1
  Ti  Ti147  1  -0.00200211  0.20230189  0.25432686  1
  Ti  Ti148  1  0.19600617  0.00197067  0.01899509  1
  Ti  Ti149  1  0.39085866  0.00180109  0.01238690  1
  Ti  Ti150  1  0.60098358  0.40458877  0.50442198  1
  Ti  Ti151  1  0.80661450  0.78385642  -0.01533426  1
  Ti  Ti152  1  0.39474169  0.78903578  0.24817696  1
  Ti  Ti153  1  0.20010559  0.20738061  0.24964092  1
  Ti  Ti154  1  0.39720507  0.20269290  0.00934083  1
  Ti  Ti155  1  0.10190537  0.69899201  0.87549280  1
  Ti  Ti156  1  0.30364674  0.31007102  0.12805944  1
  Ti  Ti157  1  0.88909827  0.11398879  0.13616899  1
  Ti  Ti158  1  0.70252317  0.30606173  0.39009374  1
  Ti  Ti159  1  0.18917139  0.00234046  0.23321053  1
  Mo  Mo160  1  0.09740474  0.10344159  0.34745709  1
  Mo  Mo161  1  0.80830117  0.39314623  0.72260962  1
  Mo  Mo162  1  0.69979260  0.49311751  0.40009608  1
  Mo  Mo163  1  0.59823866  -0.00023036  0.25130241  1
  Mo  Mo164  1  0.40512514  0.40151671  0.72910983  1
  Mo  Mo165  1  0.50432707  0.29737835  0.60906728  1
  Mo  Mo166  1  0.39894872  0.60084555  0.50286154  1
  Mo  Mo167  1  0.30574006  0.49931725  0.11784282  1
  Mo  Mo168  1  0.80399706  0.59983999  0.72915129  1
  Mo  Mo169  1  0.09688203  0.70049068  0.38165416  1
  Mo  Mo170  1  0.20027930  0.20824029  0.76372037  1
  Mo  Mo171  1  0.30178129  0.50900055  0.62810990  1
  Mo  Mo172  1  0.40083451  0.20217740  0.48928415  1
  Mo  Mo173  1  0.90385848  0.50378119  0.85636641  1
  Mo  Mo174  1  0.39144858  -0.00363829  0.74512109  1
  Mo  Mo175  1  0.10024363  0.69657300  0.11185355  1
  Mo  Mo176  1  0.40476464  0.59338008  0.01398097  1
  Mo  Mo177  1  0.39068660  0.00116040  0.23886108  1
  Mo  Mo178  1  0.89963564  0.30305191  0.15645743  1
  Mo  Mo179  1  0.69611696  0.09773767  0.88486586  1
  Mo  Mo180  1  0.10368295  0.10808568  0.13761632  1
  Mo  Mo181  1  0.78864890  0.79241806  0.26926498  1
  Mo  Mo182  1  0.50476019  0.50301837  0.63056350  1
  Mo  Mo183  1  0.80336662  0.39757388  0.49502543  1
  Mo  Mo184  1  -0.00149007  0.79637111  0.24697749  1
  Mo  Mo185  1  0.90339988  0.90219964  0.61207503  1
  Mo  Mo186  1  0.40220861  0.59864450  0.72591431  1
  Mo  Mo187  1  -0.00751250  -0.00449122  0.47611726  1
  Mo  Mo188  1  0.69705345  0.70124423  0.62293418  1
  Mo  Mo189  1  0.71157675  0.49841635  0.13529896  1
  Mo  Mo190  1  0.29798914  0.70396316  0.88939892  1
  Mo  Mo191  1  0.20129638  0.60153000  0.49269764  1
  Mo  Mo192  1  0.69420334  0.89421359  0.39334043  1
  Mo  Mo193  1  0.10268770  0.89853940  0.12904320  1
  Mo  Mo194  1  0.19962610  0.20395570  0.47930264  1
  Mo  Mo195  1  0.59749675  0.79682436  -0.02232913  1
  Mo  Mo196  1  0.30426372  0.50557203  0.39318222  1
  Mo  Mo197  1  0.30690854  0.70131207  0.38749324  1
  Mo  Mo198  1  0.90230802  0.69231484  0.87683530  1
  Mo  Mo199  1  0.39656715  0.80404908  0.49664144  1
