# generated using pymatgen
data_HfZrTaTiMo
_symmetry_space_group_name_H-M   'P 1'
_cell_length_a   15.93225134
_cell_length_b   15.92931550
_cell_length_c   15.21345603
_cell_angle_alpha   90.08858116
_cell_angle_beta   89.97192076
_cell_angle_gamma   90.00363402
_symmetry_Int_Tables_number   1
_chemical_formula_structural   HfZrTaTiMo
_chemical_formula_sum   'Hf40 Zr40 Ta40 Ti40 Mo40'
_cell_volume   3861.01576571
_cell_formula_units_Z   40
loop_
 _symmetry_equiv_pos_site_id
 _symmetry_equiv_pos_as_xyz
  1  'x, y, z'
loop_
 _atom_site_type_symbol
 _atom_site_label
 _atom_site_symmetry_multiplicity
 _atom_site_fract_x
 _atom_site_fract_y
 _atom_site_fract_z
 _atom_site_occupancy
  Hf  Hf0  1  0.70946310  0.89581670  0.63340317  1
  Hf  Hf1  1  0.49556928  0.08120409  0.11033403  1
  Hf  Hf2  1  0.79045345  0.79346818  0.01456507  1
  Hf  Hf3  1  0.29310910  0.69912117  0.13205118  1
  Hf  Hf4  1  -0.01198134  0.40630928  0.75699043  1
  Hf  Hf5  1  0.29701401  0.10245616  0.87312951  1
  Hf  Hf6  1  0.18917955  0.59845244  0.48297142  1
  Hf  Hf7  1  0.71043944  0.69049778  0.61764427  1
  Hf  Hf8  1  0.19330108  0.41261857  0.76288616  1
  Hf  Hf9  1  0.00867218  0.19992934  0.49100471  1
  Hf  Hf10  1  0.39522353  0.41279897  0.75135385  1
  Hf  Hf11  1  0.30541733  0.29266590  0.11821706  1
  Hf  Hf12  1  0.82385632  0.59884858  0.75086722  1
  Hf  Hf13  1  0.30176891  0.50430422  0.36938701  1
  Hf  Hf14  1  0.67885118  0.89754055  0.13681617  1
  Hf  Hf15  1  0.49794399  0.70265464  0.87900525  1
  Hf  Hf16  1  0.08989063  0.90473383  0.88293591  1
  Hf  Hf17  1  0.90666658  0.08865012  0.89563408  1
  Hf  Hf18  1  0.20134142  0.79818003  -0.00419356  1
  Hf  Hf19  1  0.89445804  0.50340155  0.36781353  1
  Hf  Hf20  1  0.89425803  0.50255694  0.90299296  1
  Hf  Hf21  1  0.00060049  0.18704740  0.74478187  1
  Hf  Hf22  1  0.50551446  0.29913089  0.13227152  1
  Hf  Hf23  1  0.69565825  0.70347550  0.37507574  1
  Hf  Hf24  1  0.60543809  0.60374142  0.00486406  1
  Hf  Hf25  1  0.69720806  0.89620417  0.36934723  1
  Hf  Hf26  1  0.08858708  0.51738874  0.62133709  1
  Hf  Hf27  1  0.29663987  0.10353707  0.63531534  1
  Hf  Hf28  1  0.59403778  0.39985534  -0.01033967  1
  Hf  Hf29  1  0.09173998  0.70971601  0.36893878  1
  Hf  Hf30  1  0.39238879  -0.01956223  0.51073936  1
  Hf  Hf31  1  0.69959558  0.29411827  0.63339289  1
  Hf  Hf32  1  0.90736626  0.09401721  0.60800961  1
  Hf  Hf33  1  0.82416010  -0.00610130  0.75091442  1
  Hf  Hf34  1  0.70613123  0.09523965  0.87687489  1
  Hf  Hf35  1  0.41525832  0.00032104  0.75894974  1
  Hf  Hf36  1  0.09299693  0.10692778  0.90585887  1
  Hf  Hf37  1  0.70373276  0.89357881  0.86360480  1
  Hf  Hf38  1  0.89875106  0.09711406  0.38044873  1
  Hf  Hf39  1  0.50367227  0.29249198  0.36833639  1
  Zr  Zr40  1  0.20173139  0.82246285  0.48656073  1
  Zr  Zr41  1  0.70910388  0.10642290  0.62549774  1
  Zr  Zr42  1  0.19180618  0.20722681  0.74879654  1
  Zr  Zr43  1  -0.00007679  0.19913013  0.24452272  1
  Zr  Zr44  1  0.21028300  0.41092000  0.00664781  1
  Zr  Zr45  1  0.49978174  0.70989326  0.11443201  1
  Zr  Zr46  1  0.29002617  0.89763715  0.64826950  1
  Zr  Zr47  1  0.59854122  0.39179784  0.49940254  1
  Zr  Zr48  1  0.09176745  0.90540355  0.63979345  1
  Zr  Zr49  1  0.92064107  0.69093400  0.59430395  1
  Zr  Zr50  1  0.69854767  0.49772868  0.13770456  1
  Zr  Zr51  1  0.31024895  0.90321761  0.12356691  1
  Zr  Zr52  1  0.90782077  0.29623578  0.89304593  1
  Zr  Zr53  1  0.79778864  0.20329271  0.24519536  1
  Zr  Zr54  1  0.58367883  0.60325429  0.73761342  1
  Zr  Zr55  1  0.19831286  0.40325959  0.24221019  1
  Zr  Zr56  1  0.50319229  0.88937180  0.38435274  1
  Zr  Zr57  1  0.00748954  0.40206168  0.47611604  1
  Zr  Zr58  1  0.49780238  0.49887905  0.38017297  1
  Zr  Zr59  1  0.69381973  0.11599601  0.39848037  1
  Zr  Zr60  1  0.79624580  0.00165880  0.24634516  1
  Zr  Zr61  1  0.70607438  0.70015549  0.86585807  1
  Zr  Zr62  1  0.49780310  0.10013803  0.39205721  1
  Zr  Zr63  1  0.20084531  0.39438256  0.49137315  1
  Zr  Zr64  1  0.71463679  0.31164386  0.86092697  1
  Zr  Zr65  1  0.90295118  0.88946429  0.37100467  1
  Zr  Zr66  1  0.90461583  0.09480822  0.11185754  1
  Zr  Zr67  1  0.19553623  0.60672570  0.75973940  1
  Zr  Zr68  1  0.30643188  0.29224011  0.36274205  1
  Zr  Zr69  1  0.70560516  0.49025789  0.63304965  1
  Zr  Zr70  1  0.70387176  0.50362134  0.87179738  1
  Zr  Zr71  1  0.41077922  0.20137145  -0.02027418  1
  Zr  Zr72  1  0.89377268  0.49721954  0.59854175  1
  Zr  Zr73  1  0.50540492  0.10734855  0.62110730  1
  Zr  Zr74  1  0.29731275  0.09678938  0.37858980  1
  Zr  Zr75  1  0.31322508  0.69467678  0.87820054  1
  Zr  Zr76  1  0.60235783  0.20378681  -0.01271058  1
  Zr  Zr77  1  0.40961425  0.79932683  0.25516127  1
  Zr  Zr78  1  0.09278805  0.30791207  0.62585438  1
  Zr  Zr79  1  -0.00249735  0.78876068  0.75674265  1
  Ta  Ta80  1  0.40074419  0.60040232  0.24718808  1
  Ta  Ta81  1  0.19992527  0.59893233  0.00397066  1
  Ta  Ta82  1  0.19814362  0.19948796  0.50568121  1
  Ta  Ta83  1  0.58736151  0.19884793  0.76668801  1
  Ta  Ta84  1  0.01107267  -0.00113671  0.24475368  1
  Ta  Ta85  1  0.40211527  0.40537072  0.23634463  1
  Ta  Ta86  1  -0.00026921  0.40466657  0.02583953  1
  Ta  Ta87  1  0.01756003  -0.00835730  0.48219115  1
  Ta  Ta88  1  0.90876110  0.89435882  0.60775565  1
  Ta  Ta89  1  0.40302353  0.40622887  -0.00336274  1
  Ta  Ta90  1  0.60254283  -0.00916266  0.51572253  1
  Ta  Ta91  1  0.60117307  0.19060132  0.24260916  1
  Ta  Ta92  1  0.10392673  0.51117302  0.13467519  1
  Ta  Ta93  1  0.29573676  0.50671893  0.61685402  1
  Ta  Ta94  1  0.09082249  0.50329529  0.89669048  1
  Ta  Ta95  1  0.10556593  0.29258206  0.35495445  1
  Ta  Ta96  1  0.29963196  0.69706186  0.61144593  1
  Ta  Ta97  1  0.90343856  0.69801179  0.90686243  1
  Ta  Ta98  1  0.88820617  0.29962200  0.61362218  1
  Ta  Ta99  1  -0.00078602  0.80323399  0.23962744  1
  Ta  Ta100  1  0.10032623  0.30145119  0.89916699  1
  Ta  Ta101  1  0.10095605  0.29357017  0.11908607  1
  Ta  Ta102  1  0.20524697  -0.00196782  0.00250671  1
  Ta  Ta103  1  0.79702685  0.20597249  0.01290415  1
  Ta  Ta104  1  0.68985202  0.09540641  0.11199005  1
  Ta  Ta105  1  0.48516699  0.51257964  0.87480108  1
  Ta  Ta106  1  0.69727647  0.30300300  0.13626388  1
  Ta  Ta107  1  0.79751062  0.60159823  0.25061470  1
  Ta  Ta108  1  0.40896561  0.78910018  0.73169413  1
  Ta  Ta109  1  0.59132048  0.60403175  0.25622926  1
  Ta  Ta110  1  0.79995332  0.79790982  0.50043577  1
  Ta  Ta111  1  0.30748103  0.70367975  0.38079852  1
  Ta  Ta112  1  0.89767838  0.69716975  0.13090403  1
  Ta  Ta113  1  0.10584022  0.89950079  0.12633113  1
  Ta  Ta114  1  0.30004582  0.89879676  0.86506515  1
  Ta  Ta115  1  0.20132796  0.18625645  0.23068479  1
  Ta  Ta116  1  0.30051950  0.30394014  0.87434268  1
  Ta  Ta117  1  0.90488047  0.89209409  0.90028698  1
  Ta  Ta118  1  0.39787543  -0.00198842  0.25661668  1
  Ta  Ta119  1  0.39402232  0.21269602  0.51565842  1
  Ti  Ti120  1  0.39573152  0.39659960  0.50796270  1
  Ti  Ti121  1  0.50327613  0.49941385  0.12958054  1
  Ti  Ti122  1  0.81825831  0.79283176  0.74715279  1
  Ti  Ti123  1  0.19535833  0.00637481  0.50309050  1
  Ti  Ti124  1  0.20348115  0.81147386  0.25913369  1
  Ti  Ti125  1  0.90130514  0.89502925  0.12264042  1
  Ti  Ti126  1  0.58946087  0.40313680  0.75491846  1
  Ti  Ti127  1  0.60133356  -0.00106187  0.74778264  1
  Ti  Ti128  1  0.49612156  0.69523242  0.39486152  1
  Ti  Ti129  1  0.80392949  0.39967587  0.02682329  1
  Ti  Ti130  1  -0.00875276  0.39936971  0.23863124  1
  Ti  Ti131  1  0.41230477  0.82667319  -0.00842268  1
  Ti  Ti132  1  0.39071648  0.58613279  0.01604227  1
  Ti  Ti133  1  0.78478375  0.39549093  0.47605160  1
  Ti  Ti134  1  0.00429270  0.60300628  0.76570190  1
  Ti  Ti135  1  0.69645660  0.70300233  0.14447531  1
  Ti  Ti136  1  0.58179359  -0.01389019  -0.02187930  1
  Ti  Ti137  1  0.59756081  0.80799602  -0.00564410  1
  Ti  Ti138  1  0.81112339  0.19873936  0.75600358  1
  Ti  Ti139  1  0.08920917  0.69838969  0.89703949  1
  Ti  Ti140  1  0.59489594  0.79935164  0.51949378  1
  Ti  Ti141  1  0.29930183  0.30517080  0.63632714  1
  Ti  Ti142  1  0.19532817  0.78967581  0.76098145  1
  Ti  Ti143  1  0.10232322  0.70292849  0.13488016  1
  Ti  Ti144  1  0.40356057  0.18612409  0.24130249  1
  Ti  Ti145  1  0.49595950  0.30013784  0.63600745  1
  Ti  Ti146  1  0.58886883  0.00379593  0.25638714  1
  Ti  Ti147  1  0.30376220  0.09521840  0.11003763  1
  Ti  Ti148  1  0.79965806  -0.00780556  0.49824654  1
  Ti  Ti149  1  0.11002312  0.09649198  0.36550558  1
  Ti  Ti150  1  0.89168887  0.29966737  0.37394182  1
  Ti  Ti151  1  0.48850022  0.50788519  0.61421284  1
  Ti  Ti152  1  0.59282398  0.79885681  0.73525928  1
  Ti  Ti153  1  0.17985409  0.01223331  0.75840838  1
  Ti  Ti154  1  0.00001256  0.59982344  0.02382871  1
  Ti  Ti155  1  0.78993067  -0.00978671  0.00693618  1
  Ti  Ti156  1  0.89558564  0.70183866  0.37022862  1
  Ti  Ti157  1  0.00149509  0.59981151  0.25019479  1
  Ti  Ti158  1  0.60720180  0.59171951  0.49701294  1
  Ti  Ti159  1  0.10272623  0.70888296  0.60730153  1
  Mo  Mo160  1  0.40093261  0.21014397  0.75042634  1
  Mo  Mo161  1  0.39587718  0.59785988  0.50272023  1
  Mo  Mo162  1  0.29948822  0.90242214  0.36574042  1
  Mo  Mo163  1  0.50595261  0.89612019  0.63080817  1
  Mo  Mo164  1  0.10951924  0.09482700  0.11954081  1
  Mo  Mo165  1  0.49949960  0.69521417  0.60350988  1
  Mo  Mo166  1  0.39944431  0.79452292  0.50955516  1
  Mo  Mo167  1  0.39543976  0.60199327  0.72793500  1
  Mo  Mo168  1  0.59658505  0.20628368  0.51082354  1
  Mo  Mo169  1  0.90236896  0.50356149  0.13788032  1
  Mo  Mo170  1  0.50472041  0.09468391  0.87333364  1
  Mo  Mo171  1  0.50270160  0.90607665  0.12888934  1
  Mo  Mo172  1  0.69640242  0.50162237  0.36066357  1
  Mo  Mo173  1  0.79309069  0.59987889  0.47546504  1
  Mo  Mo174  1  0.81024944  0.39620283  0.74646205  1
  Mo  Mo175  1  0.30051823  0.50491876  0.87915119  1
  Mo  Mo176  1  0.10082357  0.09570946  0.61231842  1
  Mo  Mo177  1  0.00049822  0.20480864  0.01850377  1
  Mo  Mo178  1  0.49626724  0.31035556  0.85846134  1
  Mo  Mo179  1  0.80233543  0.21440779  0.49047473  1
  Mo  Mo180  1  0.79936004  0.39842578  0.25396769  1
  Mo  Mo181  1  0.00065841  0.79452261  0.02187691  1
  Mo  Mo182  1  0.20546599  0.20160763  0.00860098  1
  Mo  Mo183  1  0.39895490  -0.00598093  -0.02405167  1
  Mo  Mo184  1  0.00327625  -0.00975047  0.02236724  1
  Mo  Mo185  1  -0.00122209  -0.00085980  0.75311502  1
  Mo  Mo186  1  0.69573769  0.30515251  0.35579482  1
  Mo  Mo187  1  0.20502381  0.00374395  0.23306334  1
  Mo  Mo188  1  0.00213539  0.60233875  0.47178789  1
  Mo  Mo189  1  0.20040862  0.61058545  0.25728039  1
  Mo  Mo190  1  0.59766108  0.79267453  0.25376611  1
  Mo  Mo191  1  0.00279545  0.80552632  0.48530016  1
  Mo  Mo192  1  0.89758477  0.30441284  0.12422805  1
  Mo  Mo193  1  0.80153363  0.79491011  0.23817718  1
  Mo  Mo194  1  0.50490513  0.88873859  0.85216331  1
  Mo  Mo195  1  0.09640748  0.50142998  0.34652050  1
  Mo  Mo196  1  0.30555395  0.50647126  0.13729521  1
  Mo  Mo197  1  0.59836675  0.39921952  0.25588910  1
  Mo  Mo198  1  0.80025771  0.60088076  0.02607890  1
  Mo  Mo199  1  0.10515091  0.91009471  0.35000004  1
