# generated using pymatgen
data_HfZrTaTiMo
_symmetry_space_group_name_H-M   'P 1'
_cell_length_a   15.92758437
_cell_length_b   15.91925578
_cell_length_c   15.20284068
_cell_angle_alpha   89.99208372
_cell_angle_beta   89.89525756
_cell_angle_gamma   90.02471720
_symmetry_Int_Tables_number   1
_chemical_formula_structural   HfZrTaTiMo
_chemical_formula_sum   'Hf40 Zr40 Ta40 Ti40 Mo40'
_cell_volume   3854.75383253
_cell_formula_units_Z   40
loop_
 _symmetry_equiv_pos_site_id
 _symmetry_equiv_pos_as_xyz
  1  'x, y, z'
loop_
 _atom_site_type_symbol
 _atom_site_label
 _atom_site_symmetry_multiplicity
 _atom_site_fract_x
 _atom_site_fract_y
 _atom_site_fract_z
 _atom_site_occupancy
  Hf  Hf0  1  0.02260875  0.60106361  0.24221409  1
  Hf  Hf1  1  0.39975830  0.00419966  0.50859724  1
  Hf  Hf2  1  0.30432438  0.70290547  0.12229354  1
  Hf  Hf3  1  0.48774945  0.89714431  0.14250774  1
  Hf  Hf4  1  0.70355463  0.48637959  0.63537212  1
  Hf  Hf5  1  0.29400712  0.90614059  0.37546142  1
  Hf  Hf6  1  0.89985866  0.69500848  0.86891578  1
  Hf  Hf7  1  0.41431675  0.41257956  0.75500079  1
  Hf  Hf8  1  0.51796387  0.30040191  0.64035061  1
  Hf  Hf9  1  0.10047668  0.50797158  0.87812464  1
  Hf  Hf10  1  0.09480595  0.89714851  0.88082031  1
  Hf  Hf11  1  0.30358774  0.10755306  0.37113502  1
  Hf  Hf12  1  -0.00351411  0.78752016  0.01040031  1
  Hf  Hf13  1  0.41183630  0.40427245  0.50028858  1
  Hf  Hf14  1  0.00258267  0.19263415  0.76198526  1
  Hf  Hf15  1  0.00014508  -0.00426563  0.26038485  1
  Hf  Hf16  1  0.21060576  0.60035170  0.24879833  1
  Hf  Hf17  1  0.00154622  0.39739887  0.49501549  1
  Hf  Hf18  1  0.79757202  0.79574405  0.73706649  1
  Hf  Hf19  1  0.00955260  0.61007176  0.73820859  1
  Hf  Hf20  1  0.59763630  0.79448325  0.73238943  1
  Hf  Hf21  1  0.61153683  0.19865862  0.21647313  1
  Hf  Hf22  1  0.69903484  0.49576113  0.36382669  1
  Hf  Hf23  1  0.51598166  0.10739875  0.37718951  1
  Hf  Hf24  1  0.69725504  0.90990345  0.38854514  1
  Hf  Hf25  1  0.70074755  0.89558738  0.87936627  1
  Hf  Hf26  1  0.29854782  0.10404987  0.62674869  1
  Hf  Hf27  1  0.79539059  0.00546856  0.24041944  1
  Hf  Hf28  1  0.09639694  0.90490514  0.12169336  1
  Hf  Hf29  1  0.79849864  0.20982189  0.51308049  1
  Hf  Hf30  1  0.59626330  0.79077309  0.50589582  1
  Hf  Hf31  1  0.79812025  0.79088084  0.51060617  1
  Hf  Hf32  1  0.39519183  0.79653467  0.49907589  1
  Hf  Hf33  1  0.79681155  -0.00365934  0.74423453  1
  Hf  Hf34  1  0.90820945  0.09457106  0.10329268  1
  Hf  Hf35  1  0.49441948  0.67878341  0.37630394  1
  Hf  Hf36  1  0.50003493  0.90977842  0.37107209  1
  Hf  Hf37  1  -0.00591049  0.40426687  -0.00290477  1
  Hf  Hf38  1  0.29576094  0.49946025  0.61697112  1
  Hf  Hf39  1  0.29420831  0.70213930  0.87574574  1
  Zr  Zr40  1  0.30263957  0.30250885  0.63537161  1
  Zr  Zr41  1  0.19369756  0.21630957  0.25058506  1
  Zr  Zr42  1  0.59479071  0.00090692  0.75254602  1
  Zr  Zr43  1  0.89857593  0.30601446  0.65034434  1
  Zr  Zr44  1  0.78892447  0.58322963  0.00449715  1
  Zr  Zr45  1  0.89059466  0.48703145  0.14449798  1
  Zr  Zr46  1  0.10233275  0.10168421  0.10783175  1
  Zr  Zr47  1  0.30165742  0.51089398  0.88088040  1
  Zr  Zr48  1  0.59452951  -0.00423274  0.00318539  1
  Zr  Zr49  1  0.59570386  0.79163246  0.00755429  1
  Zr  Zr50  1  0.20712837  0.19856894  -0.01124361  1
  Zr  Zr51  1  0.40433224  0.21057520  0.24231624  1
  Zr  Zr52  1  0.31098045  0.08167619  0.86608239  1
  Zr  Zr53  1  0.89435653  0.30477358  0.35119465  1
  Zr  Zr54  1  0.40498768  0.61014482  0.73190948  1
  Zr  Zr55  1  0.40854237  0.21035097  0.49783928  1
  Zr  Zr56  1  0.61720512  0.41296769  0.00599447  1
  Zr  Zr57  1  0.89220221  0.89913529  0.39110661  1
  Zr  Zr58  1  0.20403337  0.80370881  0.00512039  1
  Zr  Zr59  1  0.39067609  0.78683631  0.26553802  1
  Zr  Zr60  1  0.10006067  0.30668111  0.63380232  1
  Zr  Zr61  1  0.89341742  0.29315981  0.12565418  1
  Zr  Zr62  1  0.88399414  0.10077650  0.38442073  1
  Zr  Zr63  1  0.19625882  0.19708896  0.76259976  1
  Zr  Zr64  1  0.19344550  -0.00812979  0.74368339  1
  Zr  Zr65  1  0.60501328  0.00476014  0.23545529  1
  Zr  Zr66  1  0.38880908  0.81507742  0.74187612  1
  Zr  Zr67  1  0.18452143  0.79342910  0.26606622  1
  Zr  Zr68  1  0.89987909  0.09380743  0.62321759  1
  Zr  Zr69  1  0.50130434  0.70225477  0.87655648  1
  Zr  Zr70  1  0.59877232  0.59597942  0.73208734  1
  Zr  Zr71  1  -0.00242286  0.79783920  0.26161489  1
  Zr  Zr72  1  0.11868092  0.49042387  0.38483698  1
  Zr  Zr73  1  0.90017340  0.50601745  0.36074193  1
  Zr  Zr74  1  0.80148967  0.40075216  0.49966298  1
  Zr  Zr75  1  0.69713236  0.28301164  0.36014513  1
  Zr  Zr76  1  0.30589449  0.31572518  0.10958573  1
  Zr  Zr77  1  0.00527863  0.19374750  0.25568461  1
  Zr  Zr78  1  0.88653602  0.69517247  0.14058094  1
  Zr  Zr79  1  0.89709424  0.08551794  0.88357469  1
  Ta  Ta80  1  0.90459296  0.49980610  0.64044775  1
  Ta  Ta81  1  0.09748488  0.10068482  0.61026967  1
  Ta  Ta82  1  0.70249747  0.69057211  0.37542886  1
  Ta  Ta83  1  0.69028558  0.10700716  0.61738502  1
  Ta  Ta84  1  0.79700011  0.20555396  -0.01041775  1
  Ta  Ta85  1  0.60554253  0.19536476  0.77170913  1
  Ta  Ta86  1  0.19130156  0.00642488  0.26021712  1
  Ta  Ta87  1  0.60292566  0.39089443  0.49635954  1
  Ta  Ta88  1  0.49900982  0.09781826  0.88376625  1
  Ta  Ta89  1  0.29058390  0.70635873  0.61356955  1
  Ta  Ta90  1  0.70204866  0.30650895  0.87541138  1
  Ta  Ta91  1  0.30664454  0.30737737  0.87486546  1
  Ta  Ta92  1  0.39670108  0.81146365  -0.00176813  1
  Ta  Ta93  1  -0.00234962  0.60125255  0.50602643  1
  Ta  Ta94  1  0.19600569  0.60891767  0.73326095  1
  Ta  Ta95  1  0.19585199  0.60686633  0.50460259  1
  Ta  Ta96  1  0.19873200  0.40759458  0.76175820  1
  Ta  Ta97  1  0.70187312  0.68753670  0.86541179  1
  Ta  Ta98  1  0.60195944  0.20191394  -0.00393118  1
  Ta  Ta99  1  0.79312232  0.78840035  0.00086336  1
  Ta  Ta100  1  0.60609377  0.79348788  0.25575824  1
  Ta  Ta101  1  0.49211813  0.49649326  0.13571951  1
  Ta  Ta102  1  0.29379384  0.32387425  0.37517431  1
  Ta  Ta103  1  0.50268855  0.49419366  0.36087796  1
  Ta  Ta104  1  0.31616249  0.51448435  0.38221223  1
  Ta  Ta105  1  0.19681271  0.21290721  0.49296730  1
  Ta  Ta106  1  0.59855105  0.58886493  0.50909454  1
  Ta  Ta107  1  0.60280398  0.59982454  0.23808145  1
  Ta  Ta108  1  0.39162197  -0.00522500  0.01255507  1
  Ta  Ta109  1  0.00121054  0.20666620  0.49428478  1
  Ta  Ta110  1  0.89935216  0.89201209  0.88155230  1
  Ta  Ta111  1  0.40961939  0.60390081  0.01151425  1
  Ta  Ta112  1  0.50284334  0.30286640  0.88217218  1
  Ta  Ta113  1  0.18354990  0.79773181  0.74180790  1
  Ta  Ta114  1  0.10000965  0.10004972  0.39037329  1
  Ta  Ta115  1  0.41089335  0.19752617  0.76074791  1
  Ta  Ta116  1  0.89211339  0.90009040  0.11429058  1
  Ta  Ta117  1  0.02804029  0.39352464  0.24164069  1
  Ta  Ta118  1  0.00125059  0.59712257  0.01414316  1
  Ta  Ta119  1  0.10004887  0.69712168  0.88006745  1
  Ti  Ti120  1  0.21113239  0.41321461  0.23264726  1
  Ti  Ti121  1  0.09963330  0.30732044  0.87937794  1
  Ti  Ti122  1  0.00221503  -0.00521410  0.50015635  1
  Ti  Ti123  1  0.29660820  0.90778321  0.14728652  1
  Ti  Ti124  1  0.09255867  0.72143956  0.60920565  1
  Ti  Ti125  1  0.30081004  0.09695122  0.13267144  1
  Ti  Ti126  1  0.48115322  0.90978437  0.86909325  1
  Ti  Ti127  1  0.60201552  0.39447374  0.23267877  1
  Ti  Ti128  1  0.79246619  0.79996054  0.25602606  1
  Ti  Ti129  1  0.00307673  -0.01286675  0.74362901  1
  Ti  Ti130  1  0.09076698  0.08985501  0.89291584  1
  Ti  Ti131  1  0.69572150  0.91140766  0.61162465  1
  Ti  Ti132  1  0.28319312  0.89813680  0.61372679  1
  Ti  Ti133  1  0.19685021  0.59369246  0.02022476  1
  Ti  Ti134  1  0.49816348  0.69966560  0.13438020  1
  Ti  Ti135  1  0.79328508  0.19191851  0.76409968  1
  Ti  Ti136  1  0.90011276  0.50464738  0.86340548  1
  Ti  Ti137  1  0.69840622  0.09591491  0.39827237  1
  Ti  Ti138  1  0.60504652  0.60193056  0.01919666  1
  Ti  Ti139  1  0.71276470  0.09705266  0.09857131  1
  Ti  Ti140  1  0.69912672  0.29754010  0.64765095  1
  Ti  Ti141  1  0.10259412  0.30270744  0.10065071  1
  Ti  Ti142  1  0.48996089  0.10014672  0.11553269  1
  Ti  Ti143  1  0.51641605  0.50915860  0.88362221  1
  Ti  Ti144  1  0.19405417  0.00111648  0.49807683  1
  Ti  Ti145  1  0.91600613  0.88870614  0.62089428  1
  Ti  Ti146  1  0.49862960  0.90759719  0.62100527  1
  Ti  Ti147  1  0.50567452  0.30463113  0.36302206  1
  Ti  Ti148  1  0.21155912  -0.00689444  -0.00195253  1
  Ti  Ti149  1  0.90108397  0.30260273  0.87457076  1
  Ti  Ti150  1  0.09880126  0.49510927  0.62580368  1
  Ti  Ti151  1  0.70375258  0.88945399  0.12131087  1
  Ti  Ti152  1  0.79903117  0.59768290  0.51280040  1
  Ti  Ti153  1  0.49877596  0.30592636  0.10999335  1
  Ti  Ti154  1  0.90376432  0.69823016  0.62550159  1
  Ti  Ti155  1  0.40158234  0.19786742  -0.00689605  1
  Ti  Ti156  1  0.50639551  0.10574344  0.62693633  1
  Ti  Ti157  1  0.79923226  0.40645469  0.76922961  1
  Ti  Ti158  1  0.40583795  0.41202879  -0.00924279  1
  Ti  Ti159  1  0.89524940  0.69237630  0.37578124  1
  Mo  Mo160  1  0.10652174  0.48997807  0.11423822  1
  Mo  Mo161  1  0.80433182  0.59982622  0.74118803  1
  Mo  Mo162  1  0.69893869  0.49706864  0.14244409  1
  Mo  Mo163  1  0.70455350  0.69181628  0.61500174  1
  Mo  Mo164  1  0.60342501  0.39883801  0.76887386  1
  Mo  Mo165  1  0.40318527  0.00402795  0.72991089  1
  Mo  Mo166  1  0.79935279  -0.00103077  0.52186151  1
  Mo  Mo167  1  0.49567775  0.70000444  0.61028350  1
  Mo  Mo168  1  0.00140969  0.40644648  0.76560564  1
  Mo  Mo169  1  0.10127955  0.69434836  0.11424639  1
  Mo  Mo170  1  0.40352756  0.59963474  0.51079301  1
  Mo  Mo171  1  0.39268778  0.00841263  0.23909372  1
  Mo  Mo172  1  0.20484924  0.40244785  0.50688195  1
  Mo  Mo173  1  0.30039111  0.89666476  0.86855821  1
  Mo  Mo174  1  -0.00500904  0.79195446  0.48996861  1
  Mo  Mo175  1  0.78507210  0.39461198  0.24832402  1
  Mo  Mo176  1  0.30721911  0.50175769  0.11214732  1
  Mo  Mo177  1  0.19181737  0.80365097  0.49502091  1
  Mo  Mo178  1  0.09843166  0.90496060  0.39263636  1
  Mo  Mo179  1  0.69854023  0.10150964  0.88742426  1
  Mo  Mo180  1  0.79332436  0.19081649  0.22252482  1
  Mo  Mo181  1  0.40123746  0.59363840  0.23719116  1
  Mo  Mo182  1  0.70218253  0.50584500  0.86050714  1
  Mo  Mo183  1  0.00067260  0.20440123  -0.02062467  1
  Mo  Mo184  1  0.69684954  0.70244517  0.13992293  1
  Mo  Mo185  1  0.09327905  0.69516797  0.39658806  1
  Mo  Mo186  1  0.29390032  0.69212193  0.39327782  1
  Mo  Mo187  1  0.70481628  0.30100537  0.10883916  1
  Mo  Mo188  1  0.60311933  0.20789822  0.50693416  1
  Mo  Mo189  1  0.00038861  0.80368127  0.74954185  1
  Mo  Mo190  1  0.09436198  0.90232515  0.61136618  1
  Mo  Mo191  1  0.20181021  0.40269439  -0.01290984  1
  Mo  Mo192  1  0.59491261  0.00287998  0.51197407  1
  Mo  Mo193  1  0.10690940  0.30157722  0.37759861  1
  Mo  Mo194  1  0.80433271  0.39997948  -0.01999867  1
  Mo  Mo195  1  0.79706275  -0.01286247  0.00310277  1
  Mo  Mo196  1  0.50553435  0.49288417  0.61234363  1
  Mo  Mo197  1  0.40073870  0.40291323  0.25769772  1
  Mo  Mo198  1  0.00023670  -0.01099520  -0.00453489  1
  Mo  Mo199  1  0.79252949  0.60396607  0.25243748  1
