# generated using pymatgen
data_HfZrTaTiMo
_symmetry_space_group_name_H-M   'P 1'
_cell_length_a   15.92384496
_cell_length_b   15.93054252
_cell_length_c   15.19220575
_cell_angle_alpha   90.00123370
_cell_angle_beta   90.01898867
_cell_angle_gamma   89.93462143
_symmetry_Int_Tables_number   1
_chemical_formula_structural   HfZrTaTiMo
_chemical_formula_sum   'Hf40 Zr40 Ta40 Ti40 Mo40'
_cell_volume   3853.88750529
_cell_formula_units_Z   40
loop_
 _symmetry_equiv_pos_site_id
 _symmetry_equiv_pos_as_xyz
  1  'x, y, z'
loop_
 _atom_site_type_symbol
 _atom_site_label
 _atom_site_symmetry_multiplicity
 _atom_site_fract_x
 _atom_site_fract_y
 _atom_site_fract_z
 _atom_site_occupancy
  Hf  Hf0  1  0.10149991  0.69877990  0.87515213  1
  Hf  Hf1  1  0.20073507  0.60694227  0.26054389  1
  Hf  Hf2  1  0.80452171  -0.01281577  0.49928528  1
  Hf  Hf3  1  0.69802986  0.50611893  0.61620086  1
  Hf  Hf4  1  0.58934498  0.38348930  0.50915419  1
  Hf  Hf5  1  0.81098396  0.58387934  -0.00187789  1
  Hf  Hf6  1  0.30034484  0.30267029  0.13160328  1
  Hf  Hf7  1  0.20136276  0.38908281  0.49944951  1
  Hf  Hf8  1  0.60815074  -0.01451594  0.50197190  1
  Hf  Hf9  1  0.69907734  0.69959576  0.12089437  1
  Hf  Hf10  1  0.40683416  0.40142599  0.74537390  1
  Hf  Hf11  1  0.80246107  0.38882276  0.49677436  1
  Hf  Hf12  1  0.40759285  -0.00552714  0.50086203  1
  Hf  Hf13  1  0.20603138  0.80115758  0.75092148  1
  Hf  Hf14  1  0.09071328  0.91545848  0.86767368  1
  Hf  Hf15  1  0.80356264  0.20698899  0.77127664  1
  Hf  Hf16  1  0.09368061  0.28924877  0.85303088  1
  Hf  Hf17  1  0.19486917  0.40046502  -0.00764140  1
  Hf  Hf18  1  0.93456378  0.09821896  0.86408150  1
  Hf  Hf19  1  0.20445514  0.00483005  0.49882508  1
  Hf  Hf20  1  0.70636722  0.10074243  0.37290756  1
  Hf  Hf21  1  0.60833963  0.40384160  0.23778396  1
  Hf  Hf22  1  0.90596166  0.90543716  0.87298245  1
  Hf  Hf23  1  0.69525446  0.28811289  0.37360045  1
  Hf  Hf24  1  0.90611918  0.70884797  0.13385473  1
  Hf  Hf25  1  0.79313164  0.79293589  0.76682379  1
  Hf  Hf26  1  0.20392519  0.00130465  -0.00615077  1
  Hf  Hf27  1  0.51449426  0.10893472  0.36932255  1
  Hf  Hf28  1  0.40546981  0.20918735  0.50746358  1
  Hf  Hf29  1  0.80533314  0.80511803  -0.00122746  1
  Hf  Hf30  1  0.68980054  0.48263565  0.89613586  1
  Hf  Hf31  1  0.20952132  -0.00229702  0.74134241  1
  Hf  Hf32  1  0.59105761  0.62374222  0.48444934  1
  Hf  Hf33  1  0.69093206  0.69814480  0.63867460  1
  Hf  Hf34  1  0.19528992  0.00457979  0.27093317  1
  Hf  Hf35  1  0.09740351  0.89061418  0.13548516  1
  Hf  Hf36  1  0.10535785  0.70044713  0.61796253  1
  Hf  Hf37  1  0.89902044  0.30336469  0.12843362  1
  Hf  Hf38  1  0.57923696  0.00906273  -0.00912059  1
  Hf  Hf39  1  0.40373560  0.79170842  0.24326970  1
  Zr  Zr40  1  0.70318294  0.91096321  0.11779924  1
  Zr  Zr41  1  0.00060161  0.21090972  0.50373504  1
  Zr  Zr42  1  0.40293557  -0.00157157  0.24936299  1
  Zr  Zr43  1  0.08027408  0.90411474  0.37559354  1
  Zr  Zr44  1  0.30760819  0.30265931  0.87351105  1
  Zr  Zr45  1  0.41458304  0.78745754  0.49105323  1
  Zr  Zr46  1  0.57704841  0.80889292  0.00275685  1
  Zr  Zr47  1  0.19474599  0.59211417  0.00259216  1
  Zr  Zr48  1  -0.00596691  0.40776536  -0.00807137  1
  Zr  Zr49  1  0.40610684  0.18069882  -0.00362768  1
  Zr  Zr50  1  0.51270908  0.30608737  0.89528764  1
  Zr  Zr51  1  0.89037119  0.50169309  0.36962301  1
  Zr  Zr52  1  0.89364810  0.90647291  0.64664326  1
  Zr  Zr53  1  0.30839546  0.69839623  0.87260921  1
  Zr  Zr54  1  0.00787564  0.20227448  0.00350879  1
  Zr  Zr55  1  0.00164283  0.59226853  0.74092164  1
  Zr  Zr56  1  0.89766700  0.49959927  0.14099404  1
  Zr  Zr57  1  0.91049800  0.69372353  0.87665032  1
  Zr  Zr58  1  -0.00483491  0.60507163  0.49333114  1
  Zr  Zr59  1  0.10100376  0.09451576  0.13349989  1
  Zr  Zr60  1  0.88829737  0.49989051  0.62545886  1
  Zr  Zr61  1  0.90521053  0.09051705  0.37410246  1
  Zr  Zr62  1  0.60488496  0.39613184  0.74339497  1
  Zr  Zr63  1  0.68763788  0.69454882  0.88805820  1
  Zr  Zr64  1  0.00104903  0.39479817  0.50266169  1
  Zr  Zr65  1  0.01163594  0.61404855  0.25917007  1
  Zr  Zr66  1  0.49231968  0.51001039  0.60997960  1
  Zr  Zr67  1  0.20465524  0.19343664  -0.01092875  1
  Zr  Zr68  1  0.59143616  0.60704544  0.24479196  1
  Zr  Zr69  1  0.52520449  0.88918576  0.35646777  1
  Zr  Zr70  1  0.50475904  0.09323328  0.63184428  1
  Zr  Zr71  1  0.49409567  0.49176137  0.37795076  1
  Zr  Zr72  1  0.10186062  0.10825323  0.63384587  1
  Zr  Zr73  1  0.28697856  0.70418628  0.12357579  1
  Zr  Zr74  1  0.70771452  0.09622615  0.63037959  1
  Zr  Zr75  1  -0.02203727  0.80505640  0.50051694  1
  Zr  Zr76  1  0.49854510  0.29798880  0.12480630  1
  Zr  Zr77  1  0.30348955  0.50392824  0.61251776  1
  Zr  Zr78  1  0.69405597  0.73912213  0.35377416  1
  Zr  Zr79  1  0.00207254  0.19414555  0.25600013  1
  Ta  Ta80  1  0.48873048  0.69719264  0.87702679  1
  Ta  Ta81  1  0.20066145  0.80837203  -0.00808957  1
  Ta  Ta82  1  0.49176275  0.69807404  0.64714995  1
  Ta  Ta83  1  0.30065054  0.89251258  0.37759803  1
  Ta  Ta84  1  0.49038058  0.50257358  0.89496414  1
  Ta  Ta85  1  0.71196746  0.29113196  0.62520572  1
  Ta  Ta86  1  0.20343154  0.60554797  0.48416397  1
  Ta  Ta87  1  0.59496059  0.00122187  0.76528206  1
  Ta  Ta88  1  0.58949203  0.59307206  0.76423638  1
  Ta  Ta89  1  0.20612903  0.20020406  0.49503419  1
  Ta  Ta90  1  0.20652518  0.19903538  0.26936650  1
  Ta  Ta91  1  0.39864326  0.60112049  0.25211683  1
  Ta  Ta92  1  0.50177591  0.29533600  0.35919292  1
  Ta  Ta93  1  0.30686241  0.69372034  0.62147223  1
  Ta  Ta94  1  0.88941692  0.71384953  0.35858187  1
  Ta  Ta95  1  0.10529789  0.49488901  0.37408611  1
  Ta  Ta96  1  0.30043607  0.10159683  0.13796248  1
  Ta  Ta97  1  0.79209378  0.61837316  0.48554450  1
  Ta  Ta98  1  0.30554335  0.88943035  0.61314594  1
  Ta  Ta99  1  0.00126232  0.39710061  0.26200698  1
  Ta  Ta100  1  0.10399450  0.49256783  0.14398771  1
  Ta  Ta101  1  0.79153510  0.58793195  0.76700521  1
  Ta  Ta102  1  0.60358145  0.20128772  0.76169182  1
  Ta  Ta103  1  0.39499145  -0.00910334  0.01400781  1
  Ta  Ta104  1  0.19789887  0.40261048  0.74279914  1
  Ta  Ta105  1  0.89724518  0.10905285  0.63152016  1
  Ta  Ta106  1  0.69465971  0.90725723  0.87800753  1
  Ta  Ta107  1  0.10151112  0.89783087  0.62057990  1
  Ta  Ta108  1  0.47040025  0.90535098  0.85974876  1
  Ta  Ta109  1  0.30309722  0.49486531  0.37392811  1
  Ta  Ta110  1  0.40750395  0.19864478  0.74493683  1
  Ta  Ta111  1  0.79334228  0.19949289  0.23173526  1
  Ta  Ta112  1  0.29889243  0.48929434  0.14273043  1
  Ta  Ta113  1  0.88385777  0.69743626  0.63207606  1
  Ta  Ta114  1  0.10803639  0.30650356  0.14157740  1
  Ta  Ta115  1  0.69313306  0.89834956  0.65141796  1
  Ta  Ta116  1  0.48775680  0.49506042  0.12163215  1
  Ta  Ta117  1  0.70217434  0.10873415  0.10818451  1
  Ta  Ta118  1  0.80897333  0.20605179  -0.01101918  1
  Ta  Ta119  1  0.32046356  0.08078371  0.85677131  1
  Ti  Ti120  1  0.00208157  0.79828918  0.74220683  1
  Ti  Ti121  1  0.00766323  0.59554271  0.00903067  1
  Ti  Ti122  1  0.31238747  0.30647939  0.36961927  1
  Ti  Ti123  1  0.78501810  0.80436005  0.50722086  1
  Ti  Ti124  1  0.10462248  0.29856893  0.36634800  1
  Ti  Ti125  1  0.60405870  0.19796375  0.51467356  1
  Ti  Ti126  1  0.09552583  0.49818372  0.86257865  1
  Ti  Ti127  1  0.30264731  0.29868973  0.62784442  1
  Ti  Ti128  1  0.90141351  0.09577107  0.11758406  1
  Ti  Ti129  1  0.80231756  0.39652596  0.76527566  1
  Ti  Ti130  1  0.50662069  0.10424238  0.13482427  1
  Ti  Ti131  1  0.21294454  0.19769621  0.74607987  1
  Ti  Ti132  1  0.60891735  0.00464595  0.23942646  1
  Ti  Ti133  1  0.00745484  0.80251030  0.00204209  1
  Ti  Ti134  1  0.18777639  0.79067077  0.26981190  1
  Ti  Ti135  1  0.78587775  0.59748700  0.25305434  1
  Ti  Ti136  1  0.10569216  0.49914497  0.61643996  1
  Ti  Ti137  1  0.39174316  0.81063766  0.01109934  1
  Ti  Ti138  1  0.58957219  0.59518997  0.01329586  1
  Ti  Ti139  1  0.88935517  0.29012896  0.36471854  1
  Ti  Ti140  1  0.90952449  0.90829927  0.12768004  1
  Ti  Ti141  1  0.20064132  0.79674477  0.48979310  1
  Ti  Ti142  1  0.70094038  0.30464483  0.10285697  1
  Ti  Ti143  1  0.40100337  0.19915517  0.25085111  1
  Ti  Ti144  1  0.39382485  0.59984481  0.01354705  1
  Ti  Ti145  1  0.88373822  0.89353553  0.34869239  1
  Ti  Ti146  1  0.30413097  0.50157749  0.87067941  1
  Ti  Ti147  1  0.80960494  0.00867246  -0.00964658  1
  Ti  Ti148  1  -0.00414221  0.39373419  0.73759483  1
  Ti  Ti149  1  0.69433774  0.10729012  0.88916949  1
  Ti  Ti150  1  0.79487372  0.00823183  0.76764830  1
  Ti  Ti151  1  0.20463210  0.59398145  0.74683023  1
  Ti  Ti152  1  0.79171155  0.39883615  0.25111107  1
  Ti  Ti153  1  0.60002611  0.80602922  0.51629817  1
  Ti  Ti154  1  0.58820517  0.80244836  0.76341911  1
  Ti  Ti155  1  0.30954156  0.10402156  0.37788892  1
  Ti  Ti156  1  0.80205562  0.00585747  0.23974548  1
  Ti  Ti157  1  0.69555089  0.49877015  0.38475886  1
  Ti  Ti158  1  0.00149005  0.00530500  0.51291596  1
  Ti  Ti159  1  0.28934793  0.90277674  0.13957303  1
  Mo  Mo160  1  0.80278232  0.39226413  -0.00664671  1
  Mo  Mo161  1  0.49534236  0.90626079  0.13100502  1
  Mo  Mo162  1  0.09786351  0.70164719  0.10867518  1
  Mo  Mo163  1  0.90415867  0.30423558  0.86555845  1
  Mo  Mo164  1  0.60478080  0.19805158  0.00182716  1
  Mo  Mo165  1  0.90196832  0.49338404  0.86219741  1
  Mo  Mo166  1  0.60818364  0.19953128  0.22975586  1
  Mo  Mo167  1  0.39457943  0.60504802  0.47906511  1
  Mo  Mo168  1  0.39759268  -0.00590570  0.72467301  1
  Mo  Mo169  1  0.00203274  0.20756324  0.73399744  1
  Mo  Mo170  1  0.39647760  0.79827747  0.74037667  1
  Mo  Mo171  1  0.80152442  0.80864415  0.22572018  1
  Mo  Mo172  1  0.40096759  0.39846784  0.25710369  1
  Mo  Mo173  1  0.49085437  0.69598147  0.10748362  1
  Mo  Mo174  1  0.59623296  0.80815451  0.21756216  1
  Mo  Mo175  1  0.30042196  0.70140132  0.37421719  1
  Mo  Mo176  1  0.10426207  0.10527346  0.38822198  1
  Mo  Mo177  1  0.39058710  0.41268485  0.00179255  1
  Mo  Mo178  1  0.11068656  0.30406537  0.63701698  1
  Mo  Mo179  1  0.50107039  0.70001631  0.36094921  1
  Mo  Mo180  1  0.30497491  0.10322668  0.62482612  1
  Mo  Mo181  1  -0.00147203  -0.00303826  0.01331203  1
  Mo  Mo182  1  0.50453250  0.89042724  0.64264410  1
  Mo  Mo183  1  -0.00039514  0.80294862  0.25567776  1
  Mo  Mo184  1  0.70303640  0.29775148  0.89276352  1
  Mo  Mo185  1  0.11340596  0.10033506  0.85837590  1
  Mo  Mo186  1  0.59788246  0.40560343  0.02005354  1
  Mo  Mo187  1  0.39699114  0.38906961  0.49414137  1
  Mo  Mo188  1  0.49783384  0.09785994  0.86167970  1
  Mo  Mo189  1  0.40035660  0.59641973  0.76133576  1
  Mo  Mo190  1  0.50697874  0.29476255  0.63606464  1
  Mo  Mo191  1  0.89667554  0.29835378  0.64130765  1
  Mo  Mo192  1  0.30063588  0.89878043  0.87812890  1
  Mo  Mo193  1  0.00501829  0.00108201  0.72936225  1
  Mo  Mo194  1  0.09635832  0.70441016  0.39447249  1
  Mo  Mo195  1  0.69946575  0.49535641  0.11828405  1
  Mo  Mo196  1  0.20043118  0.39638343  0.26707364  1
  Mo  Mo197  1  0.80259444  0.19905599  0.50524716  1
  Mo  Mo198  1  0.70964351  0.91096063  0.35522023  1
  Mo  Mo199  1  -0.00964752  -0.00004219  0.24090378  1
