# generated using pymatgen
data_HfZrTaTiMo
_symmetry_space_group_name_H-M   'P 1'
_cell_length_a   15.92734646
_cell_length_b   15.92918388
_cell_length_c   15.21407817
_cell_angle_alpha   90.01150131
_cell_angle_beta   90.06909634
_cell_angle_gamma   90.13430198
_symmetry_Int_Tables_number   1
_chemical_formula_structural   HfZrTaTiMo
_chemical_formula_sum   'Hf40 Zr40 Ta40 Ti40 Mo40'
_cell_volume   3859.94465695
_cell_formula_units_Z   40
loop_
 _symmetry_equiv_pos_site_id
 _symmetry_equiv_pos_as_xyz
  1  'x, y, z'
loop_
 _atom_site_type_symbol
 _atom_site_label
 _atom_site_symmetry_multiplicity
 _atom_site_fract_x
 _atom_site_fract_y
 _atom_site_fract_z
 _atom_site_occupancy
  Hf  Hf0  1  0.59079616  0.40119602  0.00063866  1
  Hf  Hf1  1  0.70204582  0.29386514  0.37158936  1
  Hf  Hf2  1  0.19744390  0.39802726  0.48928314  1
  Hf  Hf3  1  0.39396453  0.39942696  0.74282569  1
  Hf  Hf4  1  0.39663564  0.59871719  0.75094260  1
  Hf  Hf5  1  0.00456995  0.78858738  0.75596553  1
  Hf  Hf6  1  0.59706658  0.60346244  0.01067481  1
  Hf  Hf7  1  0.88066713  0.08740089  0.62311248  1
  Hf  Hf8  1  0.89884081  0.49759856  0.12688351  1
  Hf  Hf9  1  0.10791505  0.90770672  0.86178471  1
  Hf  Hf10  1  0.00213584  0.79830264  0.51648724  1
  Hf  Hf11  1  0.40005267  0.19464601  0.72326411  1
  Hf  Hf12  1  0.89002910  0.09678187  0.88163831  1
  Hf  Hf13  1  -0.00087241  -0.00429573  0.50956617  1
  Hf  Hf14  1  0.89309557  0.90144638  0.11474960  1
  Hf  Hf15  1  0.10978951  0.48880420  0.13593175  1
  Hf  Hf16  1  0.19805716  0.20438537  0.00834179  1
  Hf  Hf17  1  0.78712243  0.39046896  0.01111529  1
  Hf  Hf18  1  0.01093931  0.80490960  -0.00298997  1
  Hf  Hf19  1  0.19889935  0.59760247  0.49327784  1
  Hf  Hf20  1  0.58939989  -0.01089444  0.25285091  1
  Hf  Hf21  1  -0.00506284  0.40916405  0.75005362  1
  Hf  Hf22  1  0.39583068  -0.00930380  0.24080979  1
  Hf  Hf23  1  0.61543313  0.82890548  0.76099400  1
  Hf  Hf24  1  0.21087458  0.60174166  0.25670634  1
  Hf  Hf25  1  0.40286462  0.19937132  0.25945950  1
  Hf  Hf26  1  0.69537251  0.50667173  0.14451022  1
  Hf  Hf27  1  0.00566265  0.00451356  0.00443449  1
  Hf  Hf28  1  0.69930665  0.70718388  0.63632959  1
  Hf  Hf29  1  0.90190149  0.89725602  0.37299475  1
  Hf  Hf30  1  0.31045263  0.71564730  0.37653080  1
  Hf  Hf31  1  0.89900939  0.49521280  0.90173389  1
  Hf  Hf32  1  0.80355800  0.39435946  0.76138412  1
  Hf  Hf33  1  0.50606526  0.69912776  0.86451064  1
  Hf  Hf34  1  0.88948474  0.31194363  0.60280326  1
  Hf  Hf35  1  0.59782515  0.40284240  0.48582653  1
  Hf  Hf36  1  0.29519881  0.29526093  0.86293710  1
  Hf  Hf37  1  0.51151890  0.70156751  0.63290844  1
  Hf  Hf38  1  0.69086915  0.90544558  0.11382297  1
  Hf  Hf39  1  0.78983265  0.79898457  0.24123166  1
  Zr  Zr40  1  0.10115041  0.10068182  0.86016188  1
  Zr  Zr41  1  0.00087466  -0.00086673  0.24566663  1
  Zr  Zr42  1  0.20270240  0.00145636  0.01353662  1
  Zr  Zr43  1  0.89043339  0.09890650  0.12783627  1
  Zr  Zr44  1  0.30928760  0.48953535  0.13735509  1
  Zr  Zr45  1  0.89766151  0.49325967  0.35758211  1
  Zr  Zr46  1  0.39672611  0.39833185  -0.00868501  1
  Zr  Zr47  1  0.40651921  0.59627809  0.48981750  1
  Zr  Zr48  1  0.59107373  0.19584535  0.00919826  1
  Zr  Zr49  1  0.19920399  0.00554842  0.52063429  1
  Zr  Zr50  1  0.69561760  0.29745070  0.61860408  1
  Zr  Zr51  1  0.89638948  0.69705602  0.62623068  1
  Zr  Zr52  1  0.80071562  0.59410558  0.49302526  1
  Zr  Zr53  1  0.69946846  0.10136785  0.36791925  1
  Zr  Zr54  1  0.49248103  0.09525977  0.38528634  1
  Zr  Zr55  1  0.48614197  0.30747273  0.13719253  1
  Zr  Zr56  1  0.10557287  0.10981678  0.36763165  1
  Zr  Zr57  1  0.39836954  0.39372030  0.49447033  1
  Zr  Zr58  1  0.41385448  0.80521663  0.00172818  1
  Zr  Zr59  1  -0.01359753  0.20295289  0.73898643  1
  Zr  Zr60  1  0.09493771  0.29935966  0.86653950  1
  Zr  Zr61  1  0.01321483  0.19802620  0.51165764  1
  Zr  Zr62  1  0.50785389  0.90250457  0.61782546  1
  Zr  Zr63  1  0.70188743  0.69656567  0.86779381  1
  Zr  Zr64  1  0.11268166  0.89923189  0.36438771  1
  Zr  Zr65  1  0.19329415  0.60138571  0.75482844  1
  Zr  Zr66  1  0.30701530  0.91016329  0.86900053  1
  Zr  Zr67  1  0.78022402  0.18521375  0.74881071  1
  Zr  Zr68  1  0.31156320  0.70388927  0.62113479  1
  Zr  Zr69  1  0.20241914  0.80705871  0.51919321  1
  Zr  Zr70  1  0.68803212  0.28724582  0.87114535  1
  Zr  Zr71  1  0.09987799  0.70820363  0.36425353  1
  Zr  Zr72  1  0.01616377  0.60040572  0.00186627  1
  Zr  Zr73  1  0.12327646  0.72010816  0.12806696  1
  Zr  Zr74  1  0.60232661  0.60245840  0.48182139  1
  Zr  Zr75  1  0.81376968  0.59284321  0.75458166  1
  Zr  Zr76  1  0.90098601  0.69761877  0.36025564  1
  Zr  Zr77  1  0.70649774  0.49625446  0.62571737  1
  Zr  Zr78  1  0.40571612  0.00854303  0.01184641  1
  Zr  Zr79  1  0.00933162  0.59731256  0.76193777  1
  Ta  Ta80  1  0.20356080  0.20099877  0.72695906  1
  Ta  Ta81  1  0.59274872  0.39347914  0.26075132  1
  Ta  Ta82  1  0.60129404  0.79808170  0.48201737  1
  Ta  Ta83  1  0.10337492  0.11145754  0.14271733  1
  Ta  Ta84  1  0.00386561  0.60408551  0.23494037  1
  Ta  Ta85  1  0.31253034  0.70125872  0.12359073  1
  Ta  Ta86  1  0.90252521  0.29175252  0.37748753  1
  Ta  Ta87  1  0.89409330  0.69916757  0.12049348  1
  Ta  Ta88  1  0.30335708  0.70352743  0.88418418  1
  Ta  Ta89  1  0.00197276  0.40255562  0.48945355  1
  Ta  Ta90  1  0.19662278  0.39990564  -0.00411592  1
  Ta  Ta91  1  0.29743946  0.50231816  0.87821654  1
  Ta  Ta92  1  0.50607073  0.50104846  0.63007416  1
  Ta  Ta93  1  -0.00091559  0.20449355  0.01738015  1
  Ta  Ta94  1  0.21040749  0.59939432  0.00185374  1
  Ta  Ta95  1  0.79574717  0.79948837  -0.00647615  1
  Ta  Ta96  1  0.40613632  0.59876287  0.00409739  1
  Ta  Ta97  1  0.40462782  0.80964380  0.75500073  1
  Ta  Ta98  1  0.00361912  0.59640602  0.49892733  1
  Ta  Ta99  1  0.69215651  0.50023526  0.87428011  1
  Ta  Ta100  1  0.89702029  0.29306244  0.89329624  1
  Ta  Ta101  1  -0.03182674  -0.02087018  0.74789993  1
  Ta  Ta102  1  0.29652218  0.10062645  0.38503961  1
  Ta  Ta103  1  0.20563631  0.79568676  0.74950683  1
  Ta  Ta104  1  0.81516681  0.81859949  0.76631743  1
  Ta  Ta105  1  0.40779911  0.60702861  0.25440180  1
  Ta  Ta106  1  0.79121559  0.19540521  0.00781245  1
  Ta  Ta107  1  0.71064296  0.90562980  0.61216878  1
  Ta  Ta108  1  0.09535956  0.49612499  0.36067653  1
  Ta  Ta109  1  0.90061692  0.10639725  0.37244264  1
  Ta  Ta110  1  0.29525373  0.29160711  0.37165021  1
  Ta  Ta111  1  0.79231867  0.79712054  0.48872575  1
  Ta  Ta112  1  0.49459909  0.29004900  0.86212713  1
  Ta  Ta113  1  0.39323620  0.19913983  0.00075747  1
  Ta  Ta114  1  0.30222865  0.10318649  0.86141285  1
  Ta  Ta115  1  0.09577283  0.49969104  0.61536782  1
  Ta  Ta116  1  0.59380444  0.39740402  0.75274367  1
  Ta  Ta117  1  0.77657847  -0.00881776  0.76526684  1
  Ta  Ta118  1  0.31209692  0.90835256  0.38581882  1
  Ta  Ta119  1  0.58812943  0.19817581  0.50663225  1
  Ti  Ti120  1  0.29967686  0.11117621  0.13544553  1
  Ti  Ti121  1  0.40615536  0.00541753  0.73508971  1
  Ti  Ti122  1  0.50400756  0.10462056  0.86540117  1
  Ti  Ti123  1  0.49842522  0.50102094  0.35958576  1
  Ti  Ti124  1  0.59143371  0.80062397  0.25813280  1
  Ti  Ti125  1  0.60424464  -0.00052184  0.49577851  1
  Ti  Ti126  1  0.79298466  0.19195097  0.49852772  1
  Ti  Ti127  1  0.28625918  0.30421268  0.14526516  1
  Ti  Ti128  1  -0.00225071  0.38237766  0.24115973  1
  Ti  Ti129  1  0.29456996  0.49605366  0.62399488  1
  Ti  Ti130  1  0.19362749  0.40847000  0.75209556  1
  Ti  Ti131  1  0.78971456  0.60559001  0.00998105  1
  Ti  Ti132  1  0.00312409  0.80469505  0.23178492  1
  Ti  Ti133  1  0.20817732  -0.00341402  0.24295657  1
  Ti  Ti134  1  0.40984716  0.80805865  0.24949421  1
  Ti  Ti135  1  0.69639995  0.68920074  0.35044165  1
  Ti  Ti136  1  0.60056902  0.80229873  -0.00210157  1
  Ti  Ti137  1  0.50089073  0.50048866  0.86598630  1
  Ti  Ti138  1  0.10154173  0.30995756  0.62842266  1
  Ti  Ti139  1  0.79817023  -0.00417719  0.48784649  1
  Ti  Ti140  1  0.50833827  0.70362908  0.13691815  1
  Ti  Ti141  1  0.28965996  0.88282239  0.12266178  1
  Ti  Ti142  1  0.79623494  -0.00253211  0.25642246  1
  Ti  Ti143  1  0.39714688  0.00302832  0.51608684  1
  Ti  Ti144  1  0.68948630  0.29150287  0.13933077  1
  Ti  Ti145  1  0.80666349  0.20431699  0.24101368  1
  Ti  Ti146  1  0.70444195  0.49941570  0.35413499  1
  Ti  Ti147  1  0.50367117  0.10175432  0.13440291  1
  Ti  Ti148  1  0.09580083  0.08846471  0.64900486  1
  Ti  Ti149  1  0.10028046  0.29545918  0.35848154  1
  Ti  Ti150  1  0.00774924  0.38833301  0.01101622  1
  Ti  Ti151  1  0.51328104  0.92367733  0.87501743  1
  Ti  Ti152  1  0.80125265  0.38787305  0.24383161  1
  Ti  Ti153  1  0.90122246  0.69984989  0.88963162  1
  Ti  Ti154  1  0.69719591  0.89682015  0.37538778  1
  Ti  Ti155  1  0.21024884  0.20400303  0.51940666  1
  Ti  Ti156  1  0.49924164  0.30195722  0.62127322  1
  Ti  Ti157  1  0.10235035  0.90092865  0.64848975  1
  Ti  Ti158  1  0.49805549  0.50142535  0.14227675  1
  Ti  Ti159  1  0.69533233  0.09686106  0.13005057  1
  Mo  Mo160  1  0.69534864  0.70694214  0.12601420  1
  Mo  Mo161  1  0.39311204  0.20146925  0.50220551  1
  Mo  Mo162  1  0.20819983  0.80026987  -0.01461622  1
  Mo  Mo163  1  0.20457261  0.19817429  0.24665479  1
  Mo  Mo164  1  0.59144804  0.00425411  0.01137798  1
  Mo  Mo165  1  0.30129752  0.49913414  0.36665515  1
  Mo  Mo166  1  0.49508770  0.89751782  0.39095448  1
  Mo  Mo167  1  0.21356051  0.00400986  0.73684758  1
  Mo  Mo168  1  0.59600362  0.60116588  0.25039557  1
  Mo  Mo169  1  0.60515843  0.01717862  0.74267201  1
  Mo  Mo170  1  0.39757516  0.40170061  0.27166717  1
  Mo  Mo171  1  0.89521373  0.29820046  0.11816343  1
  Mo  Mo172  1  0.30787985  0.90231502  0.63937874  1
  Mo  Mo173  1  0.30278599  0.10128583  0.61618117  1
  Mo  Mo174  1  0.78910251  0.00384521  -0.01060851  1
  Mo  Mo175  1  0.10848333  0.90678037  0.13274648  1
  Mo  Mo176  1  0.10574044  0.49571318  0.89442937  1
  Mo  Mo177  1  0.11563514  0.70577266  0.88903929  1
  Mo  Mo178  1  0.80129336  0.60329179  0.23666379  1
  Mo  Mo179  1  0.50332020  0.09812046  0.61183725  1
  Mo  Mo180  1  0.41103128  0.80761702  0.49966856  1
  Mo  Mo181  1  0.50105678  0.89290735  0.12287542  1
  Mo  Mo182  1  0.50055685  0.29632616  0.37486869  1
  Mo  Mo183  1  0.58866804  0.19436451  0.73094982  1
  Mo  Mo184  1  0.69522123  0.90515762  0.89574538  1
  Mo  Mo185  1  0.50337461  0.70471565  0.36201660  1
  Mo  Mo186  1  0.60045725  0.58838473  0.75144225  1
  Mo  Mo187  1  0.69364622  0.08883415  0.60580734  1
  Mo  Mo188  1  0.22395610  0.81228235  0.25691470  1
  Mo  Mo189  1  0.89846930  0.90064563  0.89209526  1
  Mo  Mo190  1  0.68278445  0.09025731  0.88729563  1
  Mo  Mo191  1  0.10066713  0.30035378  0.13543832  1
  Mo  Mo192  1  0.10229348  0.69664452  0.62030899  1
  Mo  Mo193  1  0.28981927  0.30791066  0.62547500  1
  Mo  Mo194  1  0.90851428  0.49372855  0.60688742  1
  Mo  Mo195  1  0.19874523  0.39622116  0.26934733  1
  Mo  Mo196  1  0.60044648  0.19702724  0.24286223  1
  Mo  Mo197  1  0.80176958  0.39729305  0.47426000  1
  Mo  Mo198  1  -0.00405334  0.20542269  0.24386711  1
  Mo  Mo199  1  0.88682010  0.89558301  0.61643056  1
