# generated using pymatgen
data_HfZrTaTiMo
_symmetry_space_group_name_H-M   'P 1'
_cell_length_a   16.33824504
_cell_length_b   16.32914758
_cell_length_c   14.40686164
_cell_angle_alpha   89.94982306
_cell_angle_beta   89.98694235
_cell_angle_gamma   89.99075370
_symmetry_Int_Tables_number   1
_chemical_formula_structural   HfZrTaTiMo
_chemical_formula_sum   'Hf40 Zr40 Ta40 Ti40 Mo40'
_cell_volume   3843.59943661
_cell_formula_units_Z   40
loop_
 _symmetry_equiv_pos_site_id
 _symmetry_equiv_pos_as_xyz
  1  'x, y, z'
loop_
 _atom_site_type_symbol
 _atom_site_label
 _atom_site_symmetry_multiplicity
 _atom_site_fract_x
 _atom_site_fract_y
 _atom_site_fract_z
 _atom_site_occupancy
  Hf  Hf0  1  0.00563399  0.20354587  0.75783946  1
  Hf  Hf1  1  0.29463001  0.89134637  0.37747593  1
  Hf  Hf2  1  0.69460900  0.10291922  0.39124205  1
  Hf  Hf3  1  0.00641663  0.60331827  0.48271855  1
  Hf  Hf4  1  0.19214776  0.79154786  0.51102114  1
  Hf  Hf5  1  0.19542788  0.39556901  0.76092058  1
  Hf  Hf6  1  0.38594676  0.00658251  0.26184054  1
  Hf  Hf7  1  0.48947368  0.30828227  0.86837370  1
  Hf  Hf8  1  -0.00925505  0.40753624  0.75333897  1
  Hf  Hf9  1  0.60335152  0.79250359  0.74146638  1
  Hf  Hf10  1  0.49363582  0.09575603  0.12603996  1
  Hf  Hf11  1  0.49799690  0.90021884  0.85658885  1
  Hf  Hf12  1  0.70992695  0.89517958  0.86949315  1
  Hf  Hf13  1  0.60723477  0.20332354  0.74520483  1
  Hf  Hf14  1  0.39387963  0.20189094  0.49958313  1
  Hf  Hf15  1  0.50040005  0.90945961  0.62525579  1
  Hf  Hf16  1  0.19638265  0.80554146  -0.00686099  1
  Hf  Hf17  1  0.60115761  -0.00440580  0.25073356  1
  Hf  Hf18  1  -0.00727978  0.20634388  0.50065337  1
  Hf  Hf19  1  0.39694949  0.20018170  -0.00115932  1
  Hf  Hf20  1  0.60033747  0.79551554  -0.00171102  1
  Hf  Hf21  1  0.70415816  0.69727429  0.87602098  1
  Hf  Hf22  1  0.69753184  0.90056889  0.38863783  1
  Hf  Hf23  1  0.10150503  0.30950122  0.37631187  1
  Hf  Hf24  1  -0.00262527  0.81938107  -0.01103673  1
  Hf  Hf25  1  -0.01435280  0.40819335  0.49821662  1
  Hf  Hf26  1  0.01047956  -0.00219948  0.49978920  1
  Hf  Hf27  1  0.50500430  0.30642453  0.37306710  1
  Hf  Hf28  1  0.00674768  0.00359551  0.26927011  1
  Hf  Hf29  1  0.20733525  0.19844087  0.49923838  1
  Hf  Hf30  1  0.89850446  0.49601765  0.12266683  1
  Hf  Hf31  1  0.79880311  0.21724584  0.51832190  1
  Hf  Hf32  1  0.59738460  0.20056365  -0.00461485  1
  Hf  Hf33  1  0.59523212  0.78891147  0.50494264  1
  Hf  Hf34  1  0.60393473  0.39720943  0.51342203  1
  Hf  Hf35  1  0.70366973  0.09384219  0.87113484  1
  Hf  Hf36  1  0.70216033  0.30293341  0.12602148  1
  Hf  Hf37  1  0.00455855  -0.00448542  0.75595027  1
  Hf  Hf38  1  0.50039975  0.49689579  0.36113688  1
  Hf  Hf39  1  0.81215033  0.59517793  0.49660548  1
  Zr  Zr40  1  0.70183575  0.89273834  0.12721115  1
  Zr  Zr41  1  0.39494421  0.78402000  0.50591790  1
  Zr  Zr42  1  0.89789157  0.10159537  0.87892161  1
  Zr  Zr43  1  0.31113258  0.50097171  0.87941918  1
  Zr  Zr44  1  0.30774994  0.89272815  0.85728176  1
  Zr  Zr45  1  0.00707087  0.79274274  0.49611926  1
  Zr  Zr46  1  0.21285351  0.39352406  0.23660413  1
  Zr  Zr47  1  0.88951987  0.10075599  0.38154820  1
  Zr  Zr48  1  0.30670040  0.71163713  0.12360701  1
  Zr  Zr49  1  0.30477133  0.50897360  0.64092132  1
  Zr  Zr50  1  0.09812093  0.70914746  0.13075432  1
  Zr  Zr51  1  0.39623664  0.59974691  0.49698839  1
  Zr  Zr52  1  0.38445248  0.21088951  0.25680228  1
  Zr  Zr53  1  0.90205133  0.89895137  0.61733726  1
  Zr  Zr54  1  0.59765726  0.19941860  0.23989226  1
  Zr  Zr55  1  0.90691038  0.09619621  0.12362725  1
  Zr  Zr56  1  0.30759083  0.90530948  0.62548538  1
  Zr  Zr57  1  0.18971167  -0.00397999  -0.01778221  1
  Zr  Zr58  1  0.09261440  0.51969444  0.63248028  1
  Zr  Zr59  1  0.80822851  0.58962489  0.74615179  1
  Zr  Zr60  1  0.70025489  0.49559306  0.36625971  1
  Zr  Zr61  1  -0.00327975  0.60039449  0.24852447  1
  Zr  Zr62  1  0.50292538  0.09443396  0.39368436  1
  Zr  Zr63  1  0.89791746  0.70462019  0.87912113  1
  Zr  Zr64  1  0.70596886  0.30806398  0.36531525  1
  Zr  Zr65  1  0.48202472  0.88732628  0.13491162  1
  Zr  Zr66  1  0.20130817  0.18882931  0.27071276  1
  Zr  Zr67  1  0.49408914  0.69980216  0.11890463  1
  Zr  Zr68  1  0.10127335  0.30465925  0.62405501  1
  Zr  Zr69  1  0.60747652  0.40178614  0.75680500  1
  Zr  Zr70  1  0.28481952  0.09871138  0.11430173  1
  Zr  Zr71  1  0.10138122  0.50854423  0.87986746  1
  Zr  Zr72  1  0.90342253  0.29211974  0.12368723  1
  Zr  Zr73  1  0.10100487  0.28533329  0.12199982  1
  Zr  Zr74  1  0.79997426  0.39216665  0.74330094  1
  Zr  Zr75  1  0.60579427  0.61068712  0.24057189  1
  Zr  Zr76  1  0.20760816  0.41252873  0.49953841  1
  Zr  Zr77  1  0.59581450  -0.00167211  -0.00034589  1
  Zr  Zr78  1  0.19600830  0.00514802  0.74403312  1
  Zr  Zr79  1  0.78783399  0.79074179  0.25234681  1
  Ta  Ta80  1  0.60204198  0.59632645  0.75097488  1
  Ta  Ta81  1  0.49176312  0.69580828  0.87637310  1
  Ta  Ta82  1  0.20203085  0.60227759  0.00536416  1
  Ta  Ta83  1  0.49770813  0.50419415  0.88124265  1
  Ta  Ta84  1  0.39370701  -0.00286491  -0.00963566  1
  Ta  Ta85  1  0.89569743  0.89502433  0.37590179  1
  Ta  Ta86  1  0.59189347  0.59864058  0.50725671  1
  Ta  Ta87  1  0.30615877  0.69833478  0.87363584  1
  Ta  Ta88  1  0.00799247  0.39611036  -0.00075536  1
  Ta  Ta89  1  0.69731757  0.49520518  0.12386547  1
  Ta  Ta90  1  0.49725411  0.49779521  0.63947341  1
  Ta  Ta91  1  0.89972304  0.29856836  0.88459618  1
  Ta  Ta92  1  0.09319917  0.09796655  0.11413724  1
  Ta  Ta93  1  0.30684970  0.30463010  0.63641602  1
  Ta  Ta94  1  0.11191478  0.50977773  0.35892880  1
  Ta  Ta95  1  0.80140302  -0.00294219  0.74292281  1
  Ta  Ta96  1  0.30187380  0.30043421  0.87296306  1
  Ta  Ta97  1  0.00039764  0.60337531  0.00463518  1
  Ta  Ta98  1  0.29091784  0.69455532  0.35099416  1
  Ta  Ta99  1  0.00192884  0.39875372  0.24856779  1
  Ta  Ta100  1  0.59974584  0.40168884  -0.00262269  1
  Ta  Ta101  1  0.20411596  0.39566979  0.00287311  1
  Ta  Ta102  1  0.89900802  0.50022760  0.89359782  1
  Ta  Ta103  1  0.80282973  0.78985574  0.50491480  1
  Ta  Ta104  1  0.49557848  0.30013103  0.62820938  1
  Ta  Ta105  1  0.71045027  0.09523050  0.11869198  1
  Ta  Ta106  1  0.79596699  0.60266923  0.01142281  1
  Ta  Ta107  1  0.00704280  0.79970514  0.74595468  1
  Ta  Ta108  1  0.09982047  0.90552029  0.14119446  1
  Ta  Ta109  1  0.69618107  0.09591351  0.62436387  1
  Ta  Ta110  1  0.69983884  0.50436882  0.61893938  1
  Ta  Ta111  1  0.89705962  0.70901398  0.12086209  1
  Ta  Ta112  1  0.49697807  0.89735576  0.38280066  1
  Ta  Ta113  1  0.10164445  0.10276901  0.62369587  1
  Ta  Ta114  1  0.70230203  0.69192075  0.62140167  1
  Ta  Ta115  1  0.29896030  0.50750989  0.35962224  1
  Ta  Ta116  1  0.81542780  -0.01812913  -0.00067023  1
  Ta  Ta117  1  0.30355252  0.10265299  0.86506433  1
  Ta  Ta118  1  0.80495129  0.79746641  0.73054075  1
  Ta  Ta119  1  0.50192700  0.09792686  0.62380408  1
  Ti  Ti120  1  0.80106637  0.19525953  0.00210704  1
  Ti  Ti121  1  0.89675508  0.10490380  0.63392084  1
  Ti  Ti122  1  0.91444887  0.68688541  0.63194755  1
  Ti  Ti123  1  0.39822128  0.59791965  0.24163130  1
  Ti  Ti124  1  0.29481127  0.89904455  0.13159772  1
  Ti  Ti125  1  0.30750103  0.50291581  0.11484527  1
  Ti  Ti126  1  0.80058552  -0.00009914  0.50981609  1
  Ti  Ti127  1  0.10439482  0.50188107  0.12590780  1
  Ti  Ti128  1  0.89988128  0.70518849  0.36192336  1
  Ti  Ti129  1  0.69721925  0.90196510  0.62080723  1
  Ti  Ti130  1  0.79975788  -0.00027957  0.24995928  1
  Ti  Ti131  1  0.20182483  0.61168919  0.50306580  1
  Ti  Ti132  1  0.49710712  0.09297567  0.85865070  1
  Ti  Ti133  1  0.19841708  0.00195142  0.50125186  1
  Ti  Ti134  1  0.19365435  0.79733630  0.74098417  1
  Ti  Ti135  1  0.90720976  0.89518514  0.14301970  1
  Ti  Ti136  1  0.89070026  0.48726340  0.35600263  1
  Ti  Ti137  1  0.49716469  0.49671635  0.11563425  1
  Ti  Ti138  1  0.19256107  0.20224149  -0.02121193  1
  Ti  Ti139  1  0.79697224  0.60173636  0.24118636  1
  Ti  Ti140  1  0.80295626  0.19919228  0.25170394  1
  Ti  Ti141  1  0.00414065  -0.00367453  -0.01365926  1
  Ti  Ti142  1  0.49054392  0.68786941  0.64333319  1
  Ti  Ti143  1  0.79891006  0.39862363  -0.00163617  1
  Ti  Ti144  1  0.60095059  0.59669751  -0.00029370  1
  Ti  Ti145  1  0.69660866  0.69528237  0.38553142  1
  Ti  Ti146  1  0.09925855  0.70058653  0.87325496  1
  Ti  Ti147  1  0.49611534  0.31008283  0.12086339  1
  Ti  Ti148  1  0.49452726  0.70363301  0.36045201  1
  Ti  Ti149  1  0.19987737  0.61271496  0.75456655  1
  Ti  Ti150  1  0.80696375  0.39942943  0.51493201  1
  Ti  Ti151  1  0.19961660  0.19947707  0.75313189  1
  Ti  Ti152  1  0.70254107  0.50077854  0.88541867  1
  Ti  Ti153  1  0.70950062  0.29355085  0.87939316  1
  Ti  Ti154  1  0.39609523  0.19610653  0.74320184  1
  Ti  Ti155  1  0.11260938  0.70631350  0.34898079  1
  Ti  Ti156  1  0.19126278  0.00361391  0.26871052  1
  Ti  Ti157  1  0.00269724  0.19623057  0.26882396  1
  Ti  Ti158  1  0.39482194  0.39745052  0.23832425  1
  Ti  Ti159  1  0.39936885  0.40424022  0.50122306  1
  Mo  Mo160  1  0.10308825  0.89742796  0.36996799  1
  Mo  Mo161  1  0.80291826  0.19737715  0.74590241  1
  Mo  Mo162  1  0.59420697  0.79824702  0.27052338  1
  Mo  Mo163  1  0.60191677  -0.00338956  0.50847289  1
  Mo  Mo164  1  -0.00402066  0.80603258  0.25841973  1
  Mo  Mo165  1  0.30009240  0.10616901  0.63112229  1
  Mo  Mo166  1  0.39749230  0.80417118  -0.01974175  1
  Mo  Mo167  1  0.89938989  0.50410112  0.61900634  1
  Mo  Mo168  1  0.40094929  0.39643870  0.74843081  1
  Mo  Mo169  1  0.10244381  0.10364766  0.87715955  1
  Mo  Mo170  1  0.40538028  0.59823717  0.76046262  1
  Mo  Mo171  1  0.00698507  0.19817016  -0.01386325  1
  Mo  Mo172  1  0.40140482  0.01583427  0.74637672  1
  Mo  Mo173  1  0.69931144  0.69456925  0.11425956  1
  Mo  Mo174  1  0.20399789  0.59631532  0.23113708  1
  Mo  Mo175  1  0.80278062  0.40208920  0.23499586  1
  Mo  Mo176  1  0.10425132  0.89978677  0.62779645  1
  Mo  Mo177  1  0.40142863  0.39906973  0.01021197  1
  Mo  Mo178  1  0.29933379  0.08396423  0.39611844  1
  Mo  Mo179  1  0.29662565  0.69921697  0.64775071  1
  Mo  Mo180  1  0.40147837  0.78872087  0.74452491  1
  Mo  Mo181  1  0.89887710  0.29916130  0.64407097  1
  Mo  Mo182  1  0.89956695  0.30635055  0.35660281  1
  Mo  Mo183  1  0.80469699  0.80140794  0.01247735  1
  Mo  Mo184  1  0.40133939  0.59892133  -0.00119645  1
  Mo  Mo185  1  0.30694332  0.32185292  0.39129255  1
  Mo  Mo186  1  -0.00125495  0.60566247  0.77148044  1
  Mo  Mo187  1  0.59182206  0.40385955  0.22622145  1
  Mo  Mo188  1  0.09868579  0.89339444  0.86018171  1
  Mo  Mo189  1  0.59886698  0.20380855  0.51782227  1
  Mo  Mo190  1  0.69692931  0.29964676  0.62490941  1
  Mo  Mo191  1  0.60563103  0.00132042  0.74217779  1
  Mo  Mo192  1  0.30031601  0.29967171  0.10082009  1
  Mo  Mo193  1  0.09969132  0.69799533  0.64105236  1
  Mo  Mo194  1  0.10174023  0.30224469  0.88155634  1
  Mo  Mo195  1  0.89567091  0.89887652  0.85875488  1
  Mo  Mo196  1  0.10081140  0.10107525  0.39390336  1
  Mo  Mo197  1  0.39611736  0.00287732  0.50334052  1
  Mo  Mo198  1  0.19776415  0.80932440  0.24406629  1
  Mo  Mo199  1  0.39630557  0.80188232  0.26756325  1
