# generated using pymatgen
data_HfZrTaTiMo
_symmetry_space_group_name_H-M   'P 1'
_cell_length_a   15.91768355
_cell_length_b   15.92920469
_cell_length_c   15.19958092
_cell_angle_alpha   90.00748462
_cell_angle_beta   89.90783979
_cell_angle_gamma   90.00150575
_symmetry_Int_Tables_number   1
_chemical_formula_structural   HfZrTaTiMo
_chemical_formula_sum   'Hf40 Zr40 Ta40 Ti40 Mo40'
_cell_volume   3853.94052198
_cell_formula_units_Z   40
loop_
 _symmetry_equiv_pos_site_id
 _symmetry_equiv_pos_as_xyz
  1  'x, y, z'
loop_
 _atom_site_type_symbol
 _atom_site_label
 _atom_site_symmetry_multiplicity
 _atom_site_fract_x
 _atom_site_fract_y
 _atom_site_fract_z
 _atom_site_occupancy
  Hf  Hf0  1  0.60607925  0.59676607  0.75074847  1
  Hf  Hf1  1  0.29305720  0.30103181  0.62108659  1
  Hf  Hf2  1  0.20045801  0.60506367  0.00390474  1
  Hf  Hf3  1  0.19676231  0.00090342  0.24227103  1
  Hf  Hf4  1  0.19436759  0.60900145  0.48832810  1
  Hf  Hf5  1  0.21149456  0.80128915  0.51136333  1
  Hf  Hf6  1  0.39777177  0.80204622  0.00116820  1
  Hf  Hf7  1  0.50210317  0.29241500  0.38074447  1
  Hf  Hf8  1  0.80225034  0.60342055  0.47611760  1
  Hf  Hf9  1  0.50370829  0.29246241  0.87308700  1
  Hf  Hf10  1  0.00588445  0.81416567  0.24735096  1
  Hf  Hf11  1  0.40460796  -0.00050632  0.26127275  1
  Hf  Hf12  1  0.70413041  0.10021078  0.39158489  1
  Hf  Hf13  1  0.79434985  0.81187891  0.26205732  1
  Hf  Hf14  1  0.69149167  0.10889874  0.86958881  1
  Hf  Hf15  1  0.39693316  -0.00702814  -0.00685647  1
  Hf  Hf16  1  0.60210866  0.39660949  0.00944750  1
  Hf  Hf17  1  0.18534798  0.38370802  -0.00938636  1
  Hf  Hf18  1  0.20382681  0.38156793  0.24767156  1
  Hf  Hf19  1  -0.00248698  0.59975296  0.76494329  1
  Hf  Hf20  1  0.30748100  0.70906480  0.14202585  1
  Hf  Hf21  1  0.49555712  0.49325867  0.13558393  1
  Hf  Hf22  1  0.69782494  0.70664085  0.61962293  1
  Hf  Hf23  1  0.39918997  -0.00485436  0.51435525  1
  Hf  Hf24  1  0.51087380  0.49477648  0.37555615  1
  Hf  Hf25  1  0.59766501  0.60541408  0.01517243  1
  Hf  Hf26  1  0.39107605  0.19807122  0.26500584  1
  Hf  Hf27  1  0.00622846  0.80846529  0.00465183  1
  Hf  Hf28  1  0.70021236  0.30197519  0.86640451  1
  Hf  Hf29  1  0.10076730  0.10490300  0.10429052  1
  Hf  Hf30  1  0.20347119  -0.00791002  -0.00027421  1
  Hf  Hf31  1  0.00001975  0.39024702  0.49887595  1
  Hf  Hf32  1  0.69469086  0.50648730  0.60272406  1
  Hf  Hf33  1  0.90685649  0.50797401  0.62512811  1
  Hf  Hf34  1  0.90558633  0.92120983  0.39417533  1
  Hf  Hf35  1  0.08778972  0.10462196  0.39345852  1
  Hf  Hf36  1  0.69578533  0.89604468  0.88161042  1
  Hf  Hf37  1  0.19460734  0.40279346  0.75555514  1
  Hf  Hf38  1  0.79783240  0.79496908  0.48116034  1
  Hf  Hf39  1  0.69783370  0.09361583  0.10458278  1
  Zr  Zr40  1  0.50189984  0.70570382  0.86050741  1
  Zr  Zr41  1  0.80720039  -0.00208727  0.74691672  1
  Zr  Zr42  1  0.89248152  0.70477970  0.13185514  1
  Zr  Zr43  1  0.29019272  0.49876462  0.61428060  1
  Zr  Zr44  1  0.40281784  0.60578682  0.00660346  1
  Zr  Zr45  1  0.80811763  0.40129880  0.49117287  1
  Zr  Zr46  1  0.30320022  0.10672625  0.12023274  1
  Zr  Zr47  1  -0.00426274  0.80268506  0.75647272  1
  Zr  Zr48  1  0.70447971  0.89716084  0.11121709  1
  Zr  Zr49  1  0.20026214  0.59750222  0.25095005  1
  Zr  Zr50  1  0.90427695  0.89106879  0.61652744  1
  Zr  Zr51  1  0.09579744  0.48852212  0.36409384  1
  Zr  Zr52  1  0.50356217  0.49671930  0.61107175  1
  Zr  Zr53  1  0.60037826  -0.00307631  0.73883016  1
  Zr  Zr54  1  0.08934727  0.69387948  0.62645951  1
  Zr  Zr55  1  0.90429879  0.49004505  0.12441948  1
  Zr  Zr56  1  0.70170330  0.49944880  0.88678089  1
  Zr  Zr57  1  0.69515628  0.30327321  0.63004692  1
  Zr  Zr58  1  0.50719395  0.10124196  0.11108962  1
  Zr  Zr59  1  -0.00145802  0.00404769  0.23995830  1
  Zr  Zr60  1  0.69883052  0.29601545  0.38069265  1
  Zr  Zr61  1  0.78987377  0.61020841  0.01264775  1
  Zr  Zr62  1  0.01110434  0.21103335  -0.02139812  1
  Zr  Zr63  1  0.81000727  0.38072774  0.24999384  1
  Zr  Zr64  1  0.39607752  0.61195931  0.49467707  1
  Zr  Zr65  1  0.19962199  0.80181448  0.73323396  1
  Zr  Zr66  1  0.79909635  0.41503866  0.74146205  1
  Zr  Zr67  1  -0.00641047  0.19988465  0.24007039  1
  Zr  Zr68  1  -0.00176353  0.60278539  0.47992111  1
  Zr  Zr69  1  0.39402800  0.59915408  0.74278930  1
  Zr  Zr70  1  0.39995577  0.19560509  0.73674123  1
  Zr  Zr71  1  0.82166674  0.19522548  0.51775340  1
  Zr  Zr72  1  0.10482993  0.90920830  0.39582283  1
  Zr  Zr73  1  0.80750903  0.21106545  -0.00993432  1
  Zr  Zr74  1  0.50324985  0.90170926  0.12626556  1
  Zr  Zr75  1  0.80219925  0.00771161  0.25258258  1
  Zr  Zr76  1  0.30377882  0.49497797  0.88559435  1
  Zr  Zr77  1  0.09262011  0.49316294  0.12733736  1
  Zr  Zr78  1  0.40049337  0.59357781  0.26285816  1
  Zr  Zr79  1  0.48910242  0.29534681  0.12460243  1
  Ta  Ta80  1  0.50142392  0.09552130  0.87102691  1
  Ta  Ta81  1  0.19469184  0.60161376  0.75781468  1
  Ta  Ta82  1  0.30470554  0.89950419  0.85273462  1
  Ta  Ta83  1  0.39661983  0.19226834  0.50732999  1
  Ta  Ta84  1  0.90551291  0.30921765  0.85702150  1
  Ta  Ta85  1  0.60559702  0.18911283  0.24918863  1
  Ta  Ta86  1  0.70057610  0.29284475  0.12373811  1
  Ta  Ta87  1  0.28666277  0.29206903  0.39847596  1
  Ta  Ta88  1  0.30456987  0.48138237  0.11709734  1
  Ta  Ta89  1  0.40519050  0.80155760  0.49675742  1
  Ta  Ta90  1  0.20631855  0.80543791  0.00923319  1
  Ta  Ta91  1  0.09780483  0.70201709  0.13059648  1
  Ta  Ta92  1  0.90157304  0.09794521  0.09698458  1
  Ta  Ta93  1  0.30044970  0.09322999  0.86024696  1
  Ta  Ta94  1  0.59697990  0.81005985  0.26940394  1
  Ta  Ta95  1  0.00725400  0.00538871  0.75474227  1
  Ta  Ta96  1  0.89785373  0.49803868  0.89090533  1
  Ta  Ta97  1  0.50577083  0.71092458  0.62580781  1
  Ta  Ta98  1  0.70230591  0.49986422  0.14333875  1
  Ta  Ta99  1  0.29911713  0.29064696  0.87488692  1
  Ta  Ta100  1  0.89545205  0.70346582  0.88798849  1
  Ta  Ta101  1  0.10810286  0.90278525  0.87327918  1
  Ta  Ta102  1  0.79767773  0.79721598  0.75656149  1
  Ta  Ta103  1  0.39955468  0.39220868  0.49588062  1
  Ta  Ta104  1  0.50698213  0.09377962  0.39193073  1
  Ta  Ta105  1  0.49902644  0.49217780  0.88098664  1
  Ta  Ta106  1  0.79708591  0.00580675  0.52269999  1
  Ta  Ta107  1  0.50738532  0.70641914  0.15088111  1
  Ta  Ta108  1  0.28926035  0.09824854  0.39216238  1
  Ta  Ta109  1  0.30159857  0.90297527  0.37509830  1
  Ta  Ta110  1  0.80303930  0.60961303  0.75671115  1
  Ta  Ta111  1  0.59579472  0.19457314  0.51528507  1
  Ta  Ta112  1  0.29719688  0.71555652  0.36221953  1
  Ta  Ta113  1  0.60310185  0.00035048  0.26309187  1
  Ta  Ta114  1  0.10346170  0.70425422  0.88371206  1
  Ta  Ta115  1  0.49944312  0.89756927  0.86269705  1
  Ta  Ta116  1  0.29630861  0.70956406  0.86634786  1
  Ta  Ta117  1  0.60009514  0.79180455  0.00481508  1
  Ta  Ta118  1  0.29476378  0.29373623  0.10577455  1
  Ta  Ta119  1  0.29479942  0.48588303  0.38739447  1
  Ti  Ti120  1  0.08961011  0.49663912  0.88253617  1
  Ti  Ti121  1  0.50247901  0.09695524  0.62718228  1
  Ti  Ti122  1  0.60173620  0.38910912  0.24740296  1
  Ti  Ti123  1  0.19714340  0.81469014  0.24061716  1
  Ti  Ti124  1  0.18875630  0.19270092  0.52160312  1
  Ti  Ti125  1  0.50230268  0.30344317  0.61972120  1
  Ti  Ti126  1  0.10686705  0.09811302  0.86867354  1
  Ti  Ti127  1  0.10145816  0.29067511  0.38378753  1
  Ti  Ti128  1  0.09723507  0.49577500  0.62393776  1
  Ti  Ti129  1  0.89755345  0.91061922  0.10524910  1
  Ti  Ti130  1  0.68620731  0.91203186  0.39981270  1
  Ti  Ti131  1  0.80544751  0.19013276  0.24139762  1
  Ti  Ti132  1  0.09209859  0.90528332  0.61738384  1
  Ti  Ti133  1  0.90793389  0.69548687  0.34934877  1
  Ti  Ti134  1  -0.01249168  0.03132770  0.53001564  1
  Ti  Ti135  1  0.19755143  0.19649925  0.25497841  1
  Ti  Ti136  1  0.39690921  0.19600092  -0.01425493  1
  Ti  Ti137  1  0.90894642  0.29826895  0.64846612  1
  Ti  Ti138  1  0.20591897  0.00289394  0.52432761  1
  Ti  Ti139  1  0.19487247  0.19415326  0.74753573  1
  Ti  Ti140  1  0.69287121  0.89051303  0.61562826  1
  Ti  Ti141  1  0.00118105  0.60341289  0.00142657  1
  Ti  Ti142  1  0.90374864  0.90082648  0.87998531  1
  Ti  Ti143  1  0.00566226  0.78696094  0.48423455  1
  Ti  Ti144  1  0.40034206  0.39914926  0.74898859  1
  Ti  Ti145  1  0.69087634  0.69187701  0.35569083  1
  Ti  Ti146  1  0.08880277  0.30243163  0.12560402  1
  Ti  Ti147  1  0.59196089  0.40420855  0.75037490  1
  Ti  Ti148  1  0.09218643  0.29961467  0.63811146  1
  Ti  Ti149  1  0.50594711  0.88949853  0.62694721  1
  Ti  Ti150  1  0.38929544  0.39051462  0.26369799  1
  Ti  Ti151  1  0.70014246  0.70569754  0.87323288  1
  Ti  Ti152  1  0.90300983  0.49997126  0.34844293  1
  Ti  Ti153  1  0.91198188  0.28060816  0.37846975  1
  Ti  Ti154  1  0.80777228  0.00429063  -0.02145164  1
  Ti  Ti155  1  0.70151881  0.10903475  0.63684336  1
  Ti  Ti156  1  0.89505212  0.70026542  0.62158335  1
  Ti  Ti157  1  0.69731139  0.49871733  0.36369253  1
  Ti  Ti158  1  0.20332180  0.00152955  0.73205248  1
  Ti  Ti159  1  0.59476620  0.61700916  0.48392979  1
  Mo  Mo160  1  0.10143978  0.29796730  0.85031154  1
  Mo  Mo161  1  0.30520981  0.70031683  0.63584042  1
  Mo  Mo162  1  0.00172042  0.38613975  0.26474220  1
  Mo  Mo163  1  -0.00396813  0.39752635  -0.01743141  1
  Mo  Mo164  1  0.40409020  0.80695508  0.26916288  1
  Mo  Mo165  1  0.10343787  0.70856626  0.35290510  1
  Mo  Mo166  1  0.59577316  0.79916959  0.48548703  1
  Mo  Mo167  1  0.60314720  0.00201090  0.51976352  1
  Mo  Mo168  1  0.19146033  0.39305966  0.50697343  1
  Mo  Mo169  1  0.80078245  0.80258154  -0.01040329  1
  Mo  Mo170  1  0.90198879  0.29636947  0.11802651  1
  Mo  Mo171  1  0.30954182  0.89955194  0.63229144  1
  Mo  Mo172  1  -0.00078300  0.00272146  -0.02274010  1
  Mo  Mo173  1  0.29690332  0.09914432  0.62819075  1
  Mo  Mo174  1  0.40197386  0.80169154  0.73648383  1
  Mo  Mo175  1  0.80336032  0.39785717  0.01520117  1
  Mo  Mo176  1  0.00227546  0.40751154  0.75613942  1
  Mo  Mo177  1  0.90194640  0.10740896  0.65625604  1
  Mo  Mo178  1  0.60321102  0.59963830  0.24721323  1
  Mo  Mo179  1  0.79764366  0.59758969  0.25480865  1
  Mo  Mo180  1  0.50352056  0.90455654  0.38914716  1
  Mo  Mo181  1  0.10064164  0.90170697  0.11071760  1
  Mo  Mo182  1  0.80428842  0.20294404  0.75418261  1
  Mo  Mo183  1  0.20576703  0.19455570  -0.02272889  1
  Mo  Mo184  1  0.10090435  0.10088520  0.63379619  1
  Mo  Mo185  1  0.60522686  0.79926244  0.74956241  1
  Mo  Mo186  1  0.89866957  0.10398637  0.38473313  1
  Mo  Mo187  1  0.59745757  0.39774652  0.48996190  1
  Mo  Mo188  1  0.39718749  0.39224479  -0.00799096  1
  Mo  Mo189  1  0.59609927  0.20200944  0.73093710  1
  Mo  Mo190  1  0.59841342  0.19870758  0.00525424  1
  Mo  Mo191  1  0.59473034  -0.00486524  -0.02149574  1
  Mo  Mo192  1  0.90544735  0.09986660  0.87032333  1
  Mo  Mo193  1  0.00566050  0.19899251  0.75318170  1
  Mo  Mo194  1  0.40077663  -0.00335322  0.74068697  1
  Mo  Mo195  1  0.00519421  0.20649562  0.52454413  1
  Mo  Mo196  1  0.69141020  0.70668969  0.14667511  1
  Mo  Mo197  1  0.50059888  0.70524027  0.36941946  1
  Mo  Mo198  1  0.30064267  0.89947451  0.14276802  1
  Mo  Mo199  1  0.00070104  0.60438394  0.24768601  1
