# generated using pymatgen
data_HfZrTaTiMo
_symmetry_space_group_name_H-M   'P 1'
_cell_length_a   16.32755184
_cell_length_b   16.30184892
_cell_length_c   14.45895597
_cell_angle_alpha   90.16191114
_cell_angle_beta   89.97142829
_cell_angle_gamma   90.90259689
_symmetry_Int_Tables_number   1
_chemical_formula_structural   HfZrTaTiMo
_chemical_formula_sum   'Hf40 Zr40 Ta40 Ti40 Mo40'
_cell_volume   3848.03665911
_cell_formula_units_Z   40
loop_
 _symmetry_equiv_pos_site_id
 _symmetry_equiv_pos_as_xyz
  1  'x, y, z'
loop_
 _atom_site_type_symbol
 _atom_site_label
 _atom_site_symmetry_multiplicity
 _atom_site_fract_x
 _atom_site_fract_y
 _atom_site_fract_z
 _atom_site_occupancy
  Hf  Hf0  1  0.10662256  0.30163897  0.62399758  1
  Hf  Hf1  1  0.30347748  0.29318948  0.88134983  1
  Hf  Hf2  1  0.10175646  0.91059395  0.37886204  1
  Hf  Hf3  1  0.00390592  0.59334406  0.00000165  1
  Hf  Hf4  1  0.90350504  0.09992257  0.11747623  1
  Hf  Hf5  1  0.79064128  -0.00383473  0.24828793  1
  Hf  Hf6  1  0.40186919  0.80415979  -0.00945683  1
  Hf  Hf7  1  0.79868009  0.20578039  0.51039558  1
  Hf  Hf8  1  0.68588753  0.49024125  0.35917435  1
  Hf  Hf9  1  0.00431060  0.79688260  0.00145860  1
  Hf  Hf10  1  0.30599345  0.90829164  0.85676682  1
  Hf  Hf11  1  0.78261456  0.58832394  -0.00112700  1
  Hf  Hf12  1  0.30809282  0.69280807  0.61747103  1
  Hf  Hf13  1  0.70137954  0.30442139  0.11710692  1
  Hf  Hf14  1  0.69843821  0.09887360  0.63866953  1
  Hf  Hf15  1  0.89312609  0.90560025  0.62119711  1
  Hf  Hf16  1  0.89323324  0.29858310  0.11218553  1
  Hf  Hf17  1  0.30510319  0.69247633  0.87222156  1
  Hf  Hf18  1  0.89625096  0.49310053  0.86968778  1
  Hf  Hf19  1  0.31038045  0.32094351  0.63848374  1
  Hf  Hf20  1  0.70422924  0.30205821  0.35517224  1
  Hf  Hf21  1  0.51045072  0.31008602  0.35576283  1
  Hf  Hf22  1  0.60265950  -0.00618755  0.49182622  1
  Hf  Hf23  1  0.59878170  0.80131126  -0.01118565  1
  Hf  Hf24  1  0.49930282  0.29427856  0.11322924  1
  Hf  Hf25  1  0.40353260  0.79977639  0.27077185  1
  Hf  Hf26  1  -0.00837896  0.19745297  0.75630814  1
  Hf  Hf27  1  0.20353410  0.79867163  0.73513449  1
  Hf  Hf28  1  0.20455042  0.60358099  0.26949420  1
  Hf  Hf29  1  0.10027107  0.90080446  0.86147368  1
  Hf  Hf30  1  0.89269583  0.68998689  0.86728036  1
  Hf  Hf31  1  -0.00935010  0.59904408  0.50915021  1
  Hf  Hf32  1  0.68528454  0.50243323  0.64591771  1
  Hf  Hf33  1  -0.00086633  0.38995793  0.24996558  1
  Hf  Hf34  1  0.31373704  0.51005483  0.12694202  1
  Hf  Hf35  1  0.39188794  0.19694159  0.26378408  1
  Hf  Hf36  1  0.90071627  0.89830136  0.87536778  1
  Hf  Hf37  1  0.60269262  0.20300990  0.50836077  1
  Hf  Hf38  1  0.09817118  0.90722970  0.61433421  1
  Hf  Hf39  1  0.30298208  0.70185773  0.12698015  1
  Zr  Zr40  1  0.19640961  0.80113495  -0.00296849  1
  Zr  Zr41  1  0.11817095  0.10847575  0.86941804  1
  Zr  Zr42  1  0.09548618  0.10508632  0.37975562  1
  Zr  Zr43  1  0.79398288  0.39481611  0.51524020  1
  Zr  Zr44  1  0.19584472  0.40300054  0.00901630  1
  Zr  Zr45  1  0.30218193  0.90807191  0.13935782  1
  Zr  Zr46  1  0.90459564  0.90257577  0.11936528  1
  Zr  Zr47  1  0.78823166  0.80435709  0.24640808  1
  Zr  Zr48  1  0.19932089  0.58444338  0.74528571  1
  Zr  Zr49  1  0.40263893  0.00346083  0.49193586  1
  Zr  Zr50  1  0.49822251  0.09917564  0.11835019  1
  Zr  Zr51  1  0.79217178  0.59869267  0.49944088  1
  Zr  Zr52  1  0.90194231  0.68878233  0.35285395  1
  Zr  Zr53  1  0.69226130  0.29819865  0.87825486  1
  Zr  Zr54  1  0.59496535  0.38867428  0.51994082  1
  Zr  Zr55  1  0.20256078  0.00141450  -0.00427584  1
  Zr  Zr56  1  0.19507401  0.59791224  -0.00312247  1
  Zr  Zr57  1  0.10633106  0.48922538  0.61472144  1
  Zr  Zr58  1  -0.00688570  0.79316749  0.73401038  1
  Zr  Zr59  1  0.00209080  0.80475285  0.25508225  1
  Zr  Zr60  1  0.30337896  0.10676880  0.11586391  1
  Zr  Zr61  1  0.00569632  0.20153735  -0.00687002  1
  Zr  Zr62  1  0.68240662  0.68759172  0.12119392  1
  Zr  Zr63  1  0.49129002  0.68586579  0.11743789  1
  Zr  Zr64  1  0.50249770  0.68852214  0.62732546  1
  Zr  Zr65  1  0.11343935  0.30528782  0.86220550  1
  Zr  Zr66  1  0.09590782  0.49921122  0.37852133  1
  Zr  Zr67  1  0.09682983  0.69856528  0.14576824  1
  Zr  Zr68  1  0.89073826  0.48882993  0.36504378  1
  Zr  Zr69  1  0.79211886  0.79626401  0.49102788  1
  Zr  Zr70  1  0.69692905  0.69784223  0.63967209  1
  Zr  Zr71  1  0.09807052  0.10623325  0.61620197  1
  Zr  Zr72  1  0.59983402  0.79890792  0.26557201  1
  Zr  Zr73  1  -0.00189545  0.79250028  0.49542777  1
  Zr  Zr74  1  0.50053438  0.10067035  0.64225884  1
  Zr  Zr75  1  0.69415029  0.10277245  0.11255018  1
  Zr  Zr76  1  0.40809895  0.21594266  0.49856774  1
  Zr  Zr77  1  0.88984844  0.48991734  0.12310971  1
  Zr  Zr78  1  0.50027314  0.90001173  0.63700121  1
  Zr  Zr79  1  0.49887637  0.90878885  0.12570672  1
  Ta  Ta80  1  0.70201140  0.89772459  0.86778094  1
  Ta  Ta81  1  0.49878775  0.49819833  0.37814892  1
  Ta  Ta82  1  0.09364703  0.69130497  0.85563567  1
  Ta  Ta83  1  0.30548520  0.10891352  0.62945211  1
  Ta  Ta84  1  0.89766915  0.10141183  0.38075200  1
  Ta  Ta85  1  0.59936404  0.79828918  0.48988905  1
  Ta  Ta86  1  0.40385181  0.79937634  0.49159018  1
  Ta  Ta87  1  0.09872979  0.49721302  0.14275872  1
  Ta  Ta88  1  0.90017293  0.91386853  0.38180762  1
  Ta  Ta89  1  0.70178923  0.10354885  0.37248540  1
  Ta  Ta90  1  0.21434742  0.20633013  0.49420576  1
  Ta  Ta91  1  0.80178269  0.19602792  0.75752373  1
  Ta  Ta92  1  0.60161290  0.41467926  -0.00043178  1
  Ta  Ta93  1  0.89379304  0.69302822  0.12355158  1
  Ta  Ta94  1  0.90199795  0.30530266  0.64193243  1
  Ta  Ta95  1  0.79532642  -0.00214360  -0.00994925  1
  Ta  Ta96  1  0.80551778  0.19533011  0.24908621  1
  Ta  Ta97  1  0.89508077  0.50162645  0.64579105  1
  Ta  Ta98  1  0.69768793  0.90009230  0.63703371  1
  Ta  Ta99  1  0.10678285  0.91354922  0.14125617  1
  Ta  Ta100  1  0.30432702  0.29988151  0.12151381  1
  Ta  Ta101  1  0.10681733  0.29349179  0.13644310  1
  Ta  Ta102  1  0.31070976  0.49989488  0.38337618  1
  Ta  Ta103  1  0.10248508  0.69287664  0.61924856  1
  Ta  Ta104  1  0.79427750  0.00404884  0.50006746  1
  Ta  Ta105  1  0.59654133  0.79872695  0.76329539  1
  Ta  Ta106  1  0.20786645  0.80026357  0.49524297  1
  Ta  Ta107  1  0.60336715  -0.00720548  0.26068825  1
  Ta  Ta108  1  0.79193645  0.79785497  -0.00126491  1
  Ta  Ta109  1  0.10488090  0.10301199  0.13397984  1
  Ta  Ta110  1  0.20847509  0.39779767  0.25465759  1
  Ta  Ta111  1  0.20536998  0.00614391  0.73468734  1
  Ta  Ta112  1  -0.00470820  0.00747601  0.75043480  1
  Ta  Ta113  1  0.80414226  0.00713072  0.76061605  1
  Ta  Ta114  1  0.21052096  0.00500903  0.50276539  1
  Ta  Ta115  1  0.78562474  0.59507446  0.24140768  1
  Ta  Ta116  1  0.39980676  0.40398279  0.24771615  1
  Ta  Ta117  1  0.48444543  0.48819749  0.62806795  1
  Ta  Ta118  1  0.30414419  0.49034271  0.87572533  1
  Ta  Ta119  1  0.10159357  0.29984345  0.37910969  1
  Ti  Ti120  1  0.69115008  0.49841821  0.86174235  1
  Ti  Ti121  1  0.20204596  0.79713067  0.27325439  1
  Ti  Ti122  1  0.79179132  0.39246259  0.75094732  1
  Ti  Ti123  1  0.60458247  0.00367565  0.76684945  1
  Ti  Ti124  1  -0.00659887  0.20874067  0.50105046  1
  Ti  Ti125  1  0.39702559  0.58562108  0.74784739  1
  Ti  Ti126  1  0.60322215  0.19287023  0.24570469  1
  Ti  Ti127  1  0.49867247  0.68461830  0.87395930  1
  Ti  Ti128  1  0.20576670  0.60355294  0.49265329  1
  Ti  Ti129  1  0.90045466  0.09949892  0.61780429  1
  Ti  Ti130  1  0.20496785  0.20585452  0.26118385  1
  Ti  Ti131  1  0.80012887  0.18904356  -0.02088183  1
  Ti  Ti132  1  0.00915812  0.40782825  0.75516251  1
  Ti  Ti133  1  0.30309686  0.90839424  0.37483363  1
  Ti  Ti134  1  0.40356654  0.00803581  -0.01873972  1
  Ti  Ti135  1  0.59656120  0.60136463  0.49029298  1
  Ti  Ti136  1  0.89644149  0.30708475  0.87732534  1
  Ti  Ti137  1  0.00831428  0.40073420  -0.00093098  1
  Ti  Ti138  1  0.40790238  0.40702470  0.00183234  1
  Ti  Ti139  1  0.50351904  0.09720251  0.36662301  1
  Ti  Ti140  1  0.50589712  0.11411332  0.87594255  1
  Ti  Ti141  1  0.50108115  0.30451105  0.87657518  1
  Ti  Ti142  1  0.79636060  0.79832937  0.75233916  1
  Ti  Ti143  1  0.31074418  0.90678832  0.62740124  1
  Ti  Ti144  1  0.69276751  0.69017219  0.86727363  1
  Ti  Ti145  1  0.89645970  0.29577364  0.37174998  1
  Ti  Ti146  1  0.00676703  0.00363011  -0.00600416  1
  Ti  Ti147  1  0.40796571  0.20814329  0.75299996  1
  Ti  Ti148  1  -0.00170185  0.00697021  0.25170989  1
  Ti  Ti149  1  -0.01107065  0.39435789  0.50200572  1
  Ti  Ti150  1  0.40538045  0.79595335  0.75025306  1
  Ti  Ti151  1  0.51007492  0.50913278  0.13138103  1
  Ti  Ti152  1  0.49797020  0.90876171  0.86391841  1
  Ti  Ti153  1  0.21575919  0.39513818  0.48659199  1
  Ti  Ti154  1  0.60470886  0.00060428  -0.01520166  1
  Ti  Ti155  1  0.21345753  0.01676118  0.26544441  1
  Ti  Ti156  1  0.40627973  0.60669215  0.27535755  1
  Ti  Ti157  1  0.30554327  0.10882684  0.86318000  1
  Ti  Ti158  1  -0.00252624  0.19887661  0.25284834  1
  Ti  Ti159  1  0.50073521  0.49970902  0.86873803  1
  Mo  Mo160  1  0.59024713  0.39953372  0.75705107  1
  Mo  Mo161  1  0.49922632  0.69346822  0.39104895  1
  Mo  Mo162  1  0.69774479  0.09686064  0.87268005  1
  Mo  Mo163  1  0.89515437  0.69071530  0.64051310  1
  Mo  Mo164  1  0.79511928  0.59775238  0.75772260  1
  Mo  Mo165  1  0.40268581  0.59465588  0.50054000  1
  Mo  Mo166  1  0.30720292  0.49976160  0.60888848  1
  Mo  Mo167  1  0.68895911  0.49471688  0.12914808  1
  Mo  Mo168  1  0.50212661  0.30407309  0.65149452  1
  Mo  Mo169  1  0.30069155  0.30614781  0.36501158  1
  Mo  Mo170  1  -0.00077958  0.59497969  0.74104043  1
  Mo  Mo171  1  0.30197639  0.70013248  0.38887057  1
  Mo  Mo172  1  0.40289628  0.59120012  -0.01352179  1
  Mo  Mo173  1  0.40106903  0.01054015  0.75747714  1
  Mo  Mo174  1  0.09805413  0.49888875  0.86915864  1
  Mo  Mo175  1  0.59887685  0.20406279  0.75668498  1
  Mo  Mo176  1  0.40349096  0.00252475  0.26760149  1
  Mo  Mo177  1  0.59564389  0.20096413  -0.01261896  1
  Mo  Mo178  1  0.40214646  0.20235437  -0.01526920  1
  Mo  Mo179  1  0.59364507  0.59221201  -0.02031969  1
  Mo  Mo180  1  0.90062759  0.09686323  0.88154559  1
  Mo  Mo181  1  0.59311088  0.40279346  0.22731333  1
  Mo  Mo182  1  0.79801921  0.39310189  0.24514067  1
  Mo  Mo183  1  0.21021211  0.20078491  0.72873296  1
  Mo  Mo184  1  0.59217437  0.59918358  0.26643003  1
  Mo  Mo185  1  0.40231149  0.40027793  0.48598320  1
  Mo  Mo186  1  0.29876887  0.10461967  0.38649018  1
  Mo  Mo187  1  0.58974124  0.59801620  0.75987244  1
  Mo  Mo188  1  0.69417071  0.69224219  0.36852788  1
  Mo  Mo189  1  0.70201892  0.90282428  0.38994289  1
  Mo  Mo190  1  0.70092861  0.29486312  0.65147421  1
  Mo  Mo191  1  -0.00779114  0.00729012  0.50332962  1
  Mo  Mo192  1  0.79432673  0.39866465  -0.01737128  1
  Mo  Mo193  1  0.49996720  0.90111871  0.37503680  1
  Mo  Mo194  1  0.40270167  0.40441343  0.76819430  1
  Mo  Mo195  1  0.69451771  0.90205926  0.09735338  1
  Mo  Mo196  1  0.20348406  0.20305536  0.01990592  1
  Mo  Mo197  1  -0.00461429  0.59514127  0.24229487  1
  Mo  Mo198  1  0.20560374  0.40172186  0.75458701  1
  Mo  Mo199  1  0.10428429  0.70206169  0.38897986  1
