# generated using pymatgen
data_HfZrTaTiMo
_symmetry_space_group_name_H-M   'P 1'
_cell_length_a   15.93954985
_cell_length_b   15.93121496
_cell_length_c   15.20800067
_cell_angle_alpha   89.99460885
_cell_angle_beta   89.96680361
_cell_angle_gamma   89.98375217
_symmetry_Int_Tables_number   1
_chemical_formula_structural   HfZrTaTiMo
_chemical_formula_sum   'Hf40 Zr40 Ta40 Ti40 Mo40'
_cell_volume   3861.86404538
_cell_formula_units_Z   40
loop_
 _symmetry_equiv_pos_site_id
 _symmetry_equiv_pos_as_xyz
  1  'x, y, z'
loop_
 _atom_site_type_symbol
 _atom_site_label
 _atom_site_symmetry_multiplicity
 _atom_site_fract_x
 _atom_site_fract_y
 _atom_site_fract_z
 _atom_site_occupancy
  Hf  Hf0  1  -0.01112508  0.80856990  0.49974054  1
  Hf  Hf1  1  0.79552909  0.19964743  -0.01912025  1
  Hf  Hf2  1  0.09166089  0.30747484  0.62759688  1
  Hf  Hf3  1  0.70174200  0.89117859  0.14069089  1
  Hf  Hf4  1  0.40924442  0.78582325  0.48062575  1
  Hf  Hf5  1  0.00257732  0.20262835  -0.00624777  1
  Hf  Hf6  1  0.11265073  0.08825791  0.10922476  1
  Hf  Hf7  1  0.88476224  0.50070654  0.12593774  1
  Hf  Hf8  1  0.19882007  0.00044419  0.49947653  1
  Hf  Hf9  1  0.20274860  0.79135120  0.75142049  1
  Hf  Hf10  1  0.68823657  0.49366918  0.64520934  1
  Hf  Hf11  1  0.10266708  0.89287135  0.12389055  1
  Hf  Hf12  1  -0.00151841  -0.00144952  0.73920007  1
  Hf  Hf13  1  0.31184937  0.88933964  0.62341418  1
  Hf  Hf14  1  0.47420512  0.50474388  0.62960956  1
  Hf  Hf15  1  0.70588169  0.09868310  0.62218269  1
  Hf  Hf16  1  0.19952376  0.39276824  0.25817290  1
  Hf  Hf17  1  0.39164852  0.01752012  0.01117057  1
  Hf  Hf18  1  0.20813647  0.79739587  0.49228947  1
  Hf  Hf19  1  0.42815556  -0.00766422  0.74274390  1
  Hf  Hf20  1  0.30388961  0.09130343  0.86022639  1
  Hf  Hf21  1  0.71016448  0.09990363  0.12595622  1
  Hf  Hf22  1  0.40324385  0.39471806  0.26124820  1
  Hf  Hf23  1  0.59620991  0.39724921  0.25207361  1
  Hf  Hf24  1  0.21636673  0.58977901  0.50703556  1
  Hf  Hf25  1  0.31029832  0.09638315  0.62558354  1
  Hf  Hf26  1  0.59291604  0.82170812  0.76293332  1
  Hf  Hf27  1  0.89216034  0.69288574  0.12762297  1
  Hf  Hf28  1  0.89133979  0.29714003  0.62729534  1
  Hf  Hf29  1  0.20083387  0.19718551  0.74415012  1
  Hf  Hf30  1  -0.00357640  0.40335629  -0.00735084  1
  Hf  Hf31  1  0.49716712  0.49013053  0.11706429  1
  Hf  Hf32  1  0.10551040  0.30710529  0.86518946  1
  Hf  Hf33  1  0.51196195  0.70303823  0.12843128  1
  Hf  Hf34  1  0.20540581  0.39647804  0.49404942  1
  Hf  Hf35  1  0.60185139  0.20459065  0.49186999  1
  Hf  Hf36  1  -0.00047462  0.60409885  0.75266662  1
  Hf  Hf37  1  0.10149253  0.50405356  0.11108208  1
  Hf  Hf38  1  0.39167915  0.60189685  0.78029685  1
  Hf  Hf39  1  0.58577590  0.60858820  0.49899476  1
  Zr  Zr40  1  0.10580734  0.90556921  0.87405286  1
  Zr  Zr41  1  0.40412373  0.20957049  0.49532048  1
  Zr  Zr42  1  0.89257048  0.29837532  0.12145915  1
  Zr  Zr43  1  0.00308186  0.39180578  0.24245728  1
  Zr  Zr44  1  0.58546525  0.60325827  0.76049044  1
  Zr  Zr45  1  0.62005834  0.59735513  0.00254923  1
  Zr  Zr46  1  0.41553499  0.20607742  0.75920613  1
  Zr  Zr47  1  0.70799069  0.30968225  0.12801872  1
  Zr  Zr48  1  0.09621988  0.69216338  0.38663555  1
  Zr  Zr49  1  -0.00027792  0.00606467  0.26324446  1
  Zr  Zr50  1  0.69797530  0.90654181  0.62328263  1
  Zr  Zr51  1  0.21824976  0.19574459  -0.00632133  1
  Zr  Zr52  1  0.60006571  0.20379744  0.25180206  1
  Zr  Zr53  1  0.31596032  0.29891818  0.11651980  1
  Zr  Zr54  1  0.28679962  0.90887424  0.13225976  1
  Zr  Zr55  1  0.40307278  0.79598091  0.76436204  1
  Zr  Zr56  1  0.00206182  0.79700701  0.26063938  1
  Zr  Zr57  1  0.38720354  0.78878363  0.24792284  1
  Zr  Zr58  1  0.38922306  0.59792087  0.00238871  1
  Zr  Zr59  1  0.89774608  0.49514071  0.37809206  1
  Zr  Zr60  1  0.81003805  0.00850902  0.26597083  1
  Zr  Zr61  1  0.00889007  0.19390510  0.24667972  1
  Zr  Zr62  1  0.08644990  0.49684127  0.39154233  1
  Zr  Zr63  1  0.89764730  0.89889580  0.12807115  1
  Zr  Zr64  1  0.79858717  0.79197989  -0.01483825  1
  Zr  Zr65  1  0.59276305  0.40588098  0.48570492  1
  Zr  Zr66  1  0.69483429  0.70966100  0.63660591  1
  Zr  Zr67  1  0.20054391  0.19900986  0.49779644  1
  Zr  Zr68  1  0.78526002  0.60135124  0.50460310  1
  Zr  Zr69  1  0.69339652  0.29753355  0.63919594  1
  Zr  Zr70  1  0.19917010  0.60920692  0.24941033  1
  Zr  Zr71  1  0.50231909  0.90066664  0.35433445  1
  Zr  Zr72  1  0.50228009  0.90689468  0.13108386  1
  Zr  Zr73  1  0.59640076  0.19909435  -0.00894066  1
  Zr  Zr74  1  0.09776373  0.69665181  0.61785383  1
  Zr  Zr75  1  -0.00059724  0.19121784  0.74694490  1
  Zr  Zr76  1  0.79004149  0.40053722  0.50315127  1
  Zr  Zr77  1  0.30700493  0.32178964  0.64302307  1
  Zr  Zr78  1  -0.00806357  0.79624070  -0.01766454  1
  Zr  Zr79  1  0.39689727  0.41145780  0.48299232  1
  Ta  Ta80  1  0.19279709  0.00812126  0.26747606  1
  Ta  Ta81  1  0.50174458  0.91301293  0.89801491  1
  Ta  Ta82  1  0.20156008  0.19925366  0.25876087  1
  Ta  Ta83  1  0.79334012  0.79943002  0.48680317  1
  Ta  Ta84  1  0.30689478  0.09579516  0.37151477  1
  Ta  Ta85  1  0.80114627  0.60189625  0.75331839  1
  Ta  Ta86  1  0.09693745  0.69901210  0.11297893  1
  Ta  Ta87  1  0.89249962  0.70292064  0.62548628  1
  Ta  Ta88  1  0.29840676  0.90131727  0.36530402  1
  Ta  Ta89  1  0.49986816  0.09631253  0.36917488  1
  Ta  Ta90  1  0.69930872  0.89913693  0.36762702  1
  Ta  Ta91  1  0.79702134  -0.00895703  -0.01403976  1
  Ta  Ta92  1  0.80690381  -0.00643643  0.48555708  1
  Ta  Ta93  1  0.89469430  0.09670385  0.61281669  1
  Ta  Ta94  1  0.09859490  0.49434873  0.63114372  1
  Ta  Ta95  1  0.50284740  0.70647280  0.89790113  1
  Ta  Ta96  1  -0.00166802  0.59918395  0.24231794  1
  Ta  Ta97  1  0.40178646  0.20699181  0.26320675  1
  Ta  Ta98  1  0.70076081  0.70147004  0.86665890  1
  Ta  Ta99  1  0.90091205  0.09616101  0.10678659  1
  Ta  Ta100  1  0.59987178  0.39900151  -0.00898703  1
  Ta  Ta101  1  0.20386784  0.59722909  0.75474517  1
  Ta  Ta102  1  0.60094218  0.79851748  0.48445812  1
  Ta  Ta103  1  0.90228352  0.09353225  0.87897380  1
  Ta  Ta104  1  0.79753944  0.18923183  0.76346265  1
  Ta  Ta105  1  0.30299372  0.90416586  0.87696337  1
  Ta  Ta106  1  0.31551949  0.68503992  0.62074118  1
  Ta  Ta107  1  0.40811237  -0.00548717  0.49725929  1
  Ta  Ta108  1  0.90458794  0.29529900  0.39226041  1
  Ta  Ta109  1  0.60762797  0.80639505  -0.00306935  1
  Ta  Ta110  1  0.89784556  0.68866823  0.38393431  1
  Ta  Ta111  1  0.71350085  0.29993803  0.36647417  1
  Ta  Ta112  1  -0.00721524  0.80239581  0.74970952  1
  Ta  Ta113  1  0.59746471  0.19135036  0.76318082  1
  Ta  Ta114  1  0.39738499  0.59980184  0.24323138  1
  Ta  Ta115  1  0.10455130  0.09235360  0.87999591  1
  Ta  Ta116  1  0.90243462  0.49521416  0.63275798  1
  Ta  Ta117  1  0.89651274  0.30728931  0.86064090  1
  Ta  Ta118  1  0.48981874  0.11274918  0.13291218  1
  Ta  Ta119  1  0.39518920  0.80378400  0.00249238  1
  Ti  Ti120  1  0.51404084  0.09505604  0.61660443  1
  Ti  Ti121  1  0.69168549  0.08389626  0.86915855  1
  Ti  Ti122  1  0.79259078  0.41001051  -0.01547632  1
  Ti  Ti123  1  0.91694944  0.10685248  0.40276944  1
  Ti  Ti124  1  0.70066250  0.49916432  0.86263619  1
  Ti  Ti125  1  0.70730690  0.69418696  0.14016916  1
  Ti  Ti126  1  0.39392629  0.40745930  0.78460339  1
  Ti  Ti127  1  0.50388362  0.51951291  0.35945591  1
  Ti  Ti128  1  0.09948101  0.69683349  0.87741286  1
  Ti  Ti129  1  0.80041526  -0.00462037  0.76084607  1
  Ti  Ti130  1  0.57823070  0.39732819  0.77251160  1
  Ti  Ti131  1  0.80545841  0.79439831  0.27041799  1
  Ti  Ti132  1  -0.01295864  0.60181893  -0.01318458  1
  Ti  Ti133  1  0.19893756  0.60178136  -0.01333257  1
  Ti  Ti134  1  0.30144258  0.50957708  0.36270336  1
  Ti  Ti135  1  0.10069588  0.49918885  0.86887690  1
  Ti  Ti136  1  0.28278703  0.70493626  0.11872957  1
  Ti  Ti137  1  0.70544916  0.10224254  0.38186616  1
  Ti  Ti138  1  0.60017491  -0.00509542  0.48982133  1
  Ti  Ti139  1  0.60386254  0.00941521  0.25000877  1
  Ti  Ti140  1  0.50503805  0.30845893  0.62951313  1
  Ti  Ti141  1  0.21430110  0.40388616  -0.01527036  1
  Ti  Ti142  1  0.49620014  0.71074981  0.62828506  1
  Ti  Ti143  1  0.60409869  0.00219695  0.00747641  1
  Ti  Ti144  1  0.09712021  0.90466705  0.37989509  1
  Ti  Ti145  1  0.89039359  0.90057250  0.62357787  1
  Ti  Ti146  1  0.09781340  0.89946918  0.62085310  1
  Ti  Ti147  1  0.68973466  0.69408411  0.35572540  1
  Ti  Ti148  1  0.11186068  0.30230965  0.11279083  1
  Ti  Ti149  1  -0.00538403  -0.00672097  -0.00789068  1
  Ti  Ti150  1  0.70721139  0.50464409  0.13865248  1
  Ti  Ti151  1  0.70174264  0.50729333  0.35417555  1
  Ti  Ti152  1  0.29513046  0.49570503  0.12381503  1
  Ti  Ti153  1  0.20167961  0.79964817  -0.01108935  1
  Ti  Ti154  1  0.19778261  -0.00267048  0.73514800  1
  Ti  Ti155  1  0.81528879  0.19632860  0.26091401  1
  Ti  Ti156  1  0.89468228  0.49797277  0.86387579  1
  Ti  Ti157  1  0.08688655  0.29100928  0.39093937  1
  Ti  Ti158  1  0.70106451  0.30740886  0.86043328  1
  Ti  Ti159  1  0.80467224  0.80633339  0.76277333  1
  Mo  Mo160  1  0.29766652  0.50283079  0.64692039  1
  Mo  Mo161  1  0.60139412  0.00790614  0.75062229  1
  Mo  Mo162  1  -0.00865224  0.59883708  0.52524728  1
  Mo  Mo163  1  0.40710550  0.20182992  -0.00987000  1
  Mo  Mo164  1  0.00049219  -0.00209651  0.51076511  1
  Mo  Mo165  1  0.09740652  0.09313855  0.61464869  1
  Mo  Mo166  1  0.50135447  0.30125121  0.88401255  1
  Mo  Mo167  1  0.49922845  0.29942107  0.10435128  1
  Mo  Mo168  1  0.89809675  0.69712854  0.85552958  1
  Mo  Mo169  1  -0.00306529  0.40626631  0.75507824  1
  Mo  Mo170  1  0.80336965  0.59107157  -0.02376028  1
  Mo  Mo171  1  0.10192676  0.10236991  0.39016908  1
  Mo  Mo172  1  0.28905696  0.49958853  0.87604228  1
  Mo  Mo173  1  0.79621193  0.40063508  0.75670357  1
  Mo  Mo174  1  0.19367459  0.80398954  0.26333260  1
  Mo  Mo175  1  0.49989964  0.50028137  0.89355702  1
  Mo  Mo176  1  0.60838417  0.79755722  0.25472512  1
  Mo  Mo177  1  0.89815226  0.89551002  0.38227283  1
  Mo  Mo178  1  0.50526151  0.29892778  0.38182791  1
  Mo  Mo179  1  0.30350188  0.69321619  0.37634099  1
  Mo  Mo180  1  0.80050094  0.39842207  0.26267836  1
  Mo  Mo181  1  0.00007782  0.19688253  0.51415005  1
  Mo  Mo182  1  0.29142213  0.70487653  0.89091255  1
  Mo  Mo183  1  0.30057392  0.10405946  0.14924916  1
  Mo  Mo184  1  0.40141553  0.60142759  0.48406364  1
  Mo  Mo185  1  0.30321980  0.30065214  0.87434898  1
  Mo  Mo186  1  0.50444626  0.09518084  0.88453503  1
  Mo  Mo187  1  0.79953504  0.19338922  0.48843442  1
  Mo  Mo188  1  0.89795202  0.90444409  0.86149225  1
  Mo  Mo189  1  0.20277717  -0.00273807  -0.00636628  1
  Mo  Mo190  1  0.29707499  0.29943735  0.36698613  1
  Mo  Mo191  1  0.39980756  0.39732615  -0.01541402  1
  Mo  Mo192  1  0.19917416  0.40794686  0.75853793  1
  Mo  Mo193  1  0.69738073  0.90422512  0.87372397  1
  Mo  Mo194  1  0.60181155  0.59653972  0.23418362  1
  Mo  Mo195  1  0.80149871  0.60293754  0.26218888  1
  Mo  Mo196  1  0.39574333  0.00982595  0.24755718  1
  Mo  Mo197  1  0.50757623  0.69354355  0.35164445  1
  Mo  Mo198  1  -0.00201784  0.39774416  0.51266399  1
  Mo  Mo199  1  0.50786166  0.89680157  0.60222503  1
