# generated using pymatgen
data_HfZrTaTiMo
_symmetry_space_group_name_H-M   'P 1'
_cell_length_a   15.92700540
_cell_length_b   15.92352846
_cell_length_c   15.20907917
_cell_angle_alpha   90.02925687
_cell_angle_beta   90.00196708
_cell_angle_gamma   90.13625752
_symmetry_Int_Tables_number   1
_chemical_formula_structural   HfZrTaTiMo
_chemical_formula_sum   'Hf40 Zr40 Ta40 Ti40 Mo40'
_cell_volume   3857.22587548
_cell_formula_units_Z   40
loop_
 _symmetry_equiv_pos_site_id
 _symmetry_equiv_pos_as_xyz
  1  'x, y, z'
loop_
 _atom_site_type_symbol
 _atom_site_label
 _atom_site_symmetry_multiplicity
 _atom_site_fract_x
 _atom_site_fract_y
 _atom_site_fract_z
 _atom_site_occupancy
  Hf  Hf0  1  0.80498279  0.40364121  0.24242527  1
  Hf  Hf1  1  0.48903338  0.49168110  0.62193397  1
  Hf  Hf2  1  0.59310653  -0.02225687  -0.00158037  1
  Hf  Hf3  1  0.42109201  0.19789004  0.48900630  1
  Hf  Hf4  1  0.70303869  0.71037817  0.62438061  1
  Hf  Hf5  1  0.40793844  0.20556959  0.23541282  1
  Hf  Hf6  1  0.69597163  0.90763297  0.62275680  1
  Hf  Hf7  1  0.19424818  0.39727523  0.50622539  1
  Hf  Hf8  1  0.69479980  0.08971040  0.12480218  1
  Hf  Hf9  1  0.80028658  0.19987801  0.00725963  1
  Hf  Hf10  1  0.78967668  0.60050696  0.01141388  1
  Hf  Hf11  1  0.89951223  0.29685445  0.87418839  1
  Hf  Hf12  1  0.18854507  -0.01740687  0.48943723  1
  Hf  Hf13  1  0.49321693  0.08944153  0.88064087  1
  Hf  Hf14  1  0.30340237  0.70430317  0.62513070  1
  Hf  Hf15  1  0.80175421  0.40028284  0.73774763  1
  Hf  Hf16  1  0.79803255  0.60660490  0.49475515  1
  Hf  Hf17  1  0.00801942  0.81528189  0.49646217  1
  Hf  Hf18  1  0.18741904  0.18913657  0.00037217  1
  Hf  Hf19  1  0.09183058  0.09614670  0.63730163  1
  Hf  Hf20  1  0.48722065  0.90184846  0.62097773  1
  Hf  Hf21  1  0.81251646  0.00931597  0.24235813  1
  Hf  Hf22  1  0.00397051  0.40550084  -0.00828548  1
  Hf  Hf23  1  0.68771287  0.10439915  0.64973841  1
  Hf  Hf24  1  0.12079210  0.71334842  0.38324864  1
  Hf  Hf25  1  0.49667264  0.69916406  0.85110455  1
  Hf  Hf26  1  0.18913641  0.19231465  0.50301743  1
  Hf  Hf27  1  0.71317323  0.70264612  0.86350722  1
  Hf  Hf28  1  0.20491432  0.40624974  0.75693790  1
  Hf  Hf29  1  0.10079979  0.89629270  0.12560129  1
  Hf  Hf30  1  0.31220101  0.30573412  0.61595160  1
  Hf  Hf31  1  0.30740294  0.89564924  0.12306918  1
  Hf  Hf32  1  0.59462484  0.38771465  0.49627082  1
  Hf  Hf33  1  0.89857303  0.30469599  0.37318190  1
  Hf  Hf34  1  0.39761646  0.40597732  0.24249629  1
  Hf  Hf35  1  0.29543423  0.29810790  0.11433317  1
  Hf  Hf36  1  0.59452817  0.20445316  0.00453440  1
  Hf  Hf37  1  0.67695335  0.70038711  0.14465972  1
  Hf  Hf38  1  0.50407105  0.50264117  0.86292686  1
  Hf  Hf39  1  0.90179728  0.10681361  0.38091174  1
  Zr  Zr40  1  0.00502858  0.59562524  0.25952071  1
  Zr  Zr41  1  0.70280426  0.09460135  0.87263435  1
  Zr  Zr42  1  0.39117441  0.19482405  0.75790628  1
  Zr  Zr43  1  0.08016372  0.30239141  0.63781160  1
  Zr  Zr44  1  0.41536403  0.60702041  0.27225993  1
  Zr  Zr45  1  0.90302354  0.09661580  0.63400330  1
  Zr  Zr46  1  0.19746687  0.79886102  0.75193402  1
  Zr  Zr47  1  0.79584722  0.00548716  0.49470230  1
  Zr  Zr48  1  -0.02342723  0.79465314  0.75571975  1
  Zr  Zr49  1  0.30863419  0.08509748  0.60812602  1
  Zr  Zr50  1  0.79111465  0.20775157  0.51645689  1
  Zr  Zr51  1  0.19972728  0.20069490  0.76044705  1
  Zr  Zr52  1  0.20951745  0.59645327  0.25555187  1
  Zr  Zr53  1  0.90474592  0.90852689  0.12129326  1
  Zr  Zr54  1  0.60194771  0.81300979  0.75632852  1
  Zr  Zr55  1  0.29896918  0.49586041  0.39018789  1
  Zr  Zr56  1  0.31021027  0.69455064  0.11937395  1
  Zr  Zr57  1  0.09579520  0.29284326  0.36223466  1
  Zr  Zr58  1  0.09685032  0.30207349  0.12395727  1
  Zr  Zr59  1  0.68602879  0.51087693  0.62918908  1
  Zr  Zr60  1  0.58330432  0.39846605  0.25300139  1
  Zr  Zr61  1  0.50501182  0.52371746  0.12097958  1
  Zr  Zr62  1  0.69396568  0.90347296  0.35623216  1
  Zr  Zr63  1  0.50573070  0.69709150  0.62272401  1
  Zr  Zr64  1  0.91628131  0.49198126  0.61664425  1
  Zr  Zr65  1  -0.00294238  0.79564294  -0.01082991  1
  Zr  Zr66  1  0.50202510  0.09242828  0.64080701  1
  Zr  Zr67  1  0.42124299  0.80178951  -0.00244251  1
  Zr  Zr68  1  -0.01466132  0.19192295  0.23125394  1
  Zr  Zr69  1  0.00481731  0.60702097  0.49778235  1
  Zr  Zr70  1  0.60471616  0.41139073  0.00145134  1
  Zr  Zr71  1  0.79381194  0.39207599  0.50904359  1
  Zr  Zr72  1  0.80440412  0.60045368  0.25896876  1
  Zr  Zr73  1  0.30062755  0.09643118  0.37018109  1
  Zr  Zr74  1  0.29882044  0.29555802  0.37009759  1
  Zr  Zr75  1  0.20891715  0.00323598  0.76174585  1
  Zr  Zr76  1  0.89476496  0.50999563  0.87619292  1
  Zr  Zr77  1  0.00884971  0.60533779  0.75085792  1
  Zr  Zr78  1  0.59174947  0.01223760  0.48469199  1
  Zr  Zr79  1  0.10358576  0.69555678  0.12354151  1
  Ta  Ta80  1  0.39740773  -0.00426725  0.24759878  1
  Ta  Ta81  1  0.49644870  0.29994962  0.87839462  1
  Ta  Ta82  1  -0.00547267  -0.00369011  0.76986199  1
  Ta  Ta83  1  0.49602529  0.09081942  0.12376637  1
  Ta  Ta84  1  0.40205700  0.59938972  0.49731446  1
  Ta  Ta85  1  0.51239179  0.88799041  0.15155787  1
  Ta  Ta86  1  0.19615094  0.40365601  0.24492780  1
  Ta  Ta87  1  0.69564031  0.29259660  0.35428200  1
  Ta  Ta88  1  0.79105079  0.79987299  0.01602133  1
  Ta  Ta89  1  0.90667389  0.90499470  0.36679176  1
  Ta  Ta90  1  0.80261792  0.80351539  0.48479904  1
  Ta  Ta91  1  0.90672903  0.50374528  0.11632618  1
  Ta  Ta92  1  0.20035627  0.59762393  -0.01477560  1
  Ta  Ta93  1  0.31492563  0.90215335  0.88197519  1
  Ta  Ta94  1  0.81730176  0.62027507  0.73504259  1
  Ta  Ta95  1  0.39584774  0.39636610  0.75967855  1
  Ta  Ta96  1  0.20533432  0.79715261  -0.01286782  1
  Ta  Ta97  1  0.69865403  0.30442526  0.86883591  1
  Ta  Ta98  1  0.70099915  0.50742550  0.85790160  1
  Ta  Ta99  1  0.80439247  0.79723742  0.25096027  1
  Ta  Ta100  1  0.00189079  0.80013633  0.25621133  1
  Ta  Ta101  1  0.40135508  0.60100247  -0.01032978  1
  Ta  Ta102  1  0.19967895  -0.00580193  0.00191297  1
  Ta  Ta103  1  0.30775007  0.09454688  0.90336630  1
  Ta  Ta104  1  0.30277160  0.29856155  0.89381373  1
  Ta  Ta105  1  0.20175804  -0.00241655  0.24587523  1
  Ta  Ta106  1  0.50918810  0.29159229  0.64043577  1
  Ta  Ta107  1  0.69462084  0.30219280  0.13271580  1
  Ta  Ta108  1  0.10938970  0.50385427  0.62447480  1
  Ta  Ta109  1  0.00499222  0.01020929  -0.01390428  1
  Ta  Ta110  1  0.69249779  0.49995694  0.37530504  1
  Ta  Ta111  1  0.90092726  0.69995632  0.12504102  1
  Ta  Ta112  1  0.09313901  0.90415359  0.64034923  1
  Ta  Ta113  1  0.10241395  0.90078903  0.87532136  1
  Ta  Ta114  1  0.79332926  0.40325387  0.00658370  1
  Ta  Ta115  1  0.60579111  0.20278978  0.49181514  1
  Ta  Ta116  1  0.40280590  0.40385871  0.00001664  1
  Ta  Ta117  1  0.30432811  0.69938439  0.86795927  1
  Ta  Ta118  1  0.49356527  0.90050190  0.36942701  1
  Ta  Ta119  1  0.09534991  0.09090476  0.12966995  1
  Ti  Ti120  1  0.29436281  0.88897876  0.37400761  1
  Ti  Ti121  1  0.10394524  0.50249359  0.11836024  1
  Ti  Ti122  1  0.90424877  0.49233476  0.38666780  1
  Ti  Ti123  1  0.10336462  0.69746159  0.87493087  1
  Ti  Ti124  1  0.70791139  0.89983418  0.87663719  1
  Ti  Ti125  1  0.20171042  0.59497144  0.75305516  1
  Ti  Ti126  1  0.09714543  0.49287146  0.38505873  1
  Ti  Ti127  1  0.09545848  0.29376084  0.87572103  1
  Ti  Ti128  1  0.29569101  0.50168861  0.11392769  1
  Ti  Ti129  1  0.90138260  0.30641535  0.11278105  1
  Ti  Ti130  1  0.38729226  0.58962329  0.74217286  1
  Ti  Ti131  1  0.69544600  0.50533193  0.14151033  1
  Ti  Ti132  1  0.39427274  0.80010209  0.48860774  1
  Ti  Ti133  1  0.50953925  0.10191545  0.34869260  1
  Ti  Ti134  1  0.89709983  0.09814617  0.88005363  1
  Ti  Ti135  1  0.20659207  0.60326638  0.50738511  1
  Ti  Ti136  1  0.80308273  0.20540559  0.74771040  1
  Ti  Ti137  1  0.30095703  0.89955646  0.62152120  1
  Ti  Ti138  1  0.00078488  0.40797366  0.24458409  1
  Ti  Ti139  1  0.80102787  0.20245899  0.23074386  1
  Ti  Ti140  1  0.20918255  0.79858752  0.24883632  1
  Ti  Ti141  1  0.59724229  0.61259235  -0.01248077  1
  Ti  Ti142  1  0.30339656  0.50073056  0.88059590  1
  Ti  Ti143  1  0.40356444  0.78992794  0.26395231  1
  Ti  Ti144  1  0.69719671  0.89539263  0.13599445  1
  Ti  Ti145  1  0.88640810  0.89941967  0.88896323  1
  Ti  Ti146  1  0.00493631  0.40596502  0.76386216  1
  Ti  Ti147  1  0.10153090  0.70700516  0.62092773  1
  Ti  Ti148  1  0.60008520  0.39451205  0.75002301  1
  Ti  Ti149  1  0.00511290  0.00227038  0.49161501  1
  Ti  Ti150  1  0.60293079  0.79605097  0.48505596  1
  Ti  Ti151  1  0.09844837  0.09700288  0.35547624  1
  Ti  Ti152  1  0.89714588  0.89768317  0.62081972  1
  Ti  Ti153  1  0.69684291  0.11106379  0.35266636  1
  Ti  Ti154  1  0.19683141  0.40698119  -0.01093531  1
  Ti  Ti155  1  0.60316468  0.79477084  -0.00664667  1
  Ti  Ti156  1  0.80489276  -0.01169937  0.75349955  1
  Ti  Ti157  1  0.90360668  0.70738994  0.37451686  1
  Ti  Ti158  1  -0.00648827  0.20980378  0.50642555  1
  Ti  Ti159  1  0.00354685  0.60114988  -0.00803123  1
  Mo  Mo160  1  0.10327404  0.90238874  0.35680216  1
  Mo  Mo161  1  0.59669309  -0.00065051  0.24837928  1
  Mo  Mo162  1  0.49724703  0.30144791  0.10434053  1
  Mo  Mo163  1  0.60126000  -0.00275784  0.76785174  1
  Mo  Mo164  1  0.00232849  0.39684582  0.49613637  1
  Mo  Mo165  1  0.39569022  -0.00957568  0.75613233  1
  Mo  Mo166  1  0.19964395  0.19092778  0.23054494  1
  Mo  Mo167  1  0.09896187  0.09741488  0.87213159  1
  Mo  Mo168  1  0.79976960  -0.00841219  0.00283993  1
  Mo  Mo169  1  0.90178245  0.10077433  0.10266815  1
  Mo  Mo170  1  0.50279561  0.29337167  0.37343688  1
  Mo  Mo171  1  0.00389158  -0.00086031  0.25697563  1
  Mo  Mo172  1  0.29637506  0.09423696  0.12445094  1
  Mo  Mo173  1  0.39928308  0.20005934  0.00956146  1
  Mo  Mo174  1  0.30223974  0.70625070  0.39199682  1
  Mo  Mo175  1  0.59687092  0.20623510  0.77428858  1
  Mo  Mo176  1  0.50231400  0.70532221  0.12334286  1
  Mo  Mo177  1  0.49974139  0.49569413  0.39563624  1
  Mo  Mo178  1  0.68871501  0.29497863  0.64741443  1
  Mo  Mo179  1  0.40087187  -0.00391698  0.02347075  1
  Mo  Mo180  1  0.60578793  0.59946139  0.75242154  1
  Mo  Mo181  1  -0.00350755  0.19601590  -0.00475851  1
  Mo  Mo182  1  0.80625382  0.80993973  0.74652462  1
  Mo  Mo183  1  0.29787732  0.50346329  0.62190264  1
  Mo  Mo184  1  0.89215227  0.70097011  0.89666587  1
  Mo  Mo185  1  0.39793644  -0.00684421  0.47112361  1
  Mo  Mo186  1  0.70003940  0.70169779  0.37082052  1
  Mo  Mo187  1  0.59270699  0.79159178  0.26793256  1
  Mo  Mo188  1  -0.00580529  0.19351221  0.77266736  1
  Mo  Mo189  1  0.59919444  0.19976597  0.23732643  1
  Mo  Mo190  1  0.49688198  0.90275423  0.86293611  1
  Mo  Mo191  1  0.40440550  0.39478294  0.50156850  1
  Mo  Mo192  1  0.50239329  0.70375708  0.39694904  1
  Mo  Mo193  1  0.90281792  0.29508957  0.64528507  1
  Mo  Mo194  1  0.39265858  0.80449242  0.74979124  1
  Mo  Mo195  1  0.10617852  0.50184185  0.87465817  1
  Mo  Mo196  1  0.59956429  0.60042043  0.27678322  1
  Mo  Mo197  1  0.20062497  0.80487659  0.51828492  1
  Mo  Mo198  1  0.89829491  0.71161735  0.60410261  1
  Mo  Mo199  1  0.59779921  0.59973744  0.48571672  1
