# generated using pymatgen
data_HfZrTaTiMo
_symmetry_space_group_name_H-M   'P 1'
_cell_length_a   15.92517068
_cell_length_b   15.93242097
_cell_length_c   15.19231655
_cell_angle_alpha   89.99705013
_cell_angle_beta   89.98960911
_cell_angle_gamma   90.04948064
_symmetry_Int_Tables_number   1
_chemical_formula_structural   HfZrTaTiMo
_chemical_formula_sum   'Hf40 Zr40 Ta40 Ti40 Mo40'
_cell_volume   3854.69215332
_cell_formula_units_Z   40
loop_
 _symmetry_equiv_pos_site_id
 _symmetry_equiv_pos_as_xyz
  1  'x, y, z'
loop_
 _atom_site_type_symbol
 _atom_site_label
 _atom_site_symmetry_multiplicity
 _atom_site_fract_x
 _atom_site_fract_y
 _atom_site_fract_z
 _atom_site_occupancy
  Hf  Hf0  1  0.80376249  0.80304658  -0.01038080  1
  Hf  Hf1  1  0.40091400  0.20054106  -0.01184651  1
  Hf  Hf2  1  0.79085457  0.01295273  0.26224557  1
  Hf  Hf3  1  0.39090796  0.59376332  0.01080827  1
  Hf  Hf4  1  0.61625050  0.19612415  0.26922302  1
  Hf  Hf5  1  0.41189327  0.79995588  0.24455754  1
  Hf  Hf6  1  0.80101985  0.39518133  -0.02180533  1
  Hf  Hf7  1  0.80132387  0.00149983  0.51540476  1
  Hf  Hf8  1  0.10355651  0.90519540  0.12629348  1
  Hf  Hf9  1  0.81177446  0.58311789  0.26242319  1
  Hf  Hf10  1  0.28519632  0.29853807  0.36043016  1
  Hf  Hf11  1  0.19668463  0.59895185  0.50996187  1
  Hf  Hf12  1  0.80610127  0.78980194  0.50940652  1
  Hf  Hf13  1  0.70272151  0.70481310  0.37550907  1
  Hf  Hf14  1  0.59855023  0.38875092  0.48260906  1
  Hf  Hf15  1  0.30342906  0.09988510  0.13832475  1
  Hf  Hf16  1  0.70396919  0.69969056  0.12956602  1
  Hf  Hf17  1  0.50044801  0.90235656  0.10860624  1
  Hf  Hf18  1  0.80389096  0.59508218  0.50079468  1
  Hf  Hf19  1  0.09495351  0.69736805  0.12792131  1
  Hf  Hf20  1  0.29664862  0.49466982  0.63042098  1
  Hf  Hf21  1  0.38614879  0.39957452  0.00356580  1
  Hf  Hf22  1  0.09972596  0.10250784  0.12239729  1
  Hf  Hf23  1  0.61488298  0.79792039  -0.02033774  1
  Hf  Hf24  1  0.68889346  0.29188295  0.62797312  1
  Hf  Hf25  1  0.79765188  0.81040983  0.25066760  1
  Hf  Hf26  1  0.60408034  -0.00786785  0.25384776  1
  Hf  Hf27  1  0.10427614  0.69921908  0.36289510  1
  Hf  Hf28  1  0.00036712  0.59458623  0.50197201  1
  Hf  Hf29  1  0.92303055  0.88574234  0.61661479  1
  Hf  Hf30  1  0.89914859  0.91262406  0.11934023  1
  Hf  Hf31  1  0.40752557  0.20605708  0.76096003  1
  Hf  Hf32  1  0.39992569  0.40237034  0.24872478  1
  Hf  Hf33  1  0.38982076  0.39013575  0.49608360  1
  Hf  Hf34  1  0.80305500  0.60065795  -0.00398138  1
  Hf  Hf35  1  0.19456889  0.40172468  -0.00340474  1
  Hf  Hf36  1  0.10635704  0.89038629  0.37755665  1
  Hf  Hf37  1  0.31034920  0.11068572  0.35704760  1
  Hf  Hf38  1  0.69934003  0.49227144  0.12498041  1
  Hf  Hf39  1  0.89393495  0.12214376  0.40116476  1
  Zr  Zr40  1  -0.00718350  0.01201091  0.25966609  1
  Zr  Zr41  1  0.50173201  0.09947583  0.13003893  1
  Zr  Zr42  1  0.30204949  0.90280865  0.35627747  1
  Zr  Zr43  1  0.50474166  0.09190250  0.38586825  1
  Zr  Zr44  1  0.59903594  0.39419451  -0.02063317  1
  Zr  Zr45  1  0.50799022  0.70215675  0.10679622  1
  Zr  Zr46  1  0.08865682  0.71772981  0.61969737  1
  Zr  Zr47  1  0.90387223  0.89706230  0.38427368  1
  Zr  Zr48  1  0.59833912  0.59710729  0.26236238  1
  Zr  Zr49  1  -0.00279330  -0.00512190  0.75761745  1
  Zr  Zr50  1  0.09891203  0.69106918  0.87959979  1
  Zr  Zr51  1  0.29746249  0.08611556  0.64629850  1
  Zr  Zr52  1  0.20597405  0.19898253  0.50984794  1
  Zr  Zr53  1  0.29597851  0.70780149  0.37197852  1
  Zr  Zr54  1  0.60136659  0.60037984  0.49842155  1
  Zr  Zr55  1  0.40150771  0.60222058  0.24492587  1
  Zr  Zr56  1  0.20910622  0.79751545  0.75128057  1
  Zr  Zr57  1  0.48645132  0.90280784  0.63563086  1
  Zr  Zr58  1  0.20494777  0.80680740  -0.00234355  1
  Zr  Zr59  1  -0.01055516  0.20761028  0.24451918  1
  Zr  Zr60  1  0.49996283  0.48729961  0.62526692  1
  Zr  Zr61  1  0.19986258  0.20202570  -0.00872906  1
  Zr  Zr62  1  0.50454554  0.29564406  0.13010818  1
  Zr  Zr63  1  0.38749209  -0.00700497  0.50099968  1
  Zr  Zr64  1  0.48716924  0.50426288  0.87191531  1
  Zr  Zr65  1  0.81090722  0.79954477  0.74825815  1
  Zr  Zr66  1  0.49286161  0.89551418  0.87066115  1
  Zr  Zr67  1  0.79337897  0.38842560  0.27244136  1
  Zr  Zr68  1  0.70136069  0.29393452  0.12175672  1
  Zr  Zr69  1  0.59382055  0.60792003  0.75127228  1
  Zr  Zr70  1  0.60924494  0.00710850  -0.01711479  1
  Zr  Zr71  1  0.50158787  0.11266390  0.61661468  1
  Zr  Zr72  1  0.40093726  0.60880889  0.49989344  1
  Zr  Zr73  1  -0.00466239  0.19949175  -0.00983697  1
  Zr  Zr74  1  -0.01597481  0.40377320  0.25737491  1
  Zr  Zr75  1  0.90529587  0.29748385  0.62452944  1
  Zr  Zr76  1  0.69964773  0.49418241  0.63662016  1
  Zr  Zr77  1  0.01557554  0.01360774  0.50348680  1
  Zr  Zr78  1  0.39193689  0.61710374  0.73948475  1
  Zr  Zr79  1  -0.00792767  0.79990118  -0.00811228  1
  Ta  Ta80  1  0.79360458  0.19705207  -0.02217473  1
  Ta  Ta81  1  0.59638159  0.00451677  0.74836576  1
  Ta  Ta82  1  0.28912769  0.29495457  0.14204145  1
  Ta  Ta83  1  0.30399009  0.90914277  0.13051757  1
  Ta  Ta84  1  0.80413018  0.19683098  0.24984378  1
  Ta  Ta85  1  0.90588387  0.49470533  0.62874657  1
  Ta  Ta86  1  0.89949878  0.29326064  0.85812125  1
  Ta  Ta87  1  0.09204915  0.49615918  0.12890897  1
  Ta  Ta88  1  0.11762273  0.91394344  0.62732900  1
  Ta  Ta89  1  0.80554965  0.00523222  -0.02212548  1
  Ta  Ta90  1  0.50792080  0.49551662  0.12381218  1
  Ta  Ta91  1  0.19763718  0.59989986  0.74533949  1
  Ta  Ta92  1  0.30528352  0.69921931  0.88689578  1
  Ta  Ta93  1  0.09919468  0.30334844  0.63115013  1
  Ta  Ta94  1  0.49298101  0.49829790  0.37633386  1
  Ta  Ta95  1  0.68980608  0.90481328  0.39897518  1
  Ta  Ta96  1  0.09470083  0.30332603  0.38453762  1
  Ta  Ta97  1  0.10073029  0.49849553  0.36034776  1
  Ta  Ta98  1  0.00326682  0.40371723  0.75959559  1
  Ta  Ta99  1  0.28729843  0.49787313  0.36748026  1
  Ta  Ta100  1  0.90178448  0.49360075  0.11340743  1
  Ta  Ta101  1  0.60538557  0.59685104  -0.01366377  1
  Ta  Ta102  1  0.91234702  0.69813557  0.36686470  1
  Ta  Ta103  1  0.60240993  0.19901854  -0.02765137  1
  Ta  Ta104  1  0.69722337  0.10158391  0.62702176  1
  Ta  Ta105  1  0.19588980  0.40381114  0.75294611  1
  Ta  Ta106  1  0.59720346  0.79695773  0.74616288  1
  Ta  Ta107  1  0.70840545  0.10189424  0.84630858  1
  Ta  Ta108  1  0.60007906  0.80405495  0.25942423  1
  Ta  Ta109  1  0.20408927  0.58858263  0.00932246  1
  Ta  Ta110  1  0.20299006  0.59486361  0.23320403  1
  Ta  Ta111  1  0.18833761  0.40444543  0.50803281  1
  Ta  Ta112  1  0.70437136  0.50289095  0.85939266  1
  Ta  Ta113  1  0.38989091  0.00499769  -0.01493754  1
  Ta  Ta114  1  0.80094246  0.40340382  0.49893388  1
  Ta  Ta115  1  0.69456602  0.90123413  0.62907925  1
  Ta  Ta116  1  0.10423115  0.10968994  0.65221368  1
  Ta  Ta117  1  -0.00005820  0.39874939  -0.01462362  1
  Ta  Ta118  1  0.80184394  0.39814070  0.75150905  1
  Ta  Ta119  1  0.59299572  0.79574588  0.51176011  1
  Ti  Ti120  1  -0.00276590  0.00586659  -0.01806897  1
  Ti  Ti121  1  0.60179098  0.39610096  0.27196990  1
  Ti  Ti122  1  0.39835577  0.39630526  0.75449332  1
  Ti  Ti123  1  0.29938656  0.29598302  0.63528731  1
  Ti  Ti124  1  0.29671881  0.71093287  0.12166519  1
  Ti  Ti125  1  0.90370380  0.69069950  0.13688464  1
  Ti  Ti126  1  0.89761032  0.10315878  0.85405864  1
  Ti  Ti127  1  0.29174043  0.09882105  0.86134540  1
  Ti  Ti128  1  0.71030656  0.90734926  0.85035453  1
  Ti  Ti129  1  0.90323200  0.10640332  0.63491753  1
  Ti  Ti130  1  0.70858359  0.69286651  0.85963827  1
  Ti  Ti131  1  0.89345494  0.30035939  0.11035067  1
  Ti  Ti132  1  0.09808424  0.28832480  0.85648923  1
  Ti  Ti133  1  0.59298876  0.20474011  0.76371624  1
  Ti  Ti134  1  0.10005290  0.50363467  0.87280634  1
  Ti  Ti135  1  0.58911443  0.38551170  0.76203515  1
  Ti  Ti136  1  0.10456043  0.90673271  0.87680319  1
  Ti  Ti137  1  0.20256541  0.00460146  0.49545003  1
  Ti  Ti138  1  0.70565720  0.10159511  0.11270518  1
  Ti  Ti139  1  0.90940901  0.29993880  0.40609281  1
  Ti  Ti140  1  0.48500581  0.28164365  0.37585590  1
  Ti  Ti141  1  0.70252523  0.90663241  0.11667192  1
  Ti  Ti142  1  0.30802140  0.89871073  0.86593144  1
  Ti  Ti143  1  0.29325402  0.30635619  0.86492325  1
  Ti  Ti144  1  0.00185882  0.59793192  0.73847435  1
  Ti  Ti145  1  0.90143102  0.68794964  0.86091452  1
  Ti  Ti146  1  0.71934092  0.27361793  0.40111304  1
  Ti  Ti147  1  0.10521264  0.11835788  0.37221899  1
  Ti  Ti148  1  0.70273736  0.69877457  0.63416600  1
  Ti  Ti149  1  -0.00111830  0.59214427  0.00149568  1
  Ti  Ti150  1  0.89126326  0.10401276  0.11250151  1
  Ti  Ti151  1  0.90237456  0.50413939  0.86518106  1
  Ti  Ti152  1  0.48834295  0.70794624  0.88238332  1
  Ti  Ti153  1  -0.00220649  0.80269154  0.24608656  1
  Ti  Ti154  1  0.20240712  0.00539184  -0.01055771  1
  Ti  Ti155  1  0.49948142  0.89158124  0.38980117  1
  Ti  Ti156  1  0.21647713  0.81114338  0.51472611  1
  Ti  Ti157  1  0.19373996  0.00428575  0.25545727  1
  Ti  Ti158  1  0.09633904  0.30490562  0.13030575  1
  Ti  Ti159  1  0.00383884  0.80105732  0.76517857  1
  Mo  Mo160  1  0.90102068  0.90362657  0.87835312  1
  Mo  Mo161  1  0.49313703  0.30049266  0.62226827  1
  Mo  Mo162  1  0.90344954  0.69295883  0.63692577  1
  Mo  Mo163  1  0.28743888  0.50493976  0.86194739  1
  Mo  Mo164  1  0.39782914  0.79633638  0.74290579  1
  Mo  Mo165  1  0.01173314  0.20267094  0.51825454  1
  Mo  Mo166  1  0.80017204  0.19796183  0.74358200  1
  Mo  Mo167  1  0.00240429  0.20056183  0.75084541  1
  Mo  Mo168  1  0.39939436  0.20885312  0.51255629  1
  Mo  Mo169  1  0.18951593  0.39953653  0.24336406  1
  Mo  Mo170  1  0.70096953  0.29788571  0.85280257  1
  Mo  Mo171  1  0.09642984  0.49750957  0.64050964  1
  Mo  Mo172  1  0.90481090  0.49639289  0.39476306  1
  Mo  Mo173  1  0.00961465  0.79708158  0.48869393  1
  Mo  Mo174  1  0.00607635  0.40422844  0.49782803  1
  Mo  Mo175  1  0.19664686  -0.00165456  0.77097583  1
  Mo  Mo176  1  0.29789042  0.70512924  0.61507437  1
  Mo  Mo177  1  0.50230563  0.70940480  0.38514792  1
  Mo  Mo178  1  0.39783365  0.00319856  0.76779928  1
  Mo  Mo179  1  0.18737747  0.20002637  0.24763134  1
  Mo  Mo180  1  0.80028949  -0.00143748  0.73863257  1
  Mo  Mo181  1  0.10324605  0.09873591  0.87062456  1
  Mo  Mo182  1  0.49307556  0.30196688  0.87995495  1
  Mo  Mo183  1  0.69800113  0.49122608  0.37880408  1
  Mo  Mo184  1  -0.00207449  0.59714878  0.24508659  1
  Mo  Mo185  1  0.60054396  0.19810698  0.49120646  1
  Mo  Mo186  1  0.80192846  0.20006504  0.52634698  1
  Mo  Mo187  1  0.50137864  0.09754642  0.86986435  1
  Mo  Mo188  1  0.60095231  -0.00676363  0.51543748  1
  Mo  Mo189  1  0.80937246  0.59680869  0.74396249  1
  Mo  Mo190  1  0.40740790  -0.00614945  0.25277170  1
  Mo  Mo191  1  0.39375812  0.80419180  0.00679944  1
  Mo  Mo192  1  0.39709728  0.79800662  0.51257214  1
  Mo  Mo193  1  0.40529294  0.20248714  0.24373481  1
  Mo  Mo194  1  0.50049009  0.70738551  0.62079190  1
  Mo  Mo195  1  0.20297051  0.20766366  0.75473758  1
  Mo  Mo196  1  0.29397627  0.49302972  0.13713848  1
  Mo  Mo197  1  0.70115487  0.09668669  0.40188031  1
  Mo  Mo198  1  0.29528057  0.90095075  0.64036740  1
  Mo  Mo199  1  0.20079570  0.80039834  0.22892820  1
