# generated using pymatgen
data_HfZrTaTiMo
_symmetry_space_group_name_H-M   'P 1'
_cell_length_a   15.93184683
_cell_length_b   15.91779705
_cell_length_c   15.19584781
_cell_angle_alpha   89.97077380
_cell_angle_beta   90.02197422
_cell_angle_gamma   90.01124220
_symmetry_Int_Tables_number   1
_chemical_formula_structural   HfZrTaTiMo
_chemical_formula_sum   'Hf40 Zr40 Ta40 Ti40 Mo40'
_cell_volume   3853.66469324
_cell_formula_units_Z   40
loop_
 _symmetry_equiv_pos_site_id
 _symmetry_equiv_pos_as_xyz
  1  'x, y, z'
loop_
 _atom_site_type_symbol
 _atom_site_label
 _atom_site_symmetry_multiplicity
 _atom_site_fract_x
 _atom_site_fract_y
 _atom_site_fract_z
 _atom_site_occupancy
  Hf  Hf0  1  0.20027293  0.38927165  0.00877400  1
  Hf  Hf1  1  0.10657528  0.49677413  0.13999963  1
  Hf  Hf2  1  0.09946794  0.09786555  0.61793732  1
  Hf  Hf3  1  0.60105596  0.82012048  0.76855019  1
  Hf  Hf4  1  0.09108393  0.10888933  0.36010666  1
  Hf  Hf5  1  -0.00867194  0.00025851  -0.00266106  1
  Hf  Hf6  1  -0.00502929  0.60333346  0.49091564  1
  Hf  Hf7  1  0.00080388  0.39737808  0.00718832  1
  Hf  Hf8  1  0.80722799  0.40001017  0.73061976  1
  Hf  Hf9  1  0.79664049  -0.00308799  0.76096938  1
  Hf  Hf10  1  0.49097857  0.70969862  0.88013734  1
  Hf  Hf11  1  0.29952873  0.49549276  0.13869426  1
  Hf  Hf12  1  0.80454299  0.80316239  0.23311604  1
  Hf  Hf13  1  0.80693876  0.20916372  0.50483300  1
  Hf  Hf14  1  0.60688661  0.79647611  0.25414169  1
  Hf  Hf15  1  0.70252495  0.31707589  0.37204016  1
  Hf  Hf16  1  0.30705548  0.48301402  0.87499310  1
  Hf  Hf17  1  0.60743188  0.39452194  0.00489379  1
  Hf  Hf18  1  0.49914489  0.49153929  0.86522594  1
  Hf  Hf19  1  0.69989305  0.10735658  0.37679771  1
  Hf  Hf20  1  0.09685411  0.50294172  0.62996514  1
  Hf  Hf21  1  -0.01036738  0.00410036  0.49727780  1
  Hf  Hf22  1  0.09734319  0.89579999  0.11004409  1
  Hf  Hf23  1  0.49576888  0.31060263  0.85670629  1
  Hf  Hf24  1  0.10442324  0.10171995  0.12715727  1
  Hf  Hf25  1  0.39932915  0.80584150  0.23977063  1
  Hf  Hf26  1  -0.00835486  0.79791141  0.24252215  1
  Hf  Hf27  1  0.19816280  0.39319917  0.49625155  1
  Hf  Hf28  1  0.20314394  0.78927595  -0.00398101  1
  Hf  Hf29  1  0.70630401  0.70308447  0.64793314  1
  Hf  Hf30  1  0.19836264  0.59391237  0.76070432  1
  Hf  Hf31  1  0.79924546  0.79901094  0.50926371  1
  Hf  Hf32  1  -0.01506317  0.59156291  0.75793330  1
  Hf  Hf33  1  0.71370540  0.71531248  0.87935346  1
  Hf  Hf34  1  0.30801855  0.90024620  0.88341876  1
  Hf  Hf35  1  0.00019482  0.60051628  0.26622056  1
  Hf  Hf36  1  0.80388727  0.60998327  0.24137669  1
  Hf  Hf37  1  -0.00251581  -0.00321418  0.76275768  1
  Hf  Hf38  1  0.50564611  0.49350705  0.64073774  1
  Hf  Hf39  1  0.50944168  0.69248679  0.37036283  1
  Zr  Zr40  1  0.18707704  0.59668256  0.48769670  1
  Zr  Zr41  1  0.69480000  0.10741693  0.62181341  1
  Zr  Zr42  1  0.09727270  0.90288041  0.37246678  1
  Zr  Zr43  1  0.80548369  0.00132058  0.50235199  1
  Zr  Zr44  1  0.48606446  0.10824001  0.85929289  1
  Zr  Zr45  1  0.10224940  0.90283494  0.62948262  1
  Zr  Zr46  1  0.69108766  0.89830132  0.09837034  1
  Zr  Zr47  1  0.79601293  -0.00176323  0.23937456  1
  Zr  Zr48  1  -0.00846093  0.79840136  0.50660889  1
  Zr  Zr49  1  0.30569409  0.29300363  0.87816621  1
  Zr  Zr50  1  0.29853153  0.89950134  0.63067880  1
  Zr  Zr51  1  0.19666790  0.19675427  0.74589129  1
  Zr  Zr52  1  0.30485603  0.70184124  0.37009114  1
  Zr  Zr53  1  0.19371010  0.79704376  0.49311464  1
  Zr  Zr54  1  0.40768628  0.19651181  0.01788153  1
  Zr  Zr55  1  0.40141062  0.59458026  0.51178993  1
  Zr  Zr56  1  0.68467643  0.11494216  0.12227667  1
  Zr  Zr57  1  -0.00316362  0.38774163  0.74163982  1
  Zr  Zr58  1  0.69316230  0.90524451  0.62831228  1
  Zr  Zr59  1  0.29452781  0.70174414  0.62935472  1
  Zr  Zr60  1  0.29138420  0.09516843  0.60811412  1
  Zr  Zr61  1  0.60859607  0.60690745  0.51280379  1
  Zr  Zr62  1  0.59074313  0.01870740  -0.01430435  1
  Zr  Zr63  1  0.40166265  0.00003611  0.49852232  1
  Zr  Zr64  1  0.69711768  0.69696886  0.10582644  1
  Zr  Zr65  1  0.41210180  0.37631997  0.25936301  1
  Zr  Zr66  1  0.09708408  0.68939961  0.11656181  1
  Zr  Zr67  1  -0.00363473  0.39856599  0.49824468  1
  Zr  Zr68  1  0.50010976  0.70218135  0.10906027  1
  Zr  Zr69  1  0.51116748  0.49022109  0.37342002  1
  Zr  Zr70  1  0.30444965  0.49849532  0.36556786  1
  Zr  Zr71  1  0.39455190  0.60029374  0.74714581  1
  Zr  Zr72  1  0.90106498  0.29634268  0.36353823  1
  Zr  Zr73  1  0.61507328  0.20754585  0.75520597  1
  Zr  Zr74  1  0.20510480  -0.00322252  0.24211606  1
  Zr  Zr75  1  -0.00230407  0.20756157  0.00765747  1
  Zr  Zr76  1  0.69968947  0.51075334  0.36297872  1
  Zr  Zr77  1  0.60365774  0.58836780  -0.01311555  1
  Zr  Zr78  1  0.59151238  -0.00045624  0.25230834  1
  Zr  Zr79  1  0.50710700  0.29313986  0.62004186  1
  Ta  Ta80  1  0.20196444  0.58985040  -0.01273149  1
  Ta  Ta81  1  0.49468600  0.90346015  0.10971311  1
  Ta  Ta82  1  0.80765168  0.59266365  0.00031282  1
  Ta  Ta83  1  0.09405732  0.69513266  0.87609664  1
  Ta  Ta84  1  0.50915084  0.49695530  0.13637317  1
  Ta  Ta85  1  0.89553173  0.49048982  0.88476755  1
  Ta  Ta86  1  0.10245239  0.29596092  0.87037639  1
  Ta  Ta87  1  0.30341330  0.90453466  0.37318249  1
  Ta  Ta88  1  0.80109375  0.00865360  -0.00642091  1
  Ta  Ta89  1  0.20883638  0.39157241  0.73184163  1
  Ta  Ta90  1  0.61576762  0.39943293  0.51662143  1
  Ta  Ta91  1  0.20540727  0.19398231  0.00950206  1
  Ta  Ta92  1  0.09304970  0.70114537  0.64474289  1
  Ta  Ta93  1  0.10115962  0.29577306  0.15099212  1
  Ta  Ta94  1  0.50355136  0.09686387  0.62358146  1
  Ta  Ta95  1  0.29940771  0.90016306  0.11449642  1
  Ta  Ta96  1  0.38907452  0.20191114  0.72656955  1
  Ta  Ta97  1  0.79771578  0.21133811  0.00715967  1
  Ta  Ta98  1  0.58694462  0.21283995  0.26677772  1
  Ta  Ta99  1  0.40963135  0.79995455  0.50498067  1
  Ta  Ta100  1  -0.01380973  -0.00130900  0.23808118  1
  Ta  Ta101  1  0.90802526  0.10722228  0.64220141  1
  Ta  Ta102  1  0.29602362  0.28848611  0.14455710  1
  Ta  Ta103  1  -0.00699763  0.80012178  0.75988441  1
  Ta  Ta104  1  0.40736660  0.39530711  0.02124518  1
  Ta  Ta105  1  0.19802468  0.79252047  0.24576517  1
  Ta  Ta106  1  0.89871270  0.11390208  0.87131605  1
  Ta  Ta107  1  0.40661635  0.60175071  0.24059828  1
  Ta  Ta108  1  0.50457810  0.71404116  0.64130310  1
  Ta  Ta109  1  0.79898363  0.20097430  0.24392579  1
  Ta  Ta110  1  0.10012506  0.89691903  0.88514976  1
  Ta  Ta111  1  0.29670677  0.09540465  0.87731621  1
  Ta  Ta112  1  0.19709515  0.79753571  0.76669088  1
  Ta  Ta113  1  0.59953528  0.80314224  0.49659981  1
  Ta  Ta114  1  0.59448323  -0.00019745  0.48882526  1
  Ta  Ta115  1  0.10343065  0.10037404  0.88535676  1
  Ta  Ta116  1  0.60634298  0.60209579  0.76050946  1
  Ta  Ta117  1  0.30118850  0.10252293  0.36467006  1
  Ta  Ta118  1  0.49518048  0.89756747  0.37434612  1
  Ta  Ta119  1  0.09994916  0.48744496  0.87292519  1
  Ti  Ti120  1  0.89370665  0.69385261  0.63902229  1
  Ti  Ti121  1  0.88619849  0.49133649  0.37482863  1
  Ti  Ti122  1  0.60102691  0.21046583  -0.01144026  1
  Ti  Ti123  1  0.71017963  0.50969739  0.63589300  1
  Ti  Ti124  1  0.30676342  0.70067008  0.87734283  1
  Ti  Ti125  1  0.19659706  0.20524032  0.48099262  1
  Ti  Ti126  1  0.00089751  0.40239606  0.25998525  1
  Ti  Ti127  1  0.88855858  0.88821256  0.88650720  1
  Ti  Ti128  1  0.39142759  0.01273955  0.01737249  1
  Ti  Ti129  1  0.39418665  0.59085468  0.00638946  1
  Ti  Ti130  1  0.40146391  0.20283662  0.49194910  1
  Ti  Ti131  1  0.19874028  -0.00274693  0.76456436  1
  Ti  Ti132  1  0.09415008  0.28675557  0.62351713  1
  Ti  Ti133  1  0.50146705  0.90365083  0.62740049  1
  Ti  Ti134  1  0.39987800  -0.00099115  0.74579704  1
  Ti  Ti135  1  0.49240190  0.10185712  0.36957999  1
  Ti  Ti136  1  0.29558160  0.69121001  0.12551032  1
  Ti  Ti137  1  0.89504244  0.10506480  0.12521931  1
  Ti  Ti138  1  0.89457020  0.90414169  0.36944813  1
  Ti  Ti139  1  0.39624961  0.39274456  0.50580058  1
  Ti  Ti140  1  0.90288902  0.50168059  0.12581948  1
  Ti  Ti141  1  0.70891913  0.49611220  0.86316666  1
  Ti  Ti142  1  0.51037778  0.29156408  0.12933398  1
  Ti  Ti143  1  0.80091355  0.40073984  0.01158498  1
  Ti  Ti144  1  0.19824202  0.38851039  0.27453376  1
  Ti  Ti145  1  0.89813224  0.30604224  0.13922079  1
  Ti  Ti146  1  0.88826072  0.70621808  0.37789578  1
  Ti  Ti147  1  0.89858955  0.69967303  0.88467181  1
  Ti  Ti148  1  0.89833380  0.30003441  0.87750191  1
  Ti  Ti149  1  0.70058471  0.49693410  0.13725103  1
  Ti  Ti150  1  -0.00288091  0.19957856  0.49305895  1
  Ti  Ti151  1  0.80137687  0.59965801  0.49940037  1
  Ti  Ti152  1  0.59872594  0.00575820  0.76435817  1
  Ti  Ti153  1  0.00078639  0.59320514  -0.00641063  1
  Ti  Ti154  1  0.48889161  0.90146954  0.89192863  1
  Ti  Ti155  1  0.70075498  0.89533384  0.38017715  1
  Ti  Ti156  1  0.71196612  0.31063884  0.87229310  1
  Ti  Ti157  1  0.70128499  0.30736111  0.14039491  1
  Ti  Ti158  1  0.81032758  0.21217210  0.74019068  1
  Ti  Ti159  1  0.71097135  0.11393491  0.87808069  1
  Mo  Mo160  1  0.70433959  0.90985604  0.88431230  1
  Mo  Mo161  1  0.50684240  0.29767606  0.39831674  1
  Mo  Mo162  1  0.70683652  0.30470273  0.61486669  1
  Mo  Mo163  1  0.30463429  0.29009135  0.38261247  1
  Mo  Mo164  1  0.30215573  0.09911322  0.13693798  1
  Mo  Mo165  1  0.89939940  0.89861709  0.64095138  1
  Mo  Mo166  1  0.81232164  0.80457310  0.74716842  1
  Mo  Mo167  1  0.70722107  0.70902800  0.37826346  1
  Mo  Mo168  1  0.29929651  0.49075404  0.62470618  1
  Mo  Mo169  1  -0.00216354  0.79396155  -0.01527214  1
  Mo  Mo170  1  0.09827205  0.70166802  0.35907439  1
  Mo  Mo171  1  0.09586477  0.49573180  0.36407768  1
  Mo  Mo172  1  0.49574204  0.10293691  0.14361146  1
  Mo  Mo173  1  0.20323978  0.20294184  0.25793548  1
  Mo  Mo174  1  0.81033542  0.80105988  0.00945258  1
  Mo  Mo175  1  0.38764769  0.39152319  0.72570615  1
  Mo  Mo176  1  0.80633581  0.40609149  0.23257653  1
  Mo  Mo177  1  0.90787220  0.29233773  0.61554689  1
  Mo  Mo178  1  0.40083386  -0.00223299  0.24184158  1
  Mo  Mo179  1  0.80076544  0.41137273  0.51436104  1
  Mo  Mo180  1  0.60367989  0.39610913  0.23845849  1
  Mo  Mo181  1  0.89912044  0.90213712  0.10599169  1
  Mo  Mo182  1  0.09739861  0.29652050  0.36545726  1
  Mo  Mo183  1  0.60162898  0.60070079  0.24213915  1
  Mo  Mo184  1  0.90461963  0.69465961  0.10337832  1
  Mo  Mo185  1  0.20196159  0.60261729  0.25852931  1
  Mo  Mo186  1  0.59733224  0.19757518  0.48561370  1
  Mo  Mo187  1  0.29644976  0.29360425  0.60107170  1
  Mo  Mo188  1  0.40404710  0.19298749  0.25414736  1
  Mo  Mo189  1  0.20261046  0.00322210  -0.00211488  1
  Mo  Mo190  1  0.19768174  0.00463568  0.47435037  1
  Mo  Mo191  1  0.80326171  0.59825441  0.76969915  1
  Mo  Mo192  1  0.59698672  0.81160038  -0.01830655  1
  Mo  Mo193  1  0.89269641  0.50926848  0.61233199  1
  Mo  Mo194  1  0.40154950  0.80985858  0.74340450  1
  Mo  Mo195  1  0.39420066  0.79813991  0.01360432  1
  Mo  Mo196  1  0.61450593  0.40429204  0.74084668  1
  Mo  Mo197  1  -0.00024015  0.19719797  0.76080919  1
  Mo  Mo198  1  0.89805523  0.09887886  0.35588550  1
  Mo  Mo199  1  -0.00745115  0.19818704  0.23655971  1
