# generated using pymatgen
data_HfZrTaTiMo
_symmetry_space_group_name_H-M   'P 1'
_cell_length_a   15.93011065
_cell_length_b   15.93163082
_cell_length_c   15.21621906
_cell_angle_alpha   89.96311759
_cell_angle_beta   90.08551970
_cell_angle_gamma   89.92634549
_symmetry_Int_Tables_number   1
_chemical_formula_structural   HfZrTaTiMo
_chemical_formula_sum   'Hf40 Zr40 Ta40 Ti40 Mo40'
_cell_volume   3861.75613507
_cell_formula_units_Z   40
loop_
 _symmetry_equiv_pos_site_id
 _symmetry_equiv_pos_as_xyz
  1  'x, y, z'
loop_
 _atom_site_type_symbol
 _atom_site_label
 _atom_site_symmetry_multiplicity
 _atom_site_fract_x
 _atom_site_fract_y
 _atom_site_fract_z
 _atom_site_occupancy
  Hf  Hf0  1  0.39818557  0.39597605  0.24273086  1
  Hf  Hf1  1  0.10350835  0.49665499  0.63355230  1
  Hf  Hf2  1  -0.00255875  0.79603389  0.01323101  1
  Hf  Hf3  1  0.59251353  0.20343026  0.50111645  1
  Hf  Hf4  1  0.80314192  0.61025431  0.50026359  1
  Hf  Hf5  1  0.69409678  0.71257766  0.85972983  1
  Hf  Hf6  1  0.09605255  0.30007344  0.87378307  1
  Hf  Hf7  1  0.71834022  0.89355631  0.63086617  1
  Hf  Hf8  1  0.88672187  0.30971968  0.87553799  1
  Hf  Hf9  1  0.90409226  0.49855056  0.12788564  1
  Hf  Hf10  1  0.49603192  0.09868703  0.12766023  1
  Hf  Hf11  1  0.80637120  0.39070170  0.25666604  1
  Hf  Hf12  1  0.90581960  0.70296525  0.86695441  1
  Hf  Hf13  1  0.48664446  0.68350247  0.88107964  1
  Hf  Hf14  1  0.10344336  0.29482326  0.63687976  1
  Hf  Hf15  1  0.40148602  0.60617461  0.50502813  1
  Hf  Hf16  1  0.40388500  0.60704230  0.23915640  1
  Hf  Hf17  1  0.69781951  0.70927937  0.36334076  1
  Hf  Hf18  1  0.90259876  0.09874799  0.87476513  1
  Hf  Hf19  1  0.40123653  0.20539757  0.75629055  1
  Hf  Hf20  1  0.29119297  0.09975589  0.62793521  1
  Hf  Hf21  1  0.70308621  0.48776497  0.86762829  1
  Hf  Hf22  1  0.89847791  0.89829522  0.86415058  1
  Hf  Hf23  1  0.09687720  0.90252477  0.88119427  1
  Hf  Hf24  1  0.88641093  0.10103314  0.12570918  1
  Hf  Hf25  1  -0.00112811  0.19874715  -0.00123296  1
  Hf  Hf26  1  0.89364648  0.72268027  0.63874994  1
  Hf  Hf27  1  0.20979558  0.40430040  0.76325131  1
  Hf  Hf28  1  0.39739609  0.79240056  0.75181027  1
  Hf  Hf29  1  0.80571433  0.60150423  -0.00558303  1
  Hf  Hf30  1  0.10237801  0.49483993  0.36633185  1
  Hf  Hf31  1  0.20604679  0.18703262  -0.00046289  1
  Hf  Hf32  1  0.20269438  0.77781927  0.00712677  1
  Hf  Hf33  1  0.59815366  0.60026008  0.50360974  1
  Hf  Hf34  1  0.80423140  0.59317497  0.74673222  1
  Hf  Hf35  1  0.69870801  0.70371258  0.13540953  1
  Hf  Hf36  1  0.59455836  0.20386646  0.75327197  1
  Hf  Hf37  1  0.59875168  0.19955968  0.26905970  1
  Hf  Hf38  1  0.40281082  0.18937613  -0.01587956  1
  Hf  Hf39  1  0.31048746  0.90811138  0.61196102  1
  Zr  Zr40  1  0.88968370  0.10109783  0.36303994  1
  Zr  Zr41  1  0.09448848  0.10833259  0.36047627  1
  Zr  Zr42  1  0.90206417  0.29555379  0.62711940  1
  Zr  Zr43  1  0.70100553  0.49470226  0.62192234  1
  Zr  Zr44  1  0.19547210  0.79761795  0.50655382  1
  Zr  Zr45  1  0.60825906  0.19018970  -0.01996070  1
  Zr  Zr46  1  -0.00014359  0.41013155  -0.00124364  1
  Zr  Zr47  1  0.49519242  0.50160292  0.10882122  1
  Zr  Zr48  1  0.70840200  0.89747762  0.37575647  1
  Zr  Zr49  1  0.70684485  0.49742810  0.12752239  1
  Zr  Zr50  1  0.60060739  0.39476939  0.24675083  1
  Zr  Zr51  1  0.19900050  0.40488952  0.00421322  1
  Zr  Zr52  1  0.32961094  0.50588470  0.89147269  1
  Zr  Zr53  1  0.09367932  0.09459002  0.12483840  1
  Zr  Zr54  1  0.70491990  0.09691258  0.62487857  1
  Zr  Zr55  1  0.50097345  0.88398422  0.88246980  1
  Zr  Zr56  1  0.29883865  0.49957605  0.37337418  1
  Zr  Zr57  1  0.81931688  0.81471639  0.23686334  1
  Zr  Zr58  1  0.60722324  -0.00496918  0.76769469  1
  Zr  Zr59  1  0.69394015  0.90810998  0.13099036  1
  Zr  Zr60  1  0.48955287  0.08865330  0.62370482  1
  Zr  Zr61  1  -0.00016447  0.60405415  0.51059007  1
  Zr  Zr62  1  0.29736612  0.89703188  0.37373891  1
  Zr  Zr63  1  0.60208939  0.60298530  -0.00267654  1
  Zr  Zr64  1  0.09968963  0.70272305  0.36488650  1
  Zr  Zr65  1  0.78231646  0.00398880  -0.01773337  1
  Zr  Zr66  1  0.19132045  0.00886143  0.48979445  1
  Zr  Zr67  1  0.41040841  0.39691140  0.51249667  1
  Zr  Zr68  1  0.57727835  0.40181315  0.73469008  1
  Zr  Zr69  1  0.29034755  0.29746427  0.37789791  1
  Zr  Zr70  1  0.30622336  0.70863346  0.36607629  1
  Zr  Zr71  1  0.20859107  0.80505374  0.75459941  1
  Zr  Zr72  1  0.20997182  0.19752838  0.23974008  1
  Zr  Zr73  1  0.48985296  0.88764878  0.38977726  1
  Zr  Zr74  1  0.50609527  0.89643584  0.62102135  1
  Zr  Zr75  1  0.19766837  0.59800199  0.50454101  1
  Zr  Zr76  1  0.70159939  0.10649398  0.13882604  1
  Zr  Zr77  1  0.59218749  -0.00077886  0.26922457  1
  Zr  Zr78  1  0.69997048  0.49987895  0.37586942  1
  Zr  Zr79  1  -0.00327493  0.00583205  0.50715661  1
  Ta  Ta80  1  0.00163231  0.00310133  0.73949580  1
  Ta  Ta81  1  0.09851220  0.70333400  0.64478513  1
  Ta  Ta82  1  0.29495634  0.29540747  0.62823342  1
  Ta  Ta83  1  0.49110873  0.32139985  0.88518340  1
  Ta  Ta84  1  0.00213359  0.59649853  0.74970849  1
  Ta  Ta85  1  0.30920882  0.29338433  0.11734443  1
  Ta  Ta86  1  0.90381183  0.70939661  0.37603748  1
  Ta  Ta87  1  -0.01415516  -0.01603823  0.23686733  1
  Ta  Ta88  1  0.30398907  0.30389039  0.88239603  1
  Ta  Ta89  1  0.30231894  0.90525292  0.11844895  1
  Ta  Ta90  1  0.20195779  -0.00368545  0.24319261  1
  Ta  Ta91  1  0.50288728  0.49990294  0.37753894  1
  Ta  Ta92  1  0.69773949  0.70653166  0.63760328  1
  Ta  Ta93  1  0.39491781  0.00312173  -0.00631494  1
  Ta  Ta94  1  0.29253837  0.90097548  0.89298735  1
  Ta  Ta95  1  0.80828591  0.39878638  0.49887603  1
  Ta  Ta96  1  0.39371085  0.00687175  0.25318680  1
  Ta  Ta97  1  -0.00056504  0.80885244  0.51225904  1
  Ta  Ta98  1  0.00303093  0.79812867  0.23262135  1
  Ta  Ta99  1  0.10119778  0.69817642  0.86415623  1
  Ta  Ta100  1  0.50257565  0.29089660  0.11807680  1
  Ta  Ta101  1  0.40852837  0.58270944  0.73524156  1
  Ta  Ta102  1  0.09614862  0.30148748  0.12757514  1
  Ta  Ta103  1  0.90628038  0.50110179  0.37589822  1
  Ta  Ta104  1  0.39479288  0.19830633  0.50135231  1
  Ta  Ta105  1  0.00555241  0.39715240  0.49424753  1
  Ta  Ta106  1  0.70701334  0.29663222  0.38929499  1
  Ta  Ta107  1  0.80990684  0.60332640  0.25809889  1
  Ta  Ta108  1  0.10154209  0.90425953  0.63762103  1
  Ta  Ta109  1  0.90660085  0.29779153  0.38164784  1
  Ta  Ta110  1  0.88957324  0.29662300  0.11603306  1
  Ta  Ta111  1  0.10330480  0.90026664  0.12092347  1
  Ta  Ta112  1  0.09282040  0.89800041  0.35784586  1
  Ta  Ta113  1  0.29908197  0.49383529  0.62617658  1
  Ta  Ta114  1  0.79435430  0.19937124  0.75507251  1
  Ta  Ta115  1  0.19890431  0.40059126  0.23343156  1
  Ta  Ta116  1  0.60351630  0.00608931  0.48800889  1
  Ta  Ta117  1  0.20227781  0.19295822  0.76817375  1
  Ta  Ta118  1  0.39127138  -0.00155794  0.77213364  1
  Ta  Ta119  1  0.60432402  0.39342669  0.00123130  1
  Ti  Ti120  1  -0.00859960  0.21075006  0.24339020  1
  Ti  Ti121  1  0.90253026  0.49289972  0.62268892  1
  Ti  Ti122  1  0.10373724  0.08309441  0.88071683  1
  Ti  Ti123  1  0.80310233  -0.00165645  0.49757092  1
  Ti  Ti124  1  0.19235543  0.38839727  0.50022083  1
  Ti  Ti125  1  0.29928893  0.69635678  0.62802619  1
  Ti  Ti126  1  -0.00055074  0.60361640  0.24884904  1
  Ti  Ti127  1  0.59206445  0.60612012  0.24782089  1
  Ti  Ti128  1  0.10267106  0.51070263  0.87370012  1
  Ti  Ti129  1  0.80286138  0.19572742  0.50066925  1
  Ti  Ti130  1  0.79593691  0.80290210  -0.00009423  1
  Ti  Ti131  1  0.39525429  0.79117021  0.00995333  1
  Ti  Ti132  1  -0.00601058  0.40631376  0.75460109  1
  Ti  Ti133  1  0.60318949  0.80336604  0.00655100  1
  Ti  Ti134  1  0.21409657  0.60378484  0.76188541  1
  Ti  Ti135  1  0.01361446  0.60584832  -0.00053652  1
  Ti  Ti136  1  0.49480117  0.30218455  0.37705752  1
  Ti  Ti137  1  0.70798798  0.29037043  0.11843549  1
  Ti  Ti138  1  0.89632833  0.09829701  0.63274734  1
  Ti  Ti139  1  0.59311253  0.00170390  -0.01624650  1
  Ti  Ti140  1  0.60778972  0.79548235  0.50814954  1
  Ti  Ti141  1  0.49821109  0.90225582  0.11887685  1
  Ti  Ti142  1  0.89935288  0.49774276  0.87538023  1
  Ti  Ti143  1  0.50165917  0.70496354  0.37500708  1
  Ti  Ti144  1  0.70152693  0.30209495  0.61807106  1
  Ti  Ti145  1  0.70336125  0.30534064  0.87066537  1
  Ti  Ti146  1  0.90511387  0.89695346  0.38290933  1
  Ti  Ti147  1  0.01490458  0.20557302  0.49518706  1
  Ti  Ti148  1  0.10063839  0.50672987  0.12745664  1
  Ti  Ti149  1  0.90046373  0.69409283  0.12471883  1
  Ti  Ti150  1  0.20098311  0.60417821  0.23323499  1
  Ti  Ti151  1  0.00332259  0.39483375  0.25097985  1
  Ti  Ti152  1  0.30463697  0.10343505  0.37777004  1
  Ti  Ti153  1  0.40673118  0.80389921  0.23106009  1
  Ti  Ti154  1  0.20001661  0.79924918  0.23260593  1
  Ti  Ti155  1  0.29717272  0.50740254  0.11401567  1
  Ti  Ti156  1  0.59107153  0.59499310  0.74782382  1
  Ti  Ti157  1  0.10383208  0.10534288  0.63108605  1
  Ti  Ti158  1  0.00126242  0.19407620  0.75555830  1
  Ti  Ti159  1  0.50405870  0.70176316  0.62983603  1
  Mo  Mo160  1  0.49617919  0.29435896  0.61935358  1
  Mo  Mo161  1  0.39755786  0.39896081  0.73739925  1
  Mo  Mo162  1  0.29925863  0.70274821  0.13714611  1
  Mo  Mo163  1  0.20225991  -0.00471529  0.01180763  1
  Mo  Mo164  1  0.79679854  0.80592143  0.76113840  1
  Mo  Mo165  1  0.30122586  0.69640964  0.87192620  1
  Mo  Mo166  1  0.59572998  0.79203322  0.74100780  1
  Mo  Mo167  1  0.19750348  0.00246706  0.75083802  1
  Mo  Mo168  1  0.69975137  0.89471154  0.87377398  1
  Mo  Mo169  1  0.90016643  0.90608738  0.10405001  1
  Mo  Mo170  1  0.90179826  0.91031791  0.62909023  1
  Mo  Mo171  1  0.50116426  0.50430808  0.60915410  1
  Mo  Mo172  1  0.30775799  0.09477332  0.13261666  1
  Mo  Mo173  1  0.80798522  0.80191774  0.49255096  1
  Mo  Mo174  1  0.70080988  0.10236586  0.38835822  1
  Mo  Mo175  1  0.38773282  0.61339159  0.02060711  1
  Mo  Mo176  1  -0.00219471  -0.00333479  0.01035405  1
  Mo  Mo177  1  0.00438414  0.80391675  0.74398576  1
  Mo  Mo178  1  0.80312920  0.00130153  0.25914046  1
  Mo  Mo179  1  0.50326348  0.49792679  0.88745231  1
  Mo  Mo180  1  0.79792638  0.39303290  0.73016788  1
  Mo  Mo181  1  0.19264224  0.60003396  -0.00085971  1
  Mo  Mo182  1  0.19620757  0.20584539  0.50234400  1
  Mo  Mo183  1  0.09701508  0.69199583  0.13595444  1
  Mo  Mo184  1  0.50142223  0.71161927  0.11834669  1
  Mo  Mo185  1  0.60214400  0.39462495  0.49548213  1
  Mo  Mo186  1  0.79283530  0.39930548  0.00988438  1
  Mo  Mo187  1  0.40108951  0.39396947  0.01830102  1
  Mo  Mo188  1  0.48789038  0.10364903  0.38129547  1
  Mo  Mo189  1  0.58253687  0.79445010  0.23965240  1
  Mo  Mo190  1  0.29228397  0.09256288  0.86620715  1
  Mo  Mo191  1  0.40079595  0.00599997  0.48340129  1
  Mo  Mo192  1  0.09419690  0.30455003  0.35963631  1
  Mo  Mo193  1  0.79759610  0.20925489  0.26173743  1
  Mo  Mo194  1  0.40419569  0.79102629  0.51617465  1
  Mo  Mo195  1  0.49663167  0.09593013  0.87262914  1
  Mo  Mo196  1  0.79626899  0.20738377  -0.01708850  1
  Mo  Mo197  1  0.70237318  0.10289298  0.85895165  1
  Mo  Mo198  1  0.80671846  0.00468069  0.75263371  1
  Mo  Mo199  1  0.40530851  0.19969364  0.25723920  1
