# generated using pymatgen
data_HfZrTaTiMo
_symmetry_space_group_name_H-M   'P 1'
_cell_length_a   15.93220347
_cell_length_b   15.93195989
_cell_length_c   15.21810604
_cell_angle_alpha   89.96835116
_cell_angle_beta   90.07842660
_cell_angle_gamma   90.11148737
_symmetry_Int_Tables_number   1
_chemical_formula_structural   HfZrTaTiMo
_chemical_formula_sum   'Hf40 Zr40 Ta40 Ti40 Mo40'
_cell_volume   3862.81900760
_cell_formula_units_Z   40
loop_
 _symmetry_equiv_pos_site_id
 _symmetry_equiv_pos_as_xyz
  1  'x, y, z'
loop_
 _atom_site_type_symbol
 _atom_site_label
 _atom_site_symmetry_multiplicity
 _atom_site_fract_x
 _atom_site_fract_y
 _atom_site_fract_z
 _atom_site_occupancy
  Hf  Hf0  1  0.60985393  0.80956434  0.24459820  1
  Hf  Hf1  1  0.19862643  0.80913290  0.48786886  1
  Hf  Hf2  1  0.60548025  0.01988810  0.51497474  1
  Hf  Hf3  1  0.80318684  0.80211612  0.25992466  1
  Hf  Hf4  1  0.79033226  0.19284654  0.01921978  1
  Hf  Hf5  1  0.10175441  0.70188380  0.63181539  1
  Hf  Hf6  1  0.30630058  0.90327622  0.62557780  1
  Hf  Hf7  1  0.20364706  0.00671776  0.50069268  1
  Hf  Hf8  1  0.30976885  0.70873645  0.61407337  1
  Hf  Hf9  1  0.30131165  0.71374101  0.11561742  1
  Hf  Hf10  1  0.61061268  0.00651514  0.02214158  1
  Hf  Hf11  1  0.11726813  0.10369939  0.35775090  1
  Hf  Hf12  1  0.09248826  0.30201267  0.61700628  1
  Hf  Hf13  1  0.49152153  0.89653831  0.62190051  1
  Hf  Hf14  1  0.90981818  0.09956502  0.13632825  1
  Hf  Hf15  1  0.70574479  0.90172019  0.87275594  1
  Hf  Hf16  1  0.69751092  0.29539245  0.38983698  1
  Hf  Hf17  1  0.10962850  0.68230071  0.36866192  1
  Hf  Hf18  1  -0.00064555  0.00375227  0.74537193  1
  Hf  Hf19  1  0.40459602  0.21596707  0.76778794  1
  Hf  Hf20  1  0.90139523  0.89673630  0.87290350  1
  Hf  Hf21  1  0.47821141  0.27798909  0.60090307  1
  Hf  Hf22  1  -0.00073607  0.39143560  0.00192457  1
  Hf  Hf23  1  0.50064891  0.29456522  0.38520003  1
  Hf  Hf24  1  0.10320324  0.49449872  0.63782836  1
  Hf  Hf25  1  0.79593528  0.59888411  0.75320556  1
  Hf  Hf26  1  0.79509754  0.38718492  0.75104809  1
  Hf  Hf27  1  0.00005390  -0.00231785  0.26286806  1
  Hf  Hf28  1  0.69738138  0.50165009  0.11927294  1
  Hf  Hf29  1  0.49857362  0.90266277  0.37977611  1
  Hf  Hf30  1  0.89345188  0.29987113  0.59560433  1
  Hf  Hf31  1  0.30852581  0.70090798  0.37701529  1
  Hf  Hf32  1  0.10307195  0.70504005  0.86487858  1
  Hf  Hf33  1  0.36670675  0.40715286  0.74164920  1
  Hf  Hf34  1  0.40571749  0.19997581  0.24372945  1
  Hf  Hf35  1  0.20482252  0.01336278  0.74336609  1
  Hf  Hf36  1  0.20868142  0.21631811  0.74637403  1
  Hf  Hf37  1  0.89298425  0.92201399  0.39766164  1
  Hf  Hf38  1  0.49347236  0.51217569  0.64131151  1
  Hf  Hf39  1  0.19551206  0.19989656  0.00800623  1
  Zr  Zr40  1  -0.00385529  0.59459182  0.49257185  1
  Zr  Zr41  1  0.89584828  0.30243132  0.38214829  1
  Zr  Zr42  1  0.40014226  0.01163349  0.00093976  1
  Zr  Zr43  1  0.80019023  0.78411193  0.50100370  1
  Zr  Zr44  1  0.00003129  0.20354163  0.75605870  1
  Zr  Zr45  1  0.50085192  0.70120394  0.37400522  1
  Zr  Zr46  1  0.89836406  0.49139483  0.87068759  1
  Zr  Zr47  1  0.49095996  0.90273265  0.12751029  1
  Zr  Zr48  1  0.67503016  0.28387603  0.88680632  1
  Zr  Zr49  1  0.29581218  0.29988960  0.36620502  1
  Zr  Zr50  1  -0.00050747  0.79535098  0.26802410  1
  Zr  Zr51  1  0.00204777  0.79605054  0.48809747  1
  Zr  Zr52  1  0.50365367  0.30411171  0.10827362  1
  Zr  Zr53  1  0.59619934  0.79752282  0.75211186  1
  Zr  Zr54  1  0.21007422  0.20259387  0.50247354  1
  Zr  Zr55  1  0.79932521  0.19825624  0.74208844  1
  Zr  Zr56  1  0.70318074  0.09154869  0.86667633  1
  Zr  Zr57  1  0.51505555  0.09485883  0.35730230  1
  Zr  Zr58  1  0.51564915  0.11580912  0.87739268  1
  Zr  Zr59  1  0.79862492  0.19908901  0.25259783  1
  Zr  Zr60  1  0.58037622  0.37516413  0.74901520  1
  Zr  Zr61  1  0.48593294  0.50772892  0.87175352  1
  Zr  Zr62  1  0.69711663  0.49955719  0.63330302  1
  Zr  Zr63  1  0.22927542  0.59741952  0.75457033  1
  Zr  Zr64  1  0.29738143  0.90073120  0.88103029  1
  Zr  Zr65  1  0.80148927  0.59754317  -0.00779532  1
  Zr  Zr66  1  0.50171977  0.50573807  0.38058344  1
  Zr  Zr67  1  0.60583539  0.39681802  0.24562307  1
  Zr  Zr68  1  0.28865819  0.50412777  0.36915378  1
  Zr  Zr69  1  0.11448779  0.48684646  0.87151495  1
  Zr  Zr70  1  0.00073646  0.60146715  0.00008062  1
  Zr  Zr71  1  0.89957344  0.09403018  0.88443599  1
  Zr  Zr72  1  0.90462157  0.09388532  0.59801341  1
  Zr  Zr73  1  0.19371262  0.00335414  0.00588923  1
  Zr  Zr74  1  0.59572589  0.40421174  0.51201932  1
  Zr  Zr75  1  0.50057136  0.70322058  0.11605414  1
  Zr  Zr76  1  0.40548276  0.40975816  0.24014922  1
  Zr  Zr77  1  0.10038186  0.49483051  0.13483005  1
  Zr  Zr78  1  0.00351019  0.79755363  0.00628464  1
  Zr  Zr79  1  0.69821745  0.68740181  0.37158778  1
  Ta  Ta80  1  0.00583781  -0.00195683  0.00780028  1
  Ta  Ta81  1  0.80377962  -0.00827047  0.02031326  1
  Ta  Ta82  1  0.60561238  0.80240325  -0.00246471  1
  Ta  Ta83  1  0.90061674  0.70744620  0.86023315  1
  Ta  Ta84  1  0.30131087  0.50206996  0.11206057  1
  Ta  Ta85  1  0.60070369  0.79820452  0.50699575  1
  Ta  Ta86  1  0.90362181  0.49289910  0.62649858  1
  Ta  Ta87  1  -0.00078243  0.59629396  0.75353623  1
  Ta  Ta88  1  0.50412659  0.90424875  0.87960228  1
  Ta  Ta89  1  0.70612702  0.49521913  0.37990117  1
  Ta  Ta90  1  0.19892221  0.60805204  0.00362989  1
  Ta  Ta91  1  0.40455282  0.00570241  0.75843141  1
  Ta  Ta92  1  0.90435568  0.30187458  0.13074586  1
  Ta  Ta93  1  0.30071362  0.09976214  0.13940529  1
  Ta  Ta94  1  0.09828302  0.90090587  0.63083244  1
  Ta  Ta95  1  0.20161694  0.80573848  0.25680803  1
  Ta  Ta96  1  0.10386125  0.30666619  0.35558994  1
  Ta  Ta97  1  0.20522369  0.80359194  0.75237589  1
  Ta  Ta98  1  -0.00786850  0.59276691  0.25656438  1
  Ta  Ta99  1  0.70051767  0.70267871  0.87524645  1
  Ta  Ta100  1  0.29346032  0.30634582  0.12145947  1
  Ta  Ta101  1  0.40019645  0.59905987  0.50955948  1
  Ta  Ta102  1  0.70289569  0.89859023  0.61988529  1
  Ta  Ta103  1  0.79374544  0.39271562  0.00315652  1
  Ta  Ta104  1  0.00427573  0.19628606  0.00516030  1
  Ta  Ta105  1  0.39784322  0.78956561  0.77018317  1
  Ta  Ta106  1  0.90691361  0.89496406  0.61852493  1
  Ta  Ta107  1  0.59842142  0.60403174  -0.01063805  1
  Ta  Ta108  1  0.80084161  0.80114158  0.73987856  1
  Ta  Ta109  1  0.90376485  0.69575841  0.63795391  1
  Ta  Ta110  1  0.89642959  0.69488119  0.13705221  1
  Ta  Ta111  1  0.90467575  0.89542893  0.12833648  1
  Ta  Ta112  1  0.09715351  0.90214470  0.86260658  1
  Ta  Ta113  1  0.70383621  0.69905659  0.12091333  1
  Ta  Ta114  1  0.30436918  0.91469749  0.36611356  1
  Ta  Ta115  1  0.69489158  0.91231471  0.38855785  1
  Ta  Ta116  1  0.10302303  0.90003858  0.13775097  1
  Ta  Ta117  1  0.40162100  0.60106245  0.23160913  1
  Ta  Ta118  1  0.29353184  0.31925982  0.89977685  1
  Ta  Ta119  1  0.09605228  0.29443073  0.14358257  1
  Ti  Ti120  1  0.29815300  0.10976882  0.87780078  1
  Ti  Ti121  1  0.29685652  0.90320839  0.12917983  1
  Ti  Ti122  1  0.79128901  -0.00491932  0.24447090  1
  Ti  Ti123  1  0.60163453  0.60381558  0.50490002  1
  Ti  Ti124  1  0.69344774  0.69527753  0.63373240  1
  Ti  Ti125  1  0.61062251  0.19474056  0.22837518  1
  Ti  Ti126  1  0.32152327  0.11694644  0.62763126  1
  Ti  Ti127  1  0.39662574  0.80357466  0.25435209  1
  Ti  Ti128  1  0.80152377  -0.00335374  0.73056250  1
  Ti  Ti129  1  0.09687515  0.10276046  0.61618600  1
  Ti  Ti130  1  0.80046872  0.59300043  0.24902522  1
  Ti  Ti131  1  0.10071116  0.10071143  0.87552111  1
  Ti  Ti132  1  0.80171667  0.59377108  0.50833859  1
  Ti  Ti133  1  0.30053965  0.50500454  0.89997352  1
  Ti  Ti134  1  -0.00741094  0.40368213  0.25806118  1
  Ti  Ti135  1  0.10490907  0.30049068  0.87825591  1
  Ti  Ti136  1  0.00592100  0.19057945  0.47333697  1
  Ti  Ti137  1  0.77994475  0.16698500  0.48729022  1
  Ti  Ti138  1  0.59643791  0.40499019  -0.00438593  1
  Ti  Ti139  1  0.19561261  0.40401898  0.49926860  1
  Ti  Ti140  1  0.69590350  0.28506888  0.60708345  1
  Ti  Ti141  1  0.80241258  0.79729048  0.00606187  1
  Ti  Ti142  1  -0.00474947  0.39043828  0.75497309  1
  Ti  Ti143  1  0.10243593  0.10228133  0.14256927  1
  Ti  Ti144  1  0.09905301  0.70333984  0.13499563  1
  Ti  Ti145  1  0.19509903  0.80351815  -0.00216343  1
  Ti  Ti146  1  0.00732069  0.40870310  0.48380117  1
  Ti  Ti147  1  0.79703407  0.39834410  0.24082812  1
  Ti  Ti148  1  0.68824941  0.49699919  0.86718136  1
  Ti  Ti149  1  0.49879388  0.70082720  0.62694082  1
  Ti  Ti150  1  0.38385741  0.40589605  0.50566974  1
  Ti  Ti151  1  0.89737467  0.49634425  0.12491095  1
  Ti  Ti152  1  0.89451180  0.29100392  0.88802677  1
  Ti  Ti153  1  0.40022420  0.20305475  0.00344513  1
  Ti  Ti154  1  0.59601187  0.59432865  0.24027756  1
  Ti  Ti155  1  0.88864989  0.49704778  0.37894823  1
  Ti  Ti156  1  0.59696431  0.00348013  0.73814240  1
  Ti  Ti157  1  0.20563996  0.60065253  0.23626225  1
  Ti  Ti158  1  0.39997780  0.01534694  0.49884639  1
  Ti  Ti159  1  0.19966270  0.59146878  0.50513698  1
  Mo  Mo160  1  0.79427160  -0.00512670  0.51347734  1
  Mo  Mo161  1  0.20083873  0.40308497  0.23596854  1
  Mo  Mo162  1  0.40163750  0.80395550  -0.01542869  1
  Mo  Mo163  1  0.10813430  0.90235373  0.36834078  1
  Mo  Mo164  1  0.01584571  0.00169574  0.49583663  1
  Mo  Mo165  1  0.48490750  0.30675000  0.89521748  1
  Mo  Mo166  1  0.20349354  -0.00418775  0.23984784  1
  Mo  Mo167  1  0.70980034  0.88978685  0.11834373  1
  Mo  Mo168  1  0.70051836  0.09895238  0.64101064  1
  Mo  Mo169  1  0.20355270  0.20177507  0.23630282  1
  Mo  Mo170  1  0.79999295  0.40930079  0.50771127  1
  Mo  Mo171  1  0.39869089  0.40574849  0.00548850  1
  Mo  Mo172  1  0.59521218  0.19230212  0.72420286  1
  Mo  Mo173  1  0.70277124  0.08974286  0.35765750  1
  Mo  Mo174  1  0.00114557  0.80129405  0.74371907  1
  Mo  Mo175  1  0.39993386  0.61115898  0.74382572  1
  Mo  Mo176  1  0.30327679  0.69966923  0.89603123  1
  Mo  Mo177  1  0.29513376  0.30297410  0.60748579  1
  Mo  Mo178  1  0.49819975  0.70543834  0.88812123  1
  Mo  Mo179  1  0.39888683  0.60461630  0.00978289  1
  Mo  Mo180  1  0.59818577  0.19427280  0.02213518  1
  Mo  Mo181  1  0.19583620  0.40044116  0.01451712  1
  Mo  Mo182  1  0.90085062  0.10057995  0.37768970  1
  Mo  Mo183  1  0.19582664  0.39422100  0.74746108  1
  Mo  Mo184  1  0.29481059  0.50376715  0.60786639  1
  Mo  Mo185  1  0.60086309  0.19335240  0.50627094  1
  Mo  Mo186  1  0.59679571  0.60930833  0.76901317  1
  Mo  Mo187  1  0.49384849  0.09669424  0.63768502  1
  Mo  Mo188  1  0.09952668  0.49144320  0.36147992  1
  Mo  Mo189  1  0.31013612  0.09490855  0.35810908  1
  Mo  Mo190  1  0.70239026  0.30339547  0.11554511  1
  Mo  Mo191  1  0.61017278  -0.00350628  0.24057013  1
  Mo  Mo192  1  0.50170966  0.50906258  0.10882983  1
  Mo  Mo193  1  0.00049487  0.20349135  0.25715649  1
  Mo  Mo194  1  0.89237560  0.67977021  0.36310740  1
  Mo  Mo195  1  0.39693513  0.18202930  0.47698104  1
  Mo  Mo196  1  0.50036446  0.10355463  0.13112143  1
  Mo  Mo197  1  0.70421746  0.09338857  0.14022554  1
  Mo  Mo198  1  0.40360910  0.80480229  0.48940939  1
  Mo  Mo199  1  0.40090140  -0.00217772  0.24303613  1
