# generated using pymatgen
data_HfZrTaTiMo
_symmetry_space_group_name_H-M   'P 1'
_cell_length_a   15.93422629
_cell_length_b   15.92339088
_cell_length_c   15.19868503
_cell_angle_alpha   89.99345193
_cell_angle_beta   89.98686272
_cell_angle_gamma   89.95088956
_symmetry_Int_Tables_number   1
_chemical_formula_structural   HfZrTaTiMo
_chemical_formula_sum   'Hf40 Zr40 Ta40 Ti40 Mo40'
_cell_volume   3856.31390081
_cell_formula_units_Z   40
loop_
 _symmetry_equiv_pos_site_id
 _symmetry_equiv_pos_as_xyz
  1  'x, y, z'
loop_
 _atom_site_type_symbol
 _atom_site_label
 _atom_site_symmetry_multiplicity
 _atom_site_fract_x
 _atom_site_fract_y
 _atom_site_fract_z
 _atom_site_occupancy
  Hf  Hf0  1  0.49920104  0.30044190  0.62258596  1
  Hf  Hf1  1  0.80710252  0.40907469  -0.00072879  1
  Hf  Hf2  1  0.30423729  0.50242570  0.13272679  1
  Hf  Hf3  1  0.89452386  0.09560261  0.36733164  1
  Hf  Hf4  1  0.21417361  0.80565440  -0.01337026  1
  Hf  Hf5  1  -0.01185611  0.20912830  0.50055118  1
  Hf  Hf6  1  0.38485843  0.18270679  -0.00618219  1
  Hf  Hf7  1  0.00076796  0.78560559  -0.00487119  1
  Hf  Hf8  1  0.09554254  0.30449540  0.88279922  1
  Hf  Hf9  1  0.21031694  0.61730030  0.76366202  1
  Hf  Hf10  1  0.69182147  0.51370723  0.11498466  1
  Hf  Hf11  1  0.69614209  0.10281479  0.12734528  1
  Hf  Hf12  1  0.79789113  0.19803884  0.50250996  1
  Hf  Hf13  1  0.09523429  0.89473184  0.38015439  1
  Hf  Hf14  1  0.70035001  0.89718855  0.86828009  1
  Hf  Hf15  1  0.69018817  0.90000792  0.12207002  1
  Hf  Hf16  1  0.10207495  0.09748976  0.62495867  1
  Hf  Hf17  1  0.39367850  0.40282923  0.50110621  1
  Hf  Hf18  1  0.28914699  0.10787134  0.62361395  1
  Hf  Hf19  1  0.50297401  0.70508307  0.37599277  1
  Hf  Hf20  1  0.90142216  0.69195243  0.63759395  1
  Hf  Hf21  1  0.40178364  0.39935107  0.00496473  1
  Hf  Hf22  1  0.20524026  0.39668915  0.49797328  1
  Hf  Hf23  1  0.79097295  0.79342722  0.51827426  1
  Hf  Hf24  1  0.20951156  0.38889922  0.73913630  1
  Hf  Hf25  1  -0.00325933  0.19877054  0.24196005  1
  Hf  Hf26  1  0.60655589  0.79743328  0.73285465  1
  Hf  Hf27  1  -0.00961536  -0.00364541  0.51023858  1
  Hf  Hf28  1  0.61510519  0.60761936  0.51181019  1
  Hf  Hf29  1  0.50574777  0.08908636  0.38360955  1
  Hf  Hf30  1  0.80163472  0.21351159  0.74520577  1
  Hf  Hf31  1  0.90033808  0.89417215  0.37538464  1
  Hf  Hf32  1  0.38061525  0.79329987  0.75413436  1
  Hf  Hf33  1  0.51250258  0.68198888  0.12397309  1
  Hf  Hf34  1  0.01086373  0.60646155  0.76872255  1
  Hf  Hf35  1  0.61200989  0.40032659  0.76305085  1
  Hf  Hf36  1  0.57871129  0.00047415  -0.00481650  1
  Hf  Hf37  1  0.81966900  0.40038176  0.50064576  1
  Hf  Hf38  1  0.69761586  0.30732350  0.61891841  1
  Hf  Hf39  1  0.51376611  0.50385072  0.37990680  1
  Zr  Zr40  1  0.10864009  0.28672024  0.62144991  1
  Zr  Zr41  1  0.69040786  0.10313165  0.86882836  1
  Zr  Zr42  1  0.70274452  0.30098921  0.11537853  1
  Zr  Zr43  1  0.10581283  0.50763858  0.63219697  1
  Zr  Zr44  1  0.89859352  0.10697704  0.87960863  1
  Zr  Zr45  1  0.80955740  0.79981087  0.23066210  1
  Zr  Zr46  1  0.19733061  0.59614514  -0.00680503  1
  Zr  Zr47  1  0.10266479  0.10760488  0.88315473  1
  Zr  Zr48  1  0.70147389  0.69601946  0.35929101  1
  Zr  Zr49  1  0.00804525  0.59815265  0.23019642  1
  Zr  Zr50  1  0.48698152  0.30181936  0.86305609  1
  Zr  Zr51  1  0.09318800  0.30572870  0.37205516  1
  Zr  Zr52  1  0.78712276  -0.00130959  0.51755564  1
  Zr  Zr53  1  0.79489877  0.00301733  -0.00203177  1
  Zr  Zr54  1  0.60761776  0.59762236  0.75277168  1
  Zr  Zr55  1  0.00276260  -0.00281134  0.75435823  1
  Zr  Zr56  1  0.71940501  0.50043618  0.62852223  1
  Zr  Zr57  1  0.39132062  0.79448394  0.24957150  1
  Zr  Zr58  1  0.58512339  0.20228828  -0.00647278  1
  Zr  Zr59  1  0.48789115  0.09351285  0.13807109  1
  Zr  Zr60  1  0.70367946  0.69556338  0.88840095  1
  Zr  Zr61  1  0.10057641  0.70793024  0.37990958  1
  Zr  Zr62  1  0.51205827  0.30459889  0.39266464  1
  Zr  Zr63  1  0.59711368  0.81058643  0.51846605  1
  Zr  Zr64  1  0.59899703  0.20391509  0.25561467  1
  Zr  Zr65  1  0.11583182  0.91496204  0.11667978  1
  Zr  Zr66  1  0.38807765  0.20137058  0.27343245  1
  Zr  Zr67  1  0.20218773  0.59495016  0.48832260  1
  Zr  Zr68  1  0.40439684  0.80621044  0.00102293  1
  Zr  Zr69  1  0.10327138  0.09589627  0.37078635  1
  Zr  Zr70  1  0.27252276  0.08935001  0.14260688  1
  Zr  Zr71  1  0.90563780  0.69900782  0.37475308  1
  Zr  Zr72  1  0.38447273  -0.01146025  0.27058812  1
  Zr  Zr73  1  0.29450448  0.29192021  0.13244732  1
  Zr  Zr74  1  0.10302588  0.29175235  0.11832584  1
  Zr  Zr75  1  0.69016395  0.90622589  0.36417094  1
  Zr  Zr76  1  0.49901799  0.90359463  0.85648873  1
  Zr  Zr77  1  0.59998221  0.40769670  0.24111271  1
  Zr  Zr78  1  0.48247537  0.69070195  0.62844936  1
  Zr  Zr79  1  0.30714360  0.48833731  0.86631086  1
  Ta  Ta80  1  0.82877440  0.60560764  0.00740912  1
  Ta  Ta81  1  0.00782560  0.80267327  0.22809707  1
  Ta  Ta82  1  0.80710056  0.79684414  0.00312773  1
  Ta  Ta83  1  0.40441806  0.59821684  0.25657988  1
  Ta  Ta84  1  0.71151959  0.49704431  0.37280329  1
  Ta  Ta85  1  0.11104303  0.69985107  0.11779341  1
  Ta  Ta86  1  0.89895019  0.10309184  0.63578310  1
  Ta  Ta87  1  0.48570232  0.09982357  0.84716083  1
  Ta  Ta88  1  0.80290879  0.00170104  0.23771974  1
  Ta  Ta89  1  0.09916031  0.70844968  0.61635472  1
  Ta  Ta90  1  -0.00565245  0.59044071  0.50398821  1
  Ta  Ta91  1  0.80512530  0.59293155  0.23410191  1
  Ta  Ta92  1  0.00718244  0.79679427  0.76340418  1
  Ta  Ta93  1  0.59716943  0.00176026  0.52541561  1
  Ta  Ta94  1  0.28832606  0.70268084  0.61100341  1
  Ta  Ta95  1  0.90403129  0.49610986  0.35957548  1
  Ta  Ta96  1  0.39974899  -0.00636752  0.50851339  1
  Ta  Ta97  1  0.40606939  0.59644817  -0.00608648  1
  Ta  Ta98  1  0.90976805  0.90780613  0.10884194  1
  Ta  Ta99  1  0.19523552  0.40483028  0.25069496  1
  Ta  Ta100  1  0.79594856  -0.00036323  0.74404280  1
  Ta  Ta101  1  0.38710821  0.19975690  0.49473267  1
  Ta  Ta102  1  0.50384698  0.49474013  0.62371354  1
  Ta  Ta103  1  0.49804169  0.69576534  0.87237103  1
  Ta  Ta104  1  0.69759582  0.09634463  0.36598377  1
  Ta  Ta105  1  0.89832325  0.89619157  0.87493622  1
  Ta  Ta106  1  0.20298693  -0.00713338  0.75509790  1
  Ta  Ta107  1  0.30168921  0.49802892  0.36140834  1
  Ta  Ta108  1  0.39501321  0.60060282  0.48656028  1
  Ta  Ta109  1  0.70048603  0.69752820  0.11589376  1
  Ta  Ta110  1  0.90129330  0.89020634  0.64105708  1
  Ta  Ta111  1  0.49425399  0.30168676  0.12446827  1
  Ta  Ta112  1  0.90650818  0.49868958  0.87143839  1
  Ta  Ta113  1  0.59215386  0.41349633  -0.00747524  1
  Ta  Ta114  1  -0.00781465  0.39773485  0.73966379  1
  Ta  Ta115  1  0.29042274  0.89505247  0.62246744  1
  Ta  Ta116  1  0.10269957  0.89061952  0.61998627  1
  Ta  Ta117  1  0.89911923  0.10223481  0.11807328  1
  Ta  Ta118  1  0.70706089  0.30138622  0.88600659  1
  Ta  Ta119  1  0.20727545  0.60850331  0.25209146  1
  Ti  Ti120  1  0.28914857  0.29064128  0.87849074  1
  Ti  Ti121  1  0.40292643  0.39878673  0.25400422  1
  Ti  Ti122  1  0.21770443  0.00736659  -0.02181520  1
  Ti  Ti123  1  0.59986525  0.19933615  0.74580686  1
  Ti  Ti124  1  -0.00093638  -0.00431127  0.24013018  1
  Ti  Ti125  1  0.49228504  0.10654467  0.62609284  1
  Ti  Ti126  1  0.20373297  -0.00141570  0.49767300  1
  Ti  Ti127  1  0.80434361  0.59592948  0.76552830  1
  Ti  Ti128  1  0.70424898  0.30686886  0.37987519  1
  Ti  Ti129  1  0.90421098  0.30627251  0.87983513  1
  Ti  Ti130  1  0.39394830  0.80186404  0.50101286  1
  Ti  Ti131  1  0.39482979  -0.00406770  0.73184189  1
  Ti  Ti132  1  0.20013483  0.39915115  0.00698961  1
  Ti  Ti133  1  0.09543086  0.09778835  0.11372993  1
  Ti  Ti134  1  0.79812857  0.20460019  0.25070375  1
  Ti  Ti135  1  0.89613803  0.31007180  0.35766735  1
  Ti  Ti136  1  -0.00218812  0.40785237  0.51492394  1
  Ti  Ti137  1  0.49388912  0.50257407  0.85604437  1
  Ti  Ti138  1  0.09659288  0.90632157  0.88670747  1
  Ti  Ti139  1  0.09396624  0.49981764  0.36984838  1
  Ti  Ti140  1  0.00279680  0.42157616  0.01768384  1
  Ti  Ti141  1  0.31595942  0.51092112  0.63645430  1
  Ti  Ti142  1  0.81093304  0.59534274  0.50034778  1
  Ti  Ti143  1  0.20663665  0.80535217  0.24227606  1
  Ti  Ti144  1  0.59824772  0.00271523  0.72701364  1
  Ti  Ti145  1  -0.00034579  0.40401734  0.23229195  1
  Ti  Ti146  1  0.19234476  0.80110071  0.76653218  1
  Ti  Ti147  1  0.38166601  0.21142058  0.74102389  1
  Ti  Ti148  1  0.50278938  0.89972422  0.37975018  1
  Ti  Ti149  1  0.60648692  0.18989312  0.50579932  1
  Ti  Ti150  1  0.59597838  0.79796475  -0.00117442  1
  Ti  Ti151  1  0.89381810  0.30324405  0.12531391  1
  Ti  Ti152  1  0.49199524  0.90214421  0.13287062  1
  Ti  Ti153  1  -0.00905484  0.20426641  0.00678152  1
  Ti  Ti154  1  0.59464267  0.80032634  0.24207635  1
  Ti  Ti155  1  0.10004650  0.49031494  0.87497163  1
  Ti  Ti156  1  0.28840244  0.88969184  0.38990424  1
  Ti  Ti157  1  0.30416244  0.69937523  0.11856963  1
  Ti  Ti158  1  0.38890404  -0.00578574  -0.01033390  1
  Ti  Ti159  1  -0.00053559  0.20785217  0.74677790  1
  Mo  Mo160  1  0.20124459  0.80265135  0.50156511  1
  Mo  Mo161  1  0.90573478  0.70102306  0.12763406  1
  Mo  Mo162  1  0.30195314  0.90282059  0.12445725  1
  Mo  Mo163  1  0.10313933  0.70194891  0.88870599  1
  Mo  Mo164  1  0.70259029  0.90271619  0.64186805  1
  Mo  Mo165  1  0.40227432  0.39882757  0.73081503  1
  Mo  Mo166  1  0.39938383  0.59922120  0.75389582  1
  Mo  Mo167  1  0.80652365  0.79735834  0.75690793  1
  Mo  Mo168  1  0.90137185  0.30277699  0.63250474  1
  Mo  Mo169  1  0.30231970  0.70043766  0.38023953  1
  Mo  Mo170  1  0.49613930  0.49838426  0.13162839  1
  Mo  Mo171  1  -0.00498851  0.79632936  0.51813074  1
  Mo  Mo172  1  0.89968949  0.69986110  0.86599402  1
  Mo  Mo173  1  0.20057520  0.19647352  -0.01204805  1
  Mo  Mo174  1  0.71433258  0.69704400  0.63662948  1
  Mo  Mo175  1  0.80646721  0.20896843  -0.00068548  1
  Mo  Mo176  1  0.48870191  0.90266662  0.62691716  1
  Mo  Mo177  1  0.30142634  0.29534053  0.61810877  1
  Mo  Mo178  1  0.69349762  0.10685293  0.63655737  1
  Mo  Mo179  1  0.30508180  0.09882551  0.85175877  1
  Mo  Mo180  1  0.61121536  0.40503630  0.50174021  1
  Mo  Mo181  1  0.30672800  0.69891197  0.88722324  1
  Mo  Mo182  1  0.19389175  0.19919181  0.26633455  1
  Mo  Mo183  1  0.60778785  0.60502814  0.25675789  1
  Mo  Mo184  1  0.29517750  0.09263076  0.39164611  1
  Mo  Mo185  1  0.20581350  0.19890719  0.47998228  1
  Mo  Mo186  1  0.29505778  0.30284033  0.36741595  1
  Mo  Mo187  1  0.90569662  0.50222860  0.64246931  1
  Mo  Mo188  1  0.70646645  0.50129649  0.89103366  1
  Mo  Mo189  1  -0.00031807  -0.00057785  -0.00388879  1
  Mo  Mo190  1  0.80199730  0.39893188  0.25137396  1
  Mo  Mo191  1  0.29899637  0.90597499  0.85734042  1
  Mo  Mo192  1  0.00447061  0.59268361  -0.00158850  1
  Mo  Mo193  1  0.59128513  0.59467912  -0.01851220  1
  Mo  Mo194  1  0.80582908  0.40235223  0.77160200  1
  Mo  Mo195  1  0.59776737  -0.00681404  0.24907004  1
  Mo  Mo196  1  0.90082252  0.49537794  0.13302011  1
  Mo  Mo197  1  0.19630891  -0.01110363  0.26623169  1
  Mo  Mo198  1  0.10860973  0.49875631  0.12853979  1
  Mo  Mo199  1  0.19996359  0.19721922  0.76476877  1
