# generated using pymatgen
data_HfZrTaTiMo
_symmetry_space_group_name_H-M   'P 1'
_cell_length_a   15.93772449
_cell_length_b   15.94148876
_cell_length_c   15.20417699
_cell_angle_alpha   90.02444673
_cell_angle_beta   89.90040701
_cell_angle_gamma   89.94910940
_symmetry_Int_Tables_number   1
_chemical_formula_structural   HfZrTaTiMo
_chemical_formula_sum   'Hf40 Zr40 Ta40 Ti40 Mo40'
_cell_volume   3862.93358618
_cell_formula_units_Z   40
loop_
 _symmetry_equiv_pos_site_id
 _symmetry_equiv_pos_as_xyz
  1  'x, y, z'
loop_
 _atom_site_type_symbol
 _atom_site_label
 _atom_site_symmetry_multiplicity
 _atom_site_fract_x
 _atom_site_fract_y
 _atom_site_fract_z
 _atom_site_occupancy
  Hf  Hf0  1  0.29398582  0.09315852  0.85741284  1
  Hf  Hf1  1  0.58827092  0.81502005  0.49343649  1
  Hf  Hf2  1  0.50274255  0.30792336  0.88410375  1
  Hf  Hf3  1  0.80780681  0.40352821  0.51303155  1
  Hf  Hf4  1  0.70126391  0.50826600  0.61748427  1
  Hf  Hf5  1  0.30128879  0.08810234  0.63122900  1
  Hf  Hf6  1  0.79712637  0.00871146  0.74568219  1
  Hf  Hf7  1  0.89799053  0.30458514  0.85992936  1
  Hf  Hf8  1  0.59069326  0.01178405  0.23002612  1
  Hf  Hf9  1  0.48633512  0.69541460  0.88812615  1
  Hf  Hf10  1  0.70840564  0.90569036  0.88429223  1
  Hf  Hf11  1  0.29748221  0.50056110  0.12613647  1
  Hf  Hf12  1  0.70630198  0.90305209  0.11726822  1
  Hf  Hf13  1  0.81039317  0.20589799  -0.00537374  1
  Hf  Hf14  1  0.00216819  0.40932131  0.74527364  1
  Hf  Hf15  1  0.10086617  0.69827564  0.12797045  1
  Hf  Hf16  1  0.60058364  0.20326852  0.01540745  1
  Hf  Hf17  1  0.79583392  0.60907661  0.25219326  1
  Hf  Hf18  1  0.40684620  -0.01654086  0.49799901  1
  Hf  Hf19  1  0.19080610  0.58501958  0.49004436  1
  Hf  Hf20  1  0.00095408  0.80080945  -0.01109161  1
  Hf  Hf21  1  -0.00661456  0.00578303  -0.01229569  1
  Hf  Hf22  1  0.60796883  0.60360008  0.23146495  1
  Hf  Hf23  1  0.80286864  0.41035171  0.24854339  1
  Hf  Hf24  1  0.90366286  0.50039895  0.11542849  1
  Hf  Hf25  1  0.49781682  0.50422314  0.89961532  1
  Hf  Hf26  1  0.61213172  0.40008913  0.02269092  1
  Hf  Hf27  1  0.60429711  0.79248283  0.76131369  1
  Hf  Hf28  1  0.68829900  0.90541310  0.62839081  1
  Hf  Hf29  1  0.41215110  0.20048367  0.74981638  1
  Hf  Hf30  1  0.10860857  0.89835919  0.85591546  1
  Hf  Hf31  1  0.40766399  0.59503528  0.24751548  1
  Hf  Hf32  1  0.18684365  0.20375162  -0.01255189  1
  Hf  Hf33  1  0.19991164  0.20049383  0.49168740  1
  Hf  Hf34  1  0.10479046  0.09827290  0.62525578  1
  Hf  Hf35  1  0.41041161  0.19151468  0.50175165  1
  Hf  Hf36  1  0.80133783  0.01023807  0.26580212  1
  Hf  Hf37  1  0.50604422  0.49986995  0.61185138  1
  Hf  Hf38  1  0.89704431  0.89363914  0.61701074  1
  Hf  Hf39  1  0.38345443  0.60778754  0.74349729  1
  Zr  Zr40  1  0.90387177  0.30427908  0.37322501  1
  Zr  Zr41  1  0.59853655  0.79748609  0.00333380  1
  Zr  Zr42  1  0.10630974  0.49344007  0.12967602  1
  Zr  Zr43  1  0.78586051  0.79740494  0.48326967  1
  Zr  Zr44  1  0.60255999  0.60247033  0.75207021  1
  Zr  Zr45  1  -0.01217214  0.78038681  0.49328431  1
  Zr  Zr46  1  0.09907099  0.10175905  0.85008322  1
  Zr  Zr47  1  0.18729723  -0.00976060  0.26976649  1
  Zr  Zr48  1  0.29891872  0.52200233  0.89392111  1
  Zr  Zr49  1  0.38720510  0.20508148  -0.00094880  1
  Zr  Zr50  1  0.11141871  0.68809844  0.87140820  1
  Zr  Zr51  1  0.18901756  0.19068971  0.27181427  1
  Zr  Zr52  1  0.79053791  0.00174339  0.49633635  1
  Zr  Zr53  1  0.59369753  0.00721737  0.76493104  1
  Zr  Zr54  1  0.29835469  0.09119150  0.13516714  1
  Zr  Zr55  1  0.69957775  0.50135021  0.39149955  1
  Zr  Zr56  1  0.60486412  0.20154656  0.23579179  1
  Zr  Zr57  1  0.79729836  0.80608668  0.26314684  1
  Zr  Zr58  1  0.49320873  0.70744188  0.62123918  1
  Zr  Zr59  1  0.00480026  0.38863160  -0.00944852  1
  Zr  Zr60  1  -0.00654075  -0.00546209  0.73925801  1
  Zr  Zr61  1  0.41854158  0.18856575  0.24559473  1
  Zr  Zr62  1  0.19781104  -0.00469255  -0.00013981  1
  Zr  Zr63  1  0.20775234  0.78133393  0.73820853  1
  Zr  Zr64  1  -0.00255889  0.59958748  0.25657042  1
  Zr  Zr65  1  0.28757051  0.30162488  0.14250328  1
  Zr  Zr66  1  0.29793468  0.29476022  0.62946782  1
  Zr  Zr67  1  0.39653716  0.39828653  0.50357157  1
  Zr  Zr68  1  0.70314465  0.50399990  0.88159071  1
  Zr  Zr69  1  0.30867779  0.29887513  0.36853396  1
  Zr  Zr70  1  0.39057913  0.59828169  0.48731609  1
  Zr  Zr71  1  0.89860372  0.91138188  0.11875040  1
  Zr  Zr72  1  0.51161731  0.49739637  0.38640808  1
  Zr  Zr73  1  0.08527019  0.09767618  0.13245674  1
  Zr  Zr74  1  0.19637868  0.79290684  0.49757210  1
  Zr  Zr75  1  0.60146878  0.40314936  0.23188856  1
  Zr  Zr76  1  0.40261673  0.40672537  0.74725074  1
  Zr  Zr77  1  0.29731868  0.89465890  0.13966903  1
  Zr  Zr78  1  0.79552003  0.20823535  0.51145617  1
  Zr  Zr79  1  0.20542244  0.38678232  -0.01783604  1
  Ta  Ta80  1  0.29701802  0.69806859  0.35874370  1
  Ta  Ta81  1  0.80185379  0.61005440  0.74330789  1
  Ta  Ta82  1  0.00100055  0.20335216  -0.00778605  1
  Ta  Ta83  1  -0.00945929  0.78726171  0.74748672  1
  Ta  Ta84  1  0.08172389  0.67294127  0.63045159  1
  Ta  Ta85  1  0.09239669  0.29848005  0.14606875  1
  Ta  Ta86  1  0.20236740  0.79786092  -0.00054073  1
  Ta  Ta87  1  0.90016371  0.70783079  0.12383060  1
  Ta  Ta88  1  0.91078934  0.29330693  0.13971430  1
  Ta  Ta89  1  0.79601713  0.20499820  0.73917702  1
  Ta  Ta90  1  0.49449438  0.90059670  0.35340330  1
  Ta  Ta91  1  0.90942153  0.50285559  0.38779539  1
  Ta  Ta92  1  0.80253211  0.41056155  0.73849301  1
  Ta  Ta93  1  0.49972083  0.10261758  0.88481362  1
  Ta  Ta94  1  0.71674788  0.09487949  0.11078349  1
  Ta  Ta95  1  0.89780824  0.50769500  0.87768804  1
  Ta  Ta96  1  0.69991930  0.11098088  0.88018885  1
  Ta  Ta97  1  0.51629868  0.29813388  0.38502891  1
  Ta  Ta98  1  0.00350366  0.20766650  0.50526869  1
  Ta  Ta99  1  0.81281730  0.61804191  0.49986868  1
  Ta  Ta100  1  0.10077910  0.50489482  0.86992018  1
  Ta  Ta101  1  0.90496655  0.10051112  0.39190106  1
  Ta  Ta102  1  0.50321045  0.70695178  0.36591182  1
  Ta  Ta103  1  0.70066360  0.30346347  0.86315519  1
  Ta  Ta104  1  0.70005395  0.30054890  0.37266893  1
  Ta  Ta105  1  0.29346337  0.69626346  0.12862716  1
  Ta  Ta106  1  0.91780385  0.52288426  0.62116588  1
  Ta  Ta107  1  0.30443430  0.88944790  0.86323479  1
  Ta  Ta108  1  0.20415650  -0.01199333  0.50218685  1
  Ta  Ta109  1  0.30819559  0.08527831  0.37903019  1
  Ta  Ta110  1  -0.00438926  0.80556320  0.26196766  1
  Ta  Ta111  1  0.59557486  0.00244486  0.00187166  1
  Ta  Ta112  1  0.10408002  0.30078142  0.63039221  1
  Ta  Ta113  1  0.20496152  0.40474518  0.75526509  1
  Ta  Ta114  1  0.49234463  0.89932100  0.63951495  1
  Ta  Ta115  1  0.19906866  0.40374301  0.49433914  1
  Ta  Ta116  1  0.40114067  -0.00565988  -0.00765791  1
  Ta  Ta117  1  0.09327634  0.89442970  0.12878291  1
  Ta  Ta118  1  0.68181739  0.11440661  0.62622799  1
  Ta  Ta119  1  0.41235724  0.39899234  0.24332259  1
  Ti  Ti120  1  0.89741540  0.10783900  0.13084737  1
  Ti  Ti121  1  0.49070312  0.90313435  0.12878030  1
  Ti  Ti122  1  0.89357539  0.69463968  0.87430213  1
  Ti  Ti123  1  0.69259346  0.11059279  0.38107919  1
  Ti  Ti124  1  0.80337082  0.79463790  -0.00440817  1
  Ti  Ti125  1  0.49680637  0.69941071  0.11864930  1
  Ti  Ti126  1  0.50800843  0.09213319  0.62325054  1
  Ti  Ti127  1  0.29427205  0.69281791  0.60901066  1
  Ti  Ti128  1  0.09861568  0.69144699  0.36973702  1
  Ti  Ti129  1  -0.00570830  0.19086757  0.26752072  1
  Ti  Ti130  1  0.39177846  0.80206404  0.00598310  1
  Ti  Ti131  1  0.01570665  0.41058004  0.51008088  1
  Ti  Ti132  1  0.18897831  0.79760369  0.25879353  1
  Ti  Ti133  1  0.08948135  0.08856364  0.39764709  1
  Ti  Ti134  1  0.51000393  0.09144166  0.38353608  1
  Ti  Ti135  1  0.40236698  0.79473583  0.24590376  1
  Ti  Ti136  1  0.90255007  0.10220514  0.61381686  1
  Ti  Ti137  1  0.79506130  0.79137206  0.75088145  1
  Ti  Ti138  1  0.89583020  0.10542263  0.86570720  1
  Ti  Ti139  1  -0.00037086  0.60288030  -0.00343408  1
  Ti  Ti140  1  0.61235072  0.62607883  0.49919726  1
  Ti  Ti141  1  0.79306175  0.60787920  0.00733613  1
  Ti  Ti142  1  -0.00232496  0.20393375  0.74023479  1
  Ti  Ti143  1  0.08725461  0.89943983  0.39258011  1
  Ti  Ti144  1  0.39550242  0.79735226  0.48813498  1
  Ti  Ti145  1  0.90677310  0.30492216  0.62717158  1
  Ti  Ti146  1  0.30691701  0.88901603  0.63340944  1
  Ti  Ti147  1  0.40243557  -0.00651626  0.75566620  1
  Ti  Ti148  1  0.09900289  0.89142922  0.62305088  1
  Ti  Ti149  1  0.52493655  0.28880193  0.61887999  1
  Ti  Ti150  1  0.30264330  0.89278000  0.36678704  1
  Ti  Ti151  1  0.60445219  0.39743572  0.74404151  1
  Ti  Ti152  1  0.67835638  0.91414946  0.36817893  1
  Ti  Ti153  1  0.60288751  0.79573740  0.24069116  1
  Ti  Ti154  1  0.09331167  0.31082328  0.37042826  1
  Ti  Ti155  1  0.72628758  0.29018619  0.13824227  1
  Ti  Ti156  1  0.89561368  0.89803609  0.86790336  1
  Ti  Ti157  1  -0.00744963  -0.00606341  0.26563429  1
  Ti  Ti158  1  0.80366033  0.39706834  0.00494435  1
  Ti  Ti159  1  0.49303631  0.89621050  0.87430857  1
  Mo  Mo160  1  0.29339421  0.49967710  0.62520287  1
  Mo  Mo161  1  0.59279726  0.00329467  0.49955033  1
  Mo  Mo162  1  0.40397246  0.40093084  0.01705718  1
  Mo  Mo163  1  0.49839708  0.50397863  0.11277008  1
  Mo  Mo164  1  0.20121184  0.20803648  0.75187035  1
  Mo  Mo165  1  0.19948455  0.40107154  0.26818041  1
  Mo  Mo166  1  0.30035718  0.70591429  0.89602318  1
  Mo  Mo167  1  0.19989747  0.59001773  0.73216623  1
  Mo  Mo168  1  0.68873391  0.70550936  0.37482788  1
  Mo  Mo169  1  0.09910198  0.29912739  0.84897296  1
  Mo  Mo170  1  0.70631418  0.70646155  0.11177187  1
  Mo  Mo171  1  0.71014838  0.70008995  0.88855985  1
  Mo  Mo172  1  0.60301685  0.19748978  0.49410345  1
  Mo  Mo173  1  0.70040518  0.30523994  0.64178658  1
  Mo  Mo174  1  0.80451014  0.19513083  0.25832890  1
  Mo  Mo175  1  0.20221778  0.60072064  0.26097341  1
  Mo  Mo176  1  0.89535562  0.70125812  0.63676707  1
  Mo  Mo177  1  0.89684028  0.69917223  0.35981031  1
  Mo  Mo178  1  0.49802800  0.09313088  0.10292183  1
  Mo  Mo179  1  0.30103272  0.30107825  0.86069205  1
  Mo  Mo180  1  0.39950475  0.60824809  0.02343111  1
  Mo  Mo181  1  0.10364228  0.49530573  0.63234078  1
  Mo  Mo182  1  0.61021902  0.38538571  0.51188880  1
  Mo  Mo183  1  0.80350590  0.00800654  -0.01653162  1
  Mo  Mo184  1  0.20684979  -0.01409559  0.72671265  1
  Mo  Mo185  1  0.00201439  -0.00099694  0.50888076  1
  Mo  Mo186  1  0.90738745  0.90784993  0.38333015  1
  Mo  Mo187  1  0.60589053  0.60394769  0.01640889  1
  Mo  Mo188  1  0.09851666  0.48859482  0.36530744  1
  Mo  Mo189  1  0.00184011  0.59628046  0.48592671  1
  Mo  Mo190  1  0.19432089  0.60330524  0.01246134  1
  Mo  Mo191  1  0.48836159  0.30278930  0.11354315  1
  Mo  Mo192  1  0.40210547  -0.00273480  0.25974548  1
  Mo  Mo193  1  0.40093575  0.79854852  0.75577969  1
  Mo  Mo194  1  -0.00110478  0.39866443  0.25007518  1
  Mo  Mo195  1  0.29803921  0.49657494  0.35233424  1
  Mo  Mo196  1  0.71071523  0.50442194  0.11230924  1
  Mo  Mo197  1  -0.00555556  0.59932811  0.76712110  1
  Mo  Mo198  1  0.60014269  0.20388094  0.76406712  1
  Mo  Mo199  1  0.70187178  0.70573914  0.61946788  1
