# generated using pymatgen
data_HfZrTaTiMo
_symmetry_space_group_name_H-M   'P 1'
_cell_length_a   15.93373628
_cell_length_b   15.93323520
_cell_length_c   15.20148136
_cell_angle_alpha   90.01703715
_cell_angle_beta   90.04187099
_cell_angle_gamma   90.02387636
_symmetry_Int_Tables_number   1
_chemical_formula_structural   HfZrTaTiMo
_chemical_formula_sum   'Hf40 Zr40 Ta40 Ti40 Mo40'
_cell_volume   3859.28925358
_cell_formula_units_Z   40
loop_
 _symmetry_equiv_pos_site_id
 _symmetry_equiv_pos_as_xyz
  1  'x, y, z'
loop_
 _atom_site_type_symbol
 _atom_site_label
 _atom_site_symmetry_multiplicity
 _atom_site_fract_x
 _atom_site_fract_y
 _atom_site_fract_z
 _atom_site_occupancy
  Hf  Hf0  1  0.19970483  -0.00660315  -0.00292818  1
  Hf  Hf1  1  0.59163624  0.00067730  0.25589088  1
  Hf  Hf2  1  0.69673034  0.29470500  0.37930385  1
  Hf  Hf3  1  -0.00580944  0.59786404  0.49879599  1
  Hf  Hf4  1  0.79710704  0.19975114  -0.00855549  1
  Hf  Hf5  1  0.69221488  0.49690145  0.37917913  1
  Hf  Hf6  1  0.20164529  0.79695640  -0.00493871  1
  Hf  Hf7  1  0.10325880  0.49307571  0.36728586  1
  Hf  Hf8  1  0.89974809  0.69828178  0.86862633  1
  Hf  Hf9  1  0.30105900  0.69620873  0.36903859  1
  Hf  Hf10  1  0.59526971  0.79972005  0.01282082  1
  Hf  Hf11  1  0.80236522  0.60569818  0.50041391  1
  Hf  Hf12  1  0.30525959  0.70308188  0.61101913  1
  Hf  Hf13  1  0.90827916  0.31655245  0.10677950  1
  Hf  Hf14  1  0.69748802  0.89312111  0.62224656  1
  Hf  Hf15  1  0.91029957  0.48520329  0.63505965  1
  Hf  Hf16  1  0.30337686  0.50033372  0.88314343  1
  Hf  Hf17  1  -0.01698526  0.59326846  0.26270011  1
  Hf  Hf18  1  0.10260851  0.88312624  0.14363097  1
  Hf  Hf19  1  0.69236324  0.30060817  0.86960282  1
  Hf  Hf20  1  0.30573581  0.30542711  0.87090285  1
  Hf  Hf21  1  0.69739631  0.10407339  0.12992399  1
  Hf  Hf22  1  0.40540547  0.19693277  0.00670155  1
  Hf  Hf23  1  0.00405627  0.20180485  0.51677630  1
  Hf  Hf24  1  0.20149291  0.20734675  0.74509115  1
  Hf  Hf25  1  0.10737288  0.70155481  0.62588117  1
  Hf  Hf26  1  0.68890688  0.49806238  0.62259449  1
  Hf  Hf27  1  0.80054714  0.20366961  0.24356050  1
  Hf  Hf28  1  0.40284070  0.80454516  0.74250941  1
  Hf  Hf29  1  0.60012008  0.00005909  -0.00106727  1
  Hf  Hf30  1  0.29952086  0.10601879  0.62097147  1
  Hf  Hf31  1  -0.00353132  0.79505879  0.50600108  1
  Hf  Hf32  1  0.89844909  0.90419426  0.39163819  1
  Hf  Hf33  1  0.19872035  0.59335214  0.49890777  1
  Hf  Hf34  1  0.40606124  0.39288315  0.23969482  1
  Hf  Hf35  1  0.30209774  0.29390095  0.38751057  1
  Hf  Hf36  1  0.19820031  0.81336422  0.75684424  1
  Hf  Hf37  1  0.38878673  0.40157391  0.72691232  1
  Hf  Hf38  1  0.49558844  0.10372954  0.38145996  1
  Hf  Hf39  1  0.18474480  0.00608463  0.50834003  1
  Zr  Zr40  1  0.40057099  0.61278000  0.02100479  1
  Zr  Zr41  1  0.80754317  0.39304513  0.50460591  1
  Zr  Zr42  1  0.19927527  0.59840681  0.01707376  1
  Zr  Zr43  1  -0.01087356  -0.00678577  0.23930707  1
  Zr  Zr44  1  0.89340033  0.09952636  0.38597887  1
  Zr  Zr45  1  0.30352460  0.10145650  0.38522226  1
  Zr  Zr46  1  0.50856408  0.69848262  0.62186695  1
  Zr  Zr47  1  0.90062659  0.09949766  0.86556785  1
  Zr  Zr48  1  0.79874443  0.59938364  0.74264319  1
  Zr  Zr49  1  0.29185316  0.29166594  0.11998280  1
  Zr  Zr50  1  0.17875570  0.39651723  -0.00209764  1
  Zr  Zr51  1  0.19537920  0.19019875  -0.01976667  1
  Zr  Zr52  1  0.69066170  0.70541024  0.86254657  1
  Zr  Zr53  1  -0.00547338  0.20077384  0.24183960  1
  Zr  Zr54  1  0.09904309  0.10427274  0.36958130  1
  Zr  Zr55  1  0.80167012  0.59833734  0.25186959  1
  Zr  Zr56  1  0.60845419  0.19187642  0.51734042  1
  Zr  Zr57  1  0.31043041  0.09306811  0.85970890  1
  Zr  Zr58  1  0.60088440  0.39405631  0.23923772  1
  Zr  Zr59  1  0.79979120  0.80136160  0.00246435  1
  Zr  Zr60  1  0.00778246  -0.00247127  -0.00459502  1
  Zr  Zr61  1  0.50285572  0.10564532  0.85853004  1
  Zr  Zr62  1  0.70720191  0.29208774  0.64597802  1
  Zr  Zr63  1  0.21182372  -0.00663005  0.25066174  1
  Zr  Zr64  1  0.79829621  -0.00725039  -0.00500075  1
  Zr  Zr65  1  0.50388457  0.69359712  0.86450606  1
  Zr  Zr66  1  0.49776659  0.49990417  0.37627223  1
  Zr  Zr67  1  0.88720173  0.10836776  0.64549970  1
  Zr  Zr68  1  0.01451424  0.20719566  -0.01106690  1
  Zr  Zr69  1  0.00523895  0.80281303  -0.00977617  1
  Zr  Zr70  1  0.50100465  0.89792018  0.87162025  1
  Zr  Zr71  1  0.81481419  0.40505559  0.25210989  1
  Zr  Zr72  1  0.09248827  0.31493127  0.63768152  1
  Zr  Zr73  1  0.29819577  0.89570473  0.60276719  1
  Zr  Zr74  1  0.30865692  0.69920066  0.87037542  1
  Zr  Zr75  1  0.70323663  0.90562380  0.38078102  1
  Zr  Zr76  1  0.00563811  0.60216781  0.00266795  1
  Zr  Zr77  1  0.00056384  0.80112979  0.74123743  1
  Zr  Zr78  1  0.21243001  0.40510410  0.24630281  1
  Zr  Zr79  1  0.70130358  0.89676288  0.14161070  1
  Ta  Ta80  1  0.40412395  0.58693073  0.73340864  1
  Ta  Ta81  1  0.90407894  0.31028564  0.86849477  1
  Ta  Ta82  1  0.49852240  0.69773567  0.36276674  1
  Ta  Ta83  1  0.21300225  0.59004061  0.73820392  1
  Ta  Ta84  1  0.11107066  0.10675316  0.13555426  1
  Ta  Ta85  1  0.10126669  0.70177273  0.36443587  1
  Ta  Ta86  1  0.69689720  0.69692930  0.14158608  1
  Ta  Ta87  1  0.89397098  0.90237174  0.85343275  1
  Ta  Ta88  1  0.60250598  0.60190563  0.01132771  1
  Ta  Ta89  1  0.40415059  0.20083257  0.24516468  1
  Ta  Ta90  1  0.81358888  0.79949370  0.25588820  1
  Ta  Ta91  1  0.49985501  0.10056270  0.13054177  1
  Ta  Ta92  1  0.40387541  -0.00163858  0.72688326  1
  Ta  Ta93  1  0.89184163  0.90236475  0.62604712  1
  Ta  Ta94  1  0.90011767  0.50170536  0.87967367  1
  Ta  Ta95  1  0.59645268  0.00299040  0.50922602  1
  Ta  Ta96  1  0.10755625  0.68924481  0.85855848  1
  Ta  Ta97  1  0.59798074  -0.00283093  0.73245401  1
  Ta  Ta98  1  0.49075102  0.90165924  0.38697002  1
  Ta  Ta99  1  0.60134553  0.79503944  0.48729976  1
  Ta  Ta100  1  0.09982276  0.89446456  0.37981455  1
  Ta  Ta101  1  0.30280152  0.89703527  0.39012337  1
  Ta  Ta102  1  0.49949576  0.30221808  0.39413337  1
  Ta  Ta103  1  0.49733068  0.50043014  0.88075922  1
  Ta  Ta104  1  0.79571778  0.60403474  0.00550938  1
  Ta  Ta105  1  0.09942542  0.69552190  0.15587901  1
  Ta  Ta106  1  0.59563726  0.40128520  -0.00354610  1
  Ta  Ta107  1  0.70145218  0.30548780  0.11207512  1
  Ta  Ta108  1  0.69368270  0.70089703  0.36129937  1
  Ta  Ta109  1  0.40058539  -0.00492146  0.01787033  1
  Ta  Ta110  1  0.50331042  0.50154602  0.12184927  1
  Ta  Ta111  1  0.49600718  0.30235521  0.86558983  1
  Ta  Ta112  1  0.70078977  0.49962985  0.11837879  1
  Ta  Ta113  1  0.01101033  -0.00428149  0.74249717  1
  Ta  Ta114  1  0.58884481  0.40869058  0.75241177  1
  Ta  Ta115  1  0.59695034  0.20291564  0.00043824  1
  Ta  Ta116  1  0.10753082  0.29566009  0.37377140  1
  Ta  Ta117  1  0.08886123  0.49341493  0.14112437  1
  Ta  Ta118  1  0.91133532  0.30052941  0.37642357  1
  Ta  Ta119  1  0.39781194  0.81198879  0.24831858  1
  Ti  Ti120  1  0.10083807  0.49805688  0.85965972  1
  Ti  Ti121  1  0.90268675  0.09968108  0.11222961  1
  Ti  Ti122  1  0.69960111  0.10196907  0.37032264  1
  Ti  Ti123  1  0.80583538  0.00125361  0.24415652  1
  Ti  Ti124  1  0.38746585  0.58907855  0.23811949  1
  Ti  Ti125  1  0.50261156  0.69934962  0.14786993  1
  Ti  Ti126  1  0.80464701  0.20202421  0.50679717  1
  Ti  Ti127  1  0.79464952  0.40888828  -0.01104629  1
  Ti  Ti128  1  0.30960533  0.90436747  0.87637380  1
  Ti  Ti129  1  0.69765176  0.09734621  0.85327114  1
  Ti  Ti130  1  -0.00134435  0.00258301  0.52343104  1
  Ti  Ti131  1  0.60197079  0.60539251  0.49356191  1
  Ti  Ti132  1  0.28681921  0.71082431  0.14910115  1
  Ti  Ti133  1  0.59080645  0.20854591  0.24320863  1
  Ti  Ti134  1  0.00183897  0.59974302  0.74452886  1
  Ti  Ti135  1  0.50312680  0.29933769  0.62799464  1
  Ti  Ti136  1  0.19271718  -0.00124040  0.74458533  1
  Ti  Ti137  1  0.20484775  0.39554810  0.51025922  1
  Ti  Ti138  1  0.79639284  0.80112398  0.74388769  1
  Ti  Ti139  1  0.49776164  0.89467176  0.60490094  1
  Ti  Ti140  1  0.79984042  0.40284812  0.75918066  1
  Ti  Ti141  1  0.00334297  0.39929928  0.49331027  1
  Ti  Ti142  1  0.90203763  0.50000826  0.10767157  1
  Ti  Ti143  1  0.39900389  0.80874258  0.02450172  1
  Ti  Ti144  1  0.40405469  0.39913711  0.01297498  1
  Ti  Ti145  1  0.00472934  0.20386738  0.75682030  1
  Ti  Ti146  1  0.10530888  0.49741030  0.63365863  1
  Ti  Ti147  1  0.50263523  0.49451957  0.60613198  1
  Ti  Ti148  1  0.30687302  0.49313997  0.38532338  1
  Ti  Ti149  1  0.59364787  0.80450486  0.25781167  1
  Ti  Ti150  1  0.40389882  0.20511107  0.51808495  1
  Ti  Ti151  1  0.40135620  -0.00494990  0.23865815  1
  Ti  Ti152  1  0.69089493  0.50797055  0.87529084  1
  Ti  Ti153  1  0.90660455  0.71030732  0.12913725  1
  Ti  Ti154  1  0.40309257  0.59665497  0.49982467  1
  Ti  Ti155  1  0.09792037  0.30198143  0.14112593  1
  Ti  Ti156  1  0.79938906  0.78718339  0.50190388  1
  Ti  Ti157  1  0.69231924  0.70010575  0.63183103  1
  Ti  Ti158  1  0.29837817  0.09863252  0.13028847  1
  Ti  Ti159  1  0.78672563  0.01545030  0.51632169  1
  Mo  Mo160  1  0.19479602  0.20951840  0.51462803  1
  Mo  Mo161  1  0.00082467  0.40883330  -0.01563049  1
  Mo  Mo162  1  0.19512732  0.79684945  0.48302077  1
  Mo  Mo163  1  0.60044779  0.80299323  0.73501669  1
  Mo  Mo164  1  0.59179367  0.58996858  0.74573202  1
  Mo  Mo165  1  0.59741115  0.39567585  0.50830954  1
  Mo  Mo166  1  0.10011411  0.30748110  0.85590470  1
  Mo  Mo167  1  0.49820854  0.89968023  0.13153921  1
  Mo  Mo168  1  -0.00526600  0.79525900  0.26845223  1
  Mo  Mo169  1  0.69919883  0.09619406  0.64033951  1
  Mo  Mo170  1  0.30197497  0.50202516  0.60554740  1
  Mo  Mo171  1  0.20266025  0.41092355  0.74720062  1
  Mo  Mo172  1  0.90133284  0.89363266  0.13287872  1
  Mo  Mo173  1  0.49812107  0.10103408  0.62890829  1
  Mo  Mo174  1  0.40701351  0.79271645  0.48249011  1
  Mo  Mo175  1  0.40531125  0.20658977  0.73236538  1
  Mo  Mo176  1  0.40554783  0.00114065  0.51043948  1
  Mo  Mo177  1  0.30075410  0.89618302  0.12310237  1
  Mo  Mo178  1  0.59573756  0.20203088  0.74708750  1
  Mo  Mo179  1  0.30168438  0.50102005  0.11460286  1
  Mo  Mo180  1  0.69791006  0.90191648  0.85137703  1
  Mo  Mo181  1  0.79956563  0.20223888  0.77242272  1
  Mo  Mo182  1  0.50275558  0.29707678  0.11144358  1
  Mo  Mo183  1  0.89460397  0.70380512  0.38093401  1
  Mo  Mo184  1  0.00061585  0.40819201  0.76667473  1
  Mo  Mo185  1  0.00200989  0.39809183  0.26161684  1
  Mo  Mo186  1  0.10258789  0.89920399  0.87135120  1
  Mo  Mo187  1  0.40223066  0.39752319  0.50845365  1
  Mo  Mo188  1  0.20386346  0.80009987  0.26565996  1
  Mo  Mo189  1  0.89932507  0.30085776  0.65161881  1
  Mo  Mo190  1  0.20244680  0.59552808  0.24725739  1
  Mo  Mo191  1  0.10324313  0.09578547  0.85289019  1
  Mo  Mo192  1  0.90147705  0.49271349  0.39489097  1
  Mo  Mo193  1  0.20442153  0.20006614  0.24783164  1
  Mo  Mo194  1  0.89528994  0.70005734  0.63134596  1
  Mo  Mo195  1  0.59615211  0.60000752  0.23965163  1
  Mo  Mo196  1  0.09684263  0.90230851  0.61146353  1
  Mo  Mo197  1  0.29832332  0.30162347  0.61150029  1
  Mo  Mo198  1  0.79503298  -0.00563036  0.75005596  1
  Mo  Mo199  1  0.09671130  0.10290474  0.63951108  1
