# generated using pymatgen
data_HfZrTaTiMo
_symmetry_space_group_name_H-M   'P 1'
_cell_length_a   15.92640742
_cell_length_b   15.92699378
_cell_length_c   15.19201309
_cell_angle_alpha   89.94803922
_cell_angle_beta   90.01269603
_cell_angle_gamma   90.02556272
_symmetry_Int_Tables_number   1
_chemical_formula_structural   HfZrTaTiMo
_chemical_formula_sum   'Hf40 Zr40 Ta40 Ti40 Mo40'
_cell_volume   3853.60081729
_cell_formula_units_Z   40
loop_
 _symmetry_equiv_pos_site_id
 _symmetry_equiv_pos_as_xyz
  1  'x, y, z'
loop_
 _atom_site_type_symbol
 _atom_site_label
 _atom_site_symmetry_multiplicity
 _atom_site_fract_x
 _atom_site_fract_y
 _atom_site_fract_z
 _atom_site_occupancy
  Hf  Hf0  1  0.09848776  0.09117746  0.86813927  1
  Hf  Hf1  1  0.30467836  0.89812522  0.37971335  1
  Hf  Hf2  1  0.69770534  0.10211551  0.63074827  1
  Hf  Hf3  1  0.89861619  0.31116341  0.61903218  1
  Hf  Hf4  1  0.59600216  0.41610179  0.25305230  1
  Hf  Hf5  1  0.18898408  0.79770202  -0.00201593  1
  Hf  Hf6  1  0.49892979  0.30491765  0.10732662  1
  Hf  Hf7  1  0.09207414  0.30613220  0.64381933  1
  Hf  Hf8  1  0.21670191  0.59880825  0.25199190  1
  Hf  Hf9  1  0.60703064  0.41517578  -0.00111150  1
  Hf  Hf10  1  0.91109739  0.69645116  0.14093824  1
  Hf  Hf11  1  0.30838391  0.30556763  0.38868035  1
  Hf  Hf12  1  0.71699838  0.70369846  0.12316037  1
  Hf  Hf13  1  0.71932222  0.31138244  0.87207641  1
  Hf  Hf14  1  0.59973160  0.79639837  0.24700156  1
  Hf  Hf15  1  0.21318072  0.78359398  0.74156402  1
  Hf  Hf16  1  0.20961265  0.39772121  0.24012274  1
  Hf  Hf17  1  0.30884159  0.50189812  0.39490629  1
  Hf  Hf18  1  0.69579882  0.09196861  0.12861172  1
  Hf  Hf19  1  0.72610871  0.51541018  0.87120835  1
  Hf  Hf20  1  0.29965290  0.31021879  0.88188512  1
  Hf  Hf21  1  0.09582762  0.89177513  0.63728780  1
  Hf  Hf22  1  0.59953821  0.20994205  0.25240669  1
  Hf  Hf23  1  0.49819062  0.10765992  0.37697960  1
  Hf  Hf24  1  0.40532708  0.42190941  0.24149243  1
  Hf  Hf25  1  0.79364730  0.19073201  0.49708730  1
  Hf  Hf26  1  0.70453349  0.71340504  0.88044390  1
  Hf  Hf27  1  0.09764852  0.29544485  0.11257116  1
  Hf  Hf28  1  0.09276705  0.88195116  0.14150802  1
  Hf  Hf29  1  0.60509594  0.00901982  0.49395505  1
  Hf  Hf30  1  0.20710358  0.18609902  -0.00674314  1
  Hf  Hf31  1  0.19623066  0.19457265  0.51089518  1
  Hf  Hf32  1  0.89324232  0.88380161  0.12883962  1
  Hf  Hf33  1  0.49492755  0.89190028  0.38388676  1
  Hf  Hf34  1  0.40503751  0.78584221  0.23898454  1
  Hf  Hf35  1  -0.02354598  -0.00051439  0.74629883  1
  Hf  Hf36  1  0.49113963  0.31075152  0.88451061  1
  Hf  Hf37  1  0.19617285  0.79426959  0.50132857  1
  Hf  Hf38  1  0.60024114  0.60700863  0.00389569  1
  Hf  Hf39  1  0.29447155  0.09864761  0.37554599  1
  Zr  Zr40  1  0.79982899  0.41553432  0.49092763  1
  Zr  Zr41  1  0.61034289  0.82077373  0.01324738  1
  Zr  Zr42  1  0.50875239  0.30746912  0.61665239  1
  Zr  Zr43  1  0.90578273  0.30360631  0.37789064  1
  Zr  Zr44  1  0.08926055  0.68575132  0.63393458  1
  Zr  Zr45  1  0.09972330  0.89856520  0.36884568  1
  Zr  Zr46  1  0.70215013  0.50161974  0.63664618  1
  Zr  Zr47  1  0.90735000  0.10176002  0.36945436  1
  Zr  Zr48  1  0.58108072  0.01076714  -0.01160121  1
  Zr  Zr49  1  0.90460553  0.09771656  0.90048498  1
  Zr  Zr50  1  0.08808345  0.70439077  0.85500527  1
  Zr  Zr51  1  0.50050921  0.89130913  0.86326579  1
  Zr  Zr52  1  0.89804431  0.08747620  0.11527444  1
  Zr  Zr53  1  0.00134645  0.60109745  -0.00463496  1
  Zr  Zr54  1  0.10157102  0.29141714  0.37128353  1
  Zr  Zr55  1  0.70692679  0.09396201  0.86954350  1
  Zr  Zr56  1  0.90015742  0.87616334  0.88253103  1
  Zr  Zr57  1  0.59320579  0.41075634  0.76190621  1
  Zr  Zr58  1  0.30648868  0.29482873  0.10606878  1
  Zr  Zr59  1  0.10277136  0.08894631  0.12590533  1
  Zr  Zr60  1  0.30050756  0.89547998  0.85519463  1
  Zr  Zr61  1  0.69712650  0.30068716  0.37615599  1
  Zr  Zr62  1  0.60178907  0.20213599  -0.00720773  1
  Zr  Zr63  1  0.59320919  0.41837754  0.48702715  1
  Zr  Zr64  1  -0.00501720  0.39856375  0.24306651  1
  Zr  Zr65  1  0.20071010  0.60025718  0.00276340  1
  Zr  Zr66  1  0.32548455  0.69489349  0.39167545  1
  Zr  Zr67  1  0.09227872  0.29549026  0.87360105  1
  Zr  Zr68  1  0.00321900  0.00316703  0.50029444  1
  Zr  Zr69  1  0.21569759  -0.01213562  -0.00062491  1
  Zr  Zr70  1  0.40299495  0.20916746  0.74826901  1
  Zr  Zr71  1  0.09538759  0.09971340  0.64589536  1
  Zr  Zr72  1  -0.00525674  0.41092189  -0.00210307  1
  Zr  Zr73  1  0.79683268  0.79744031  0.73509824  1
  Zr  Zr74  1  0.82308075  0.19383559  0.74499772  1
  Zr  Zr75  1  0.40833143  0.00726407  0.74684286  1
  Zr  Zr76  1  0.48501397  0.92402484  0.13717163  1
  Zr  Zr77  1  0.19054705  0.40198151  0.51452193  1
  Zr  Zr78  1  0.39960453  0.60669622  0.74014984  1
  Zr  Zr79  1  0.39945125  0.21369023  0.25484814  1
  Ta  Ta80  1  0.89931688  0.69437258  0.37411555  1
  Ta  Ta81  1  0.19646986  0.41515912  0.00066093  1
  Ta  Ta82  1  0.50278794  0.89616677  0.61915591  1
  Ta  Ta83  1  0.69899043  0.30077888  0.62730957  1
  Ta  Ta84  1  0.77766812  -0.03224564  -0.00006359  1
  Ta  Ta85  1  0.60126286  0.20266538  0.75929773  1
  Ta  Ta86  1  0.10203017  0.50293984  0.85167455  1
  Ta  Ta87  1  0.79565106  -0.00440074  0.26194279  1
  Ta  Ta88  1  0.39575652  0.41396379  0.73750260  1
  Ta  Ta89  1  0.10016535  0.49802713  0.37187204  1
  Ta  Ta90  1  0.49418552  0.70766019  0.88321463  1
  Ta  Ta91  1  0.39133524  0.81028926  0.01269274  1
  Ta  Ta92  1  0.89420860  0.29798490  0.11646785  1
  Ta  Ta93  1  0.31170880  0.69888948  0.87900100  1
  Ta  Ta94  1  0.59610037  0.61259397  0.75308947  1
  Ta  Ta95  1  0.79570050  0.60173480  0.49298394  1
  Ta  Ta96  1  0.79754816  -0.00218888  0.49125485  1
  Ta  Ta97  1  0.30545158  0.89681966  0.62465806  1
  Ta  Ta98  1  0.20202754  -0.00165535  0.51187009  1
  Ta  Ta99  1  0.80004397  0.19954785  0.24433549  1
  Ta  Ta100  1  -0.00119606  0.20025226  0.51494066  1
  Ta  Ta101  1  0.00975498  -0.02439631  -0.00081051  1
  Ta  Ta102  1  0.89756382  0.89093763  0.37977018  1
  Ta  Ta103  1  0.31839059  0.07993784  0.13491910  1
  Ta  Ta104  1  0.40329345  0.20184312  0.50815956  1
  Ta  Ta105  1  0.69737445  0.89840324  0.61392827  1
  Ta  Ta106  1  0.40292159  0.16600068  -0.01820674  1
  Ta  Ta107  1  0.39957951  0.00453390  0.50968568  1
  Ta  Ta108  1  0.09694107  0.50851567  0.14097127  1
  Ta  Ta109  1  -0.00354319  0.58708355  0.49368933  1
  Ta  Ta110  1  -0.00212002  0.19561172  0.23465295  1
  Ta  Ta111  1  0.60289930  0.79383357  0.49828745  1
  Ta  Ta112  1  0.89436348  0.89364831  0.60608667  1
  Ta  Ta113  1  0.69908060  0.89471429  0.37891139  1
  Ta  Ta114  1  0.88968795  0.68087196  0.86800094  1
  Ta  Ta115  1  -0.00430194  0.78812638  0.49703075  1
  Ta  Ta116  1  0.70598156  0.30841485  0.12513655  1
  Ta  Ta117  1  0.20730452  0.20090276  0.75449819  1
  Ta  Ta118  1  0.19491497  0.59639011  0.50859150  1
  Ta  Ta119  1  0.29915085  0.09859876  0.63050067  1
  Ti  Ti120  1  0.69725141  0.69617266  0.61792189  1
  Ti  Ti121  1  0.79552517  0.59645886  0.26215294  1
  Ti  Ti122  1  0.79666405  0.79710639  0.26732201  1
  Ti  Ti123  1  0.90061659  0.29836348  0.89229312  1
  Ti  Ti124  1  0.50819832  0.10747711  0.62165815  1
  Ti  Ti125  1  0.60437231  -0.00390903  0.74803233  1
  Ti  Ti126  1  0.08928069  0.49825532  0.63880958  1
  Ti  Ti127  1  0.09435233  0.69734973  0.14518015  1
  Ti  Ti128  1  0.89401010  0.50578001  0.13232774  1
  Ti  Ti129  1  0.50393552  0.69741722  0.60804040  1
  Ti  Ti130  1  0.58074693  0.60731331  0.23477097  1
  Ti  Ti131  1  0.49002349  0.51556049  0.87845801  1
  Ti  Ti132  1  0.20254551  0.19622565  0.23963572  1
  Ti  Ti133  1  0.70815280  0.50562466  0.12776175  1
  Ti  Ti134  1  0.68716662  0.68791253  0.37619826  1
  Ti  Ti135  1  0.30703407  0.69571737  0.61206428  1
  Ti  Ti136  1  0.79633745  0.40178654  0.24995342  1
  Ti  Ti137  1  0.30166484  0.30486881  0.62377868  1
  Ti  Ti138  1  0.09497098  0.89362621  0.85383000  1
  Ti  Ti139  1  0.29829932  0.70198970  0.12067866  1
  Ti  Ti140  1  0.10243990  0.10033402  0.36540135  1
  Ti  Ti141  1  0.90147721  0.50463477  0.63540466  1
  Ti  Ti142  1  0.89788518  0.69111046  0.62118447  1
  Ti  Ti143  1  -0.00552991  -0.00548949  0.25157912  1
  Ti  Ti144  1  0.60227738  0.00136293  0.26325881  1
  Ti  Ti145  1  0.20862439  -0.00727758  0.24566977  1
  Ti  Ti146  1  0.49509879  0.53188634  0.38365557  1
  Ti  Ti147  1  0.79603497  -0.00964675  0.74356497  1
  Ti  Ti148  1  0.59678442  0.79712951  0.73724414  1
  Ti  Ti149  1  0.40244246  0.60739469  0.01664878  1
  Ti  Ti150  1  0.09617316  0.69052885  0.36957924  1
  Ti  Ti151  1  0.20909118  0.40713173  0.74699893  1
  Ti  Ti152  1  0.79649462  0.20070270  0.00881545  1
  Ti  Ti153  1  0.39342322  0.42739215  0.00809465  1
  Ti  Ti154  1  0.49444561  0.10488057  0.13865324  1
  Ti  Ti155  1  0.29836364  0.50921857  0.87107725  1
  Ti  Ti156  1  0.20693438  0.79246707  0.25588989  1
  Ti  Ti157  1  0.90251881  0.50281570  0.36842076  1
  Ti  Ti158  1  -0.01746948  0.39963229  0.76506940  1
  Ti  Ti159  1  0.79612735  0.79203429  0.49419296  1
  Mo  Mo160  1  0.39413059  -0.00097978  -0.01385123  1
  Mo  Mo161  1  -0.00098190  0.79370136  0.27509916  1
  Mo  Mo162  1  0.40715179  0.59567032  0.52074389  1
  Mo  Mo163  1  0.20638694  0.59028601  0.74055241  1
  Mo  Mo164  1  0.50184976  0.50839934  0.11647607  1
  Mo  Mo165  1  0.79872816  0.60568962  0.73040318  1
  Mo  Mo166  1  0.69752304  0.51239663  0.35676447  1
  Mo  Mo167  1  0.29625175  0.09898756  0.85390041  1
  Mo  Mo168  1  0.20226049  -0.00433186  0.74121474  1
  Mo  Mo169  1  0.89780892  0.49796268  0.86344305  1
  Mo  Mo170  1  0.00427053  0.79370240  0.00237309  1
  Mo  Mo171  1  0.80338374  0.40561215  0.01591839  1
  Mo  Mo172  1  0.50717989  0.69759751  0.38725780  1
  Mo  Mo173  1  0.50057261  0.70831505  0.10391645  1
  Mo  Mo174  1  0.39995489  0.40632093  0.51837058  1
  Mo  Mo175  1  0.40441959  0.80038544  0.51690351  1
  Mo  Mo176  1  0.80435765  0.39827529  0.74438483  1
  Mo  Mo177  1  0.00225272  0.59556524  0.26606332  1
  Mo  Mo178  1  0.89518831  0.09421018  0.61217031  1
  Mo  Mo179  1  0.40981973  0.79176340  0.73136477  1
  Mo  Mo180  1  0.29584778  0.50192842  0.62096395  1
  Mo  Mo181  1  -0.00148541  0.20252325  0.74467155  1
  Mo  Mo182  1  0.60666182  0.60620893  0.50466313  1
  Mo  Mo183  1  0.29686194  0.50732062  0.11776493  1
  Mo  Mo184  1  -0.00300771  0.19296713  0.01297414  1
  Mo  Mo185  1  0.80794238  0.59469222  0.01253879  1
  Mo  Mo186  1  0.29389951  0.89485814  0.13963204  1
  Mo  Mo187  1  0.70335917  0.90267161  0.15098359  1
  Mo  Mo188  1  0.50376092  0.10291290  0.85482135  1
  Mo  Mo189  1  -0.01030484  0.59244163  0.75100606  1
  Mo  Mo190  1  0.59811324  0.20518078  0.49507958  1
  Mo  Mo191  1  0.49496964  0.30865227  0.39319809  1
  Mo  Mo192  1  -0.01280498  0.79618149  0.72963941  1
  Mo  Mo193  1  0.50229512  0.51088021  0.62758173  1
  Mo  Mo194  1  0.69913559  0.89903766  0.85380071  1
  Mo  Mo195  1  0.00083974  0.41104605  0.49853776  1
  Mo  Mo196  1  0.80513907  0.79136361  0.00104078  1
  Mo  Mo197  1  0.40008837  0.00107400  0.26965609  1
  Mo  Mo198  1  0.41031108  0.60282996  0.23186172  1
  Mo  Mo199  1  0.70012144  0.09752301  0.36076914  1
