# generated using pymatgen
data_HfZrTaTiMo
_symmetry_space_group_name_H-M   'P 1'
_cell_length_a   15.92370194
_cell_length_b   15.93166127
_cell_length_c   15.22345097
_cell_angle_alpha   90.01021264
_cell_angle_beta   89.92547215
_cell_angle_gamma   89.90507692
_symmetry_Int_Tables_number   1
_chemical_formula_structural   HfZrTaTiMo
_chemical_formula_sum   'Hf40 Zr40 Ta40 Ti40 Mo40'
_cell_volume   3862.04425811
_cell_formula_units_Z   40
loop_
 _symmetry_equiv_pos_site_id
 _symmetry_equiv_pos_as_xyz
  1  'x, y, z'
loop_
 _atom_site_type_symbol
 _atom_site_label
 _atom_site_symmetry_multiplicity
 _atom_site_fract_x
 _atom_site_fract_y
 _atom_site_fract_z
 _atom_site_occupancy
  Hf  Hf0  1  0.30247246  0.10385366  0.87925019  1
  Hf  Hf1  1  0.68747308  0.90594292  0.62352340  1
  Hf  Hf2  1  0.20072520  -0.00363339  0.24310011  1
  Hf  Hf3  1  0.11067049  0.51001694  0.36500247  1
  Hf  Hf4  1  0.90692690  0.10270904  0.87160045  1
  Hf  Hf5  1  0.29602922  0.69800669  0.12799086  1
  Hf  Hf6  1  0.29711649  0.49899088  0.13330393  1
  Hf  Hf7  1  0.80104509  0.19884941  0.74474102  1
  Hf  Hf8  1  0.49308325  0.50503930  0.87938347  1
  Hf  Hf9  1  0.29480060  0.11395005  0.11098255  1
  Hf  Hf10  1  0.79645321  0.40665230  0.75344973  1
  Hf  Hf11  1  0.89673421  0.90832995  0.37412076  1
  Hf  Hf12  1  0.50590750  0.10465184  0.11844512  1
  Hf  Hf13  1  0.30504534  0.50184674  0.36184705  1
  Hf  Hf14  1  0.39485871  0.20768073  0.25429907  1
  Hf  Hf15  1  0.10440689  0.30585465  0.63184547  1
  Hf  Hf16  1  0.19657893  -0.00960919  0.50885278  1
  Hf  Hf17  1  -0.00364392  0.80274944  0.51060801  1
  Hf  Hf18  1  0.78926166  -0.00294733  0.24261001  1
  Hf  Hf19  1  0.68649338  0.29731203  0.87783621  1
  Hf  Hf20  1  0.49187898  0.50024034  0.62052760  1
  Hf  Hf21  1  0.69798849  0.50246620  0.61847073  1
  Hf  Hf22  1  0.69256676  0.10012260  0.10826244  1
  Hf  Hf23  1  0.51072194  0.08867671  0.62570750  1
  Hf  Hf24  1  0.00494736  0.38849996  0.24164107  1
  Hf  Hf25  1  0.89528281  0.71178333  0.36688014  1
  Hf  Hf26  1  0.38845345  0.61233822  0.74136048  1
  Hf  Hf27  1  0.80733003  0.20933896  -0.00114753  1
  Hf  Hf28  1  0.80165453  -0.00411348  0.74677852  1
  Hf  Hf29  1  0.80785293  0.39454765  0.50879238  1
  Hf  Hf30  1  0.09380642  0.89151686  0.37238280  1
  Hf  Hf31  1  0.59769805  0.79582944  0.76264807  1
  Hf  Hf32  1  0.61993057  0.18775308  0.50225312  1
  Hf  Hf33  1  0.40403373  0.80941021  0.00979797  1
  Hf  Hf34  1  0.39096495  0.40706154  0.74901938  1
  Hf  Hf35  1  0.08728726  0.70525693  0.12312848  1
  Hf  Hf36  1  0.51848216  0.90065318  0.13037169  1
  Hf  Hf37  1  0.39944159  0.00190055  0.24310260  1
  Hf  Hf38  1  0.41046809  0.21860336  0.00002510  1
  Hf  Hf39  1  0.87868620  0.50122557  0.13068900  1
  Zr  Zr40  1  0.19525790  0.21026726  0.26505491  1
  Zr  Zr41  1  0.40036833  0.79794115  0.24362932  1
  Zr  Zr42  1  0.50709523  0.11076843  0.88157295  1
  Zr  Zr43  1  0.29043383  0.31427805  0.88049731  1
  Zr  Zr44  1  0.19393036  0.80777465  -0.00262870  1
  Zr  Zr45  1  -0.00153080  0.60372490  0.24598047  1
  Zr  Zr46  1  0.62031548  0.79082865  0.25665711  1
  Zr  Zr47  1  0.00168654  0.59988095  0.49715208  1
  Zr  Zr48  1  0.20921839  -0.00022922  0.74602993  1
  Zr  Zr49  1  0.08767361  0.09429333  0.37980632  1
  Zr  Zr50  1  0.59840024  0.60190318  0.75460900  1
  Zr  Zr51  1  0.10568643  0.69334096  0.62774861  1
  Zr  Zr52  1  0.41525413  0.21110249  0.49979254  1
  Zr  Zr53  1  0.00012405  -0.01517135  -0.00922564  1
  Zr  Zr54  1  0.71307601  0.30779987  0.36714242  1
  Zr  Zr55  1  0.80242674  -0.01879841  -0.00365907  1
  Zr  Zr56  1  0.40503389  0.40802904  0.01306994  1
  Zr  Zr57  1  0.71179665  0.69853375  0.10743791  1
  Zr  Zr58  1  0.76193551  0.59664633  0.26891177  1
  Zr  Zr59  1  0.10175610  0.10993052  0.63142518  1
  Zr  Zr60  1  0.40449856  -0.01145350  0.50534692  1
  Zr  Zr61  1  0.70520593  0.31372782  0.13394570  1
  Zr  Zr62  1  0.89293209  0.49142005  0.36850103  1
  Zr  Zr63  1  0.09970359  0.48615328  0.88880010  1
  Zr  Zr64  1  0.21340220  0.78069407  0.75491217  1
  Zr  Zr65  1  0.59086282  0.38926878  0.49997229  1
  Zr  Zr66  1  0.30118884  0.30638823  0.61936851  1
  Zr  Zr67  1  0.09902489  0.10449096  0.11225182  1
  Zr  Zr68  1  0.30977288  0.87679446  0.62710573  1
  Zr  Zr69  1  0.08927030  0.69134039  0.87633130  1
  Zr  Zr70  1  0.90415879  0.09815177  0.12124822  1
  Zr  Zr71  1  0.20334610  -0.01111381  -0.00486466  1
  Zr  Zr72  1  0.79762876  0.40968810  -0.01049440  1
  Zr  Zr73  1  0.59645489  0.60357799  0.48302959  1
  Zr  Zr74  1  0.79382702  0.60382584  0.76053444  1
  Zr  Zr75  1  0.30319407  0.09495201  0.38600648  1
  Zr  Zr76  1  0.30492079  0.68563081  0.89695790  1
  Zr  Zr77  1  0.79473661  0.01780524  0.51823678  1
  Zr  Zr78  1  0.58576412  0.80124025  0.50002144  1
  Zr  Zr79  1  0.60744720  0.19243895  0.26398506  1
  Ta  Ta80  1  0.20562328  0.20688323  0.75716368  1
  Ta  Ta81  1  0.19943494  0.39822290  0.48253650  1
  Ta  Ta82  1  0.09906252  0.30147099  0.87842962  1
  Ta  Ta83  1  0.11206890  0.30066484  0.10338547  1
  Ta  Ta84  1  0.89181954  0.69729079  0.62858575  1
  Ta  Ta85  1  0.91525759  0.31010268  0.86400540  1
  Ta  Ta86  1  0.60810088  0.80168573  -0.00844160  1
  Ta  Ta87  1  0.09862978  0.89325782  0.63549101  1
  Ta  Ta88  1  0.49863940  0.90003776  0.36867103  1
  Ta  Ta89  1  0.89374313  0.87912815  0.13870083  1
  Ta  Ta90  1  0.91235624  0.30021269  0.63731704  1
  Ta  Ta91  1  0.90653698  0.50336269  0.87716307  1
  Ta  Ta92  1  0.40622993  0.20525235  0.74761770  1
  Ta  Ta93  1  0.00457843  0.39338583  0.49456043  1
  Ta  Ta94  1  0.40815328  -0.00233596  0.75599531  1
  Ta  Ta95  1  0.51204879  0.30784008  0.14120105  1
  Ta  Ta96  1  0.39594151  0.60397906  0.49115521  1
  Ta  Ta97  1  0.79817277  0.60528975  0.49756699  1
  Ta  Ta98  1  0.59919569  0.20276060  0.74069884  1
  Ta  Ta99  1  0.10002015  0.10619189  0.87050454  1
  Ta  Ta100  1  -0.01107365  0.00134954  0.52310793  1
  Ta  Ta101  1  0.19225958  0.59435603  0.01352692  1
  Ta  Ta102  1  -0.00513975  0.00005088  0.73991148  1
  Ta  Ta103  1  0.49784516  0.69925501  0.89190722  1
  Ta  Ta104  1  -0.01416515  0.59598019  0.00915439  1
  Ta  Ta105  1  0.89406715  0.10559323  0.37256311  1
  Ta  Ta106  1  0.90492924  0.29227619  0.36683804  1
  Ta  Ta107  1  -0.00661204  0.20237223  0.50053530  1
  Ta  Ta108  1  0.08807298  0.89456955  0.13573758  1
  Ta  Ta109  1  0.09289563  0.89643368  0.85179038  1
  Ta  Ta110  1  0.60640310  -0.00188920  0.26346018  1
  Ta  Ta111  1  0.69907958  0.10178229  0.87869843  1
  Ta  Ta112  1  0.19766904  0.20836724  0.48947946  1
  Ta  Ta113  1  0.59978408  -0.00971505  -0.01468873  1
  Ta  Ta114  1  0.20037122  0.58002581  0.74617676  1
  Ta  Ta115  1  0.70129393  0.90366880  0.39108654  1
  Ta  Ta116  1  0.28419098  0.68886992  0.36453224  1
  Ta  Ta117  1  0.29562720  0.88913289  0.37095679  1
  Ta  Ta118  1  0.40195152  -0.00681345  0.00123197  1
  Ta  Ta119  1  -0.00328429  0.59596904  0.74570336  1
  Ti  Ti120  1  0.00683810  0.40946795  0.74360041  1
  Ti  Ti121  1  0.00335352  0.20181841  0.24617377  1
  Ti  Ti122  1  0.41031594  0.59784654  0.24064244  1
  Ti  Ti123  1  0.59296850  0.39891729  0.75161577  1
  Ti  Ti124  1  0.49472105  0.69751982  0.36238592  1
  Ti  Ti125  1  0.50746191  0.09156768  0.38265529  1
  Ti  Ti126  1  0.69720480  0.70321768  0.61817950  1
  Ti  Ti127  1  0.39270504  0.78989406  0.48279883  1
  Ti  Ti128  1  -0.00070697  0.21218765  -0.00183955  1
  Ti  Ti129  1  0.79803397  0.79743080  0.75161013  1
  Ti  Ti130  1  0.50429286  0.30952889  0.35846448  1
  Ti  Ti131  1  0.19856988  0.78562795  0.49435340  1
  Ti  Ti132  1  0.80032470  0.80283130  0.50948127  1
  Ti  Ti133  1  0.70665813  0.89145686  0.87466250  1
  Ti  Ti134  1  0.69831164  0.30125988  0.63039109  1
  Ti  Ti135  1  0.29429328  0.50428342  0.89140924  1
  Ti  Ti136  1  0.50512759  0.49792878  0.35956255  1
  Ti  Ti137  1  0.30527383  0.10557529  0.62423139  1
  Ti  Ti138  1  0.48454278  0.70920753  0.62386780  1
  Ti  Ti139  1  0.80952337  0.20091050  0.24027025  1
  Ti  Ti140  1  0.19254000  0.79544152  0.24967638  1
  Ti  Ti141  1  0.49796629  0.89496183  0.63822892  1
  Ti  Ti142  1  0.40247631  0.39694357  0.24298778  1
  Ti  Ti143  1  0.90525449  0.50196269  0.62414033  1
  Ti  Ti144  1  0.60162137  -0.00151044  0.76757659  1
  Ti  Ti145  1  0.29046090  0.50338527  0.60716284  1
  Ti  Ti146  1  0.31298717  0.89298633  0.86354443  1
  Ti  Ti147  1  0.10436413  0.49688783  0.61538071  1
  Ti  Ti148  1  0.59431138  0.39964590  0.00197553  1
  Ti  Ti149  1  0.89399179  0.70083383  0.87714409  1
  Ti  Ti150  1  0.60816772  0.59062451  -0.00551472  1
  Ti  Ti151  1  0.89136117  0.70411550  0.12928846  1
  Ti  Ti152  1  -0.00460702  0.00130447  0.24479789  1
  Ti  Ti153  1  -0.01393187  0.80328485  -0.00943582  1
  Ti  Ti154  1  0.80774491  0.20011845  0.51445792  1
  Ti  Ti155  1  0.39979903  0.40166058  0.48856295  1
  Ti  Ti156  1  0.20315098  0.38748860  0.25099331  1
  Ti  Ti157  1  0.09763385  0.49544613  0.12323082  1
  Ti  Ti158  1  0.51084505  0.68744641  0.11648658  1
  Ti  Ti159  1  -0.01235266  0.79740948  0.74389777  1
  Mo  Mo160  1  0.50243283  0.30132839  0.63732870  1
  Mo  Mo161  1  0.79683307  0.80290148  0.25960438  1
  Mo  Mo162  1  0.60652404  0.41976319  0.25259395  1
  Mo  Mo163  1  0.19923476  0.20280680  -0.01950014  1
  Mo  Mo164  1  0.49965503  0.90065713  0.87482320  1
  Mo  Mo165  1  0.80088139  0.60213750  -0.01558578  1
  Mo  Mo166  1  0.70239398  0.89740741  0.11071172  1
  Mo  Mo167  1  0.89720638  0.89306097  0.63353349  1
  Mo  Mo168  1  0.90502136  0.10876676  0.63107446  1
  Mo  Mo169  1  0.71269073  0.09975809  0.36871495  1
  Mo  Mo170  1  0.19692377  0.60146005  0.23315329  1
  Mo  Mo171  1  -0.00581861  0.39669629  0.01463684  1
  Mo  Mo172  1  0.30524184  0.30913800  0.38244589  1
  Mo  Mo173  1  0.69368152  0.49844083  0.88313283  1
  Mo  Mo174  1  0.20502757  0.59687883  0.50195064  1
  Mo  Mo175  1  0.80210699  0.39904039  0.25201357  1
  Mo  Mo176  1  0.60177652  0.20904952  0.00315792  1
  Mo  Mo177  1  0.51110961  0.50207767  0.13411479  1
  Mo  Mo178  1  0.40789824  0.60119051  0.01805109  1
  Mo  Mo179  1  0.50028078  0.30727899  0.85899373  1
  Mo  Mo180  1  0.30317538  0.68901698  0.60705896  1
  Mo  Mo181  1  0.69649211  0.49750262  0.39631279  1
  Mo  Mo182  1  0.19748136  0.40925357  0.74173143  1
  Mo  Mo183  1  0.60010478  -0.00030336  0.48594721  1
  Mo  Mo184  1  0.41035379  0.79545467  0.76359500  1
  Mo  Mo185  1  -0.00228908  0.80373645  0.25303160  1
  Mo  Mo186  1  0.68780374  0.50317258  0.11249990  1
  Mo  Mo187  1  0.69640321  0.10067946  0.64540675  1
  Mo  Mo188  1  0.00536163  0.20565977  0.75953917  1
  Mo  Mo189  1  0.90819778  0.30005507  0.13317675  1
  Mo  Mo190  1  0.59085960  0.60311170  0.25825613  1
  Mo  Mo191  1  0.19906710  0.40389458  0.01333371  1
  Mo  Mo192  1  0.29577704  0.90089818  0.13865962  1
  Mo  Mo193  1  0.30001210  0.30266495  0.12384221  1
  Mo  Mo194  1  0.09509844  0.30124812  0.38154736  1
  Mo  Mo195  1  0.70145489  0.71037546  0.39701215  1
  Mo  Mo196  1  0.90448337  0.88988480  0.85334448  1
  Mo  Mo197  1  0.10489007  0.70346875  0.37059330  1
  Mo  Mo198  1  0.70142851  0.70081644  0.88708609  1
  Mo  Mo199  1  0.80817022  0.79711205  -0.01572558  1
