# generated using pymatgen
data_HfZrTaTiMo
_symmetry_space_group_name_H-M   'P 1'
_cell_length_a   15.92286978
_cell_length_b   15.92301072
_cell_length_c   15.18506406
_cell_angle_alpha   89.92587045
_cell_angle_beta   90.07331591
_cell_angle_gamma   90.00617157
_symmetry_Int_Tables_number   1
_chemical_formula_structural   HfZrTaTiMo
_chemical_formula_sum   'Hf40 Zr40 Ta40 Ti40 Mo40'
_cell_volume   3850.01514232
_cell_formula_units_Z   40
loop_
 _symmetry_equiv_pos_site_id
 _symmetry_equiv_pos_as_xyz
  1  'x, y, z'
loop_
 _atom_site_type_symbol
 _atom_site_label
 _atom_site_symmetry_multiplicity
 _atom_site_fract_x
 _atom_site_fract_y
 _atom_site_fract_z
 _atom_site_occupancy
  Hf  Hf0  1  0.69401731  0.90527086  0.62598406  1
  Hf  Hf1  1  0.80516537  0.20192677  0.73799945  1
  Hf  Hf2  1  0.79952815  0.81148340  0.21900958  1
  Hf  Hf3  1  0.89483768  0.90702474  0.61971320  1
  Hf  Hf4  1  0.10485374  0.49579659  0.13589432  1
  Hf  Hf5  1  0.81143162  0.00652616  0.77051412  1
  Hf  Hf6  1  0.00481539  0.59329281  -0.00671836  1
  Hf  Hf7  1  0.79430303  0.58812048  0.00126655  1
  Hf  Hf8  1  -0.00145724  -0.00357251  -0.01735110  1
  Hf  Hf9  1  0.30463622  0.70514438  0.61701402  1
  Hf  Hf10  1  0.60090785  0.00510055  0.00165115  1
  Hf  Hf11  1  -0.00650424  0.80754970  0.75825930  1
  Hf  Hf12  1  0.10417467  0.90118102  0.13270130  1
  Hf  Hf13  1  0.90589358  0.49157595  0.12882334  1
  Hf  Hf14  1  0.49051786  0.49934682  0.63617207  1
  Hf  Hf15  1  0.79772956  0.19386176  0.49356702  1
  Hf  Hf16  1  0.29320161  0.49256715  0.86333252  1
  Hf  Hf17  1  0.22475135  -0.01279230  0.25742621  1
  Hf  Hf18  1  0.69356901  0.50607588  0.62790010  1
  Hf  Hf19  1  0.10664644  0.29189360  0.38925828  1
  Hf  Hf20  1  0.40495603  0.60723198  0.75477815  1
  Hf  Hf21  1  0.89557486  0.70034239  0.36417015  1
  Hf  Hf22  1  0.80352930  0.00175196  0.00170156  1
  Hf  Hf23  1  0.30346770  0.70173852  0.88123975  1
  Hf  Hf24  1  0.57928836  0.40824028  0.48371832  1
  Hf  Hf25  1  0.12001665  0.09645492  0.60291801  1
  Hf  Hf26  1  0.10081327  0.70635898  0.36249691  1
  Hf  Hf27  1  0.10194221  0.48945668  0.36499569  1
  Hf  Hf28  1  0.69539962  0.30169314  0.61097770  1
  Hf  Hf29  1  0.69874970  0.71139073  0.36308270  1
  Hf  Hf30  1  0.00246990  0.20178753  0.74514850  1
  Hf  Hf31  1  0.29975407  0.49600877  0.13587840  1
  Hf  Hf32  1  0.59847079  0.19153484  0.74403564  1
  Hf  Hf33  1  0.39931932  0.01417419  0.75966734  1
  Hf  Hf34  1  0.80078593  0.59956865  0.23807794  1
  Hf  Hf35  1  -0.00014603  0.19448933  -0.00627024  1
  Hf  Hf36  1  0.79373850  0.79456413  0.74921298  1
  Hf  Hf37  1  0.59397306  0.80864846  0.01066591  1
  Hf  Hf38  1  0.10184141  0.69797371  0.87075139  1
  Hf  Hf39  1  0.29861866  0.29325455  0.61453622  1
  Zr  Zr40  1  0.19788333  0.80619863  0.00205173  1
  Zr  Zr41  1  -0.00832805  0.78544478  0.51905083  1
  Zr  Zr42  1  0.60339400  0.20405933  0.25252607  1
  Zr  Zr43  1  0.70855299  0.30097740  0.87594502  1
  Zr  Zr44  1  0.90656926  0.09827661  0.60770734  1
  Zr  Zr45  1  0.60280322  0.39927293  0.01161898  1
  Zr  Zr46  1  0.90089092  0.48398086  0.87141996  1
  Zr  Zr47  1  0.50235401  0.90651505  0.61304645  1
  Zr  Zr48  1  0.48798723  0.30176748  0.61930565  1
  Zr  Zr49  1  0.21208715  0.19929493  0.25564874  1
  Zr  Zr50  1  0.70080258  0.30706550  0.37452675  1
  Zr  Zr51  1  0.60011680  0.40231334  0.75426990  1
  Zr  Zr52  1  0.59416507  0.60935734  0.49409564  1
  Zr  Zr53  1  0.10209660  0.30397173  0.13694203  1
  Zr  Zr54  1  0.21301875  0.20878112  -0.00033586  1
  Zr  Zr55  1  0.30555474  0.69640037  0.11921957  1
  Zr  Zr56  1  0.01807051  0.00564058  0.76274971  1
  Zr  Zr57  1  0.20395581  0.18318712  0.76057131  1
  Zr  Zr58  1  0.80085219  0.61093036  0.51087599  1
  Zr  Zr59  1  0.41559738  0.80542985  0.74836438  1
  Zr  Zr60  1  0.09971091  0.31247610  0.87450112  1
  Zr  Zr61  1  0.10328227  0.09734095  0.13816470  1
  Zr  Zr62  1  0.19881890  0.00996445  -0.01774258  1
  Zr  Zr63  1  0.90537831  0.30308690  0.38563066  1
  Zr  Zr64  1  0.48329249  0.50073010  0.12696304  1
  Zr  Zr65  1  0.49879070  0.10577809  0.12657503  1
  Zr  Zr66  1  0.89131998  0.89224341  0.38562587  1
  Zr  Zr67  1  0.30560860  0.87947345  0.39883302  1
  Zr  Zr68  1  -0.00422070  0.58795519  0.49061356  1
  Zr  Zr69  1  0.59996584  0.81128861  0.23565809  1
  Zr  Zr70  1  0.48498426  0.71298483  0.35928061  1
  Zr  Zr71  1  0.29304393  0.91555391  0.62003812  1
  Zr  Zr72  1  0.79551375  -0.00007414  0.25188581  1
  Zr  Zr73  1  0.70359293  0.50266592  0.36564062  1
  Zr  Zr74  1  0.91461825  0.51324581  0.64417168  1
  Zr  Zr75  1  0.10071333  0.89041672  0.36643451  1
  Zr  Zr76  1  0.19580293  0.59948184  0.50092566  1
  Zr  Zr77  1  0.39738823  0.58756026  0.48565536  1
  Zr  Zr78  1  0.69510750  0.89328309  0.87339231  1
  Zr  Zr79  1  0.50050971  0.29926452  0.88101792  1
  Ta  Ta80  1  0.08772219  0.68911390  0.64486045  1
  Ta  Ta81  1  0.31603882  0.08968121  0.12760983  1
  Ta  Ta82  1  0.10338477  0.09348627  0.37983517  1
  Ta  Ta83  1  0.20508531  0.40534922  0.50515862  1
  Ta  Ta84  1  -0.00367504  0.80178298  0.00038267  1
  Ta  Ta85  1  0.40489800  0.20707817  0.25689535  1
  Ta  Ta86  1  0.59596731  0.19383251  0.48862704  1
  Ta  Ta87  1  0.60199732  -0.00124333  0.25424409  1
  Ta  Ta88  1  0.48079056  0.91190860  0.13051069  1
  Ta  Ta89  1  0.30210104  0.49049465  0.63656450  1
  Ta  Ta90  1  0.59378635  0.60241509  0.23741504  1
  Ta  Ta91  1  0.30112551  0.89942466  0.86944251  1
  Ta  Ta92  1  0.80136114  0.20041341  0.01790322  1
  Ta  Ta93  1  0.79931156  0.38885296  0.01868922  1
  Ta  Ta94  1  0.69452493  0.69603287  0.88492159  1
  Ta  Ta95  1  0.10189480  0.69392044  0.12849226  1
  Ta  Ta96  1  0.40829968  0.00631026  0.48561635  1
  Ta  Ta97  1  0.90559828  0.09744945  0.13185538  1
  Ta  Ta98  1  0.81427817  0.41255708  0.50854039  1
  Ta  Ta99  1  0.19957126  0.59016569  -0.00331606  1
  Ta  Ta100  1  0.69600444  0.08912915  0.61645732  1
  Ta  Ta101  1  0.39698166  0.20089732  0.75786177  1
  Ta  Ta102  1  0.59421252  0.00101752  0.76239381  1
  Ta  Ta103  1  0.89359522  0.69752429  0.87988846  1
  Ta  Ta104  1  0.49562481  0.50573779  0.88037509  1
  Ta  Ta105  1  -0.00838795  0.79798787  0.22721967  1
  Ta  Ta106  1  0.31065376  0.10363868  0.60409934  1
  Ta  Ta107  1  0.80595940  0.39555071  0.73285485  1
  Ta  Ta108  1  -0.00490845  0.19053475  0.26401347  1
  Ta  Ta109  1  0.19371297  0.81013211  0.74427195  1
  Ta  Ta110  1  0.49985243  0.10154603  0.61430493  1
  Ta  Ta111  1  0.38935587  0.39427659  -0.00774492  1
  Ta  Ta112  1  0.20633948  0.60217808  0.25609117  1
  Ta  Ta113  1  0.59428025  0.59925666  0.00472352  1
  Ta  Ta114  1  0.80518760  0.19651098  0.25085100  1
  Ta  Ta115  1  0.01048577  -0.01082062  0.49661670  1
  Ta  Ta116  1  0.69581488  0.69723187  0.11368693  1
  Ta  Ta117  1  0.40145001  -0.00106484  -0.01466252  1
  Ta  Ta118  1  0.48758436  0.70055818  0.12044842  1
  Ta  Ta119  1  0.79380791  0.60174048  0.75766905  1
  Ti  Ti120  1  -0.00246967  0.59846346  0.25007131  1
  Ti  Ti121  1  0.69404219  0.49485224  0.13393688  1
  Ti  Ti122  1  -0.00769644  -0.00642687  0.25535676  1
  Ti  Ti123  1  0.59710634  0.61777788  0.75625763  1
  Ti  Ti124  1  0.60445483  0.00771072  0.48150277  1
  Ti  Ti125  1  0.70320085  0.10184364  0.13024356  1
  Ti  Ti126  1  0.69899106  0.89916453  0.38908473  1
  Ti  Ti127  1  0.40670212  0.20567493  0.48056175  1
  Ti  Ti128  1  0.80272288  0.80542809  0.00481420  1
  Ti  Ti129  1  0.19693969  0.38523526  0.73618680  1
  Ti  Ti130  1  0.00026227  0.39408741  0.00367687  1
  Ti  Ti131  1  0.00056890  0.38489142  0.73182401  1
  Ti  Ti132  1  0.70246912  0.11127888  0.88092682  1
  Ti  Ti133  1  0.30193165  0.10107528  0.38428890  1
  Ti  Ti134  1  0.20175218  0.60335138  0.74548625  1
  Ti  Ti135  1  0.78932974  0.79048353  0.51920343  1
  Ti  Ti136  1  0.58451553  0.39485361  0.24627000  1
  Ti  Ti137  1  0.90352450  0.09220488  0.38283478  1
  Ti  Ti138  1  0.10561451  0.49864668  0.63725287  1
  Ti  Ti139  1  0.31271634  0.30723573  0.13897018  1
  Ti  Ti140  1  0.50383685  0.10772963  0.88584440  1
  Ti  Ti141  1  0.20154839  0.40030277  -0.00083677  1
  Ti  Ti142  1  0.29444902  0.70354825  0.37381583  1
  Ti  Ti143  1  0.50048396  0.09982287  0.36631431  1
  Ti  Ti144  1  0.90289454  0.69559296  0.11126871  1
  Ti  Ti145  1  0.80107384  0.39342006  0.24372767  1
  Ti  Ti146  1  0.17935528  0.80348922  0.52304553  1
  Ti  Ti147  1  0.39749045  0.20466696  0.00121634  1
  Ti  Ti148  1  0.60886029  0.20973186  0.01675595  1
  Ti  Ti149  1  0.37935777  0.81585162  0.23682171  1
  Ti  Ti150  1  -0.00525889  0.39304410  0.25727435  1
  Ti  Ti151  1  0.00630415  0.39483149  0.51669810  1
  Ti  Ti152  1  0.49773986  0.90010923  0.37405071  1
  Ti  Ti153  1  0.90385331  0.29188138  0.13307234  1
  Ti  Ti154  1  0.89480606  0.29771278  0.87860681  1
  Ti  Ti155  1  0.59589468  0.79375609  0.50621053  1
  Ti  Ti156  1  0.50044186  0.70778059  0.89283619  1
  Ti  Ti157  1  0.09854436  0.49781545  0.85678551  1
  Ti  Ti158  1  0.69735626  0.49922312  0.87253117  1
  Ti  Ti159  1  0.30460554  0.31221202  0.37831966  1
  Mo  Mo160  1  0.89861437  0.89116461  0.88841772  1
  Mo  Mo161  1  0.39610997  0.60377096  0.26170832  1
  Mo  Mo162  1  0.00103004  0.60042847  0.76986961  1
  Mo  Mo163  1  0.79428454  -0.00426159  0.48863789  1
  Mo  Mo164  1  0.89327990  0.11437502  0.88218382  1
  Mo  Mo165  1  0.40137280  0.39534718  0.26357866  1
  Mo  Mo166  1  0.10551852  0.89727282  0.86786260  1
  Mo  Mo167  1  0.70411799  0.30086178  0.14006758  1
  Mo  Mo168  1  0.20429192  0.39774068  0.26041863  1
  Mo  Mo169  1  0.59714293  0.79514537  0.75559699  1
  Mo  Mo170  1  0.31099612  0.10584863  0.88890197  1
  Mo  Mo171  1  0.41167240  0.79702876  0.51125236  1
  Mo  Mo172  1  0.69316730  0.90802547  0.11435487  1
  Mo  Mo173  1  0.90480625  0.90313139  0.11385844  1
  Mo  Mo174  1  0.10258215  0.10583283  0.87544824  1
  Mo  Mo175  1  0.10385852  0.29745872  0.61044550  1
  Mo  Mo176  1  0.49797614  0.90275229  0.87831418  1
  Mo  Mo177  1  0.49574142  0.50110918  0.34839267  1
  Mo  Mo178  1  0.90102403  0.49317463  0.36134385  1
  Mo  Mo179  1  0.69940440  0.09531598  0.37533240  1
  Mo  Mo180  1  0.20048162  0.79330989  0.23551783  1
  Mo  Mo181  1  0.68818571  0.70326949  0.64196542  1
  Mo  Mo182  1  0.30196412  0.30358179  0.86787122  1
  Mo  Mo183  1  0.39133691  0.40491779  0.48377978  1
  Mo  Mo184  1  0.90359146  0.30303732  0.61028523  1
  Mo  Mo185  1  0.20824508  -0.00139727  0.76092883  1
  Mo  Mo186  1  0.20472052  -0.00109222  0.48313035  1
  Mo  Mo187  1  0.39895915  0.59721546  -0.01615849  1
  Mo  Mo188  1  0.40597029  0.00221069  0.26876362  1
  Mo  Mo189  1  0.30664568  0.90730440  0.11263072  1
  Mo  Mo190  1  0.49179915  0.30102460  0.11793800  1
  Mo  Mo191  1  0.00463217  0.19210248  0.49056692  1
  Mo  Mo192  1  0.09998774  0.90189643  0.62842811  1
  Mo  Mo193  1  0.89424304  0.70012474  0.64726882  1
  Mo  Mo194  1  0.29716406  0.49637041  0.36178001  1
  Mo  Mo195  1  0.49532003  0.29951207  0.37694809  1
  Mo  Mo196  1  0.50339774  0.70016330  0.61901647  1
  Mo  Mo197  1  0.40175343  0.80806342  -0.00118426  1
  Mo  Mo198  1  0.21155798  0.19967056  0.48565950  1
  Mo  Mo199  1  0.39383846  0.39662368  0.76303419  1
