# generated using pymatgen
data_HfZrTaTiMo
_symmetry_space_group_name_H-M   'P 1'
_cell_length_a   15.93476432
_cell_length_b   15.92652089
_cell_length_c   15.19699954
_cell_angle_alpha   90.00242937
_cell_angle_beta   89.88750036
_cell_angle_gamma   89.90638134
_symmetry_Int_Tables_number   1
_chemical_formula_structural   HfZrTaTiMo
_chemical_formula_sum   'Hf40 Zr40 Ta40 Ti40 Mo40'
_cell_volume   3856.76336297
_cell_formula_units_Z   40
loop_
 _symmetry_equiv_pos_site_id
 _symmetry_equiv_pos_as_xyz
  1  'x, y, z'
loop_
 _atom_site_type_symbol
 _atom_site_label
 _atom_site_symmetry_multiplicity
 _atom_site_fract_x
 _atom_site_fract_y
 _atom_site_fract_z
 _atom_site_occupancy
  Hf  Hf0  1  0.19330058  0.59982153  0.26534084  1
  Hf  Hf1  1  0.61451846  -0.01844863  0.00303137  1
  Hf  Hf2  1  0.81390370  -0.00430307  0.03204387  1
  Hf  Hf3  1  0.08760802  0.68433352  0.87576543  1
  Hf  Hf4  1  0.41306418  0.40083285  0.51377792  1
  Hf  Hf5  1  0.10002559  0.69371520  0.10973495  1
  Hf  Hf6  1  0.90798542  0.50539245  0.85753468  1
  Hf  Hf7  1  -0.00720710  -0.00560091  0.74286971  1
  Hf  Hf8  1  0.59881032  0.01083967  0.26342864  1
  Hf  Hf9  1  0.50921025  0.10370215  0.89024930  1
  Hf  Hf10  1  -0.00465429  0.80827933  0.50182940  1
  Hf  Hf11  1  0.49834553  0.89944917  0.38044061  1
  Hf  Hf12  1  0.70966050  0.91060922  0.60891737  1
  Hf  Hf13  1  0.71053159  0.09127785  0.87859584  1
  Hf  Hf14  1  0.68754825  0.48862043  0.63291224  1
  Hf  Hf15  1  0.11121203  0.89894395  0.62183377  1
  Hf  Hf16  1  0.79625430  0.20219734  0.25633546  1
  Hf  Hf17  1  0.09704227  0.50484284  0.61969147  1
  Hf  Hf18  1  0.60517941  0.40599659  -0.00586449  1
  Hf  Hf19  1  0.09639870  0.69473248  0.62507747  1
  Hf  Hf20  1  0.30270036  0.29615072  0.62368331  1
  Hf  Hf21  1  0.19789365  0.80184939  -0.01480845  1
  Hf  Hf22  1  0.40321307  0.59527228  0.51348716  1
  Hf  Hf23  1  0.69338129  0.70237620  0.87201521  1
  Hf  Hf24  1  0.30321499  0.50365625  0.38170754  1
  Hf  Hf25  1  0.29887275  0.90390126  0.61760776  1
  Hf  Hf26  1  0.89431485  0.09446677  0.61739181  1
  Hf  Hf27  1  0.20334929  0.79549719  0.76927491  1
  Hf  Hf28  1  0.80098121  0.39274415  0.74814164  1
  Hf  Hf29  1  0.89004480  0.69965919  0.87447491  1
  Hf  Hf30  1  0.00168484  0.40835149  0.25101610  1
  Hf  Hf31  1  0.80269245  0.41443568  -0.00719429  1
  Hf  Hf32  1  0.80218560  0.78788386  0.25975844  1
  Hf  Hf33  1  0.09932114  0.30356145  0.62318333  1
  Hf  Hf34  1  0.09376291  0.49539912  0.87503808  1
  Hf  Hf35  1  -0.01082442  0.80525198  0.74750540  1
  Hf  Hf36  1  0.91406980  0.11236713  0.36688634  1
  Hf  Hf37  1  0.29879352  0.69454596  0.11222751  1
  Hf  Hf38  1  0.50233963  0.88827609  0.13452016  1
  Hf  Hf39  1  -0.01644763  0.81033660  0.01186837  1
  Zr  Zr40  1  0.78922706  0.80539457  0.00836715  1
  Zr  Zr41  1  0.10048390  0.90751932  0.36438850  1
  Zr  Zr42  1  0.27811828  0.70032632  0.60452177  1
  Zr  Zr43  1  0.60540263  0.39699139  0.26265044  1
  Zr  Zr44  1  0.28618222  0.29985537  0.12395919  1
  Zr  Zr45  1  0.50175403  0.68394739  0.86009363  1
  Zr  Zr46  1  0.90448290  0.09933959  0.87270270  1
  Zr  Zr47  1  0.50498338  0.69671601  0.37418701  1
  Zr  Zr48  1  0.79651185  0.60553711  0.73465403  1
  Zr  Zr49  1  0.30907870  0.28633624  0.38019708  1
  Zr  Zr50  1  0.59761330  0.20910994  0.50361705  1
  Zr  Zr51  1  0.20133300  0.18676738  0.49536864  1
  Zr  Zr52  1  0.29935839  0.89972530  0.11690757  1
  Zr  Zr53  1  0.19982195  0.79388812  0.25462441  1
  Zr  Zr54  1  0.39106730  0.00310357  0.25133997  1
  Zr  Zr55  1  0.52302639  0.28844390  0.12112275  1
  Zr  Zr56  1  0.10725554  0.49503932  0.11204111  1
  Zr  Zr57  1  0.68848404  0.11376728  0.12371303  1
  Zr  Zr58  1  0.29771171  0.89643308  0.38714954  1
  Zr  Zr59  1  0.91184552  0.29984952  0.87070137  1
  Zr  Zr60  1  0.79898660  0.58985025  0.50158070  1
  Zr  Zr61  1  0.30909968  0.09933399  0.87523630  1
  Zr  Zr62  1  0.69126645  0.71416436  0.61457766  1
  Zr  Zr63  1  -0.00689592  0.00325305  0.23165616  1
  Zr  Zr64  1  0.41099435  0.19682696  0.74189488  1
  Zr  Zr65  1  0.80620093  0.20836465  0.00875797  1
  Zr  Zr66  1  0.70370500  0.69116061  0.12884486  1
  Zr  Zr67  1  0.79705371  0.19718022  0.73712321  1
  Zr  Zr68  1  0.29378045  0.50026904  0.12353802  1
  Zr  Zr69  1  0.21338654  0.41132807  0.74562800  1
  Zr  Zr70  1  0.40525749  0.39935570  0.24614523  1
  Zr  Zr71  1  0.30064370  0.50631302  0.89262247  1
  Zr  Zr72  1  0.00592701  0.00923141  0.49649381  1
  Zr  Zr73  1  0.41305386  0.40426796  0.01077482  1
  Zr  Zr74  1  0.50476290  0.89401850  0.87843131  1
  Zr  Zr75  1  0.91032634  0.68408942  0.38159965  1
  Zr  Zr76  1  0.50631386  0.90018088  0.60209602  1
  Zr  Zr77  1  0.38122487  0.58726970  0.73110126  1
  Zr  Zr78  1  0.60416830  0.00258159  0.74536711  1
  Zr  Zr79  1  0.40117138  0.79508888  0.74022390  1
  Ta  Ta80  1  0.30799602  0.90144847  0.88177090  1
  Ta  Ta81  1  0.80041638  0.00247893  0.47175924  1
  Ta  Ta82  1  0.10329299  0.90403795  0.12227933  1
  Ta  Ta83  1  0.19955654  -0.00324651  0.76747253  1
  Ta  Ta84  1  0.41833585  0.60070994  0.01149305  1
  Ta  Ta85  1  0.88131499  0.50428913  0.14246885  1
  Ta  Ta86  1  0.00504820  0.20145403  0.01776674  1
  Ta  Ta87  1  0.19315239  0.00643834  -0.00617268  1
  Ta  Ta88  1  0.80490034  0.40147459  0.49508354  1
  Ta  Ta89  1  0.19673491  0.20152853  -0.01161814  1
  Ta  Ta90  1  0.80306656  0.20300373  0.49441938  1
  Ta  Ta91  1  0.30549534  0.30447890  0.87794189  1
  Ta  Ta92  1  0.89887714  0.70191339  0.61875708  1
  Ta  Ta93  1  0.10697476  0.10004282  0.64185876  1
  Ta  Ta94  1  0.11142501  0.10830821  0.13108070  1
  Ta  Ta95  1  -0.00089837  0.79247063  0.23933328  1
  Ta  Ta96  1  0.09390857  0.29665703  0.37603621  1
  Ta  Ta97  1  0.90654899  0.30638983  0.37612006  1
  Ta  Ta98  1  0.00012903  0.00809820  0.01410580  1
  Ta  Ta99  1  0.48438401  0.11415163  0.38521365  1
  Ta  Ta100  1  0.39986503  0.20111188  0.00820273  1
  Ta  Ta101  1  0.19446701  0.39990570  0.27155935  1
  Ta  Ta102  1  0.20101126  0.20033970  0.76051718  1
  Ta  Ta103  1  0.40394042  0.19469421  0.23729620  1
  Ta  Ta104  1  0.07987623  0.50486836  0.39265950  1
  Ta  Ta105  1  0.39794452  0.78667810  0.25310455  1
  Ta  Ta106  1  0.69410189  0.89317854  0.15339138  1
  Ta  Ta107  1  0.50035311  0.29974434  0.87165376  1
  Ta  Ta108  1  0.49966739  0.09607777  0.11475730  1
  Ta  Ta109  1  -0.00481383  0.39544116  0.01422660  1
  Ta  Ta110  1  0.29598554  0.09381137  0.63805229  1
  Ta  Ta111  1  0.79576089  0.00214550  0.25660176  1
  Ta  Ta112  1  -0.02515877  0.59363091  0.01430286  1
  Ta  Ta113  1  0.69121030  0.51062933  0.86140252  1
  Ta  Ta114  1  0.59292372  0.59651873  0.50971554  1
  Ta  Ta115  1  0.09914688  0.30287876  0.87219570  1
  Ta  Ta116  1  0.09356259  0.10556155  0.87199398  1
  Ta  Ta117  1  0.59750312  0.59172780  0.01086352  1
  Ta  Ta118  1  0.70226609  0.49958945  0.13881907  1
  Ta  Ta119  1  0.90007905  0.30633423  0.14106192  1
  Ti  Ti120  1  0.60089439  0.40762941  0.49202430  1
  Ti  Ti121  1  0.00099680  0.20446794  0.73948092  1
  Ti  Ti122  1  -0.00523063  0.60276085  0.23903080  1
  Ti  Ti123  1  0.38721305  0.01980554  0.49590841  1
  Ti  Ti124  1  0.40471550  0.60054931  0.23993731  1
  Ti  Ti125  1  0.00476168  0.20118961  0.50446177  1
  Ti  Ti126  1  0.60668061  0.01061825  0.48167471  1
  Ti  Ti127  1  0.60003462  0.80503788  0.74373248  1
  Ti  Ti128  1  0.08806918  0.90810220  0.88247376  1
  Ti  Ti129  1  0.88430494  0.91031469  0.87555518  1
  Ti  Ti130  1  0.11344606  0.10674030  0.34631242  1
  Ti  Ti131  1  0.59762432  0.19719338  0.26953620  1
  Ti  Ti132  1  0.10275601  0.69815603  0.39613101  1
  Ti  Ti133  1  0.70154705  0.09966204  0.61181296  1
  Ti  Ti134  1  0.90565060  0.30962148  0.61269939  1
  Ti  Ti135  1  0.90215829  0.90022452  0.36510530  1
  Ti  Ti136  1  0.59399464  0.78739413  0.00652027  1
  Ti  Ti137  1  0.51426385  0.31649294  0.64375611  1
  Ti  Ti138  1  0.49613612  0.29844493  0.37925340  1
  Ti  Ti139  1  0.19855699  0.40226172  0.49355293  1
  Ti  Ti140  1  0.60575144  0.19965346  0.74613269  1
  Ti  Ti141  1  0.40235868  0.78830487  0.49985226  1
  Ti  Ti142  1  0.69324540  0.88962425  0.37237710  1
  Ti  Ti143  1  0.50355758  0.49307603  0.85095358  1
  Ti  Ti144  1  0.29348750  0.10291543  0.12480684  1
  Ti  Ti145  1  0.70478114  0.30209419  0.38344803  1
  Ti  Ti146  1  0.79905375  0.81631881  0.74418847  1
  Ti  Ti147  1  0.40541039  -0.00528587  0.74790089  1
  Ti  Ti148  1  0.80061118  0.80254546  0.48591762  1
  Ti  Ti149  1  0.60187096  0.60519531  0.24890727  1
  Ti  Ti150  1  0.70091652  0.50747949  0.37149700  1
  Ti  Ti151  1  0.49886021  0.09849805  0.61233928  1
  Ti  Ti152  1  0.50259748  0.50245868  0.36943226  1
  Ti  Ti153  1  0.69353196  0.29480701  0.87586294  1
  Ti  Ti154  1  0.19899825  0.00823819  0.49392122  1
  Ti  Ti155  1  0.40062617  -0.00174782  0.00525545  1
  Ti  Ti156  1  0.70979012  0.31169130  0.12912837  1
  Ti  Ti157  1  0.40696641  0.78951568  -0.00269891  1
  Ti  Ti158  1  0.70063839  0.30118319  0.61915525  1
  Ti  Ti159  1  0.10475586  0.29796206  0.13432443  1
  Mo  Mo160  1  0.69608546  0.69602976  0.38745022  1
  Mo  Mo161  1  0.20022827  0.60063088  -0.01318288  1
  Mo  Mo162  1  -0.00547735  0.60065727  0.73289124  1
  Mo  Mo163  1  0.79520633  0.59470615  0.26830816  1
  Mo  Mo164  1  0.59127615  0.60141637  0.73120984  1
  Mo  Mo165  1  0.29026781  0.49485796  0.60648723  1
  Mo  Mo166  1  0.00098084  0.39392225  0.73595436  1
  Mo  Mo167  1  0.30386266  0.69738067  0.89084153  1
  Mo  Mo168  1  0.51175084  0.50648007  0.14072080  1
  Mo  Mo169  1  0.20054269  0.00385989  0.23393510  1
  Mo  Mo170  1  0.60518119  0.39083385  0.76576767  1
  Mo  Mo171  1  0.90309085  0.10992073  0.13710117  1
  Mo  Mo172  1  0.19660638  0.60480400  0.76670938  1
  Mo  Mo173  1  0.70740758  0.89631796  0.86330513  1
  Mo  Mo174  1  0.89241589  0.89783841  0.60865489  1
  Mo  Mo175  1  0.89740237  0.49614935  0.36311491  1
  Mo  Mo176  1  0.89783916  0.69186179  0.13064100  1
  Mo  Mo177  1  0.50078648  0.69847504  0.13618797  1
  Mo  Mo178  1  0.40465554  0.19706125  0.51979221  1
  Mo  Mo179  1  0.79825355  0.39895867  0.26910375  1
  Mo  Mo180  1  0.29980299  0.09934554  0.36435528  1
  Mo  Mo181  1  0.19678439  0.59640495  0.48227524  1
  Mo  Mo182  1  0.69979019  0.10581116  0.38092180  1
  Mo  Mo183  1  0.79126957  0.59163973  -0.00681543  1
  Mo  Mo184  1  0.60143321  0.79876283  0.26320742  1
  Mo  Mo185  1  0.60444110  0.80017730  0.48650743  1
  Mo  Mo186  1  0.90334843  0.49380107  0.63379516  1
  Mo  Mo187  1  0.60259313  0.20395718  -0.01283104  1
  Mo  Mo188  1  0.19181764  0.38883650  -0.01213471  1
  Mo  Mo189  1  0.50320745  0.69964138  0.62350832  1
  Mo  Mo190  1  0.20533353  0.20375215  0.25612140  1
  Mo  Mo191  1  0.19671549  0.80198830  0.48704410  1
  Mo  Mo192  1  0.89532387  0.89575113  0.14440087  1
  Mo  Mo193  1  -0.00702720  0.59711255  0.51250474  1
  Mo  Mo194  1  0.30259525  0.69630753  0.38096188  1
  Mo  Mo195  1  0.80090424  -0.00798619  0.74385031  1
  Mo  Mo196  1  0.50333260  0.49415112  0.63794168  1
  Mo  Mo197  1  0.40457736  0.39614613  0.74509724  1
  Mo  Mo198  1  0.00610369  0.20945379  0.23882496  1
  Mo  Mo199  1  -0.00589659  0.39715778  0.49692879  1
