# generated using pymatgen
data_HfZrTaTiMo
_symmetry_space_group_name_H-M   'P 1'
_cell_length_a   15.93737796
_cell_length_b   15.92481172
_cell_length_c   15.20471424
_cell_angle_alpha   89.90260686
_cell_angle_beta   90.03875647
_cell_angle_gamma   90.03269554
_symmetry_Int_Tables_number   1
_chemical_formula_structural   HfZrTaTiMo
_chemical_formula_sum   'Hf40 Zr40 Ta40 Ti40 Mo40'
_cell_volume   3858.94548638
_cell_formula_units_Z   40
loop_
 _symmetry_equiv_pos_site_id
 _symmetry_equiv_pos_as_xyz
  1  'x, y, z'
loop_
 _atom_site_type_symbol
 _atom_site_label
 _atom_site_symmetry_multiplicity
 _atom_site_fract_x
 _atom_site_fract_y
 _atom_site_fract_z
 _atom_site_occupancy
  Hf  Hf0  1  0.60144905  -0.01011528  0.75990508  1
  Hf  Hf1  1  0.90655247  0.50127901  0.37601811  1
  Hf  Hf2  1  0.50417167  0.49677837  0.62050103  1
  Hf  Hf3  1  0.49527801  0.30807168  0.63084685  1
  Hf  Hf4  1  0.20742534  0.40104551  0.76565835  1
  Hf  Hf5  1  0.91988697  0.49871128  0.62313341  1
  Hf  Hf6  1  0.79853837  0.60625637  0.24193938  1
  Hf  Hf7  1  0.20607831  0.59235831  0.24687805  1
  Hf  Hf8  1  0.19117227  0.20182103  -0.00666938  1
  Hf  Hf9  1  0.80570593  0.40081555  -0.01369438  1
  Hf  Hf10  1  0.49370219  0.69696884  0.87786690  1
  Hf  Hf11  1  0.90247409  0.29603350  0.13435624  1
  Hf  Hf12  1  -0.00397431  0.19618411  -0.00694476  1
  Hf  Hf13  1  0.28676414  0.30436558  0.12834248  1
  Hf  Hf14  1  0.30098434  0.09993320  0.85587646  1
  Hf  Hf15  1  -0.00070532  0.79304604  0.50703541  1
  Hf  Hf16  1  0.90327507  0.50906796  0.86904927  1
  Hf  Hf17  1  0.89667726  0.90459307  0.88003298  1
  Hf  Hf18  1  0.49317719  0.90518506  0.38844600  1
  Hf  Hf19  1  0.90033935  0.49522469  0.12979664  1
  Hf  Hf20  1  0.59439953  0.60552110  0.26021257  1
  Hf  Hf21  1  0.00188798  0.01040840  0.49222862  1
  Hf  Hf22  1  0.60060710  0.80378157  0.50873519  1
  Hf  Hf23  1  0.38933683  0.59938050  0.75461525  1
  Hf  Hf24  1  0.39858909  0.79555650  0.23861352  1
  Hf  Hf25  1  0.49038801  0.10814994  0.63836098  1
  Hf  Hf26  1  0.40309672  0.19487684  0.23653977  1
  Hf  Hf27  1  0.29771722  0.90405028  0.86638130  1
  Hf  Hf28  1  -0.02120422  0.79979015  0.73561148  1
  Hf  Hf29  1  0.60182771  0.20050370  0.00298325  1
  Hf  Hf30  1  0.50622790  0.69899258  0.10097042  1
  Hf  Hf31  1  0.59676524  0.40541374  -0.02059530  1
  Hf  Hf32  1  0.09707958  0.31271619  0.61735893  1
  Hf  Hf33  1  0.39775838  0.19525302  0.00788446  1
  Hf  Hf34  1  0.20705493  0.60058669  0.51821999  1
  Hf  Hf35  1  0.30309859  0.89559980  0.38441451  1
  Hf  Hf36  1  0.71600530  0.09285771  0.86889647  1
  Hf  Hf37  1  0.69149230  0.50753486  0.11745371  1
  Hf  Hf38  1  0.38850368  0.20062305  0.50261205  1
  Hf  Hf39  1  0.69594830  0.09700050  0.37299962  1
  Zr  Zr40  1  0.01083923  0.19963110  0.27299908  1
  Zr  Zr41  1  0.20452341  0.78926545  0.24941470  1
  Zr  Zr42  1  0.19915249  0.00133359  0.00350874  1
  Zr  Zr43  1  0.59414536  0.00607419  -0.00283327  1
  Zr  Zr44  1  0.58801757  0.00502533  0.23694551  1
  Zr  Zr45  1  0.48732713  0.31248637  0.37029580  1
  Zr  Zr46  1  0.40027905  0.59646446  0.23440311  1
  Zr  Zr47  1  0.00469519  0.78837354  0.25154580  1
  Zr  Zr48  1  0.70669055  0.30760392  0.13037800  1
  Zr  Zr49  1  0.90737088  0.69268361  0.38070318  1
  Zr  Zr50  1  0.49438398  0.09872809  0.38035063  1
  Zr  Zr51  1  0.50213758  0.69553198  0.63205464  1
  Zr  Zr52  1  0.09454674  0.69506574  0.87383282  1
  Zr  Zr53  1  0.09521963  0.90292069  0.62788393  1
  Zr  Zr54  1  0.61254517  0.80845135  0.75394137  1
  Zr  Zr55  1  0.30956035  0.48374779  0.62422695  1
  Zr  Zr56  1  0.10267863  0.89441513  0.12018166  1
  Zr  Zr57  1  0.69683996  0.30383095  0.63680208  1
  Zr  Zr58  1  0.59710536  0.80161217  0.25357939  1
  Zr  Zr59  1  0.71409701  0.29536598  0.86426317  1
  Zr  Zr60  1  0.48519811  0.69430336  0.39373449  1
  Zr  Zr61  1  0.71014448  0.49772031  0.63820628  1
  Zr  Zr62  1  0.48726048  0.09988067  0.86325831  1
  Zr  Zr63  1  0.19436858  0.19473691  0.49201015  1
  Zr  Zr64  1  0.01026769  0.39692267  0.25705564  1
  Zr  Zr65  1  0.88574590  0.89517763  0.38032689  1
  Zr  Zr66  1  0.00305418  -0.00479303  0.26006716  1
  Zr  Zr67  1  -0.00878565  0.20735883  0.48947396  1
  Zr  Zr68  1  0.71245502  0.69923983  0.87345523  1
  Zr  Zr69  1  0.71322707  0.71037944  0.38770019  1
  Zr  Zr70  1  0.69514424  0.10330157  0.63144440  1
  Zr  Zr71  1  0.01486023  0.40174778  0.76768473  1
  Zr  Zr72  1  0.58679610  0.41607131  0.24965769  1
  Zr  Zr73  1  0.09506191  0.08876303  0.85761592  1
  Zr  Zr74  1  0.32118325  0.49722996  0.38997333  1
  Zr  Zr75  1  0.69985869  0.90626275  0.12450915  1
  Zr  Zr76  1  0.59882175  0.81989689  -0.02297270  1
  Zr  Zr77  1  0.80008653  0.19809811  0.49852954  1
  Zr  Zr78  1  0.90407505  0.70260483  0.88214664  1
  Zr  Zr79  1  0.80534509  0.39363632  0.48991175  1
  Ta  Ta80  1  0.38684588  0.00467940  0.51915227  1
  Ta  Ta81  1  0.10058369  0.10872017  0.13800565  1
  Ta  Ta82  1  0.29749346  0.69173453  0.09439682  1
  Ta  Ta83  1  0.70459602  0.91120966  0.38420968  1
  Ta  Ta84  1  0.00745963  0.39071459  -0.00402465  1
  Ta  Ta85  1  0.60231643  0.40195292  0.48794652  1
  Ta  Ta86  1  0.00066900  0.20190857  0.75020221  1
  Ta  Ta87  1  0.20234235  0.78940572  0.74750879  1
  Ta  Ta88  1  0.29882675  0.09420380  0.36193558  1
  Ta  Ta89  1  0.09771136  0.10438476  0.63411045  1
  Ta  Ta90  1  0.10458256  0.69111702  0.10850910  1
  Ta  Ta91  1  0.19812896  0.59431896  0.75066878  1
  Ta  Ta92  1  0.49343354  0.90485761  0.63075762  1
  Ta  Ta93  1  0.89793921  0.09770036  0.13881047  1
  Ta  Ta94  1  0.69652441  0.30192394  0.36197344  1
  Ta  Ta95  1  0.10366347  0.50069657  0.39420279  1
  Ta  Ta96  1  0.19560595  0.40038809  0.25635574  1
  Ta  Ta97  1  0.90130096  0.90438799  0.12758624  1
  Ta  Ta98  1  0.39513913  -0.00716366  0.23000472  1
  Ta  Ta99  1  0.49623360  0.31038552  0.11645604  1
  Ta  Ta100  1  0.80184400  -0.02311053  0.73228104  1
  Ta  Ta101  1  0.30318827  0.50658999  0.89589275  1
  Ta  Ta102  1  0.40189830  -0.00508335  0.01429917  1
  Ta  Ta103  1  -0.00189932  0.00526005  0.00905914  1
  Ta  Ta104  1  0.11054417  0.49105277  0.11303974  1
  Ta  Ta105  1  0.59839608  0.40740628  0.77270461  1
  Ta  Ta106  1  0.59630067  0.20454493  0.24060003  1
  Ta  Ta107  1  0.59662015  0.20906964  0.49404682  1
  Ta  Ta108  1  0.80456920  0.80217852  0.01562110  1
  Ta  Ta109  1  0.89916537  0.30525716  0.64021104  1
  Ta  Ta110  1  0.79929869  0.80099994  0.23506375  1
  Ta  Ta111  1  0.20298592  0.00463373  0.50391842  1
  Ta  Ta112  1  0.10979249  0.89492027  0.38665554  1
  Ta  Ta113  1  0.09262492  0.68826029  0.63397221  1
  Ta  Ta114  1  0.09238575  0.89843678  0.86367483  1
  Ta  Ta115  1  0.29663312  0.29758434  0.35936388  1
  Ta  Ta116  1  0.30019722  0.69851340  0.39406610  1
  Ta  Ta117  1  0.20110283  -0.00411090  0.25194795  1
  Ta  Ta118  1  0.60841916  0.59361135  0.49590576  1
  Ta  Ta119  1  0.70739604  0.69904988  0.62759254  1
  Ti  Ti120  1  0.41034405  0.39905927  0.77859781  1
  Ti  Ti121  1  0.90687162  0.70007548  0.12140449  1
  Ti  Ti122  1  0.20022446  0.79538600  -0.01718823  1
  Ti  Ti123  1  0.20685354  0.39284039  0.49270607  1
  Ti  Ti124  1  0.19947987  -0.00210737  0.73532585  1
  Ti  Ti125  1  0.48767407  0.50519721  0.09164732  1
  Ti  Ti126  1  0.30825955  0.29841955  0.88045929  1
  Ti  Ti127  1  0.70822138  0.10565568  0.13324336  1
  Ti  Ti128  1  0.58861398  0.21138618  0.76602793  1
  Ti  Ti129  1  0.39120210  0.41315456  0.23133459  1
  Ti  Ti130  1  0.79989049  0.20233888  0.25851982  1
  Ti  Ti131  1  0.29679984  0.89069156  0.11603985  1
  Ti  Ti132  1  0.00059678  0.80504047  0.00322492  1
  Ti  Ti133  1  0.19550626  0.21001427  0.75199669  1
  Ti  Ti134  1  0.10713698  0.69262538  0.38634381  1
  Ti  Ti135  1  0.79990046  0.60062847  0.00327858  1
  Ti  Ti136  1  0.69441167  0.70033007  0.11089133  1
  Ti  Ti137  1  0.80679302  0.00600150  0.00962103  1
  Ti  Ti138  1  0.39025200  0.79662526  0.52278370  1
  Ti  Ti139  1  0.81496081  0.61018925  0.74104064  1
  Ti  Ti140  1  0.39682128  0.80668378  -0.00997667  1
  Ti  Ti141  1  0.80802503  0.19410992  0.00088942  1
  Ti  Ti142  1  0.28955888  0.09849746  0.13428066  1
  Ti  Ti143  1  0.90432303  0.09328460  0.62975934  1
  Ti  Ti144  1  0.30230030  0.29574006  0.63417887  1
  Ti  Ti145  1  0.00049880  0.59204099  0.01126024  1
  Ti  Ti146  1  0.90248789  0.29492212  0.86436405  1
  Ti  Ti147  1  0.59722580  0.00507173  0.51253493  1
  Ti  Ti148  1  0.88234431  0.08879827  0.36734734  1
  Ti  Ti149  1  0.39444663  0.79983958  0.75074636  1
  Ti  Ti150  1  0.19940666  0.39571118  -0.00743124  1
  Ti  Ti151  1  0.10388398  0.50511914  0.89000334  1
  Ti  Ti152  1  0.90194072  0.09050900  0.86099873  1
  Ti  Ti153  1  0.01604844  0.59627972  0.24330522  1
  Ti  Ti154  1  0.60433236  0.59334949  0.76446521  1
  Ti  Ti155  1  0.20079430  0.79727985  0.51630225  1
  Ti  Ti156  1  0.80964819  0.19407720  0.74302998  1
  Ti  Ti157  1  0.80507376  0.60080909  0.50795848  1
  Ti  Ti158  1  0.29794169  0.90014691  0.63146209  1
  Ti  Ti159  1  0.70561036  0.50065400  0.37157060  1
  Mo  Mo160  1  0.60360627  0.59914059  -0.01596510  1
  Mo  Mo161  1  0.49802696  0.50459238  0.87817239  1
  Mo  Mo162  1  0.79866773  0.40247480  0.26096907  1
  Mo  Mo163  1  0.11236207  0.09291266  0.36830609  1
  Mo  Mo164  1  0.79697340  0.00212935  0.51253925  1
  Mo  Mo165  1  0.00946433  0.59557839  0.50872149  1
  Mo  Mo166  1  0.29486907  0.70547767  0.63035612  1
  Mo  Mo167  1  0.19547082  0.59587937  -0.00334582  1
  Mo  Mo168  1  0.00857014  0.59757204  0.74294057  1
  Mo  Mo169  1  0.89534573  0.69313826  0.61596934  1
  Mo  Mo170  1  0.38881997  0.21360675  0.74917156  1
  Mo  Mo171  1  0.40434143  0.60348769  0.51915884  1
  Mo  Mo172  1  0.39542166  0.39770605  -0.00141851  1
  Mo  Mo173  1  0.29450451  0.70314260  0.87702455  1
  Mo  Mo174  1  0.79655722  0.00207414  0.24222511  1
  Mo  Mo175  1  0.89287436  0.90289822  0.60584141  1
  Mo  Mo176  1  0.48879355  0.89629251  0.12111903  1
  Mo  Mo177  1  0.28789589  0.10352578  0.63835587  1
  Mo  Mo178  1  0.10723021  0.30717430  0.38904573  1
  Mo  Mo179  1  0.79835535  0.80151665  0.51663702  1
  Mo  Mo180  1  0.69589004  0.90272920  0.60692513  1
  Mo  Mo181  1  0.49698038  0.10436675  0.12280270  1
  Mo  Mo182  1  0.29603765  0.49616527  0.10934110  1
  Mo  Mo183  1  0.10349730  0.29715011  0.87988983  1
  Mo  Mo184  1  0.10036060  0.30058743  0.11314661  1
  Mo  Mo185  1  0.50409999  0.50408715  0.39381973  1
  Mo  Mo186  1  -0.00733134  0.00135727  0.73875728  1
  Mo  Mo187  1  0.19918548  0.19991552  0.25647122  1
  Mo  Mo188  1  0.39846244  0.38996414  0.50107639  1
  Mo  Mo189  1  0.89201481  0.30071688  0.35911251  1
  Mo  Mo190  1  0.39738993  0.60247679  -0.00676368  1
  Mo  Mo191  1  0.72437581  0.90635938  0.88830015  1
  Mo  Mo192  1  0.79848428  0.80066176  0.73230258  1
  Mo  Mo193  1  0.70906071  0.50805767  0.86499434  1
  Mo  Mo194  1  0.00472880  0.39596761  0.48830590  1
  Mo  Mo195  1  0.47643816  0.90292780  0.85533645  1
  Mo  Mo196  1  0.49512626  0.29933897  0.88213022  1
  Mo  Mo197  1  0.10754747  0.49591324  0.61400858  1
  Mo  Mo198  1  0.39113473  -0.00326264  0.73133821  1
  Mo  Mo199  1  0.80692451  0.40176070  0.75871112  1
