# generated using pymatgen
data_HfZrTaTiMo
_symmetry_space_group_name_H-M   'P 1'
_cell_length_a   15.93132048
_cell_length_b   15.92526092
_cell_length_c   15.20778901
_cell_angle_alpha   90.01366473
_cell_angle_beta   90.01626785
_cell_angle_gamma   89.99227111
_symmetry_Int_Tables_number   1
_chemical_formula_structural   HfZrTaTiMo
_chemical_formula_sum   'Hf40 Zr40 Ta40 Ti40 Mo40'
_cell_volume   3858.37447143
_cell_formula_units_Z   40
loop_
 _symmetry_equiv_pos_site_id
 _symmetry_equiv_pos_as_xyz
  1  'x, y, z'
loop_
 _atom_site_type_symbol
 _atom_site_label
 _atom_site_symmetry_multiplicity
 _atom_site_fract_x
 _atom_site_fract_y
 _atom_site_fract_z
 _atom_site_occupancy
  Hf  Hf0  1  0.79182992  -0.01117015  0.49095768  1
  Hf  Hf1  1  0.11352070  0.09424737  0.13027334  1
  Hf  Hf2  1  0.09747712  0.49880436  0.13425688  1
  Hf  Hf3  1  0.80673049  0.40923410  0.47757397  1
  Hf  Hf4  1  0.49835407  0.49791244  0.61426518  1
  Hf  Hf5  1  0.89981297  0.08821278  0.13699163  1
  Hf  Hf6  1  0.80827364  -0.01139444  -0.00382768  1
  Hf  Hf7  1  0.70668986  0.90026238  0.13206998  1
  Hf  Hf8  1  0.18921366  0.80775852  0.76578901  1
  Hf  Hf9  1  0.39917330  0.80154069  0.52748489  1
  Hf  Hf10  1  0.09751704  0.90197467  0.11765382  1
  Hf  Hf11  1  0.00088773  0.39337934  0.26115455  1
  Hf  Hf12  1  0.30469633  0.30206463  0.87349706  1
  Hf  Hf13  1  0.29568969  0.70350068  0.87103899  1
  Hf  Hf14  1  0.22047707  0.21286057  0.50478009  1
  Hf  Hf15  1  0.20202125  0.79159949  0.23486667  1
  Hf  Hf16  1  0.20680875  -0.00616493  -0.02000368  1
  Hf  Hf17  1  0.00504262  0.41148571  0.49309266  1
  Hf  Hf18  1  0.10647519  0.51707015  0.35604216  1
  Hf  Hf19  1  0.19903599  0.60976480  0.00355099  1
  Hf  Hf20  1  0.59932142  0.40342431  0.47870747  1
  Hf  Hf21  1  0.48543679  0.70976042  0.37493044  1
  Hf  Hf22  1  0.60494959  0.81437356  0.49184395  1
  Hf  Hf23  1  0.80010135  0.39064091  0.74797350  1
  Hf  Hf24  1  0.00312018  -0.00322766  0.26602625  1
  Hf  Hf25  1  0.60444264  0.19891657  0.74563679  1
  Hf  Hf26  1  0.38026937  0.39525825  0.49700787  1
  Hf  Hf27  1  0.40440093  0.61537805  0.74454425  1
  Hf  Hf28  1  0.59716446  0.80181862  0.25160203  1
  Hf  Hf29  1  0.70074308  0.49819849  0.88343215  1
  Hf  Hf30  1  0.59630925  0.59889750  0.24689168  1
  Hf  Hf31  1  0.70686432  0.70261536  0.61865555  1
  Hf  Hf32  1  0.59249695  0.40084530  0.25936853  1
  Hf  Hf33  1  0.80695208  0.19447301  0.73540149  1
  Hf  Hf34  1  0.11504127  0.89121390  0.37813645  1
  Hf  Hf35  1  0.39718284  0.41338973  -0.00013777  1
  Hf  Hf36  1  0.20572698  0.79673362  0.52307981  1
  Hf  Hf37  1  0.60270411  0.60701671  0.48320946  1
  Hf  Hf38  1  0.70250778  0.09105182  0.86696166  1
  Hf  Hf39  1  0.40182609  -0.00327236  0.51555357  1
  Zr  Zr40  1  0.70305271  0.29440346  0.60072670  1
  Zr  Zr41  1  0.89925504  0.68987720  0.86446781  1
  Zr  Zr42  1  0.50598679  0.09980597  0.39219292  1
  Zr  Zr43  1  0.28689551  0.69872735  0.37038199  1
  Zr  Zr44  1  0.59837065  0.39188438  0.74940880  1
  Zr  Zr45  1  0.00204528  0.19674105  0.73830592  1
  Zr  Zr46  1  0.39853630  0.39621059  0.25021944  1
  Zr  Zr47  1  0.40469618  0.40721266  0.75948437  1
  Zr  Zr48  1  0.31680681  0.08943856  0.86017377  1
  Zr  Zr49  1  0.37782650  0.81207898  0.00206919  1
  Zr  Zr50  1  0.90632236  0.29296581  0.13696632  1
  Zr  Zr51  1  0.90424507  0.29923896  0.87871514  1
  Zr  Zr52  1  0.61263526  0.19385172  0.00449619  1
  Zr  Zr53  1  0.09325066  0.51311871  0.86232193  1
  Zr  Zr54  1  0.11094541  0.10032843  0.38261619  1
  Zr  Zr55  1  0.29726414  0.29643194  0.11362318  1
  Zr  Zr56  1  0.59689242  0.59807992  0.75146920  1
  Zr  Zr57  1  0.92359754  0.07855830  0.87413443  1
  Zr  Zr58  1  -0.00008982  -0.00054223  0.50182076  1
  Zr  Zr59  1  0.48900732  0.91245087  0.87126354  1
  Zr  Zr60  1  0.60569987  0.00504721  0.24675426  1
  Zr  Zr61  1  0.80215778  0.79389676  -0.00083202  1
  Zr  Zr62  1  0.39403427  0.60713925  0.22976721  1
  Zr  Zr63  1  0.58448553  0.78954982  0.74669916  1
  Zr  Zr64  1  0.38499342  0.60466312  0.51431806  1
  Zr  Zr65  1  0.10630907  0.10202413  0.62083577  1
  Zr  Zr66  1  0.90969899  0.87230950  0.38372183  1
  Zr  Zr67  1  0.00892214  0.19222703  0.00348856  1
  Zr  Zr68  1  0.20745501  0.20634997  0.25341680  1
  Zr  Zr69  1  0.18705140  0.59964852  0.51867498  1
  Zr  Zr70  1  0.70856078  0.50647382  0.61995500  1
  Zr  Zr71  1  0.59995673  0.19894926  0.24822472  1
  Zr  Zr72  1  0.80284924  0.39669470  0.00806358  1
  Zr  Zr73  1  0.81253093  -0.00414671  0.73597863  1
  Zr  Zr74  1  0.70629498  0.29669551  0.13274543  1
  Zr  Zr75  1  0.89702070  0.88049736  0.61220840  1
  Zr  Zr76  1  0.31492107  0.10335422  0.37585019  1
  Zr  Zr77  1  0.89341292  0.69610842  0.62140923  1
  Zr  Zr78  1  -0.00814305  0.60340918  0.00838179  1
  Zr  Zr79  1  0.90368521  0.50651168  0.63654330  1
  Ta  Ta80  1  0.49940149  0.10062963  0.11079310  1
  Ta  Ta81  1  0.07448969  0.91692181  0.87737481  1
  Ta  Ta82  1  0.41398829  0.20608224  0.74666718  1
  Ta  Ta83  1  0.80434016  0.18615524  0.00270214  1
  Ta  Ta84  1  0.50244231  0.30414458  0.10849603  1
  Ta  Ta85  1  0.80043839  0.78600399  0.25924283  1
  Ta  Ta86  1  0.89579763  0.49890416  0.14109531  1
  Ta  Ta87  1  0.20026297  0.40902766  0.49731942  1
  Ta  Ta88  1  0.30188088  0.90989882  0.65832449  1
  Ta  Ta89  1  0.40539324  0.00334828  0.23882177  1
  Ta  Ta90  1  0.20042144  0.20633298  0.75599712  1
  Ta  Ta91  1  0.29106300  0.91276157  0.13207511  1
  Ta  Ta92  1  0.50630199  0.09702901  0.87591901  1
  Ta  Ta93  1  0.89588027  0.49966814  0.86716014  1
  Ta  Ta94  1  0.10031239  0.30344764  0.87584647  1
  Ta  Ta95  1  0.79682119  0.40117473  0.26634937  1
  Ta  Ta96  1  0.10658092  0.31183479  0.62128514  1
  Ta  Ta97  1  0.08876181  0.69450198  0.64968472  1
  Ta  Ta98  1  0.10388690  0.30030044  0.38904360  1
  Ta  Ta99  1  0.39570880  0.60075919  0.00481793  1
  Ta  Ta100  1  0.79755187  0.59662251  0.01788522  1
  Ta  Ta101  1  0.59651027  0.59593643  0.01359973  1
  Ta  Ta102  1  0.69136049  0.89886658  0.86624077  1
  Ta  Ta103  1  0.21446818  -0.00778231  0.51080715  1
  Ta  Ta104  1  0.30845452  0.90061459  0.36462404  1
  Ta  Ta105  1  0.69333240  0.69384045  0.88580285  1
  Ta  Ta106  1  0.49874900  0.70832724  0.11129945  1
  Ta  Ta107  1  0.90052474  0.28658365  0.37764429  1
  Ta  Ta108  1  0.79490436  0.59866954  0.25126626  1
  Ta  Ta109  1  0.19805811  0.40860636  -0.01217617  1
  Ta  Ta110  1  0.20183538  0.19588106  -0.01730661  1
  Ta  Ta111  1  0.50665853  0.29711172  0.89091712  1
  Ta  Ta112  1  0.40008357  0.80771145  0.23198749  1
  Ta  Ta113  1  0.28913136  0.50158645  0.13104287  1
  Ta  Ta114  1  0.30729993  0.10433374  0.63885363  1
  Ta  Ta115  1  0.90467342  0.88788518  0.14153023  1
  Ta  Ta116  1  -0.00302684  0.60292934  0.49277966  1
  Ta  Ta117  1  0.48670286  0.28606964  0.38976010  1
  Ta  Ta118  1  0.28467867  0.49980125  0.64635212  1
  Ta  Ta119  1  0.79097407  0.79661824  0.76347855  1
  Ti  Ti120  1  0.29277100  0.50693664  0.36020302  1
  Ti  Ti121  1  0.30440891  0.09696648  0.12085149  1
  Ti  Ti122  1  0.09580476  0.89874803  0.62974999  1
  Ti  Ti123  1  0.10676230  0.30203208  0.11504296  1
  Ti  Ti124  1  0.19620433  0.40346779  0.76035081  1
  Ti  Ti125  1  0.80072250  -0.00537906  0.27034656  1
  Ti  Ti126  1  -0.00826457  0.80831873  0.75897425  1
  Ti  Ti127  1  0.50911947  0.10101550  0.62096432  1
  Ti  Ti128  1  0.60099117  0.80408400  0.00029101  1
  Ti  Ti129  1  0.49642900  0.90681107  0.11376392  1
  Ti  Ti130  1  0.20196717  0.39324666  0.25931515  1
  Ti  Ti131  1  0.69777762  0.69973333  0.12271870  1
  Ti  Ti132  1  -0.00589302  0.80438862  -0.00655613  1
  Ti  Ti133  1  0.49632847  0.90848654  0.37456435  1
  Ti  Ti134  1  0.90372984  0.29773798  0.60698123  1
  Ti  Ti135  1  0.70052312  0.28601198  0.38005880  1
  Ti  Ti136  1  0.69493944  0.90017397  0.63488866  1
  Ti  Ti137  1  0.48344251  0.50543910  0.37849254  1
  Ti  Ti138  1  0.69751445  0.10051687  0.39306507  1
  Ti  Ti139  1  0.69417334  0.49296071  0.12696054  1
  Ti  Ti140  1  -0.01334246  0.61548952  0.24873985  1
  Ti  Ti141  1  0.60706667  -0.00087252  0.00640976  1
  Ti  Ti142  1  0.50599421  0.90814920  0.63868436  1
  Ti  Ti143  1  0.40654453  0.20187863  0.23921842  1
  Ti  Ti144  1  0.79899404  0.18390049  0.26278237  1
  Ti  Ti145  1  0.69652902  0.09472068  0.61014230  1
  Ti  Ti146  1  0.18627236  0.00713932  0.75772769  1
  Ti  Ti147  1  0.08997889  0.70697311  0.12182000  1
  Ti  Ti148  1  0.50001697  0.29549078  0.60752409  1
  Ti  Ti149  1  -0.00244405  0.19865079  0.50003443  1
  Ti  Ti150  1  0.30111827  0.30551670  0.64283056  1
  Ti  Ti151  1  0.80157658  0.60312375  0.46413008  1
  Ti  Ti152  1  0.50318359  0.50531945  0.88664631  1
  Ti  Ti153  1  0.70203171  0.29693395  0.88415511  1
  Ti  Ti154  1  0.40061558  0.19382964  -0.00503411  1
  Ti  Ti155  1  0.00586494  0.19627415  0.26064377  1
  Ti  Ti156  1  0.00340049  0.39751443  0.74241471  1
  Ti  Ti157  1  0.00147183  0.40423371  0.00319928  1
  Ti  Ti158  1  0.08873980  0.70805848  0.37094507  1
  Ti  Ti159  1  0.49861837  0.70232224  0.89389530  1
  Mo  Mo160  1  0.89640414  0.10287186  0.60270046  1
  Mo  Mo161  1  0.19296362  0.60418177  0.23162628  1
  Mo  Mo162  1  0.69683763  0.50067350  0.36174771  1
  Mo  Mo163  1  0.29494819  0.70713755  0.11154765  1
  Mo  Mo164  1  0.90479376  0.50197525  0.35736951  1
  Mo  Mo165  1  0.50323652  0.70299138  0.61181448  1
  Mo  Mo166  1  -0.00274680  0.60055537  0.75088649  1
  Mo  Mo167  1  0.29351431  0.70458232  0.64947670  1
  Mo  Mo168  1  0.29756916  0.50593699  0.86837965  1
  Mo  Mo169  1  0.59775909  0.40100189  0.00148127  1
  Mo  Mo170  1  0.21063739  -0.00265292  0.25697978  1
  Mo  Mo171  1  0.60153211  0.19924232  0.50285715  1
  Mo  Mo172  1  0.29780852  0.90553669  0.85702796  1
  Mo  Mo173  1  0.10524028  0.10318727  0.86794556  1
  Mo  Mo174  1  -0.00179582  -0.00732344  0.01504150  1
  Mo  Mo175  1  0.69896925  0.90132200  0.36034458  1
  Mo  Mo176  1  0.80665109  0.19248841  0.49444738  1
  Mo  Mo177  1  0.89571292  0.69955381  0.13291725  1
  Mo  Mo178  1  0.40006900  0.20196809  0.52543073  1
  Mo  Mo179  1  0.00146653  0.79393250  0.24019421  1
  Mo  Mo180  1  0.09272455  0.71192933  0.87507985  1
  Mo  Mo181  1  0.40106498  0.00545834  0.01455228  1
  Mo  Mo182  1  0.30265852  0.30450342  0.37201461  1
  Mo  Mo183  1  0.78754200  0.78916829  0.47849802  1
  Mo  Mo184  1  0.39767408  0.80501697  0.74772746  1
  Mo  Mo185  1  0.60653849  0.00168335  0.73702985  1
  Mo  Mo186  1  0.19886330  0.60334683  0.75098113  1
  Mo  Mo187  1  0.69861739  0.70168771  0.36730973  1
  Mo  Mo188  1  0.00514378  -0.00837894  0.72865598  1
  Mo  Mo189  1  0.90509987  0.69384409  0.37733919  1
  Mo  Mo190  1  0.89581412  0.89299715  0.86693473  1
  Mo  Mo191  1  0.49874658  0.50147528  0.11560245  1
  Mo  Mo192  1  0.18319528  0.80281072  -0.01303065  1
  Mo  Mo193  1  0.79225758  0.59963887  0.76237658  1
  Mo  Mo194  1  0.60173379  -0.00333386  0.51097454  1
  Mo  Mo195  1  0.89682962  0.10273545  0.37529048  1
  Mo  Mo196  1  0.02108380  0.78286731  0.51043039  1
  Mo  Mo197  1  0.71183344  0.09245766  0.12423966  1
  Mo  Mo198  1  0.41641058  0.01074913  0.73548697  1
  Mo  Mo199  1  0.09908760  0.49598211  0.63755347  1
