# generated using pymatgen
data_HfZrTaTiMo
_symmetry_space_group_name_H-M   'P 1'
_cell_length_a   15.91537839
_cell_length_b   15.93530741
_cell_length_c   15.19544359
_cell_angle_alpha   89.94414865
_cell_angle_beta   90.04703759
_cell_angle_gamma   89.94656282
_symmetry_Int_Tables_number   1
_chemical_formula_structural   HfZrTaTiMo
_chemical_formula_sum   'Hf40 Zr40 Ta40 Ti40 Mo40'
_cell_volume   3853.80960927
_cell_formula_units_Z   40
loop_
 _symmetry_equiv_pos_site_id
 _symmetry_equiv_pos_as_xyz
  1  'x, y, z'
loop_
 _atom_site_type_symbol
 _atom_site_label
 _atom_site_symmetry_multiplicity
 _atom_site_fract_x
 _atom_site_fract_y
 _atom_site_fract_z
 _atom_site_occupancy
  Hf  Hf0  1  0.29718523  0.69887055  0.62465899  1
  Hf  Hf1  1  0.01582073  0.39214077  0.00094689  1
  Hf  Hf2  1  0.19722325  0.22592646  -0.01704660  1
  Hf  Hf3  1  0.91080010  0.71758687  0.12412524  1
  Hf  Hf4  1  0.50287191  0.70851919  0.62968195  1
  Hf  Hf5  1  0.20524236  0.39670328  0.48920497  1
  Hf  Hf6  1  0.60049050  0.60072425  0.00198251  1
  Hf  Hf7  1  0.29542155  0.49414132  0.62873213  1
  Hf  Hf8  1  0.09629017  0.69948128  0.61454028  1
  Hf  Hf9  1  0.10057794  0.70166699  0.88216160  1
  Hf  Hf10  1  0.80372874  0.39912562  0.00328750  1
  Hf  Hf11  1  0.50273133  0.50104419  0.36846125  1
  Hf  Hf12  1  0.28524473  0.10402000  0.11761685  1
  Hf  Hf13  1  0.00731627  0.17643171  0.25511913  1
  Hf  Hf14  1  0.40192599  0.80320726  0.49397104  1
  Hf  Hf15  1  0.39011322  0.00678090  0.50295556  1
  Hf  Hf16  1  0.40235325  0.00274685  0.24604381  1
  Hf  Hf17  1  0.39053397  0.81275527  0.01685758  1
  Hf  Hf18  1  0.30864179  0.48812605  0.35524825  1
  Hf  Hf19  1  0.59814675  0.40203524  0.23193588  1
  Hf  Hf20  1  0.41250051  -0.01719040  0.75142383  1
  Hf  Hf21  1  -0.00012881  0.60282249  0.74813216  1
  Hf  Hf22  1  0.19558352  -0.00594519  0.49814658  1
  Hf  Hf23  1  0.59261365  0.20835313  0.52328676  1
  Hf  Hf24  1  0.21578114  0.19115668  0.49190304  1
  Hf  Hf25  1  0.50692197  0.89688781  0.36827773  1
  Hf  Hf26  1  0.20255163  -0.01920684  -0.01160080  1
  Hf  Hf27  1  0.29483761  0.89484871  0.36307531  1
  Hf  Hf28  1  0.00252331  0.20007661  0.00293286  1
  Hf  Hf29  1  0.79842344  0.60347056  -0.01028726  1
  Hf  Hf30  1  0.40093648  0.59931673  0.76170861  1
  Hf  Hf31  1  0.90772077  0.29454334  0.13856820  1
  Hf  Hf32  1  0.50301564  0.10138634  0.37273894  1
  Hf  Hf33  1  0.80141733  0.20843062  0.74096897  1
  Hf  Hf34  1  0.30810810  0.09506704  0.87617939  1
  Hf  Hf35  1  0.28642875  0.90780668  0.14342946  1
  Hf  Hf36  1  0.39454155  0.59907159  0.00453882  1
  Hf  Hf37  1  0.09872376  0.29859711  0.37560337  1
  Hf  Hf38  1  0.08352360  0.90007917  0.13577348  1
  Hf  Hf39  1  0.78503295  0.79626029  0.76677077  1
  Zr  Zr40  1  0.79093113  0.20933274  0.50729645  1
  Zr  Zr41  1  0.59151047  0.81955846  0.76034345  1
  Zr  Zr42  1  0.50463844  0.50637905  0.63105506  1
  Zr  Zr43  1  0.09619196  0.09300741  0.87696152  1
  Zr  Zr44  1  0.18452207  0.78372686  0.24997818  1
  Zr  Zr45  1  0.00734302  0.61410285  0.25537160  1
  Zr  Zr46  1  0.50609315  0.30135249  0.36430944  1
  Zr  Zr47  1  0.50893290  0.09781155  0.88474267  1
  Zr  Zr48  1  0.77830194  0.61275304  0.49263338  1
  Zr  Zr49  1  0.89851693  0.50385315  0.13300033  1
  Zr  Zr50  1  0.88956447  0.51007478  0.63040713  1
  Zr  Zr51  1  0.70313600  0.29669079  0.87596996  1
  Zr  Zr52  1  0.69248967  0.50286713  0.36606345  1
  Zr  Zr53  1  0.39419635  0.21442433  -0.00044022  1
  Zr  Zr54  1  0.70739224  0.71374880  0.12054457  1
  Zr  Zr55  1  0.89833275  0.09756739  0.87490464  1
  Zr  Zr56  1  0.70230646  0.29446401  0.12767943  1
  Zr  Zr57  1  0.00423101  0.39687365  0.73824402  1
  Zr  Zr58  1  0.01102270  0.59293957  0.00895429  1
  Zr  Zr59  1  0.20144709  -0.00106380  0.74207646  1
  Zr  Zr60  1  0.39544790  0.20867472  0.24352340  1
  Zr  Zr61  1  0.51327637  0.69501333  0.36765102  1
  Zr  Zr62  1  -0.00649439  0.80674600  0.49166296  1
  Zr  Zr63  1  0.89378833  0.29980083  0.37155117  1
  Zr  Zr64  1  0.60390120  0.39588657  0.74681582  1
  Zr  Zr65  1  0.50262696  0.09630482  0.10842678  1
  Zr  Zr66  1  0.90095532  0.09552563  0.61697004  1
  Zr  Zr67  1  0.49770007  0.71360420  0.88469712  1
  Zr  Zr68  1  0.59512833  -0.00933019  0.51617497  1
  Zr  Zr69  1  0.29341532  0.70763889  0.87717740  1
  Zr  Zr70  1  0.19412322  0.59208895  0.75298870  1
  Zr  Zr71  1  0.01324219  0.41424619  0.25593277  1
  Zr  Zr72  1  0.90326575  0.70507083  0.87828792  1
  Zr  Zr73  1  0.62249789  0.61390267  0.76104143  1
  Zr  Zr74  1  0.69448488  0.09940451  0.37450995  1
  Zr  Zr75  1  0.40558584  0.38318668  0.50882591  1
  Zr  Zr76  1  0.61223152  0.40126029  0.51546321  1
  Zr  Zr77  1  0.80954344  0.81578606  0.26137053  1
  Zr  Zr78  1  0.00609546  0.20449845  0.74247021  1
  Zr  Zr79  1  0.39880099  0.59824504  0.49599151  1
  Ta  Ta80  1  0.80257322  0.18562095  0.24508388  1
  Ta  Ta81  1  -0.01309530  -0.01341178  0.27067364  1
  Ta  Ta82  1  0.20280877  0.19469958  0.26577592  1
  Ta  Ta83  1  -0.00402435  0.40329126  0.50302915  1
  Ta  Ta84  1  0.40284240  0.19836144  0.74399306  1
  Ta  Ta85  1  0.00183368  -0.00875949  0.73423583  1
  Ta  Ta86  1  0.79762889  0.40209042  0.51481433  1
  Ta  Ta87  1  0.19269277  0.80549118  0.74287794  1
  Ta  Ta88  1  -0.00025474  0.80581068  0.74096311  1
  Ta  Ta89  1  0.60609464  -0.00250772  0.75322462  1
  Ta  Ta90  1  0.79402932  -0.00810406  0.75407642  1
  Ta  Ta91  1  0.19786464  0.59828334  0.48157004  1
  Ta  Ta92  1  0.79877151  0.61199061  0.25945541  1
  Ta  Ta93  1  0.70055379  0.09370329  0.63323688  1
  Ta  Ta94  1  0.40527712  0.79200590  0.23434566  1
  Ta  Ta95  1  0.59541080  0.40292164  0.00024076  1
  Ta  Ta96  1  0.19298652  0.58917007  0.25650935  1
  Ta  Ta97  1  0.89884153  0.49484658  0.86577837  1
  Ta  Ta98  1  0.20348231  0.20176267  0.74903187  1
  Ta  Ta99  1  0.89745442  0.09545150  0.38785622  1
  Ta  Ta100  1  0.50029679  0.49440315  0.87919572  1
  Ta  Ta101  1  0.90525894  0.90633926  0.87496543  1
  Ta  Ta102  1  0.11229089  0.29425317  0.14046436  1
  Ta  Ta103  1  0.19948873  0.39021144  0.76271894  1
  Ta  Ta104  1  0.59895530  0.19511440  0.74501377  1
  Ta  Ta105  1  0.10304762  0.10184815  0.61621081  1
  Ta  Ta106  1  -0.00822744  0.60219180  0.49242838  1
  Ta  Ta107  1  0.39773592  0.19568312  0.51106526  1
  Ta  Ta108  1  0.89535306  0.50285895  0.37895071  1
  Ta  Ta109  1  0.90445087  0.08372340  0.11861117  1
  Ta  Ta110  1  0.71145983  0.08967389  0.11292708  1
  Ta  Ta111  1  0.79501832  -0.00839069  0.50097092  1
  Ta  Ta112  1  0.89192342  0.89572389  0.62428841  1
  Ta  Ta113  1  0.61437541  0.78651885  0.50250092  1
  Ta  Ta114  1  0.59830839  0.60697527  0.22499593  1
  Ta  Ta115  1  0.60804922  -0.00924385  0.22894675  1
  Ta  Ta116  1  0.30312572  0.89249047  0.62813907  1
  Ta  Ta117  1  0.80653079  0.19735542  0.00478805  1
  Ta  Ta118  1  0.88568598  0.70626120  0.63028821  1
  Ta  Ta119  1  0.38324665  0.40517909  -0.00562327  1
  Ti  Ti120  1  0.19430392  0.79506209  0.01210441  1
  Ti  Ti121  1  0.10217964  0.49993249  0.61094739  1
  Ti  Ti122  1  0.00126864  0.20242419  0.50273429  1
  Ti  Ti123  1  0.89231560  0.90954718  0.11001427  1
  Ti  Ti124  1  0.79618078  0.79807468  0.48771555  1
  Ti  Ti125  1  0.70244850  0.09576768  0.88188139  1
  Ti  Ti126  1  0.79305656  0.81493029  -0.01095425  1
  Ti  Ti127  1  0.17816842  0.01438883  0.27355975  1
  Ti  Ti128  1  0.59860836  0.80536932  0.22941108  1
  Ti  Ti129  1  0.19733367  0.80255140  0.49639837  1
  Ti  Ti130  1  0.70267209  0.89066354  0.62306275  1
  Ti  Ti131  1  0.00416896  -0.00481119  0.49585538  1
  Ti  Ti132  1  0.49134866  0.49652376  0.11783990  1
  Ti  Ti133  1  0.70537028  0.50317663  0.12598787  1
  Ti  Ti134  1  0.60408455  0.19042792  0.23558881  1
  Ti  Ti135  1  0.59645859  0.81621378  0.01014601  1
  Ti  Ti136  1  0.28742307  0.32337852  0.13735560  1
  Ti  Ti137  1  0.09643743  0.70213174  0.38459744  1
  Ti  Ti138  1  0.69866462  0.29804815  0.36255376  1
  Ti  Ti139  1  0.10389162  0.49178786  0.87802013  1
  Ti  Ti140  1  0.40241755  0.60186828  0.23345321  1
  Ti  Ti141  1  0.30075698  0.29524072  0.63608842  1
  Ti  Ti142  1  0.30305896  0.69504380  0.36504805  1
  Ti  Ti143  1  0.60701548  0.20320142  0.00099885  1
  Ti  Ti144  1  0.10703154  0.30007796  0.61492546  1
  Ti  Ti145  1  0.69355888  0.89764648  0.37396815  1
  Ti  Ti146  1  0.39805894  0.39483534  0.75882954  1
  Ti  Ti147  1  0.70781523  0.49486989  0.86803305  1
  Ti  Ti148  1  0.49769300  0.30465673  0.11573247  1
  Ti  Ti149  1  0.09638285  0.89484029  0.86951410  1
  Ti  Ti150  1  0.20743267  0.58341172  0.00110330  1
  Ti  Ti151  1  0.12816727  0.48530395  0.12504803  1
  Ti  Ti152  1  0.28739726  0.68842557  0.12921754  1
  Ti  Ti153  1  0.09964608  0.09110837  0.11684127  1
  Ti  Ti154  1  0.79977692  0.00052979  0.25733574  1
  Ti  Ti155  1  0.90194536  0.30608767  0.87309334  1
  Ti  Ti156  1  0.49756405  0.09501117  0.63337503  1
  Ti  Ti157  1  0.79926249  0.40274580  0.25119264  1
  Ti  Ti158  1  0.49971875  0.30076401  0.87599470  1
  Ti  Ti159  1  0.00511466  0.80925440  -0.00240058  1
  Mo  Mo160  1  -0.00414497  0.80383419  0.26543648  1
  Mo  Mo161  1  0.70667421  0.50614553  0.63883445  1
  Mo  Mo162  1  0.30194173  0.10008566  0.63883629  1
  Mo  Mo163  1  0.69670835  0.70963443  0.90129800  1
  Mo  Mo164  1  0.80278420  0.00071314  -0.01322140  1
  Mo  Mo165  1  0.10512177  0.69609900  0.11095101  1
  Mo  Mo166  1  0.39652610  -0.00456759  0.00043302  1
  Mo  Mo167  1  0.90422782  0.30433010  0.61153801  1
  Mo  Mo168  1  0.50015278  0.90072401  0.12311239  1
  Mo  Mo169  1  0.40412966  0.40300940  0.22603864  1
  Mo  Mo170  1  0.20587094  0.40421276  -0.01355628  1
  Mo  Mo171  1  0.50043112  0.89641450  0.61442825  1
  Mo  Mo172  1  0.09130769  0.09842629  0.39395704  1
  Mo  Mo173  1  0.89066837  0.90698603  0.39394324  1
  Mo  Mo174  1  0.09758244  0.89864534  0.62247758  1
  Mo  Mo175  1  0.60605066  -0.00244390  0.00507006  1
  Mo  Mo176  1  0.09771922  0.30112761  0.86572013  1
  Mo  Mo177  1  0.49526645  0.29463368  0.64039661  1
  Mo  Mo178  1  0.20258120  0.39283403  0.26605478  1
  Mo  Mo179  1  0.70265460  0.30123426  0.63989334  1
  Mo  Mo180  1  0.49774969  0.70109192  0.12258986  1
  Mo  Mo181  1  0.60374507  0.60537830  0.51338695  1
  Mo  Mo182  1  0.80242600  0.40263315  0.74190965  1
  Mo  Mo183  1  0.09592525  0.89797100  0.36786886  1
  Mo  Mo184  1  0.80017590  0.60308740  0.76729075  1
  Mo  Mo185  1  0.89670075  0.70046286  0.37576931  1
  Mo  Mo186  1  0.09775516  0.50353732  0.38920326  1
  Mo  Mo187  1  0.30701870  0.30001483  0.85758010  1
  Mo  Mo188  1  0.70604486  0.70664581  0.62779637  1
  Mo  Mo189  1  0.30064504  0.09811642  0.36675395  1
  Mo  Mo190  1  0.69672829  0.91107895  0.89084302  1
  Mo  Mo191  1  0.49639812  0.91086483  0.90242703  1
  Mo  Mo192  1  0.70704661  0.90721386  0.11803103  1
  Mo  Mo193  1  0.69205021  0.70934847  0.35258932  1
  Mo  Mo194  1  0.30710852  0.29605237  0.36429419  1
  Mo  Mo195  1  0.30022005  0.89138429  0.86222968  1
  Mo  Mo196  1  0.30297232  0.49567647  0.86734289  1
  Mo  Mo197  1  0.00209727  -0.00752042  -0.00125087  1
  Mo  Mo198  1  0.29979048  0.50188600  0.13722345  1
  Mo  Mo199  1  0.39236806  0.80471173  0.74996469  1
