# generated using pymatgen
data_HfZrTaTiMo
_symmetry_space_group_name_H-M   'P 1'
_cell_length_a   15.92234169
_cell_length_b   15.94150739
_cell_length_c   15.21473670
_cell_angle_alpha   89.99755126
_cell_angle_beta   89.97341737
_cell_angle_gamma   89.98785030
_symmetry_Int_Tables_number   1
_chemical_formula_structural   HfZrTaTiMo
_chemical_formula_sum   'Hf40 Zr40 Ta40 Ti40 Mo40'
_cell_volume   3861.89719290
_cell_formula_units_Z   40
loop_
 _symmetry_equiv_pos_site_id
 _symmetry_equiv_pos_as_xyz
  1  'x, y, z'
loop_
 _atom_site_type_symbol
 _atom_site_label
 _atom_site_symmetry_multiplicity
 _atom_site_fract_x
 _atom_site_fract_y
 _atom_site_fract_z
 _atom_site_occupancy
  Hf  Hf0  1  -0.01281556  -0.00266775  0.24708927  1
  Hf  Hf1  1  0.20650593  0.40278936  0.24433326  1
  Hf  Hf2  1  0.32017471  0.50406286  0.12572336  1
  Hf  Hf3  1  0.00492493  -0.00198307  0.74168713  1
  Hf  Hf4  1  0.70454492  0.90447350  0.38129101  1
  Hf  Hf5  1  0.30353333  0.10042689  0.36827487  1
  Hf  Hf6  1  0.70772575  0.49892853  0.63175717  1
  Hf  Hf7  1  0.19998532  -0.00791311  0.50414586  1
  Hf  Hf8  1  0.88173232  0.10499429  0.38176433  1
  Hf  Hf9  1  0.89909694  0.90108917  0.88151939  1
  Hf  Hf10  1  0.89413221  0.11239482  0.63250863  1
  Hf  Hf11  1  0.40148904  0.40373296  0.26520290  1
  Hf  Hf12  1  0.90622477  0.49661186  0.62045880  1
  Hf  Hf13  1  0.49632828  0.30381095  0.11256687  1
  Hf  Hf14  1  0.90679296  0.29888164  0.85806892  1
  Hf  Hf15  1  0.79426398  0.59815054  -0.00771340  1
  Hf  Hf16  1  -0.00352864  0.80256699  0.25429848  1
  Hf  Hf17  1  0.79005090  0.78968912  0.50687762  1
  Hf  Hf18  1  0.69194791  0.29197407  0.11522508  1
  Hf  Hf19  1  0.78613430  0.01259979  0.23412423  1
  Hf  Hf20  1  0.19257768  0.19222649  0.50880426  1
  Hf  Hf21  1  0.40184974  0.02184005  -0.00134095  1
  Hf  Hf22  1  0.69207704  0.89509190  0.62612112  1
  Hf  Hf23  1  0.40820352  0.81165124  0.25715263  1
  Hf  Hf24  1  0.79898253  0.78382161  -0.00548049  1
  Hf  Hf25  1  0.79234715  0.00206181  0.74492238  1
  Hf  Hf26  1  0.60661419  0.62291113  0.51057584  1
  Hf  Hf27  1  0.20821990  0.19220950  0.01052231  1
  Hf  Hf28  1  -0.00531992  0.59610516  0.25504386  1
  Hf  Hf29  1  0.89826579  0.29350658  0.36960480  1
  Hf  Hf30  1  0.79690391  0.59281961  0.25746012  1
  Hf  Hf31  1  0.00048863  0.79665218  0.49476548  1
  Hf  Hf32  1  0.19837017  0.60016235  0.25628527  1
  Hf  Hf33  1  0.30335312  0.70571919  0.13031498  1
  Hf  Hf34  1  0.59406278  0.39238956  0.74237537  1
  Hf  Hf35  1  0.62676324  0.19850504  0.49754789  1
  Hf  Hf36  1  0.59898269  -0.00115637  0.49558972  1
  Hf  Hf37  1  0.09918605  0.49248391  0.38023416  1
  Hf  Hf38  1  0.41230407  0.60186720  -0.01459908  1
  Hf  Hf39  1  0.59895601  0.59852184  -0.02041241  1
  Zr  Zr40  1  0.00584415  0.00613581  0.50890676  1
  Zr  Zr41  1  -0.01105812  0.60269838  -0.00285000  1
  Zr  Zr42  1  0.49953687  0.51436319  0.62571874  1
  Zr  Zr43  1  0.20046393  0.60159307  0.00651531  1
  Zr  Zr44  1  0.09121165  0.29923561  0.37227211  1
  Zr  Zr45  1  0.10307811  0.70877517  0.87541231  1
  Zr  Zr46  1  0.80614328  0.60218620  0.49302609  1
  Zr  Zr47  1  0.10699239  0.29728569  0.87317682  1
  Zr  Zr48  1  0.89325494  0.49327667  0.85910262  1
  Zr  Zr49  1  0.79837541  0.39405562  0.24098082  1
  Zr  Zr50  1  0.79805395  0.80618024  0.24660911  1
  Zr  Zr51  1  0.29980660  0.70702858  0.62928747  1
  Zr  Zr52  1  0.58227651  0.78711609  0.74360116  1
  Zr  Zr53  1  0.70208138  0.47979590  0.39510821  1
  Zr  Zr54  1  0.09894953  0.49197303  0.87729692  1
  Zr  Zr55  1  0.20788009  0.20414715  0.24157784  1
  Zr  Zr56  1  0.28909537  0.90301300  0.89725832  1
  Zr  Zr57  1  0.49869290  0.09924183  0.61455521  1
  Zr  Zr58  1  0.60704498  0.19003363  0.75208055  1
  Zr  Zr59  1  0.50732409  0.49764903  0.39913870  1
  Zr  Zr60  1  0.20983000  -0.01495589  0.73598143  1
  Zr  Zr61  1  0.80294524  0.20148492  0.00000957  1
  Zr  Zr62  1  0.39589228  0.40294973  0.74118059  1
  Zr  Zr63  1  0.18490401  0.40305399  0.52385967  1
  Zr  Zr64  1  0.30081613  0.50149256  0.86795621  1
  Zr  Zr65  1  0.69695939  0.89271733  0.87538848  1
  Zr  Zr66  1  0.09039836  0.10557405  0.35962140  1
  Zr  Zr67  1  0.38661136  0.40804295  0.50726305  1
  Zr  Zr68  1  0.10140675  0.90072800  0.88843618  1
  Zr  Zr69  1  0.38829268  0.81905340  0.75267038  1
  Zr  Zr70  1  0.31086088  0.09320980  0.62507615  1
  Zr  Zr71  1  0.19613590  0.78919763  0.48521043  1
  Zr  Zr72  1  0.59677383  0.39190762  0.25268401  1
  Zr  Zr73  1  0.01477984  0.60350985  0.49561392  1
  Zr  Zr74  1  0.40609348  0.20385619  0.75804333  1
  Zr  Zr75  1  0.69015178  0.90546808  0.10711621  1
  Zr  Zr76  1  0.50815751  0.10705771  0.13872180  1
  Zr  Zr77  1  0.09436677  0.29829949  0.12458457  1
  Zr  Zr78  1  0.50536530  0.69185609  0.13454605  1
  Zr  Zr79  1  0.70574276  0.30494129  0.87435477  1
  Ta  Ta80  1  0.70211809  0.08691157  0.88812961  1
  Ta  Ta81  1  0.49778665  0.90517201  0.88920917  1
  Ta  Ta82  1  0.50820201  0.29664529  0.39590525  1
  Ta  Ta83  1  0.89759079  0.10280346  0.11601992  1
  Ta  Ta84  1  0.30124672  0.70135994  0.36597558  1
  Ta  Ta85  1  0.59369828  0.78862599  -0.00681470  1
  Ta  Ta86  1  0.29945130  0.30060959  0.38939267  1
  Ta  Ta87  1  0.29847410  0.30087647  0.88197738  1
  Ta  Ta88  1  0.40118309  0.80016928  0.00287500  1
  Ta  Ta89  1  0.10594996  0.10219611  0.86447622  1
  Ta  Ta90  1  0.10342229  0.69265374  0.63667334  1
  Ta  Ta91  1  0.20358620  0.39509028  0.73399715  1
  Ta  Ta92  1  0.68645026  0.50366536  0.12224167  1
  Ta  Ta93  1  0.50198798  0.29622619  0.60448556  1
  Ta  Ta94  1  0.00283527  0.19533422  -0.00179423  1
  Ta  Ta95  1  0.29544735  0.70992317  0.87482489  1
  Ta  Ta96  1  0.59889914  0.59482108  0.26214302  1
  Ta  Ta97  1  0.09858061  0.89983502  0.12141833  1
  Ta  Ta98  1  0.90356800  0.09866670  0.87503354  1
  Ta  Ta99  1  0.01280971  0.40208565  0.73152324  1
  Ta  Ta100  1  0.20751199  0.39973766  0.01321294  1
  Ta  Ta101  1  0.49812666  0.90569574  0.11689414  1
  Ta  Ta102  1  0.49660503  0.30449795  0.88664635  1
  Ta  Ta103  1  0.39729535  0.61626699  0.49068545  1
  Ta  Ta104  1  0.69994155  0.49807407  0.85255909  1
  Ta  Ta105  1  -0.00669847  0.40241699  0.23578782  1
  Ta  Ta106  1  0.90015575  0.90255231  0.10508472  1
  Ta  Ta107  1  0.19804675  0.80489279  0.24794866  1
  Ta  Ta108  1  0.89675308  0.89685384  0.61954813  1
  Ta  Ta109  1  0.59430769  -0.00374671  0.26073978  1
  Ta  Ta110  1  0.10065277  0.90421509  0.36407317  1
  Ta  Ta111  1  -0.00186401  0.80038215  0.74650615  1
  Ta  Ta112  1  0.29516264  0.10424664  0.86545632  1
  Ta  Ta113  1  0.50092932  0.10390872  0.37180949  1
  Ta  Ta114  1  0.58695865  -0.00340333  0.75408683  1
  Ta  Ta115  1  0.19816856  0.01099529  0.01914435  1
  Ta  Ta116  1  0.90142167  0.69783856  0.63546978  1
  Ta  Ta117  1  0.58875580  0.18766931  -0.01455228  1
  Ta  Ta118  1  0.09591696  0.70562826  0.12769290  1
  Ta  Ta119  1  0.89653736  0.69938774  0.13182238  1
  Ti  Ti120  1  0.58314068  0.80148076  0.49794331  1
  Ti  Ti121  1  0.09533707  0.50190888  0.12142302  1
  Ti  Ti122  1  0.09580046  0.28245581  0.64102487  1
  Ti  Ti123  1  0.89395278  0.90861725  0.39309843  1
  Ti  Ti124  1  0.80385755  0.79376365  0.74676954  1
  Ti  Ti125  1  -0.00055240  0.60246219  0.75279509  1
  Ti  Ti126  1  0.48124128  0.90488163  0.62115393  1
  Ti  Ti127  1  0.40260195  -0.00807945  0.47960234  1
  Ti  Ti128  1  -0.00338251  0.20756731  0.51294715  1
  Ti  Ti129  1  0.00352422  0.00820928  0.00186268  1
  Ti  Ti130  1  -0.01020758  0.39506152  0.01073392  1
  Ti  Ti131  1  0.09160549  0.10012324  0.13501707  1
  Ti  Ti132  1  0.20114663  -0.00216368  0.23876909  1
  Ti  Ti133  1  0.31488875  0.29946488  0.11500330  1
  Ti  Ti134  1  0.40942683  0.21306153  0.26491245  1
  Ti  Ti135  1  0.69687180  0.69516100  0.13277603  1
  Ti  Ti136  1  0.79861921  0.37357210  0.50921771  1
  Ti  Ti137  1  0.31602793  0.10261300  0.14168674  1
  Ti  Ti138  1  0.30356502  0.90695995  0.12472904  1
  Ti  Ti139  1  0.59645470  0.80401250  0.25365705  1
  Ti  Ti140  1  0.29738665  0.90476253  0.36554333  1
  Ti  Ti141  1  0.40214577  0.80486605  0.48703340  1
  Ti  Ti142  1  0.69325614  0.70479920  0.36465782  1
  Ti  Ti143  1  0.71732624  0.28428503  0.64122276  1
  Ti  Ti144  1  0.89977081  0.29732505  0.64206250  1
  Ti  Ti145  1  0.40727621  0.41109810  -0.00905500  1
  Ti  Ti146  1  0.30517935  0.28681407  0.61876499  1
  Ti  Ti147  1  0.89380946  0.50178872  0.12117456  1
  Ti  Ti148  1  0.41722744  0.61849168  0.75823233  1
  Ti  Ti149  1  0.40923482  0.59664579  0.27141010  1
  Ti  Ti150  1  0.19770834  0.60033959  0.75679915  1
  Ti  Ti151  1  0.79716449  0.40494833  0.00631661  1
  Ti  Ti152  1  0.62389692  0.19163965  0.26550204  1
  Ti  Ti153  1  0.89702235  0.70362643  0.37098900  1
  Ti  Ti154  1  0.90763730  0.48026404  0.39152550  1
  Ti  Ti155  1  0.29017446  0.52178040  0.62374451  1
  Ti  Ti156  1  0.59484317  0.41266569  -0.00863231  1
  Ti  Ti157  1  -0.00299055  0.79325002  0.00259365  1
  Ti  Ti158  1  0.10509954  0.88334316  0.62591896  1
  Ti  Ti159  1  0.70066459  0.69145979  0.85122717  1
  Mo  Mo160  1  0.10542806  0.50896161  0.63649812  1
  Mo  Mo161  1  0.59611627  -0.00146944  -0.00846602  1
  Mo  Mo162  1  0.10046218  0.70350234  0.35413963  1
  Mo  Mo163  1  0.49856419  0.09834048  0.86810221  1
  Mo  Mo164  1  0.80085707  0.19392867  0.76831456  1
  Mo  Mo165  1  0.80876376  0.20052448  0.51018134  1
  Mo  Mo166  1  0.40596510  0.00049773  0.76455495  1
  Mo  Mo167  1  0.49927335  0.90354699  0.37256387  1
  Mo  Mo168  1  0.30526983  0.89976495  0.60224205  1
  Mo  Mo169  1  0.80276662  0.60461720  0.74789251  1
  Mo  Mo170  1  0.70327753  0.09655163  0.37903103  1
  Mo  Mo171  1  0.00465363  0.19710460  0.75618523  1
  Mo  Mo172  1  0.39695509  0.20640375  -0.01073757  1
  Mo  Mo173  1  0.40107311  0.00240964  0.24895725  1
  Mo  Mo174  1  0.79604463  0.00071063  0.51780933  1
  Mo  Mo175  1  0.09965668  0.10392475  0.64177722  1
  Mo  Mo176  1  0.50345867  0.70486589  0.37474150  1
  Mo  Mo177  1  0.61050745  0.38736992  0.52076100  1
  Mo  Mo178  1  0.50546045  0.49983066  0.85560108  1
  Mo  Mo179  1  0.40111207  0.19983630  0.48679114  1
  Mo  Mo180  1  -0.01464532  0.19974952  0.22956677  1
  Mo  Mo181  1  0.80390225  0.00012112  0.00271253  1
  Mo  Mo182  1  0.59813731  0.60029322  0.75092593  1
  Mo  Mo183  1  0.29715456  0.50541355  0.38411818  1
  Mo  Mo184  1  0.50672052  0.50080866  0.13039311  1
  Mo  Mo185  1  0.70366900  0.09257797  0.62523747  1
  Mo  Mo186  1  0.69303517  0.10002950  0.10903903  1
  Mo  Mo187  1  0.19482069  0.79603659  0.74220675  1
  Mo  Mo188  1  0.79594311  0.19712375  0.23119531  1
  Mo  Mo189  1  0.20521342  0.20128639  0.74292369  1
  Mo  Mo190  1  0.89822363  0.70293212  0.85419630  1
  Mo  Mo191  1  0.20878063  0.59874281  0.48738489  1
  Mo  Mo192  1  0.89967397  0.30111897  0.12115458  1
  Mo  Mo193  1  -0.00247584  0.38831406  0.52123695  1
  Mo  Mo194  1  0.80301805  0.39704061  0.73650013  1
  Mo  Mo195  1  0.70161562  0.69898958  0.64104636  1
  Mo  Mo196  1  0.49370327  0.71182889  0.61199793  1
  Mo  Mo197  1  0.71195006  0.28809491  0.37284836  1
  Mo  Mo198  1  0.49428027  0.70759305  0.87813570  1
  Mo  Mo199  1  0.20192287  0.80434203  0.02799276  1
