# generated using pymatgen
data_HfZrTaTiMo
_symmetry_space_group_name_H-M   'P 1'
_cell_length_a   15.93062570
_cell_length_b   15.93110184
_cell_length_c   15.21371956
_cell_angle_alpha   90.02511497
_cell_angle_beta   90.02931618
_cell_angle_gamma   89.82285739
_symmetry_Int_Tables_number   1
_chemical_formula_structural   HfZrTaTiMo
_chemical_formula_sum   'Hf40 Zr40 Ta40 Ti40 Mo40'
_cell_volume   3861.10738208
_cell_formula_units_Z   40
loop_
 _symmetry_equiv_pos_site_id
 _symmetry_equiv_pos_as_xyz
  1  'x, y, z'
loop_
 _atom_site_type_symbol
 _atom_site_label
 _atom_site_symmetry_multiplicity
 _atom_site_fract_x
 _atom_site_fract_y
 _atom_site_fract_z
 _atom_site_occupancy
  Hf  Hf0  1  0.49964565  0.89211907  0.63859258  1
  Hf  Hf1  1  0.40527136  0.40606704  0.72969835  1
  Hf  Hf2  1  0.68666373  0.10949650  0.13562266  1
  Hf  Hf3  1  0.19383675  0.20003631  0.51617513  1
  Hf  Hf4  1  0.19967351  0.40595403  0.01417995  1
  Hf  Hf5  1  0.80744291  0.02261727  -0.02713477  1
  Hf  Hf6  1  0.30035431  0.89221246  0.87621066  1
  Hf  Hf7  1  0.19366558  0.00078388  -0.01899977  1
  Hf  Hf8  1  0.60612037  0.58981301  0.75882797  1
  Hf  Hf9  1  0.30112696  0.70791396  0.36714860  1
  Hf  Hf10  1  0.10368770  0.89689407  0.38662934  1
  Hf  Hf11  1  0.39702900  -0.00246426  0.24805390  1
  Hf  Hf12  1  0.90300476  0.50441717  0.89496250  1
  Hf  Hf13  1  0.30288744  0.69420535  0.88004548  1
  Hf  Hf14  1  0.10399032  0.09247315  0.38761697  1
  Hf  Hf15  1  0.90062395  0.09704751  0.37952383  1
  Hf  Hf16  1  0.69930837  0.90664617  0.87088087  1
  Hf  Hf17  1  0.92389414  0.90196585  0.87020201  1
  Hf  Hf18  1  0.58575718  0.01564178  -0.00948756  1
  Hf  Hf19  1  0.79712975  0.39933269  0.23113499  1
  Hf  Hf20  1  0.58555737  0.39589988  0.49244298  1
  Hf  Hf21  1  0.20016615  0.60117502  0.74940852  1
  Hf  Hf22  1  0.69519800  0.89734988  0.64247001  1
  Hf  Hf23  1  0.19781196  0.60423973  0.24524018  1
  Hf  Hf24  1  0.29963645  0.89337319  0.10835946  1
  Hf  Hf25  1  0.61096621  0.38614505  0.02396414  1
  Hf  Hf26  1  0.50159096  0.09297648  0.62896494  1
  Hf  Hf27  1  0.70825726  0.91367590  0.11218480  1
  Hf  Hf28  1  0.79975176  0.78973720  0.76358325  1
  Hf  Hf29  1  0.79854124  -0.00621511  0.50711031  1
  Hf  Hf30  1  0.90252339  0.30965833  0.88119827  1
  Hf  Hf31  1  0.19983681  0.20096211  -0.01273061  1
  Hf  Hf32  1  0.10310289  0.70948045  0.60557915  1
  Hf  Hf33  1  0.10414404  0.49915595  0.36984004  1
  Hf  Hf34  1  0.89197276  0.30298247  0.38565626  1
  Hf  Hf35  1  0.39294985  0.81379517  0.49688988  1
  Hf  Hf36  1  0.29966954  0.09590923  0.38918204  1
  Hf  Hf37  1  0.20274337  0.40437447  0.74011183  1
  Hf  Hf38  1  0.21740637  0.39091805  0.50996538  1
  Hf  Hf39  1  0.39318560  0.22408819  0.51651974  1
  Zr  Zr40  1  0.89227525  0.09427549  0.13041784  1
  Zr  Zr41  1  0.30392573  0.29363517  0.14101279  1
  Zr  Zr42  1  0.50946121  0.29351645  0.85956800  1
  Zr  Zr43  1  0.49444967  0.09683256  0.38059790  1
  Zr  Zr44  1  0.69498394  0.30167078  0.62853191  1
  Zr  Zr45  1  0.59927694  0.80620123  0.25246144  1
  Zr  Zr46  1  0.69113719  0.70122972  0.61461226  1
  Zr  Zr47  1  0.40965511  0.38913234  0.01583012  1
  Zr  Zr48  1  0.30970659  0.29946177  0.87082812  1
  Zr  Zr49  1  0.10631101  0.51085121  0.60953693  1
  Zr  Zr50  1  0.90876229  0.69654561  0.88909064  1
  Zr  Zr51  1  0.78445415  0.21241209  -0.00721419  1
  Zr  Zr52  1  0.59895007  0.19835171  0.50056866  1
  Zr  Zr53  1  0.80881562  0.59915195  0.50064221  1
  Zr  Zr54  1  0.79986417  0.80917141  0.24543299  1
  Zr  Zr55  1  0.49501970  0.69432999  0.62521996  1
  Zr  Zr56  1  0.70740072  0.70038565  0.37165091  1
  Zr  Zr57  1  0.00252752  -0.00707700  0.24426970  1
  Zr  Zr58  1  0.00057486  0.39762490  0.24137393  1
  Zr  Zr59  1  0.31244360  0.50659607  0.88496190  1
  Zr  Zr60  1  0.00020698  0.79708918  0.24344697  1
  Zr  Zr61  1  0.49427331  0.90272680  0.11559842  1
  Zr  Zr62  1  0.60106514  0.78885491  -0.00565991  1
  Zr  Zr63  1  0.18596348  0.80598262  0.75857265  1
  Zr  Zr64  1  0.90099270  0.50769955  0.36345547  1
  Zr  Zr65  1  0.80422673  0.20193477  0.76117176  1
  Zr  Zr66  1  0.30390773  0.70490263  0.62356800  1
  Zr  Zr67  1  -0.00311868  0.40048878  0.50586989  1
  Zr  Zr68  1  0.79816176  0.41289036  0.74733013  1
  Zr  Zr69  1  0.31601927  0.09989238  0.10776637  1
  Zr  Zr70  1  0.48376491  0.30457279  0.35679872  1
  Zr  Zr71  1  0.69896804  0.09056700  0.64140759  1
  Zr  Zr72  1  0.00310235  0.19871156  0.25513047  1
  Zr  Zr73  1  0.09699109  0.31043896  0.87437857  1
  Zr  Zr74  1  0.00788865  0.19448052  0.74715271  1
  Zr  Zr75  1  0.09849317  0.51241619  0.88642545  1
  Zr  Zr76  1  0.80113894  0.59759386  0.74681448  1
  Zr  Zr77  1  0.50595171  0.49476240  0.88596116  1
  Zr  Zr78  1  0.31166518  0.49204113  0.36501269  1
  Zr  Zr79  1  0.70302166  0.09156130  0.36825030  1
  Ta  Ta80  1  0.29281123  0.29933789  0.35624406  1
  Ta  Ta81  1  0.70150681  0.49173525  0.37518816  1
  Ta  Ta82  1  0.69535535  0.49868176  0.60242254  1
  Ta  Ta83  1  0.09800006  0.69991671  0.37829420  1
  Ta  Ta84  1  0.09912292  0.89754732  0.10340555  1
  Ta  Ta85  1  0.19816510  -0.00183484  0.23841364  1
  Ta  Ta86  1  0.59846855  0.78482666  0.77241118  1
  Ta  Ta87  1  0.69924480  0.30007316  0.36998027  1
  Ta  Ta88  1  0.50204152  0.27249576  0.14479118  1
  Ta  Ta89  1  0.10580771  0.70471539  0.11880653  1
  Ta  Ta90  1  0.90448331  0.70730007  0.62602663  1
  Ta  Ta91  1  -0.00570975  0.41581493  0.73577365  1
  Ta  Ta92  1  -0.00061770  0.39722279  0.02187638  1
  Ta  Ta93  1  0.90190754  0.09123094  0.63582867  1
  Ta  Ta94  1  0.30137306  0.09461063  0.62920197  1
  Ta  Ta95  1  0.18788242  0.00419508  0.75023971  1
  Ta  Ta96  1  0.19874435  0.80845057  0.24301573  1
  Ta  Ta97  1  0.80191442  0.80542045  0.49925069  1
  Ta  Ta98  1  0.21059822  -0.01649293  0.52411064  1
  Ta  Ta99  1  0.90078074  0.89855336  0.64252877  1
  Ta  Ta100  1  0.10208843  0.09823794  0.11504656  1
  Ta  Ta101  1  0.49335157  0.89591016  0.86947060  1
  Ta  Ta102  1  0.89444251  0.90356261  0.37663369  1
  Ta  Ta103  1  0.60467565  0.59687410  0.25369021  1
  Ta  Ta104  1  0.49332551  0.69685016  0.14086945  1
  Ta  Ta105  1  0.50270576  0.50707227  0.61188663  1
  Ta  Ta106  1  0.19951410  0.19326144  0.74542506  1
  Ta  Ta107  1  -0.00249352  0.19694273  0.51361066  1
  Ta  Ta108  1  0.79798822  0.20413584  0.25054104  1
  Ta  Ta109  1  0.49958007  0.50329885  0.13707489  1
  Ta  Ta110  1  0.00117784  0.60649269  0.74267619  1
  Ta  Ta111  1  -0.01034954  0.80435887  0.49801656  1
  Ta  Ta112  1  0.90053307  0.90129636  0.10199941  1
  Ta  Ta113  1  0.59176849  0.59934242  0.47559687  1
  Ta  Ta114  1  0.60254905  0.39884858  0.24478222  1
  Ta  Ta115  1  0.10193903  0.29022026  0.12581338  1
  Ta  Ta116  1  -0.00333215  0.18670131  -0.01084071  1
  Ta  Ta117  1  0.39109989  -0.00722553  0.74730347  1
  Ta  Ta118  1  0.30655473  0.10113606  0.86575220  1
  Ta  Ta119  1  0.70526352  0.50357723  0.90073598  1
  Ti  Ti120  1  0.19926175  0.18724424  0.24961486  1
  Ti  Ti121  1  0.90229970  0.51137399  0.12519085  1
  Ti  Ti122  1  0.00586106  0.60165035  0.01939446  1
  Ti  Ti123  1  0.29530522  0.90438344  0.37199594  1
  Ti  Ti124  1  0.09558578  0.30197435  0.63141188  1
  Ti  Ti125  1  0.80044321  0.19785749  0.50660657  1
  Ti  Ti126  1  0.49373764  0.50131369  0.36146000  1
  Ti  Ti127  1  0.90725515  0.70207954  0.36979768  1
  Ti  Ti128  1  0.30870722  0.70382314  0.13163728  1
  Ti  Ti129  1  0.49114871  0.70154750  0.36138156  1
  Ti  Ti130  1  0.79917285  0.79491559  -0.00679504  1
  Ti  Ti131  1  -0.00397281  0.60447792  0.50102019  1
  Ti  Ti132  1  0.59440056  0.60266689  0.00804106  1
  Ti  Ti133  1  0.49371222  0.09986529  0.85340291  1
  Ti  Ti134  1  0.09685521  0.71387833  0.89695247  1
  Ti  Ti135  1  0.60012152  0.80266823  0.48449880  1
  Ti  Ti136  1  0.20994038  0.60505399  0.48683298  1
  Ti  Ti137  1  -0.00109359  -0.00110734  0.51472122  1
  Ti  Ti138  1  0.39749007  0.20250902  0.73400053  1
  Ti  Ti139  1  0.89961639  0.70116591  0.11812065  1
  Ti  Ti140  1  0.40573560  0.78728857  -0.00279344  1
  Ti  Ti141  1  0.49248781  0.90157145  0.37485357  1
  Ti  Ti142  1  0.70118602  0.69789224  0.12115835  1
  Ti  Ti143  1  0.30981942  0.50299037  0.13911935  1
  Ti  Ti144  1  0.80043719  0.40211209  0.01737441  1
  Ti  Ti145  1  0.59780195  -0.01463014  0.49567649  1
  Ti  Ti146  1  0.68865789  0.31414291  0.86022496  1
  Ti  Ti147  1  0.20956467  0.60391737  0.01666793  1
  Ti  Ti148  1  0.09406501  0.89706295  0.62356088  1
  Ti  Ti149  1  0.09998172  0.50227054  0.13503852  1
  Ti  Ti150  1  0.68279665  0.10877356  0.85385544  1
  Ti  Ti151  1  0.90135404  0.28893521  0.11801409  1
  Ti  Ti152  1  0.10660254  0.29959834  0.36996695  1
  Ti  Ti153  1  0.80224697  0.60452141  0.24209970  1
  Ti  Ti154  1  0.69950261  0.51094737  0.12377760  1
  Ti  Ti155  1  0.59947127  -0.00361618  0.25205983  1
  Ti  Ti156  1  0.31742088  0.51652664  0.60724104  1
  Ti  Ti157  1  0.89453539  0.30505655  0.62066428  1
  Ti  Ti158  1  0.48796311  0.68563783  0.87267971  1
  Ti  Ti159  1  0.58929520  0.20065676  -0.00130929  1
  Mo  Mo160  1  0.60472621  0.40931647  0.73778911  1
  Mo  Mo161  1  0.40440851  0.59708327  0.74643637  1
  Mo  Mo162  1  0.40253789  0.39937570  0.23451334  1
  Mo  Mo163  1  0.69870757  0.29729160  0.13868864  1
  Mo  Mo164  1  0.50108638  0.09943650  0.13298032  1
  Mo  Mo165  1  0.00243236  0.79307555  0.73917008  1
  Mo  Mo166  1  0.29723617  0.89776440  0.64338957  1
  Mo  Mo167  1  0.41651535  0.18477546  -0.00818310  1
  Mo  Mo168  1  0.40513253  0.60454068  0.02555378  1
  Mo  Mo169  1  0.90626091  0.09959142  0.85621284  1
  Mo  Mo170  1  0.09645596  0.89604351  0.88391723  1
  Mo  Mo171  1  0.20209697  0.79270278  0.00356608  1
  Mo  Mo172  1  0.19658857  0.39676527  0.24036055  1
  Mo  Mo173  1  0.50200852  0.30420380  0.63626554  1
  Mo  Mo174  1  0.01075827  -0.00490956  0.73670356  1
  Mo  Mo175  1  0.09890158  0.09272409  0.61330074  1
  Mo  Mo176  1  0.40330528  0.60354097  0.24945835  1
  Mo  Mo177  1  0.00153716  0.00492243  0.00277899  1
  Mo  Mo178  1  0.19646016  0.80373377  0.49296861  1
  Mo  Mo179  1  0.80430624  0.00035143  0.75931651  1
  Mo  Mo180  1  0.39436658  0.80634100  0.25600318  1
  Mo  Mo181  1  0.69481192  0.90147511  0.38351410  1
  Mo  Mo182  1  0.29507388  0.29820720  0.64150662  1
  Mo  Mo183  1  0.90131895  0.50621165  0.62147716  1
  Mo  Mo184  1  0.59467356  0.20197597  0.74366668  1
  Mo  Mo185  1  0.79675465  0.60308596  0.02016880  1
  Mo  Mo186  1  -0.00003373  0.60722584  0.23557094  1
  Mo  Mo187  1  0.40986328  0.60283161  0.47691544  1
  Mo  Mo188  1  0.40165297  0.00130805  -0.02486770  1
  Mo  Mo189  1  0.59285426  -0.00433317  0.76499825  1
  Mo  Mo190  1  0.40247055  0.79350327  0.76195242  1
  Mo  Mo191  1  -0.00070700  0.79753397  0.01249368  1
  Mo  Mo192  1  0.39224696  0.19023921  0.26291169  1
  Mo  Mo193  1  0.79210122  0.39773619  0.50157770  1
  Mo  Mo194  1  0.40026053  0.40662885  0.51008559  1
  Mo  Mo195  1  0.79889660  -0.00339767  0.25333839  1
  Mo  Mo196  1  0.09742139  0.09608894  0.87596675  1
  Mo  Mo197  1  0.59969236  0.19703115  0.26237148  1
  Mo  Mo198  1  0.69833818  0.69093206  0.89236058  1
  Mo  Mo199  1  0.39663808  -0.00540896  0.51601916  1
