# generated using pymatgen
data_HfZrTaTiMo
_symmetry_space_group_name_H-M   'P 1'
_cell_length_a   15.92082501
_cell_length_b   15.94191204
_cell_length_c   15.21284949
_cell_angle_alpha   89.97793933
_cell_angle_beta   90.05025408
_cell_angle_gamma   89.99469683
_symmetry_Int_Tables_number   1
_chemical_formula_structural   HfZrTaTiMo
_chemical_formula_sum   'Hf40 Zr40 Ta40 Ti40 Mo40'
_cell_volume   3861.14707471
_cell_formula_units_Z   40
loop_
 _symmetry_equiv_pos_site_id
 _symmetry_equiv_pos_as_xyz
  1  'x, y, z'
loop_
 _atom_site_type_symbol
 _atom_site_label
 _atom_site_symmetry_multiplicity
 _atom_site_fract_x
 _atom_site_fract_y
 _atom_site_fract_z
 _atom_site_occupancy
  Hf  Hf0  1  0.11200406  0.49649772  0.88657362  1
  Hf  Hf1  1  0.10691849  0.89525585  0.12770835  1
  Hf  Hf2  1  0.80828666  0.19778802  0.48466146  1
  Hf  Hf3  1  0.79419461  -0.01423873  -0.02688878  1
  Hf  Hf4  1  0.29419206  0.09738491  0.37507356  1
  Hf  Hf5  1  0.29876666  0.10678886  0.13915448  1
  Hf  Hf6  1  0.70132036  0.29341414  0.12453262  1
  Hf  Hf7  1  0.70457206  0.29540491  0.88817081  1
  Hf  Hf8  1  -0.00007756  0.40472152  0.74697755  1
  Hf  Hf9  1  0.09257735  0.30109274  0.37741291  1
  Hf  Hf10  1  0.50211544  0.09549455  0.39085073  1
  Hf  Hf11  1  0.69667433  0.10132435  0.61804389  1
  Hf  Hf12  1  0.39016329  0.41530932  0.25146244  1
  Hf  Hf13  1  0.79443599  -0.00365991  0.75773204  1
  Hf  Hf14  1  0.48415290  0.29714976  0.11785394  1
  Hf  Hf15  1  0.20865580  0.36261143  0.02789488  1
  Hf  Hf16  1  0.78753498  -0.00656455  0.25328591  1
  Hf  Hf17  1  0.50534098  0.90686041  0.39001548  1
  Hf  Hf18  1  0.90285819  0.90289039  0.37536163  1
  Hf  Hf19  1  0.61718912  0.61865898  -0.00710595  1
  Hf  Hf20  1  0.49495933  0.50250484  0.89729837  1
  Hf  Hf21  1  0.10773783  0.29647895  0.86804499  1
  Hf  Hf22  1  0.00394062  0.00243670  0.75621545  1
  Hf  Hf23  1  0.30307401  0.48801848  0.89250290  1
  Hf  Hf24  1  0.09995273  0.50966719  0.62325319  1
  Hf  Hf25  1  0.70992376  0.49062976  0.37417908  1
  Hf  Hf26  1  0.19861802  0.20202812  0.50136070  1
  Hf  Hf27  1  0.90039071  0.09922713  0.61942268  1
  Hf  Hf28  1  0.78955082  0.77795545  -0.02637244  1
  Hf  Hf29  1  0.11058640  0.89861338  0.86908417  1
  Hf  Hf30  1  0.59235035  0.41048984  0.24030899  1
  Hf  Hf31  1  0.69059077  0.08763361  0.10798841  1
  Hf  Hf32  1  0.08466153  0.09864927  0.38376501  1
  Hf  Hf33  1  0.48385808  0.30389459  0.88389906  1
  Hf  Hf34  1  0.30664122  0.70654054  0.86255010  1
  Hf  Hf35  1  0.50121496  0.69491428  0.61842149  1
  Hf  Hf36  1  0.59703543  0.00644111  0.75921973  1
  Hf  Hf37  1  0.59866616  0.61191357  0.25800609  1
  Hf  Hf38  1  0.71837218  0.69166216  0.63118716  1
  Hf  Hf39  1  0.69845229  0.29811725  0.36040932  1
  Zr  Zr40  1  0.19866662  0.80217471  0.50570594  1
  Zr  Zr41  1  0.79841613  0.40902221  0.75585363  1
  Zr  Zr42  1  0.50947976  0.71596931  0.12236387  1
  Zr  Zr43  1  0.59249484  0.18137188  0.24547869  1
  Zr  Zr44  1  0.20753167  0.81017778  0.73652533  1
  Zr  Zr45  1  -0.00483728  0.79576432  -0.01466967  1
  Zr  Zr46  1  0.11089018  0.68145566  0.11040979  1
  Zr  Zr47  1  0.08999942  0.69678614  0.63415222  1
  Zr  Zr48  1  0.59323232  0.40318792  0.49899039  1
  Zr  Zr49  1  0.49506001  0.90520962  0.88496130  1
  Zr  Zr50  1  0.90407633  0.29929235  0.88186039  1
  Zr  Zr51  1  0.39981128  0.41866526  0.73283764  1
  Zr  Zr52  1  0.00450544  0.79247313  0.24522510  1
  Zr  Zr53  1  0.90047358  0.11483611  0.88028694  1
  Zr  Zr54  1  0.70342441  0.50530437  0.61192166  1
  Zr  Zr55  1  0.89923231  0.50099637  0.13056266  1
  Zr  Zr56  1  0.61286791  0.80778447  0.50841676  1
  Zr  Zr57  1  0.89243969  0.09951739  0.11391341  1
  Zr  Zr58  1  0.28901554  0.51343005  0.11275971  1
  Zr  Zr59  1  0.21147941  0.00765387  0.00430665  1
  Zr  Zr60  1  0.00456054  -0.00176063  -0.00497604  1
  Zr  Zr61  1  0.49418514  0.10739583  0.62179792  1
  Zr  Zr62  1  0.19613550  0.19328038  0.73422347  1
  Zr  Zr63  1  0.30625537  0.69265332  0.61986639  1
  Zr  Zr64  1  0.00953206  0.39932020  0.01543266  1
  Zr  Zr65  1  0.00881085  0.59451318  0.25984661  1
  Zr  Zr66  1  0.89351232  0.89283663  0.12238120  1
  Zr  Zr67  1  0.89747550  0.31202508  0.35738474  1
  Zr  Zr68  1  0.30747894  0.29497583  0.62792641  1
  Zr  Zr69  1  0.50241253  0.29663055  0.62790337  1
  Zr  Zr70  1  0.79017595  0.79084212  0.25426156  1
  Zr  Zr71  1  0.60643687  0.80594926  0.74678071  1
  Zr  Zr72  1  0.60100687  0.40152560  0.75576359  1
  Zr  Zr73  1  0.60119526  0.59122865  0.75770707  1
  Zr  Zr74  1  0.81103130  0.79661290  0.50569858  1
  Zr  Zr75  1  -0.01447107  0.40666628  0.51083395  1
  Zr  Zr76  1  0.68339942  0.88347046  0.10365779  1
  Zr  Zr77  1  0.41181128  0.00094977  0.24798141  1
  Zr  Zr78  1  0.80271193  0.60033556  0.26526951  1
  Zr  Zr79  1  0.20577186  0.59531240  0.26946967  1
  Ta  Ta80  1  0.21027434  0.58855102  0.75309872  1
  Ta  Ta81  1  0.39586044  0.80505798  0.00389637  1
  Ta  Ta82  1  0.50361387  0.90855598  0.11178807  1
  Ta  Ta83  1  0.30933678  0.91425681  0.87481105  1
  Ta  Ta84  1  0.11115359  0.10766668  0.87821737  1
  Ta  Ta85  1  0.60405945  0.20479862  0.49011283  1
  Ta  Ta86  1  0.39677788  0.40904366  0.49221142  1
  Ta  Ta87  1  0.70240682  0.51124526  0.11939930  1
  Ta  Ta88  1  0.89516318  0.29651879  0.13226054  1
  Ta  Ta89  1  0.21165712  0.79830160  -0.00363241  1
  Ta  Ta90  1  0.10423015  0.69675166  0.86355001  1
  Ta  Ta91  1  0.29876293  0.29244632  0.86302832  1
  Ta  Ta92  1  0.30586086  0.89470845  0.13534055  1
  Ta  Ta93  1  0.39779023  0.20870846  0.48406166  1
  Ta  Ta94  1  0.01708013  0.20529514  0.01712818  1
  Ta  Ta95  1  0.29381404  0.30773173  0.36939710  1
  Ta  Ta96  1  0.19883994  -0.00535916  0.50422267  1
  Ta  Ta97  1  0.39622615  0.61719006  0.00085623  1
  Ta  Ta98  1  0.30892273  0.09233585  0.61926046  1
  Ta  Ta99  1  0.20449754  0.40370541  0.50462214  1
  Ta  Ta100  1  0.40676064  0.60570517  0.26332859  1
  Ta  Ta101  1  0.70218034  0.29250408  0.62618025  1
  Ta  Ta102  1  0.60119986  0.40304064  0.00818887  1
  Ta  Ta103  1  0.49514735  0.51182034  0.11267057  1
  Ta  Ta104  1  0.10102189  0.90084214  0.37421169  1
  Ta  Ta105  1  0.30021881  0.89943750  0.37499993  1
  Ta  Ta106  1  0.30853912  0.70652842  0.37904841  1
  Ta  Ta107  1  0.49649073  0.30431439  0.36921826  1
  Ta  Ta108  1  0.80041941  0.40640365  0.00333819  1
  Ta  Ta109  1  0.80008776  0.18566810  0.25562845  1
  Ta  Ta110  1  -0.00630436  0.59872386  -0.01611306  1
  Ta  Ta111  1  0.59986348  0.80913021  0.26797067  1
  Ta  Ta112  1  -0.00294481  0.00251094  0.25050191  1
  Ta  Ta113  1  0.59244031  0.19441012  -0.01083277  1
  Ta  Ta114  1  0.90307097  0.89369975  0.63609986  1
  Ta  Ta115  1  0.49323514  0.91311285  0.61744001  1
  Ta  Ta116  1  0.69317170  0.08155209  0.38374938  1
  Ta  Ta117  1  0.88845854  0.68975770  0.11265292  1
  Ta  Ta118  1  0.59858234  0.19681162  0.76992406  1
  Ta  Ta119  1  0.09497220  0.09632174  0.61203679  1
  Ti  Ti120  1  0.90877199  0.69693933  0.64852501  1
  Ti  Ti121  1  0.20533820  0.79714900  0.25699495  1
  Ti  Ti122  1  0.90974596  0.70179459  0.37811258  1
  Ti  Ti123  1  0.79258030  -0.01252931  0.50279676  1
  Ti  Ti124  1  0.79154559  0.19697622  0.75164329  1
  Ti  Ti125  1  -0.00431468  0.60314542  0.49143853  1
  Ti  Ti126  1  0.40231113  0.81455968  0.73816175  1
  Ti  Ti127  1  0.80619249  0.80056882  0.76153001  1
  Ti  Ti128  1  0.40300788  0.59575769  0.74682227  1
  Ti  Ti129  1  0.80370285  0.39801169  0.50866097  1
  Ti  Ti130  1  0.10120586  0.10080672  0.13160111  1
  Ti  Ti131  1  0.49861754  0.70728033  0.87106743  1
  Ti  Ti132  1  -0.00622948  -0.00494251  0.50078150  1
  Ti  Ti133  1  0.20893442  0.00211074  0.73847098  1
  Ti  Ti134  1  0.19208130  0.40464554  0.24528601  1
  Ti  Ti135  1  0.40807018  0.79857589  0.25678826  1
  Ti  Ti136  1  0.39793212  0.20425124  0.26096162  1
  Ti  Ti137  1  0.00098220  0.80107104  0.50515181  1
  Ti  Ti138  1  0.40049062  0.80191425  0.50017213  1
  Ti  Ti139  1  0.09796586  0.49285386  0.38852464  1
  Ti  Ti140  1  0.58988600  0.59877017  0.48396734  1
  Ti  Ti141  1  0.89449052  0.29349685  0.62928128  1
  Ti  Ti142  1  0.37157735  0.20175483  -0.00077521  1
  Ti  Ti143  1  0.30409334  0.70530282  0.13240444  1
  Ti  Ti144  1  -0.00747931  0.19098043  0.24762296  1
  Ti  Ti145  1  0.81958698  0.59293505  0.48766056  1
  Ti  Ti146  1  0.10316787  0.70578780  0.38539683  1
  Ti  Ti147  1  0.19151613  0.20536997  0.25258842  1
  Ti  Ti148  1  0.00091119  0.19960733  0.74222559  1
  Ti  Ti149  1  0.47385474  0.09926532  0.88075158  1
  Ti  Ti150  1  0.09362904  0.90431745  0.62605098  1
  Ti  Ti151  1  0.89825850  0.52155040  0.63947974  1
  Ti  Ti152  1  0.20696461  0.59599257  0.49202443  1
  Ti  Ti153  1  0.40307371  0.59295421  0.48210626  1
  Ti  Ti154  1  0.00887649  0.40523167  0.24104981  1
  Ti  Ti155  1  0.08959172  0.29788455  0.61589920  1
  Ti  Ti156  1  0.19418962  -0.00397540  0.25475311  1
  Ti  Ti157  1  0.49449427  0.09581922  0.10420426  1
  Ti  Ti158  1  0.70072638  0.70103821  0.39115098  1
  Ti  Ti159  1  0.20383712  0.40281411  0.73266234  1
  Mo  Mo160  1  0.69620019  0.89553005  0.86916939  1
  Mo  Mo161  1  0.39918787  0.19287774  0.76401970  1
  Mo  Mo162  1  0.59769938  0.79970441  -0.02362114  1
  Mo  Mo163  1  0.70312061  0.49643918  0.89544802  1
  Mo  Mo164  1  0.20348276  0.61636832  -0.01883370  1
  Mo  Mo165  1  0.39356410  -0.00136826  0.74327448  1
  Mo  Mo166  1  0.29844861  0.29181954  0.15557394  1
  Mo  Mo167  1  -0.00350368  0.20065443  0.50918918  1
  Mo  Mo168  1  -0.00015568  0.80257772  0.75228933  1
  Mo  Mo169  1  0.90529102  0.89294904  0.85758506  1
  Mo  Mo170  1  0.39333042  -0.00003053  0.49561408  1
  Mo  Mo171  1  0.59814193  -0.00835489  0.24379563  1
  Mo  Mo172  1  0.80033024  0.20282551  0.01164429  1
  Mo  Mo173  1  0.60588285  0.00000874  0.51911160  1
  Mo  Mo174  1  0.80550486  0.59389330  -0.01678532  1
  Mo  Mo175  1  0.39778975  0.40002170  0.01706626  1
  Mo  Mo176  1  0.90667266  0.49760051  0.36949284  1
  Mo  Mo177  1  0.00420358  0.59471795  0.76733136  1
  Mo  Mo178  1  0.10301981  0.49762054  0.11268183  1
  Mo  Mo179  1  0.39445168  0.00385449  0.01461049  1
  Mo  Mo180  1  0.49745145  0.70679934  0.38438528  1
  Mo  Mo181  1  0.70533974  0.69747774  0.12999620  1
  Mo  Mo182  1  0.69382474  0.10498956  0.88311074  1
  Mo  Mo183  1  0.80629668  0.59839054  0.76845970  1
  Mo  Mo184  1  0.09332265  0.29101625  0.15347028  1
  Mo  Mo185  1  0.69846937  0.90199840  0.37991753  1
  Mo  Mo186  1  0.19668872  0.19412606  0.00812589  1
  Mo  Mo187  1  0.70349005  0.69410656  0.84979552  1
  Mo  Mo188  1  0.89660293  0.09387367  0.37861335  1
  Mo  Mo189  1  0.70850631  0.90122639  0.64153514  1
  Mo  Mo190  1  0.79511861  0.39816738  0.23032021  1
  Mo  Mo191  1  0.30658370  0.90626766  0.61111744  1
  Mo  Mo192  1  0.49499534  0.51283955  0.60489663  1
  Mo  Mo193  1  0.29494022  0.50128660  0.38353301  1
  Mo  Mo194  1  0.90619379  0.69409983  0.85840804  1
  Mo  Mo195  1  0.90336262  0.49902927  0.87933685  1
  Mo  Mo196  1  0.29890960  0.10151457  0.86389728  1
  Mo  Mo197  1  0.49839168  0.50340314  0.37541194  1
  Mo  Mo198  1  0.29839037  0.50678089  0.60874256  1
  Mo  Mo199  1  0.59319923  0.00741643  -0.02018997  1
