# generated using pymatgen
data_HfZrTaTiMo
_symmetry_space_group_name_H-M   'P 1'
_cell_length_a   15.93947169
_cell_length_b   15.93633446
_cell_length_c   15.22391273
_cell_angle_alpha   89.95019982
_cell_angle_beta   90.01069524
_cell_angle_gamma   89.92723781
_symmetry_Int_Tables_number   1
_chemical_formula_structural   HfZrTaTiMo
_chemical_formula_sum   'Hf40 Zr40 Ta40 Ti40 Mo40'
_cell_volume   3867.12421794
_cell_formula_units_Z   40
loop_
 _symmetry_equiv_pos_site_id
 _symmetry_equiv_pos_as_xyz
  1  'x, y, z'
loop_
 _atom_site_type_symbol
 _atom_site_label
 _atom_site_symmetry_multiplicity
 _atom_site_fract_x
 _atom_site_fract_y
 _atom_site_fract_z
 _atom_site_occupancy
  Hf  Hf0  1  0.90181632  0.90494887  0.12195915  1
  Hf  Hf1  1  0.60226229  0.00563863  -0.00873445  1
  Hf  Hf2  1  0.80700405  0.19506180  0.51616378  1
  Hf  Hf3  1  0.69907811  0.30095147  0.63089214  1
  Hf  Hf4  1  0.20913338  0.60881181  0.77543128  1
  Hf  Hf5  1  0.90400751  0.10320553  0.86645359  1
  Hf  Hf6  1  0.10746046  0.69310457  0.14389746  1
  Hf  Hf7  1  0.90295858  0.69486316  0.13170351  1
  Hf  Hf8  1  0.80555421  -0.00435393  0.25967708  1
  Hf  Hf9  1  0.49404346  0.50036702  0.11383041  1
  Hf  Hf10  1  0.39301010  0.80484956  0.72653063  1
  Hf  Hf11  1  0.37372768  0.21527958  0.75152430  1
  Hf  Hf12  1  0.39814739  0.18915443  0.48694787  1
  Hf  Hf13  1  0.02002419  0.59314771  0.48622553  1
  Hf  Hf14  1  0.49425647  0.09964098  0.63717493  1
  Hf  Hf15  1  0.89443330  0.30653834  0.12944394  1
  Hf  Hf16  1  0.49564142  0.30012614  0.12520015  1
  Hf  Hf17  1  0.89919481  0.48929882  0.37577731  1
  Hf  Hf18  1  0.69398321  0.70596749  0.86119328  1
  Hf  Hf19  1  0.80201968  0.20399918  -0.00172389  1
  Hf  Hf20  1  0.90556102  0.29836611  0.38607255  1
  Hf  Hf21  1  0.69627374  0.90320054  0.62648810  1
  Hf  Hf22  1  0.50668697  0.90196722  0.12678436  1
  Hf  Hf23  1  0.10482337  0.89089898  0.61489416  1
  Hf  Hf24  1  0.39963028  0.60097767  0.74191946  1
  Hf  Hf25  1  0.19973135  0.39714430  0.01856489  1
  Hf  Hf26  1  0.49548993  0.89004122  0.87480556  1
  Hf  Hf27  1  0.01311485  0.80120736  0.00548688  1
  Hf  Hf28  1  0.59336104  0.00528152  0.49730797  1
  Hf  Hf29  1  0.38891221  -0.00504603  0.00133284  1
  Hf  Hf30  1  0.70379180  0.70834901  0.62055396  1
  Hf  Hf31  1  0.29921195  0.88933784  0.36890218  1
  Hf  Hf32  1  0.00454578  0.18573574  0.01661114  1
  Hf  Hf33  1  0.10662473  0.89665845  0.38090468  1
  Hf  Hf34  1  0.80603362  0.19492949  0.25119706  1
  Hf  Hf35  1  0.70921959  0.30736516  0.38467658  1
  Hf  Hf36  1  0.92302452  0.70774904  0.85668412  1
  Hf  Hf37  1  0.38564970  0.60680676  -0.00499551  1
  Hf  Hf38  1  0.20756456  0.80162508  0.01725491  1
  Hf  Hf39  1  0.59966090  0.19643883  0.49286114  1
  Zr  Zr40  1  0.48938258  0.29931763  0.61318547  1
  Zr  Zr41  1  -0.00056118  0.39419817  0.00265750  1
  Zr  Zr42  1  0.69993930  0.50640379  0.38468703  1
  Zr  Zr43  1  0.29948013  0.10008018  0.13060214  1
  Zr  Zr44  1  0.80600714  0.59906133  0.74446292  1
  Zr  Zr45  1  0.12691108  0.29861935  0.62385439  1
  Zr  Zr46  1  0.10667888  0.48105764  0.85711379  1
  Zr  Zr47  1  0.20066403  0.39692310  0.24702939  1
  Zr  Zr48  1  0.49355631  0.70499871  0.37456788  1
  Zr  Zr49  1  0.27876527  0.10670383  0.88508155  1
  Zr  Zr50  1  0.38188568  0.61115722  0.50220655  1
  Zr  Zr51  1  0.70683808  0.70465974  0.13446695  1
  Zr  Zr52  1  0.58070915  0.21068558  0.76475923  1
  Zr  Zr53  1  0.70088228  0.70531300  0.38038854  1
  Zr  Zr54  1  0.30415267  0.08297063  0.36100082  1
  Zr  Zr55  1  0.38549225  -0.00075215  0.75130912  1
  Zr  Zr56  1  0.09726415  0.68096803  0.64251362  1
  Zr  Zr57  1  0.00249719  -0.00663240  0.73645298  1
  Zr  Zr58  1  0.60470362  0.00154976  0.26127652  1
  Zr  Zr59  1  0.59534063  0.59580361  0.73143273  1
  Zr  Zr60  1  0.69823259  0.10341899  0.12749110  1
  Zr  Zr61  1  0.70313480  0.30565641  0.86192006  1
  Zr  Zr62  1  0.70789975  0.49798675  0.11919655  1
  Zr  Zr63  1  0.81085753  0.59651539  -0.01423939  1
  Zr  Zr64  1  0.49758431  0.49177010  0.88678813  1
  Zr  Zr65  1  0.80526661  0.80130173  -0.01262050  1
  Zr  Zr66  1  0.80245898  0.40984048  0.74289395  1
  Zr  Zr67  1  0.81852980  0.60328042  0.51582168  1
  Zr  Zr68  1  0.11382417  0.88194089  0.85726015  1
  Zr  Zr69  1  0.59690950  0.40776925  0.25501249  1
  Zr  Zr70  1  0.59371955  0.20314885  -0.01229473  1
  Zr  Zr71  1  0.27239323  0.49887938  0.62769935  1
  Zr  Zr72  1  0.18887563  0.19845863  0.24752596  1
  Zr  Zr73  1  0.70228189  0.90080910  0.86696252  1
  Zr  Zr74  1  0.49591981  0.30820182  0.37209506  1
  Zr  Zr75  1  0.10880626  0.27971784  0.86387883  1
  Zr  Zr76  1  -0.00398849  0.80149699  0.26193534  1
  Zr  Zr77  1  0.49987433  0.70452722  0.87526495  1
  Zr  Zr78  1  0.00125516  0.01400985  0.25788550  1
  Zr  Zr79  1  0.48887948  0.90426891  0.36892013  1
  Ta  Ta80  1  0.91040027  0.29970631  0.62826743  1
  Ta  Ta81  1  0.79760864  0.00412086  0.50857454  1
  Ta  Ta82  1  0.49537682  0.10277229  0.13481868  1
  Ta  Ta83  1  0.00016398  0.19872698  0.24096624  1
  Ta  Ta84  1  0.39104401  0.41031412  0.49947686  1
  Ta  Ta85  1  0.69783214  0.10352008  0.64184133  1
  Ta  Ta86  1  0.40297042  0.59251399  0.25446023  1
  Ta  Ta87  1  0.70787862  0.10168458  0.85651867  1
  Ta  Ta88  1  0.29878222  0.69152046  0.13946936  1
  Ta  Ta89  1  0.29387974  0.30138415  0.38384517  1
  Ta  Ta90  1  0.20531699  0.77608017  0.50462753  1
  Ta  Ta91  1  0.59377335  -0.00083196  0.75470609  1
  Ta  Ta92  1  0.80283836  0.40029101  -0.01273796  1
  Ta  Ta93  1  0.60420114  0.60483089  0.00512053  1
  Ta  Ta94  1  0.59276720  0.60102088  0.24903998  1
  Ta  Ta95  1  0.28724556  0.11029911  0.61517686  1
  Ta  Ta96  1  0.01380869  0.59822610  -0.01129632  1
  Ta  Ta97  1  0.58598287  0.60025505  0.51016914  1
  Ta  Ta98  1  0.59301415  0.41312233  0.50901017  1
  Ta  Ta99  1  0.70790814  0.10068828  0.37934494  1
  Ta  Ta100  1  0.40193642  0.79474081  0.23450116  1
  Ta  Ta101  1  0.58600976  0.80382523  0.51237767  1
  Ta  Ta102  1  0.39515066  0.80080399  0.01808866  1
  Ta  Ta103  1  0.90001536  0.89037444  0.60847994  1
  Ta  Ta104  1  -0.00112960  0.78326621  0.49818696  1
  Ta  Ta105  1  0.80766769  0.00683687  -0.00358444  1
  Ta  Ta106  1  0.89701434  0.89894031  0.39530753  1
  Ta  Ta107  1  0.00667177  0.40299011  0.51382634  1
  Ta  Ta108  1  0.10530496  0.10116265  0.61009592  1
  Ta  Ta109  1  0.58792680  0.41088481  0.73674076  1
  Ta  Ta110  1  0.09632264  0.50707384  0.13354630  1
  Ta  Ta111  1  0.81265731  0.80780159  0.74198247  1
  Ta  Ta112  1  0.09234501  0.29694115  0.38414126  1
  Ta  Ta113  1  0.80788709  0.00192176  0.73772000  1
  Ta  Ta114  1  0.39674886  0.40109811  0.73991628  1
  Ta  Ta115  1  0.70749307  0.89894818  0.12394610  1
  Ta  Ta116  1  0.00322840  0.19130042  0.73095775  1
  Ta  Ta117  1  0.00160034  0.59470512  0.26631721  1
  Ta  Ta118  1  0.18350364  -0.00424528  0.01124958  1
  Ta  Ta119  1  0.19093684  0.41419173  0.48242718  1
  Ti  Ti120  1  0.29586549  0.50668700  0.12915815  1
  Ti  Ti121  1  0.39980649  -0.00589752  0.51287255  1
  Ti  Ti122  1  0.19738689  0.60386453  -0.00972411  1
  Ti  Ti123  1  0.69713753  0.30399754  0.12510641  1
  Ti  Ti124  1  0.39872383  0.20408291  0.25508111  1
  Ti  Ti125  1  0.29596510  0.50461232  0.36958820  1
  Ti  Ti126  1  0.91197134  0.90572565  0.87327570  1
  Ti  Ti127  1  0.29328674  0.90370262  0.14815734  1
  Ti  Ti128  1  0.28716034  0.70094998  0.35209825  1
  Ti  Ti129  1  0.89249657  0.70500071  0.37194822  1
  Ti  Ti130  1  0.20644714  -0.00475616  0.73862159  1
  Ti  Ti131  1  0.09933602  0.10420644  0.39197277  1
  Ti  Ti132  1  0.48750992  0.10250629  0.87417433  1
  Ti  Ti133  1  0.79856353  0.40313226  0.24798730  1
  Ti  Ti134  1  0.90629029  0.50421727  0.12697153  1
  Ti  Ti135  1  0.90704130  0.10364092  0.39266553  1
  Ti  Ti136  1  0.91287847  0.49247688  0.86458446  1
  Ti  Ti137  1  0.60615017  0.80089646  0.25077101  1
  Ti  Ti138  1  0.80482165  0.41118976  0.52384675  1
  Ti  Ti139  1  0.00368362  0.39551513  0.24696224  1
  Ti  Ti140  1  0.80137048  0.59757137  0.25448496  1
  Ti  Ti141  1  0.20678677  -0.00116302  0.49926929  1
  Ti  Ti142  1  -0.00259383  0.00253835  0.50567309  1
  Ti  Ti143  1  0.39790693  0.20785106  -0.00008202  1
  Ti  Ti144  1  0.60035288  0.20021029  0.26126390  1
  Ti  Ti145  1  0.39408694  0.40283461  0.25148790  1
  Ti  Ti146  1  0.70620520  0.89284565  0.38919003  1
  Ti  Ti147  1  0.69432040  0.50231368  0.87688517  1
  Ti  Ti148  1  0.09529828  0.08772751  0.87206655  1
  Ti  Ti149  1  0.10130182  0.90646410  0.14268973  1
  Ti  Ti150  1  0.29626506  0.73391046  0.87208152  1
  Ti  Ti151  1  0.60224473  0.79718033  0.00847107  1
  Ti  Ti152  1  0.50127258  0.69697312  0.12561050  1
  Ti  Ti153  1  0.19331017  0.20465501  0.02572649  1
  Ti  Ti154  1  0.93230314  0.50839269  0.64109973  1
  Ti  Ti155  1  0.29984948  0.30600468  0.89238458  1
  Ti  Ti156  1  0.90866305  0.29945450  0.85438062  1
  Ti  Ti157  1  0.30379337  0.48474141  0.87833945  1
  Ti  Ti158  1  0.39471847  0.80338557  0.51643554  1
  Ti  Ti159  1  0.60224795  0.39504717  -0.00469353  1
  Mo  Mo160  1  0.90925281  0.70100397  0.63268587  1
  Mo  Mo161  1  0.10373398  0.49204392  0.64057474  1
  Mo  Mo162  1  0.29341403  0.90484019  0.60309116  1
  Mo  Mo163  1  0.48278083  0.30941948  0.88398713  1
  Mo  Mo164  1  0.49912461  0.90524827  0.62528503  1
  Mo  Mo165  1  0.00080976  0.79873323  0.73158167  1
  Mo  Mo166  1  0.22400164  0.37771050  0.75751048  1
  Mo  Mo167  1  0.20179920  0.59316589  0.25994559  1
  Mo  Mo168  1  0.29169370  0.70081684  0.62791655  1
  Mo  Mo169  1  0.49653473  0.70443783  0.61712562  1
  Mo  Mo170  1  0.39026327  0.39852213  0.01404963  1
  Mo  Mo171  1  0.10583706  0.69897500  0.36695260  1
  Mo  Mo172  1  0.49044872  0.50526111  0.38123282  1
  Mo  Mo173  1  0.89883943  0.09682843  0.11785085  1
  Mo  Mo174  1  0.19565453  0.59916143  0.47758951  1
  Mo  Mo175  1  0.59618102  0.80626741  0.73028646  1
  Mo  Mo176  1  0.20121036  0.19718945  0.47911793  1
  Mo  Mo177  1  0.20211466  0.79944635  0.24382161  1
  Mo  Mo178  1  0.29705718  0.29910532  0.60032969  1
  Mo  Mo179  1  0.19672164  0.18154921  0.74931560  1
  Mo  Mo180  1  0.40119002  -0.00194620  0.23295678  1
  Mo  Mo181  1  0.10819356  0.69905202  0.87641399  1
  Mo  Mo182  1  0.09606836  0.49112645  0.35741110  1
  Mo  Mo183  1  0.48650156  0.50107768  0.61547267  1
  Mo  Mo184  1  0.29728962  0.90082534  0.88621868  1
  Mo  Mo185  1  0.80068313  0.80286124  0.49861497  1
  Mo  Mo186  1  0.00786105  0.59235241  0.76850883  1
  Mo  Mo187  1  0.20757743  0.80460956  0.73093094  1
  Mo  Mo188  1  0.30692263  0.30008543  0.12469656  1
  Mo  Mo189  1  0.50217829  0.10309228  0.35497670  1
  Mo  Mo190  1  0.00455500  0.19955012  0.51041047  1
  Mo  Mo191  1  0.79704066  0.80727822  0.26602036  1
  Mo  Mo192  1  0.09742777  0.09067488  0.12432867  1
  Mo  Mo193  1  0.90347479  0.09528063  0.62061416  1
  Mo  Mo194  1  0.09543573  0.29992447  0.13452929  1
  Mo  Mo195  1  0.19315345  -0.00293934  0.24926908  1
  Mo  Mo196  1  0.69399481  0.50048017  0.61349044  1
  Mo  Mo197  1  0.00734271  0.39137331  0.73757178  1
  Mo  Mo198  1  0.80818986  0.19791040  0.74054047  1
  Mo  Mo199  1  0.00316275  -0.00661348  -0.00605589  1
