# generated using pymatgen
data_HfZrTaTiMo
_symmetry_space_group_name_H-M   'P 1'
_cell_length_a   15.91921861
_cell_length_b   15.93312710
_cell_length_c   15.21828044
_cell_angle_alpha   89.97871065
_cell_angle_beta   89.94583540
_cell_angle_gamma   90.09763100
_symmetry_Int_Tables_number   1
_chemical_formula_structural   HfZrTaTiMo
_chemical_formula_sum   'Hf40 Zr40 Ta40 Ti40 Mo40'
_cell_volume   3860.00169495
_cell_formula_units_Z   40
loop_
 _symmetry_equiv_pos_site_id
 _symmetry_equiv_pos_as_xyz
  1  'x, y, z'
loop_
 _atom_site_type_symbol
 _atom_site_label
 _atom_site_symmetry_multiplicity
 _atom_site_fract_x
 _atom_site_fract_y
 _atom_site_fract_z
 _atom_site_occupancy
  Hf  Hf0  1  0.88793905  0.71699139  0.63355946  1
  Hf  Hf1  1  0.20671892  0.59224916  0.48188283  1
  Hf  Hf2  1  0.30605070  0.68903618  0.63671053  1
  Hf  Hf3  1  0.12277654  0.12331198  0.88886800  1
  Hf  Hf4  1  0.10971173  0.70666702  0.63011183  1
  Hf  Hf5  1  -0.00028136  0.80069930  -0.01239898  1
  Hf  Hf6  1  0.60484167  0.40629052  0.00778910  1
  Hf  Hf7  1  0.69871850  0.90157629  0.38905496  1
  Hf  Hf8  1  0.60579233  0.79956965  -0.00292355  1
  Hf  Hf9  1  0.59687083  0.18976841  -0.00431042  1
  Hf  Hf10  1  0.68753037  0.50513105  0.63130413  1
  Hf  Hf11  1  0.81165169  0.19722010  0.74267275  1
  Hf  Hf12  1  0.38338968  0.20036086  0.74022691  1
  Hf  Hf13  1  0.21444492  0.80347664  0.23849420  1
  Hf  Hf14  1  0.19796435  0.38063509  -0.00135952  1
  Hf  Hf15  1  -0.00652708  0.40165932  0.01205252  1
  Hf  Hf16  1  0.70337803  0.30792264  0.87407960  1
  Hf  Hf17  1  0.10161101  0.70118679  0.36685756  1
  Hf  Hf18  1  0.88013948  0.09249968  0.13702718  1
  Hf  Hf19  1  0.09642714  0.48990971  0.87271125  1
  Hf  Hf20  1  0.00715898  0.81062587  0.75966921  1
  Hf  Hf21  1  0.58989058  0.20380728  0.50616862  1
  Hf  Hf22  1  0.30599650  0.30034034  0.36338010  1
  Hf  Hf23  1  0.10344376  0.92581078  0.61151221  1
  Hf  Hf24  1  0.20978426  0.00666548  0.76421650  1
  Hf  Hf25  1  0.89775265  0.29817458  0.37483789  1
  Hf  Hf26  1  0.88811079  0.49432664  0.87234280  1
  Hf  Hf27  1  0.10392792  0.69621534  0.12160844  1
  Hf  Hf28  1  0.40122215  0.59489307  0.49080257  1
  Hf  Hf29  1  0.88521548  0.90278349  0.86915625  1
  Hf  Hf30  1  -0.01234203  0.00682409  -0.00660126  1
  Hf  Hf31  1  -0.01914045  -0.01533727  0.24997130  1
  Hf  Hf32  1  0.28862938  0.08972283  0.60714329  1
  Hf  Hf33  1  0.69444636  0.70144481  0.14336481  1
  Hf  Hf34  1  0.33441706  0.89886821  0.37383837  1
  Hf  Hf35  1  0.30053297  0.89371486  0.62191989  1
  Hf  Hf36  1  0.69718533  0.10085893  0.38717135  1
  Hf  Hf37  1  0.22414309  0.00512855  0.24905095  1
  Hf  Hf38  1  0.00469280  0.01876663  0.76574341  1
  Hf  Hf39  1  0.58576332  0.19731238  0.74799123  1
  Zr  Zr40  1  0.71240911  0.88773409  0.62750690  1
  Zr  Zr41  1  -0.01223780  0.80810375  0.49212909  1
  Zr  Zr42  1  -0.00125742  0.60093281  0.75188452  1
  Zr  Zr43  1  0.30977135  0.48458148  0.62508784  1
  Zr  Zr44  1  0.68635157  0.49753108  0.36749830  1
  Zr  Zr45  1  0.49434608  0.70814055  0.36073779  1
  Zr  Zr46  1  0.60100216  0.79598729  0.75839211  1
  Zr  Zr47  1  0.31475362  0.69035849  0.88812157  1
  Zr  Zr48  1  0.59136838  0.81217030  0.25057641  1
  Zr  Zr49  1  0.38671185  0.19811037  0.01325841  1
  Zr  Zr50  1  0.00136556  0.40913646  0.25955476  1
  Zr  Zr51  1  0.79271064  0.40150989  0.50372910  1
  Zr  Zr52  1  0.40151306  0.20597479  0.50352626  1
  Zr  Zr53  1  0.58925339  0.60046873  0.49855358  1
  Zr  Zr54  1  0.89987020  0.30273671  0.87183445  1
  Zr  Zr55  1  0.79355391  0.58747772  0.01003081  1
  Zr  Zr56  1  0.10612674  0.91092559  0.37583304  1
  Zr  Zr57  1  0.10630095  0.50034832  0.12537811  1
  Zr  Zr58  1  0.59565891  0.60476265  0.00782566  1
  Zr  Zr59  1  0.80831099  0.59935752  0.25218326  1
  Zr  Zr60  1  0.80035589  0.20469850  0.50735632  1
  Zr  Zr61  1  0.20984668  0.38468692  0.75660199  1
  Zr  Zr62  1  0.09960182  0.90107514  0.11921057  1
  Zr  Zr63  1  0.21243773  0.79545439  0.49074389  1
  Zr  Zr64  1  0.19105276  0.19471613  0.48322897  1
  Zr  Zr65  1  0.47912078  0.30827504  0.88286579  1
  Zr  Zr66  1  0.68950718  0.30388149  0.63748750  1
  Zr  Zr67  1  0.81730543  0.81784513  0.26133607  1
  Zr  Zr68  1  0.90295478  0.70900796  0.11916793  1
  Zr  Zr69  1  0.79518316  0.40322384  0.24336415  1
  Zr  Zr70  1  0.09440031  0.10368218  0.13241548  1
  Zr  Zr71  1  0.89785208  0.28991846  0.13229182  1
  Zr  Zr72  1  0.58891542  0.00774953  0.25558750  1
  Zr  Zr73  1  0.00048325  0.60321303  0.50021243  1
  Zr  Zr74  1  0.20413911  0.80226483  0.76946099  1
  Zr  Zr75  1  0.40132259  0.17689010  0.24396337  1
  Zr  Zr76  1  0.50109845  0.90554950  0.88165745  1
  Zr  Zr77  1  -0.00153929  0.20461505  -0.00637984  1
  Zr  Zr78  1  0.71382745  0.91588847  0.12051645  1
  Zr  Zr79  1  0.11022733  0.50075947  0.62753317  1
  Ta  Ta80  1  0.19514509  0.19792162  0.72893505  1
  Ta  Ta81  1  0.59440560  0.00108252  0.51584039  1
  Ta  Ta82  1  0.90090693  0.09414457  0.37794396  1
  Ta  Ta83  1  0.30417079  0.69277105  0.11830821  1
  Ta  Ta84  1  0.78874881  0.19756517  0.26273853  1
  Ta  Ta85  1  0.70009360  0.29477193  0.12182560  1
  Ta  Ta86  1  0.60065484  0.20129568  0.24985787  1
  Ta  Ta87  1  0.40267186  0.40155792  0.23853641  1
  Ta  Ta88  1  0.30158890  0.49849550  0.12157951  1
  Ta  Ta89  1  0.49212883  0.50277804  0.88524930  1
  Ta  Ta90  1  0.49884948  0.89393009  0.62595197  1
  Ta  Ta91  1  0.10168765  0.29701270  0.14965943  1
  Ta  Ta92  1  0.20961374  0.59272762  0.76932899  1
  Ta  Ta93  1  0.58384884  0.40544708  0.75776441  1
  Ta  Ta94  1  0.00525436  0.19866402  0.49171911  1
  Ta  Ta95  1  0.00727500  0.39549961  0.49737156  1
  Ta  Ta96  1  -0.00264413  0.60036605  0.25674492  1
  Ta  Ta97  1  0.80912431  -0.00463943  0.50577726  1
  Ta  Ta98  1  0.19952507  0.19529719  0.25988948  1
  Ta  Ta99  1  0.91406659  0.09649034  0.61643307  1
  Ta  Ta100  1  0.40331181  0.00922063  0.01489738  1
  Ta  Ta101  1  -0.00258218  0.39090101  0.73132561  1
  Ta  Ta102  1  0.31178719  0.90645931  0.89113372  1
  Ta  Ta103  1  -0.00361991  0.59894238  -0.00653214  1
  Ta  Ta104  1  0.50267152  0.30039976  0.12925307  1
  Ta  Ta105  1  0.69698487  0.69881729  0.62766255  1
  Ta  Ta106  1  0.20834822  0.80153337  -0.00013842  1
  Ta  Ta107  1  0.79641798  0.59920254  0.74227327  1
  Ta  Ta108  1  0.50492336  0.90610011  0.11103444  1
  Ta  Ta109  1  0.90119133  0.50403534  0.39075673  1
  Ta  Ta110  1  0.59550488  0.00272635  0.73924745  1
  Ta  Ta111  1  0.69481037  0.50081349  0.86035344  1
  Ta  Ta112  1  0.19812910  0.39719332  0.47876943  1
  Ta  Ta113  1  0.70206470  0.09571583  0.62528355  1
  Ta  Ta114  1  0.70011358  0.70207424  0.37495691  1
  Ta  Ta115  1  0.79792423  0.60983178  0.49988396  1
  Ta  Ta116  1  0.20290904  0.59502530  0.25277693  1
  Ta  Ta117  1  0.50684135  0.30699156  0.35808236  1
  Ta  Ta118  1  0.58467709  0.39768401  0.49796169  1
  Ta  Ta119  1  0.40242386  0.80091755  0.75409150  1
  Ti  Ti120  1  0.40646730  0.79474052  0.01239619  1
  Ti  Ti121  1  0.48074935  0.31739545  0.63270030  1
  Ti  Ti122  1  0.29373605  0.30136920  0.13936407  1
  Ti  Ti123  1  0.49911038  0.69221128  0.87423651  1
  Ti  Ti124  1  0.20233962  0.59392863  -0.00744317  1
  Ti  Ti125  1  0.31519733  0.48431836  0.89340379  1
  Ti  Ti126  1  0.50038807  0.50335611  0.12833309  1
  Ti  Ti127  1  0.30967826  0.69972222  0.35626001  1
  Ti  Ti128  1  0.30478865  0.49688971  0.35297832  1
  Ti  Ti129  1  0.11131083  0.91041206  0.89096787  1
  Ti  Ti130  1  0.79607869  0.79926407  -0.00696902  1
  Ti  Ti131  1  0.69808831  0.09660723  0.86165106  1
  Ti  Ti132  1  0.00741218  0.20543825  0.74205696  1
  Ti  Ti133  1  0.70514052  0.69339856  0.86381247  1
  Ti  Ti134  1  0.41175210  0.78952216  0.51223785  1
  Ti  Ti135  1  0.48869846  0.08831777  0.38192563  1
  Ti  Ti136  1  0.59617572  0.79673834  0.50434204  1
  Ti  Ti137  1  -0.00329594  0.79843172  0.25479960  1
  Ti  Ti138  1  0.69818962  0.90775891  0.86928318  1
  Ti  Ti139  1  0.80541307  0.40066524  0.73202050  1
  Ti  Ti140  1  0.49590569  0.49837294  0.63540606  1
  Ti  Ti141  1  0.21571037  0.01094510  0.00757505  1
  Ti  Ti142  1  0.10405282  0.29886711  0.61453609  1
  Ti  Ti143  1  0.90479149  0.90643615  0.62959392  1
  Ti  Ti144  1  0.50291885  0.69215459  0.64081682  1
  Ti  Ti145  1  0.89973735  0.50152101  0.61601112  1
  Ti  Ti146  1  0.28268900  0.27354097  0.88337312  1
  Ti  Ti147  1  0.69443343  0.10150704  0.12570881  1
  Ti  Ti148  1  0.80096495  0.00448674  0.74225717  1
  Ti  Ti149  1  0.89144441  0.69755802  0.87033280  1
  Ti  Ti150  1  0.49018892  0.09512488  0.87346454  1
  Ti  Ti151  1  0.40324594  0.58666494  0.75858685  1
  Ti  Ti152  1  0.10431092  0.69381354  0.87999040  1
  Ti  Ti153  1  0.40425765  0.60438059  0.23425719  1
  Ti  Ti154  1  0.40170862  0.00102975  0.74532584  1
  Ti  Ti155  1  0.79159129  0.01222536  -0.01479941  1
  Ti  Ti156  1  0.79756102  0.19550502  -0.00915425  1
  Ti  Ti157  1  0.40834561  -0.00137512  0.51104806  1
  Ti  Ti158  1  0.40172906  0.40315641  0.48420836  1
  Ti  Ti159  1  0.49876449  0.49896659  0.35201195  1
  Mo  Mo160  1  0.09697628  0.10494639  0.62436307  1
  Mo  Mo161  1  0.90015145  0.50224077  0.11360925  1
  Mo  Mo162  1  0.30603090  0.09069873  0.38521177  1
  Mo  Mo163  1  0.88812207  0.10297124  0.86373907  1
  Mo  Mo164  1  0.79409233  0.79415703  0.49087330  1
  Mo  Mo165  1  0.39810480  0.39750047  0.75778756  1
  Mo  Mo166  1  0.20637831  0.40033028  0.25671587  1
  Mo  Mo167  1  0.49613883  0.09469156  0.63041109  1
  Mo  Mo168  1  0.89815437  0.69854606  0.37565700  1
  Mo  Mo169  1  0.39736245  0.39904992  0.02460291  1
  Mo  Mo170  1  0.10197472  0.50100992  0.37271559  1
  Mo  Mo171  1  0.69310212  0.49659017  0.13940067  1
  Mo  Mo172  1  -0.00277070  0.19563881  0.26816610  1
  Mo  Mo173  1  0.89833256  0.90421102  0.39009412  1
  Mo  Mo174  1  0.91250752  0.30042357  0.61679820  1
  Mo  Mo175  1  0.29764567  0.09909901  0.12623164  1
  Mo  Mo176  1  0.30759829  0.09616154  0.87702566  1
  Mo  Mo177  1  0.29710471  0.30223275  0.60291863  1
  Mo  Mo178  1  0.10040432  0.30053498  0.86087431  1
  Mo  Mo179  1  0.59301117  0.59805125  0.75754438  1
  Mo  Mo180  1  0.79372650  0.39855032  0.01505255  1
  Mo  Mo181  1  0.50874770  0.10037605  0.11872363  1
  Mo  Mo182  1  0.09868504  0.30121156  0.36590219  1
  Mo  Mo183  1  0.41120651  -0.00973592  0.23353701  1
  Mo  Mo184  1  0.20743252  0.00292987  0.47700111  1
  Mo  Mo185  1  0.30794511  0.89783075  0.10768519  1
  Mo  Mo186  1  0.68843436  0.29838702  0.36779746  1
  Mo  Mo187  1  0.40292841  0.59542108  0.01160965  1
  Mo  Mo188  1  0.19819806  0.20150308  0.02749177  1
  Mo  Mo189  1  0.79963817  0.79498524  0.76752211  1
  Mo  Mo190  1  0.89272924  0.90530060  0.09828137  1
  Mo  Mo191  1  0.59636581  0.59988235  0.24396207  1
  Mo  Mo192  1  0.60441781  0.00715458  -0.01083401  1
  Mo  Mo193  1  0.49538427  0.70342570  0.13185746  1
  Mo  Mo194  1  0.40042612  0.80485369  0.22541451  1
  Mo  Mo195  1  0.50413999  0.90183979  0.40088493  1
  Mo  Mo196  1  0.79450426  0.00702234  0.26532536  1
  Mo  Mo197  1  0.00379077  0.01103036  0.49471801  1
  Mo  Mo198  1  0.59627365  0.39799185  0.23458658  1
  Mo  Mo199  1  0.09492903  0.10096994  0.35734236  1
