# generated using pymatgen
data_HfZrTaTiMo
_symmetry_space_group_name_H-M   'P 1'
_cell_length_a   15.93805433
_cell_length_b   15.93195000
_cell_length_c   15.20188129
_cell_angle_alpha   90.04491199
_cell_angle_beta   90.01163400
_cell_angle_gamma   90.07753861
_symmetry_Int_Tables_number   1
_chemical_formula_structural   HfZrTaTiMo
_chemical_formula_sum   'Hf40 Zr40 Ta40 Ti40 Mo40'
_cell_volume   3860.12203228
_cell_formula_units_Z   40
loop_
 _symmetry_equiv_pos_site_id
 _symmetry_equiv_pos_as_xyz
  1  'x, y, z'
loop_
 _atom_site_type_symbol
 _atom_site_label
 _atom_site_symmetry_multiplicity
 _atom_site_fract_x
 _atom_site_fract_y
 _atom_site_fract_z
 _atom_site_occupancy
  Hf  Hf0  1  0.19021350  0.59370959  0.49541279  1
  Hf  Hf1  1  0.50331550  0.30606577  0.13343085  1
  Hf  Hf2  1  0.21514012  0.61502279  0.01851924  1
  Hf  Hf3  1  0.39667923  0.19196434  0.75100059  1
  Hf  Hf4  1  0.28999237  0.09448598  0.88610100  1
  Hf  Hf5  1  0.88594248  0.31620919  0.38457489  1
  Hf  Hf6  1  0.19730372  0.21070135  0.49590383  1
  Hf  Hf7  1  0.79552374  -0.00439945  0.75273684  1
  Hf  Hf8  1  0.79426409  -0.00007771  0.25379230  1
  Hf  Hf9  1  0.70634982  0.68163505  0.12193736  1
  Hf  Hf10  1  0.40506427  0.19311874  0.00269002  1
  Hf  Hf11  1  0.30005779  0.70139568  0.62225606  1
  Hf  Hf12  1  0.09832893  0.09365755  0.37674071  1
  Hf  Hf13  1  0.30847238  0.50587354  0.36726244  1
  Hf  Hf14  1  0.90537371  0.69932943  0.12239206  1
  Hf  Hf15  1  -0.00064997  0.20992689  0.50564333  1
  Hf  Hf16  1  0.40541338  0.40964871  -0.00366314  1
  Hf  Hf17  1  0.18945642  0.40213872  0.26455993  1
  Hf  Hf18  1  0.49300295  0.09054415  0.62199106  1
  Hf  Hf19  1  0.89682620  0.30756845  0.11705426  1
  Hf  Hf20  1  0.50802548  0.69271069  0.35662189  1
  Hf  Hf21  1  0.39653049  0.19075435  0.24677681  1
  Hf  Hf22  1  0.29648630  0.69273856  0.85902880  1
  Hf  Hf23  1  0.20848518  0.39916750  0.75051744  1
  Hf  Hf24  1  0.00157572  0.40359969  -0.01371520  1
  Hf  Hf25  1  0.50044052  0.68882319  0.87407586  1
  Hf  Hf26  1  0.40425903  0.39439352  0.49252797  1
  Hf  Hf27  1  0.80109939  0.61206907  0.52066724  1
  Hf  Hf28  1  0.12148944  0.51946424  0.86523116  1
  Hf  Hf29  1  0.00031975  0.80445434  0.25743653  1
  Hf  Hf30  1  0.69072481  0.10362347  0.63630074  1
  Hf  Hf31  1  0.30513363  0.70043098  0.37106386  1
  Hf  Hf32  1  0.49771081  0.09228652  0.37013698  1
  Hf  Hf33  1  0.20753124  0.41157864  0.00301427  1
  Hf  Hf34  1  0.79367117  -0.00986730  0.51274793  1
  Hf  Hf35  1  0.51268984  0.29898481  0.63272619  1
  Hf  Hf36  1  -0.00802023  0.19746413  -0.00494621  1
  Hf  Hf37  1  0.10492923  0.29311384  0.87188841  1
  Hf  Hf38  1  0.51139347  0.50175605  0.36949663  1
  Hf  Hf39  1  0.49752202  0.89271817  0.37040040  1
  Zr  Zr40  1  -0.00283151  0.40890067  0.75704994  1
  Zr  Zr41  1  0.61047617  0.79287791  0.50473295  1
  Zr  Zr42  1  0.50975575  0.07767096  0.14076138  1
  Zr  Zr43  1  0.59463254  0.80282908  0.00625350  1
  Zr  Zr44  1  0.30059843  0.30671502  0.13360042  1
  Zr  Zr45  1  0.30176277  0.29805256  0.87745888  1
  Zr  Zr46  1  0.28863440  0.89782115  0.10838631  1
  Zr  Zr47  1  0.58574448  -0.01325961  0.76521112  1
  Zr  Zr48  1  0.09639190  0.09497278  0.62303330  1
  Zr  Zr49  1  0.30189305  0.49788561  0.62571342  1
  Zr  Zr50  1  0.80638988  0.59965280  0.74228865  1
  Zr  Zr51  1  0.50665006  0.49043260  0.62311015  1
  Zr  Zr52  1  0.39984413  0.19823611  0.49836247  1
  Zr  Zr53  1  0.89594928  0.51851013  0.38111271  1
  Zr  Zr54  1  0.00725566  0.60929230  -0.00774866  1
  Zr  Zr55  1  0.19378613  0.80114737  0.74178060  1
  Zr  Zr56  1  0.29092319  0.08404206  0.12231126  1
  Zr  Zr57  1  0.02071692  0.41305178  0.48855409  1
  Zr  Zr58  1  0.00052256  0.61532503  0.74074400  1
  Zr  Zr59  1  0.61090250  0.81048753  0.23383934  1
  Zr  Zr60  1  0.79250289  0.20956995  0.51688052  1
  Zr  Zr61  1  0.80936600  0.39107155  0.75102258  1
  Zr  Zr62  1  0.79395987  0.20562282  0.24203892  1
  Zr  Zr63  1  0.88948243  0.51019638  0.12033524  1
  Zr  Zr64  1  0.59990817  0.19418380  -0.00344098  1
  Zr  Zr65  1  0.71137569  0.69004553  0.36330658  1
  Zr  Zr66  1  0.09041464  0.89239393  0.61385702  1
  Zr  Zr67  1  0.20300015  -0.00396773  0.74927282  1
  Zr  Zr68  1  0.59819496  0.59776353  0.74030139  1
  Zr  Zr69  1  0.60840108  0.00492601  -0.01962195  1
  Zr  Zr70  1  0.09821226  0.50935286  0.13422153  1
  Zr  Zr71  1  0.09957020  0.90291185  0.11589204  1
  Zr  Zr72  1  0.09271554  0.09042920  0.12930318  1
  Zr  Zr73  1  0.89057276  0.10131687  0.38656940  1
  Zr  Zr74  1  -0.01827450  0.21030260  0.74911504  1
  Zr  Zr75  1  0.40890459  0.80966410  0.75327608  1
  Zr  Zr76  1  0.40468252  0.59465573  0.01162406  1
  Zr  Zr77  1  0.70362786  0.69785979  0.87850786  1
  Zr  Zr78  1  -0.00574991  0.20351892  0.25345132  1
  Zr  Zr79  1  0.60349223  -0.00569083  0.49583191  1
  Ta  Ta80  1  -0.00990263  0.00492594  -0.01718749  1
  Ta  Ta81  1  0.79872409  0.80668382  0.01126018  1
  Ta  Ta82  1  0.20325317  0.81231638  0.26538197  1
  Ta  Ta83  1  -0.00452572  0.40426644  0.25898099  1
  Ta  Ta84  1  0.90111248  0.90774459  0.11199769  1
  Ta  Ta85  1  0.50500643  0.30445818  0.87120060  1
  Ta  Ta86  1  0.09685401  0.30318655  0.12845988  1
  Ta  Ta87  1  0.38049382  -0.01874039  0.26255166  1
  Ta  Ta88  1  0.89782450  0.09775881  0.62990342  1
  Ta  Ta89  1  0.79322764  0.41030328  0.24552999  1
  Ta  Ta90  1  0.61569040  0.39513198  0.25576721  1
  Ta  Ta91  1  0.70480526  0.49242199  0.39196555  1
  Ta  Ta92  1  0.60958872  0.19855919  0.25054110  1
  Ta  Ta93  1  0.89483807  0.89522659  0.88065830  1
  Ta  Ta94  1  0.70504517  0.29742576  0.87618129  1
  Ta  Ta95  1  0.19578572  0.19780593  0.25279885  1
  Ta  Ta96  1  0.10354106  0.30953729  0.63176481  1
  Ta  Ta97  1  0.60106440  0.20812375  0.48858171  1
  Ta  Ta98  1  0.50393353  0.29977205  0.36231732  1
  Ta  Ta99  1  -0.01694128  -0.01531656  0.49491349  1
  Ta  Ta100  1  0.39302228  0.78937058  0.00689570  1
  Ta  Ta101  1  0.49976930  0.89453271  0.61734572  1
  Ta  Ta102  1  0.50797488  0.49894673  0.14743270  1
  Ta  Ta103  1  0.69898431  0.30654129  0.11103102  1
  Ta  Ta104  1  0.30233968  0.29658862  0.36567728  1
  Ta  Ta105  1  0.30920135  0.50794527  0.15476764  1
  Ta  Ta106  1  -0.01126791  -0.00790916  0.26192923  1
  Ta  Ta107  1  0.29475073  0.09032202  0.37863601  1
  Ta  Ta108  1  0.09719664  0.90008993  0.88212620  1
  Ta  Ta109  1  0.19153241  0.20044399  0.01248211  1
  Ta  Ta110  1  0.59923203  0.19458764  0.76728653  1
  Ta  Ta111  1  0.41295799  0.60708547  0.50692821  1
  Ta  Ta112  1  -0.00662867  0.80205638  0.75567200  1
  Ta  Ta113  1  0.81205949  0.80941588  0.51769337  1
  Ta  Ta114  1  0.69266885  0.49993520  0.88207879  1
  Ta  Ta115  1  0.79180890  0.18804126  -0.00144949  1
  Ta  Ta116  1  0.50268425  0.69048437  0.13488202  1
  Ta  Ta117  1  0.69862896  0.48644453  0.61686680  1
  Ta  Ta118  1  0.80743962  0.80560368  0.23536719  1
  Ta  Ta119  1  0.29944878  0.08962010  0.61146852  1
  Ti  Ti120  1  0.41128385  -0.00852294  -0.01481335  1
  Ti  Ti121  1  0.69594897  0.30444533  0.63855038  1
  Ti  Ti122  1  0.31707300  0.51476510  0.85310744  1
  Ti  Ti123  1  0.89116962  0.51137624  0.88215161  1
  Ti  Ti124  1  0.88865418  0.08932647  0.11767102  1
  Ti  Ti125  1  0.88547651  0.10389392  0.86711654  1
  Ti  Ti126  1  0.09537074  0.69837560  0.38030482  1
  Ti  Ti127  1  0.00235682  0.80156534  -0.00398188  1
  Ti  Ti128  1  0.09675636  0.89823533  0.38283052  1
  Ti  Ti129  1  0.09842592  0.09873114  0.87099462  1
  Ti  Ti130  1  0.20024249  0.39682538  0.48837725  1
  Ti  Ti131  1  0.90620240  0.49538891  0.61264590  1
  Ti  Ti132  1  0.19740149  0.79775369  0.49421479  1
  Ti  Ti133  1  0.20139984  -0.00807805  0.49398604  1
  Ti  Ti134  1  0.60169610  0.60232680  0.51151502  1
  Ti  Ti135  1  0.39649179  -0.00597346  0.76302206  1
  Ti  Ti136  1  0.10294901  0.50725757  0.63271608  1
  Ti  Ti137  1  0.80793151  0.80067755  0.73775162  1
  Ti  Ti138  1  0.11232316  0.71217610  0.13363949  1
  Ti  Ti139  1  0.30971491  0.90557339  0.60871570  1
  Ti  Ti140  1  0.89372832  0.70667793  0.88503780  1
  Ti  Ti141  1  0.69512974  0.10235090  0.37574062  1
  Ti  Ti142  1  0.00321736  0.60492987  0.25685268  1
  Ti  Ti143  1  0.69685080  0.70916348  0.63817820  1
  Ti  Ti144  1  0.10696240  0.70954753  0.87623848  1
  Ti  Ti145  1  0.39412726  0.79773010  0.23841951  1
  Ti  Ti146  1  0.70728878  0.89127320  0.37086316  1
  Ti  Ti147  1  0.70262412  0.92355943  0.11787118  1
  Ti  Ti148  1  0.79803933  0.39939964  -0.01026160  1
  Ti  Ti149  1  0.40614882  0.79610994  0.50117730  1
  Ti  Ti150  1  0.29195837  0.89241870  0.89118045  1
  Ti  Ti151  1  0.30183765  0.29849698  0.62406679  1
  Ti  Ti152  1  0.41009906  0.40119090  0.75544497  1
  Ti  Ti153  1  0.70324615  0.88753252  0.87112815  1
  Ti  Ti154  1  0.59381893  0.40644918  -0.00720064  1
  Ti  Ti155  1  0.49271089  0.89995172  0.12631406  1
  Ti  Ti156  1  0.20095977  0.19557006  0.73724600  1
  Ti  Ti157  1  0.90071703  0.70911000  0.38167078  1
  Ti  Ti158  1  0.69803977  0.49946774  0.11007449  1
  Ti  Ti159  1  -0.00597595  -0.00479983  0.75674234  1
  Mo  Mo160  1  0.00138437  0.61141262  0.51037897  1
  Mo  Mo161  1  0.60819474  0.38967404  0.48705479  1
  Mo  Mo162  1  0.80151280  0.40283415  0.51943830  1
  Mo  Mo163  1  0.39537960  -0.01050317  0.49136427  1
  Mo  Mo164  1  0.90372503  0.90323788  0.64312701  1
  Mo  Mo165  1  0.09850006  0.29868102  0.36358887  1
  Mo  Mo166  1  0.29778454  0.70559346  0.14534529  1
  Mo  Mo167  1  0.49022469  0.09800161  0.86776951  1
  Mo  Mo168  1  0.60683168  0.39662498  0.76668210  1
  Mo  Mo169  1  0.60393063  0.80146778  0.74544121  1
  Mo  Mo170  1  0.79979085  -0.00011752  -0.01488438  1
  Mo  Mo171  1  0.40632287  0.60497270  0.24718663  1
  Mo  Mo172  1  0.50188954  0.49570429  0.86235458  1
  Mo  Mo173  1  0.70338572  0.10270397  0.85935480  1
  Mo  Mo174  1  0.18675949  0.00348524  -0.01872809  1
  Mo  Mo175  1  0.69773940  0.89169571  0.64165806  1
  Mo  Mo176  1  0.80550436  0.59930170  0.25651025  1
  Mo  Mo177  1  0.19624563  0.61326753  0.25238891  1
  Mo  Mo178  1  0.29756832  0.89205884  0.39189515  1
  Mo  Mo179  1  0.70428786  0.10230428  0.13130511  1
  Mo  Mo180  1  0.79826431  0.60088306  -0.01583678  1
  Mo  Mo181  1  0.89073177  0.89310611  0.36930301  1
  Mo  Mo182  1  0.90477405  0.30683231  0.61202278  1
  Mo  Mo183  1  0.49123777  0.88868645  0.88837598  1
  Mo  Mo184  1  0.40518823  0.39800522  0.26160470  1
  Mo  Mo185  1  0.70002725  0.30361457  0.37423508  1
  Mo  Mo186  1  0.09851424  0.51312970  0.36149595  1
  Mo  Mo187  1  0.60389477  -0.00290858  0.25964183  1
  Mo  Mo188  1  0.19735202  0.79524300  -0.00882212  1
  Mo  Mo189  1  0.79691452  0.20004024  0.74730699  1
  Mo  Mo190  1  0.90832380  0.71179546  0.61731398  1
  Mo  Mo191  1  0.09643490  0.70185750  0.60697980  1
  Mo  Mo192  1  0.19406995  -0.00631735  0.27160559  1
  Mo  Mo193  1  0.61435802  0.58691106  0.24035633  1
  Mo  Mo194  1  0.19970612  0.60252110  0.73250936  1
  Mo  Mo195  1  0.40319595  0.60136525  0.73267051  1
  Mo  Mo196  1  0.59611048  0.58743504  0.00830581  1
  Mo  Mo197  1  -0.00420922  0.80159111  0.48424137  1
  Mo  Mo198  1  0.49975026  0.70153162  0.62553815  1
  Mo  Mo199  1  0.89235294  0.29873456  0.89529927  1
