# generated using pymatgen
data_HfZrTaTiMo
_symmetry_space_group_name_H-M   'P 1'
_cell_length_a   15.92647496
_cell_length_b   15.92229575
_cell_length_c   15.21997169
_cell_angle_alpha   89.96837521
_cell_angle_beta   89.96755361
_cell_angle_gamma   90.03789137
_symmetry_Int_Tables_number   1
_chemical_formula_structural   HfZrTaTiMo
_chemical_formula_sum   'Hf40 Zr40 Ta40 Ti40 Mo40'
_cell_volume   3859.57036652
_cell_formula_units_Z   40
loop_
 _symmetry_equiv_pos_site_id
 _symmetry_equiv_pos_as_xyz
  1  'x, y, z'
loop_
 _atom_site_type_symbol
 _atom_site_label
 _atom_site_symmetry_multiplicity
 _atom_site_fract_x
 _atom_site_fract_y
 _atom_site_fract_z
 _atom_site_occupancy
  Hf  Hf0  1  0.79884382  0.42688505  0.24351991  1
  Hf  Hf1  1  0.18993752  0.19580279  0.49534241  1
  Hf  Hf2  1  0.69618123  0.30943479  0.13445128  1
  Hf  Hf3  1  -0.01848246  0.59028865  0.24374994  1
  Hf  Hf4  1  0.89000887  0.50192263  0.40295863  1
  Hf  Hf5  1  0.31471863  0.68321225  0.10969683  1
  Hf  Hf6  1  0.08976224  0.49255762  0.37844067  1
  Hf  Hf7  1  0.29523230  0.29106141  0.63589912  1
  Hf  Hf8  1  -0.00982235  0.19653032  0.00302150  1
  Hf  Hf9  1  0.28650107  0.30047012  0.87649612  1
  Hf  Hf10  1  0.09241053  0.10442884  0.65493016  1
  Hf  Hf11  1  0.59531413  0.20343562  0.26933532  1
  Hf  Hf12  1  0.69255135  0.09293153  0.14877228  1
  Hf  Hf13  1  0.49533488  0.09055006  0.87094022  1
  Hf  Hf14  1  0.19424358  0.38487884  0.49686285  1
  Hf  Hf15  1  -0.00177555  -0.00183968  0.51050523  1
  Hf  Hf16  1  0.61288485  0.80468320  -0.00083516  1
  Hf  Hf17  1  0.72335284  0.51792755  0.60459714  1
  Hf  Hf18  1  0.90682104  0.70321577  0.38477260  1
  Hf  Hf19  1  0.60143522  0.39690578  -0.01168180  1
  Hf  Hf20  1  0.60302516  0.59922236  0.73718488  1
  Hf  Hf21  1  0.10717253  0.69536632  0.86657585  1
  Hf  Hf22  1  -0.00871609  0.59157258  0.76497333  1
  Hf  Hf23  1  0.09834162  0.48936263  0.88669597  1
  Hf  Hf24  1  0.79571350  0.19561818  0.00348938  1
  Hf  Hf25  1  0.09184170  0.09941541  0.35542805  1
  Hf  Hf26  1  0.40344133  0.59481594  0.25710564  1
  Hf  Hf27  1  0.60674343  0.00665449  -0.00259503  1
  Hf  Hf28  1  0.50648099  0.50195771  0.12318106  1
  Hf  Hf29  1  0.19652244  0.40867320  0.75180407  1
  Hf  Hf30  1  0.21299404  0.80063114  0.74524713  1
  Hf  Hf31  1  0.31113388  0.90207533  0.88433039  1
  Hf  Hf32  1  0.20431694  0.79947358  0.23471234  1
  Hf  Hf33  1  0.09229541  0.89806952  0.36915398  1
  Hf  Hf34  1  0.31016820  0.91283479  0.10964794  1
  Hf  Hf35  1  0.08709531  0.50915098  0.61842380  1
  Hf  Hf36  1  0.09966354  0.69992812  0.36745020  1
  Hf  Hf37  1  0.30255823  0.29055931  0.13463945  1
  Hf  Hf38  1  0.20583040  0.79238353  -0.00286873  1
  Hf  Hf39  1  0.59499666  0.80926235  0.73356631  1
  Zr  Zr40  1  0.30789501  0.49412043  0.61252308  1
  Zr  Zr41  1  0.29452504  0.10315781  0.35631342  1
  Zr  Zr42  1  0.20371509  0.58402828  0.24236227  1
  Zr  Zr43  1  0.71406699  0.69025357  0.12575018  1
  Zr  Zr44  1  0.71049390  0.91664341  0.85830703  1
  Zr  Zr45  1  0.60208359  0.21317131  0.75602718  1
  Zr  Zr46  1  0.89714226  0.10169743  0.37059385  1
  Zr  Zr47  1  0.60795245  0.39988442  0.50709237  1
  Zr  Zr48  1  0.70903998  0.31311122  0.37196989  1
  Zr  Zr49  1  0.09378110  0.90117301  0.11538428  1
  Zr  Zr50  1  0.60046365  0.20408903  -0.00802722  1
  Zr  Zr51  1  0.09126888  0.29578682  0.65139149  1
  Zr  Zr52  1  0.50263862  0.10670198  0.61760323  1
  Zr  Zr53  1  0.51050407  0.49663661  0.37822193  1
  Zr  Zr54  1  0.90100076  0.67989100  0.62395253  1
  Zr  Zr55  1  0.50323913  0.89654137  0.38978019  1
  Zr  Zr56  1  0.39905792  -0.01380818  0.72836227  1
  Zr  Zr57  1  0.30458041  0.69465861  0.61440357  1
  Zr  Zr58  1  0.61818834  0.79102323  0.51270305  1
  Zr  Zr59  1  0.10294964  0.90776098  0.87318135  1
  Zr  Zr60  1  0.38906290  0.20621903  0.48873462  1
  Zr  Zr61  1  0.30379053  0.70181389  0.38238381  1
  Zr  Zr62  1  0.41178115  0.40172382  0.76174328  1
  Zr  Zr63  1  -0.00713550  0.20574249  0.50483795  1
  Zr  Zr64  1  0.39932733  0.39954867  0.00285561  1
  Zr  Zr65  1  0.51924284  0.68907271  0.11658685  1
  Zr  Zr66  1  0.39896768  0.19987225  -0.00572493  1
  Zr  Zr67  1  0.70468149  0.90668745  0.37629051  1
  Zr  Zr68  1  0.40994853  0.79715589  0.24032075  1
  Zr  Zr69  1  0.19788563  0.00095606  0.52045911  1
  Zr  Zr70  1  0.70579620  0.70521741  0.85825226  1
  Zr  Zr71  1  0.61309603  0.40578649  0.74232592  1
  Zr  Zr72  1  -0.01167520  0.79412232  -0.01809176  1
  Zr  Zr73  1  0.09083225  0.69159423  0.12080306  1
  Zr  Zr74  1  0.48801936  0.10407483  0.13388062  1
  Zr  Zr75  1  0.39531705  0.19568242  0.75324455  1
  Zr  Zr76  1  0.49794445  0.70396606  0.87454334  1
  Zr  Zr77  1  0.40338953  -0.00172592  0.25219756  1
  Zr  Zr78  1  0.29546155  0.89655906  0.38251360  1
  Zr  Zr79  1  0.81021975  0.79979098  0.25952303  1
  Ta  Ta80  1  0.49514672  0.30747156  0.61136120  1
  Ta  Ta81  1  0.80546496  0.59898434  -0.02545736  1
  Ta  Ta82  1  0.89476292  0.10429610  0.63957734  1
  Ta  Ta83  1  -0.01311675  0.00841033  -0.00367948  1
  Ta  Ta84  1  -0.00187878  0.40056520  0.23238343  1
  Ta  Ta85  1  -0.02095902  -0.01508733  0.75933004  1
  Ta  Ta86  1  0.39442957  0.00084341  0.51099585  1
  Ta  Ta87  1  0.71018875  0.90803606  0.63083176  1
  Ta  Ta88  1  0.79811198  0.00433789  0.00792899  1
  Ta  Ta89  1  0.80290999  0.00575139  0.51044870  1
  Ta  Ta90  1  0.39928744  0.60195523  0.75568348  1
  Ta  Ta91  1  0.19102993  0.79947547  0.51687141  1
  Ta  Ta92  1  0.30057488  0.51090559  0.88631932  1
  Ta  Ta93  1  0.08899758  0.10396631  0.12951374  1
  Ta  Ta94  1  0.09083900  0.29857836  0.87987145  1
  Ta  Ta95  1  0.50668189  0.50883013  0.88158000  1
  Ta  Ta96  1  0.39104579  0.40273304  0.25365971  1
  Ta  Ta97  1  0.09247021  0.29675508  0.35098821  1
  Ta  Ta98  1  0.29071333  0.09159687  0.88235634  1
  Ta  Ta99  1  0.49826285  0.69383299  0.61173609  1
  Ta  Ta100  1  0.90624577  0.30539843  0.36002174  1
  Ta  Ta101  1  0.19021975  0.60261450  0.49939385  1
  Ta  Ta102  1  -0.01425007  -0.00447909  0.23617651  1
  Ta  Ta103  1  0.50455837  0.09511466  0.38242308  1
  Ta  Ta104  1  0.00760797  0.79706214  0.51908602  1
  Ta  Ta105  1  0.51064101  0.69751320  0.38574233  1
  Ta  Ta106  1  0.50177507  0.90202384  0.87858810  1
  Ta  Ta107  1  0.50078415  0.30472513  0.14752610  1
  Ta  Ta108  1  0.80482224  0.20036573  0.24725798  1
  Ta  Ta109  1  0.70016511  0.09839048  0.37747751  1
  Ta  Ta110  1  0.70194316  0.89820615  0.13521378  1
  Ta  Ta111  1  0.41135333  0.80157318  0.00334879  1
  Ta  Ta112  1  0.18926630  0.19862462  0.00591412  1
  Ta  Ta113  1  0.60483933  0.79633666  0.25374544  1
  Ta  Ta114  1  0.81078042  0.80776511  0.51028419  1
  Ta  Ta115  1  0.20667677  0.00152580  0.74337080  1
  Ta  Ta116  1  0.89159342  0.89744481  0.11132400  1
  Ta  Ta117  1  0.82736189  0.81303822  0.74328555  1
  Ta  Ta118  1  0.60638909  0.20322882  0.49584156  1
  Ta  Ta119  1  0.29750031  0.49001816  0.38688765  1
  Ti  Ti120  1  0.09497293  0.49689035  0.11519552  1
  Ti  Ti121  1  0.80536993  0.40037375  0.73784887  1
  Ti  Ti122  1  0.62166844  0.58559638  0.26088290  1
  Ti  Ti123  1  0.49073773  0.30631043  0.37495483  1
  Ti  Ti124  1  0.89368371  0.69665823  0.11972898  1
  Ti  Ti125  1  -0.00574369  0.38746703  0.51130763  1
  Ti  Ti126  1  0.40417896  0.59658199  0.48924577  1
  Ti  Ti127  1  0.51274968  0.90634743  0.12405754  1
  Ti  Ti128  1  0.80535756  0.58352682  0.76511006  1
  Ti  Ti129  1  0.80419833  0.80198214  -0.01397161  1
  Ti  Ti130  1  0.89011330  0.50539163  0.10503305  1
  Ti  Ti131  1  0.89675940  0.29946804  0.13170111  1
  Ti  Ti132  1  0.80707997  -0.00471182  0.25176559  1
  Ti  Ti133  1  -0.01769860  0.40277189  0.74985734  1
  Ti  Ti134  1  0.70348252  0.10804635  0.62767609  1
  Ti  Ti135  1  0.89467265  0.31124921  0.88056818  1
  Ti  Ti136  1  0.79492418  0.20849459  0.75239708  1
  Ti  Ti137  1  0.09716396  0.10050497  0.87102328  1
  Ti  Ti138  1  0.69958468  0.50750152  0.10447882  1
  Ti  Ti139  1  -0.01541245  0.20156882  0.77215755  1
  Ti  Ti140  1  0.19563673  0.00137232  0.23126042  1
  Ti  Ti141  1  0.40374765  0.79898353  0.73722477  1
  Ti  Ti142  1  0.20723618  0.60013972  0.74688868  1
  Ti  Ti143  1  0.60523449  0.00303015  0.51216056  1
  Ti  Ti144  1  0.70379766  0.68961292  0.37649321  1
  Ti  Ti145  1  0.49596154  0.50164640  0.61215215  1
  Ti  Ti146  1  -0.00610056  0.39403155  0.01196752  1
  Ti  Ti147  1  0.87802779  0.09049128  0.86417515  1
  Ti  Ti148  1  0.60180594  0.00564156  0.74091940  1
  Ti  Ti149  1  0.71432227  0.31224427  0.87790567  1
  Ti  Ti150  1  -0.00723613  0.80594917  0.24128294  1
  Ti  Ti151  1  0.19728353  0.40043629  0.23970274  1
  Ti  Ti152  1  0.20265204  0.59244995  0.00281671  1
  Ti  Ti153  1  0.81139544  0.38013246  0.51897774  1
  Ti  Ti154  1  -0.00903053  0.59787102  -0.01209925  1
  Ti  Ti155  1  0.80044451  0.20344669  0.50563922  1
  Ti  Ti156  1  0.19255790  0.20161371  0.23589629  1
  Ti  Ti157  1  0.19644212  0.39474868  0.01509556  1
  Ti  Ti158  1  0.09215981  0.89445489  0.64525207  1
  Ti  Ti159  1  0.19409931  0.01300288  0.00789989  1
  Mo  Mo160  1  0.10160829  0.69925358  0.63876976  1
  Mo  Mo161  1  0.89559640  0.90478581  0.88780833  1
  Mo  Mo162  1  0.28669461  0.10173587  0.12146466  1
  Mo  Mo163  1  0.90549077  0.90267369  0.61499067  1
  Mo  Mo164  1  0.89277278  0.09626440  0.13186835  1
  Mo  Mo165  1  0.28765557  0.30398961  0.35296652  1
  Mo  Mo166  1  0.90010302  0.69948188  0.86162793  1
  Mo  Mo167  1  0.29915377  0.49344329  0.11235239  1
  Mo  Mo168  1  0.60218602  0.60364413  0.50641724  1
  Mo  Mo169  1  0.89774072  0.48489449  0.88847235  1
  Mo  Mo170  1  0.39760121  0.39590254  0.48730914  1
  Mo  Mo171  1  0.59747923  0.40636604  0.25161337  1
  Mo  Mo172  1  0.89587875  0.29272499  0.64454276  1
  Mo  Mo173  1  0.29998536  0.89529847  0.61556781  1
  Mo  Mo174  1  0.50196879  0.30543622  0.86770397  1
  Mo  Mo175  1  0.79859360  0.00849629  0.73497701  1
  Mo  Mo176  1  0.80288351  0.39913148  0.01133895  1
  Mo  Mo177  1  0.50439140  0.89806957  0.61030941  1
  Mo  Mo178  1  0.70509648  0.29333948  0.61845374  1
  Mo  Mo179  1  0.79728994  0.62216634  0.49327660  1
  Mo  Mo180  1  0.00606375  0.60251324  0.49623957  1
  Mo  Mo181  1  0.60317146  -0.00511819  0.25795268  1
  Mo  Mo182  1  0.79986854  0.60022948  0.25973664  1
  Mo  Mo183  1  0.09589744  0.30291879  0.12450519  1
  Mo  Mo184  1  0.29094340  0.10115949  0.63164011  1
  Mo  Mo185  1  -0.00589589  0.20302755  0.23397965  1
  Mo  Mo186  1  0.70247155  0.10591867  0.86283497  1
  Mo  Mo187  1  0.30602480  0.69527905  0.87876056  1
  Mo  Mo188  1  0.00338051  0.79744256  0.74646587  1
  Mo  Mo189  1  0.70683954  0.50890037  0.39046487  1
  Mo  Mo190  1  0.70959619  0.70686140  0.63947401  1
  Mo  Mo191  1  0.61172140  0.59718174  -0.01881721  1
  Mo  Mo192  1  0.90719123  0.90135058  0.39282374  1
  Mo  Mo193  1  0.19175926  0.19562089  0.77691978  1
  Mo  Mo194  1  0.39730266  0.20581892  0.26517649  1
  Mo  Mo195  1  0.40545933  -0.00036535  0.00097509  1
  Mo  Mo196  1  0.40397302  0.80107422  0.50939213  1
  Mo  Mo197  1  0.70606014  0.49676876  0.87647341  1
  Mo  Mo198  1  0.40366504  0.59993949  -0.01360810  1
  Mo  Mo199  1  0.90320560  0.49163939  0.61344338  1
