# generated using pymatgen
data_HfZrTaTiMo
_symmetry_space_group_name_H-M   'P 1'
_cell_length_a   15.93587522
_cell_length_b   15.92720702
_cell_length_c   15.20347273
_cell_angle_alpha   90.00735111
_cell_angle_beta   90.00937218
_cell_angle_gamma   89.93454857
_symmetry_Int_Tables_number   1
_chemical_formula_structural   HfZrTaTiMo
_chemical_formula_sum   'Hf40 Zr40 Ta40 Ti40 Mo40'
_cell_volume   3858.85137734
_cell_formula_units_Z   40
loop_
 _symmetry_equiv_pos_site_id
 _symmetry_equiv_pos_as_xyz
  1  'x, y, z'
loop_
 _atom_site_type_symbol
 _atom_site_label
 _atom_site_symmetry_multiplicity
 _atom_site_fract_x
 _atom_site_fract_y
 _atom_site_fract_z
 _atom_site_occupancy
  Hf  Hf0  1  0.00303573  0.19861336  0.73679678  1
  Hf  Hf1  1  0.30652774  0.10162507  0.62209522  1
  Hf  Hf2  1  0.19716501  0.77417624  0.00018858  1
  Hf  Hf3  1  0.89896665  0.31416199  0.13054994  1
  Hf  Hf4  1  0.19769389  0.59616430  0.51016604  1
  Hf  Hf5  1  0.58945102  0.79954451  -0.00013579  1
  Hf  Hf6  1  0.08371137  0.69500556  0.63368250  1
  Hf  Hf7  1  0.68549931  0.91505339  0.87554851  1
  Hf  Hf8  1  0.79539796  0.79855684  0.26171580  1
  Hf  Hf9  1  0.00290658  0.19718480  0.24134444  1
  Hf  Hf10  1  0.59626400  0.80031687  0.23851011  1
  Hf  Hf11  1  0.49294312  0.69635793  0.38860891  1
  Hf  Hf12  1  0.20875925  0.39870843  0.74768057  1
  Hf  Hf13  1  0.90036126  0.11016729  0.88261508  1
  Hf  Hf14  1  0.90164546  0.90139443  0.89371614  1
  Hf  Hf15  1  0.30306627  0.09799475  0.88461925  1
  Hf  Hf16  1  0.90619021  0.90053360  0.61172096  1
  Hf  Hf17  1  0.80753688  0.18224697  0.50635514  1
  Hf  Hf18  1  0.00104206  -0.00163492  0.24827304  1
  Hf  Hf19  1  0.59956058  0.19996281  0.25111349  1
  Hf  Hf20  1  0.40074476  0.20577118  0.76088983  1
  Hf  Hf21  1  0.38798154  0.79969255  0.75665824  1
  Hf  Hf22  1  0.29985500  0.49945386  0.37081956  1
  Hf  Hf23  1  0.90261253  0.30034024  0.36653782  1
  Hf  Hf24  1  0.89099257  0.70265101  0.11383059  1
  Hf  Hf25  1  0.38601065  0.60401917  0.74819921  1
  Hf  Hf26  1  0.60304918  0.19500159  0.50110981  1
  Hf  Hf27  1  0.49779285  0.69757147  0.62511948  1
  Hf  Hf28  1  0.58974190  0.60663288  0.24010040  1
  Hf  Hf29  1  0.58467563  0.01096344  0.01991484  1
  Hf  Hf30  1  0.10391034  0.10347470  0.88419610  1
  Hf  Hf31  1  0.70197679  0.89812506  0.62635786  1
  Hf  Hf32  1  0.10443181  0.89463283  0.12718339  1
  Hf  Hf33  1  0.11041195  0.31331834  0.12418738  1
  Hf  Hf34  1  0.79623129  0.60586002  0.26335091  1
  Hf  Hf35  1  0.10620969  0.08800089  0.62739426  1
  Hf  Hf36  1  0.31217955  0.30160072  0.60961061  1
  Hf  Hf37  1  0.10727366  0.30119071  0.88888444  1
  Hf  Hf38  1  0.00084211  0.39843741  0.73905289  1
  Hf  Hf39  1  0.20079394  0.19969087  0.49284925  1
  Zr  Zr40  1  0.40256593  0.79205839  0.22785014  1
  Zr  Zr41  1  0.70044743  0.29036332  0.86391740  1
  Zr  Zr42  1  0.59816068  0.58967267  -0.01463337  1
  Zr  Zr43  1  0.79873921  0.80002622  0.76613357  1
  Zr  Zr44  1  0.11005673  0.09723180  0.36665468  1
  Zr  Zr45  1  0.48906336  0.50281981  0.38008723  1
  Zr  Zr46  1  0.69452093  0.69538293  0.62315319  1
  Zr  Zr47  1  0.00365385  0.00743955  0.01919277  1
  Zr  Zr48  1  0.70467519  0.49915717  0.13163943  1
  Zr  Zr49  1  0.00807752  0.40143231  0.50046693  1
  Zr  Zr50  1  0.49977685  0.90100896  0.63799608  1
  Zr  Zr51  1  0.60509804  0.40606276  0.50695683  1
  Zr  Zr52  1  0.10434810  0.70118570  0.36536299  1
  Zr  Zr53  1  -0.00191975  0.59265477  0.48438639  1
  Zr  Zr54  1  -0.00829266  0.59709091  0.25209578  1
  Zr  Zr55  1  0.79923666  0.00748398  0.26354931  1
  Zr  Zr56  1  0.30459981  0.69496074  0.37191236  1
  Zr  Zr57  1  0.18372405  0.81107153  0.50462446  1
  Zr  Zr58  1  0.91227912  0.69461816  0.88108632  1
  Zr  Zr59  1  0.80794374  0.20312127  0.72874397  1
  Zr  Zr60  1  0.90237211  0.51566820  0.63201338  1
  Zr  Zr61  1  0.00703423  -0.00329014  0.49053368  1
  Zr  Zr62  1  0.89083365  0.70935531  0.61664484  1
  Zr  Zr63  1  0.10183921  0.52206832  0.85852064  1
  Zr  Zr64  1  0.78919384  0.01451760  0.00160121  1
  Zr  Zr65  1  0.20151269  0.78610071  0.75633255  1
  Zr  Zr66  1  0.50333121  0.09154888  0.36773150  1
  Zr  Zr67  1  0.79590587  0.41020281  -0.01102639  1
  Zr  Zr68  1  -0.00080064  0.19974249  0.50359434  1
  Zr  Zr69  1  0.41549105  0.19284933  -0.00042196  1
  Zr  Zr70  1  0.19990123  -0.01007900  0.75433766  1
  Zr  Zr71  1  0.02474257  0.60326766  0.01806236  1
  Zr  Zr72  1  0.79810338  0.01266597  0.74698515  1
  Zr  Zr73  1  0.21212792  0.20075408  0.24229627  1
  Zr  Zr74  1  0.59582133  0.39842569  -0.00802270  1
  Zr  Zr75  1  0.39450519  0.59433447  0.00374413  1
  Zr  Zr76  1  0.90689893  0.30398909  0.88412348  1
  Zr  Zr77  1  0.70628108  0.29643925  0.37365551  1
  Zr  Zr78  1  0.70250383  0.89909818  0.12266650  1
  Zr  Zr79  1  0.49521629  0.89965533  0.37066258  1
  Ta  Ta80  1  0.60742837  0.19678016  0.00919563  1
  Ta  Ta81  1  0.49115338  0.29926046  0.38510331  1
  Ta  Ta82  1  -0.00531485  0.80236675  0.25244760  1
  Ta  Ta83  1  0.20604788  -0.00662660  0.49372332  1
  Ta  Ta84  1  0.70327266  0.69946497  0.10698862  1
  Ta  Ta85  1  0.78671321  0.59911701  0.76510833  1
  Ta  Ta86  1  0.00434673  0.20197298  0.02113350  1
  Ta  Ta87  1  0.29983873  0.90423429  0.36654261  1
  Ta  Ta88  1  0.30628911  0.49619750  0.61857102  1
  Ta  Ta89  1  0.79435376  0.20475344  0.01586680  1
  Ta  Ta90  1  0.79780745  0.40421284  0.73850222  1
  Ta  Ta91  1  0.49625363  0.49839341  0.63108453  1
  Ta  Ta92  1  0.49921251  0.10158236  0.63006816  1
  Ta  Ta93  1  0.29870342  0.89826380  0.89316791  1
  Ta  Ta94  1  0.31281768  0.09608985  0.37630321  1
  Ta  Ta95  1  0.50140419  0.30265762  0.12353554  1
  Ta  Ta96  1  0.59820799  0.79303189  0.76666525  1
  Ta  Ta97  1  0.80408899  0.40300903  0.50932197  1
  Ta  Ta98  1  0.38695420  0.80369739  0.50868525  1
  Ta  Ta99  1  0.20499878  0.20410377  0.75243350  1
  Ta  Ta100  1  0.69958710  0.30191593  0.62310169  1
  Ta  Ta101  1  0.51862831  0.09247850  0.85878966  1
  Ta  Ta102  1  0.29588163  0.50557161  0.87321595  1
  Ta  Ta103  1  0.39975127  -0.00355631  0.50454164  1
  Ta  Ta104  1  0.90171079  0.89848286  0.38414486  1
  Ta  Ta105  1  0.49762574  0.29930800  0.62131162  1
  Ta  Ta106  1  0.59929282  0.40207023  0.74537846  1
  Ta  Ta107  1  0.30655290  0.30863191  0.10901962  1
  Ta  Ta108  1  0.39911550  0.39093803  0.24723489  1
  Ta  Ta109  1  0.69472539  0.49903129  0.36931511  1
  Ta  Ta110  1  0.49089944  0.90470506  0.87339155  1
  Ta  Ta111  1  0.79068859  0.59141462  0.48830822  1
  Ta  Ta112  1  0.60487414  0.00273635  0.50980230  1
  Ta  Ta113  1  0.49343159  0.69662416  0.87242107  1
  Ta  Ta114  1  0.40106670  0.20218576  0.24233336  1
  Ta  Ta115  1  0.59337559  0.39830548  0.25314356  1
  Ta  Ta116  1  0.30766904  0.30229132  0.38307917  1
  Ta  Ta117  1  0.89483162  0.89328747  0.11860181  1
  Ta  Ta118  1  0.09996874  0.89670624  0.88615905  1
  Ta  Ta119  1  0.39621850  0.79352970  0.00166164  1
  Ti  Ti120  1  0.89807244  0.70597174  0.38789009  1
  Ti  Ti121  1  -0.00030933  -0.00531577  0.75049017  1
  Ti  Ti122  1  0.90082802  0.50053411  0.12556595  1
  Ti  Ti123  1  0.20293998  0.41962919  -0.00188013  1
  Ti  Ti124  1  0.49061422  0.49433874  0.13239811  1
  Ti  Ti125  1  0.60828189  0.19124162  0.73646901  1
  Ti  Ti126  1  0.29715307  0.30107902  0.89297091  1
  Ti  Ti127  1  0.78975438  0.80518334  0.48657002  1
  Ti  Ti128  1  0.29260450  0.68380415  0.13327943  1
  Ti  Ti129  1  0.89132185  0.10580206  0.13107198  1
  Ti  Ti130  1  0.90337875  0.50224915  0.86629854  1
  Ti  Ti131  1  0.20133936  0.80038013  0.24590708  1
  Ti  Ti132  1  0.50738297  0.29568904  0.87138783  1
  Ti  Ti133  1  0.00515942  0.41254599  0.00178893  1
  Ti  Ti134  1  0.60098959  0.59327208  0.50573508  1
  Ti  Ti135  1  0.79299706  0.59930124  -0.01941986  1
  Ti  Ti136  1  0.68721048  0.70002723  0.38520170  1
  Ti  Ti137  1  0.11039677  0.30092406  0.62406863  1
  Ti  Ti138  1  0.80370848  0.40896011  0.25954478  1
  Ti  Ti139  1  0.20149850  -0.00004424  0.00844726  1
  Ti  Ti140  1  0.40269271  0.00155617  0.22985643  1
  Ti  Ti141  1  0.59436719  0.80626384  0.49953162  1
  Ti  Ti142  1  0.29710926  0.49314259  0.13782296  1
  Ti  Ti143  1  0.39685972  -0.00057238  0.75357761  1
  Ti  Ti144  1  0.20829194  -0.00037938  0.24323498  1
  Ti  Ti145  1  0.30004947  0.10340105  0.11483745  1
  Ti  Ti146  1  0.11171532  0.49894003  0.14681155  1
  Ti  Ti147  1  0.40427582  -0.00435698  0.01009418  1
  Ti  Ti148  1  0.68935016  0.91123092  0.37684438  1
  Ti  Ti149  1  0.69841983  0.10488153  0.14259467  1
  Ti  Ti150  1  0.19701939  0.40345351  0.49892578  1
  Ti  Ti151  1  0.70261217  0.30344740  0.13637818  1
  Ti  Ti152  1  0.40306847  0.39910286  0.76108209  1
  Ti  Ti153  1  0.30040590  0.89725222  0.11797471  1
  Ti  Ti154  1  0.00396644  0.80711606  0.76021780  1
  Ti  Ti155  1  0.29333904  0.90191012  0.62439490  1
  Ti  Ti156  1  0.10618664  0.49156093  0.35278743  1
  Ti  Ti157  1  0.40597182  0.40433493  -0.01056057  1
  Ti  Ti158  1  0.00833469  0.79486016  0.00691101  1
  Ti  Ti159  1  0.10812277  0.31122613  0.35848142  1
  Mo  Mo160  1  0.39927725  0.60072463  0.51908377  1
  Mo  Mo161  1  -0.00219299  0.80121358  0.48196936  1
  Mo  Mo162  1  0.69720314  0.49783470  0.85564852  1
  Mo  Mo163  1  0.40514635  0.19510478  0.49476320  1
  Mo  Mo164  1  0.20975713  0.39504045  0.25411460  1
  Mo  Mo165  1  0.20152469  0.59541812  0.73041629  1
  Mo  Mo166  1  0.90579671  0.09023432  0.63164022  1
  Mo  Mo167  1  0.20266712  0.59046624  0.01815432  1
  Mo  Mo168  1  0.79665210  -0.00167862  0.48635680  1
  Mo  Mo169  1  0.20481268  0.20117073  0.00837697  1
  Mo  Mo170  1  0.89945072  0.10153069  0.36105943  1
  Mo  Mo171  1  0.10827534  0.49767409  0.63542307  1
  Mo  Mo172  1  0.40184323  0.39981585  0.50091027  1
  Mo  Mo173  1  0.69773867  0.09711490  0.61213440  1
  Mo  Mo174  1  0.59324089  0.59689768  0.76028765  1
  Mo  Mo175  1  0.69673671  0.70069713  0.88522292  1
  Mo  Mo176  1  0.49766825  0.10309655  0.13982023  1
  Mo  Mo177  1  0.89067148  0.49492582  0.37805973  1
  Mo  Mo178  1  0.09398190  0.89721047  0.63841663  1
  Mo  Mo179  1  0.90078692  0.30446101  0.61644808  1
  Mo  Mo180  1  0.49372274  0.49520784  0.85432920  1
  Mo  Mo181  1  0.69299051  0.11056241  0.87997068  1
  Mo  Mo182  1  0.79631904  0.79904331  -0.00815795  1
  Mo  Mo183  1  0.70117419  0.09252000  0.37896346  1
  Mo  Mo184  1  0.29419251  0.68898937  0.88702957  1
  Mo  Mo185  1  0.00244583  0.40382247  0.25270488  1
  Mo  Mo186  1  0.11175322  0.10100338  0.12214673  1
  Mo  Mo187  1  0.59775893  0.00171433  0.73871647  1
  Mo  Mo188  1  0.59651320  -0.00024583  0.23959964  1
  Mo  Mo189  1  0.09950540  0.70216649  0.86341121  1
  Mo  Mo190  1  0.40102364  0.59270261  0.23076489  1
  Mo  Mo191  1  0.79963472  0.20370827  0.23855804  1
  Mo  Mo192  1  0.20221166  0.59762030  0.24206146  1
  Mo  Mo193  1  0.48924335  0.90033820  0.12129696  1
  Mo  Mo194  1  0.29767957  0.70050534  0.60941812  1
  Mo  Mo195  1  0.10163036  0.70075550  0.14735483  1
  Mo  Mo196  1  -0.00666121  0.60635595  0.74861226  1
  Mo  Mo197  1  0.49961901  0.69426183  0.10676242  1
  Mo  Mo198  1  0.69799990  0.50302351  0.63548445  1
  Mo  Mo199  1  0.10723891  0.89910551  0.35105588  1
