# generated using pymatgen
data_HfZrTaTiMo
_symmetry_space_group_name_H-M   'P 1'
_cell_length_a   15.92830379
_cell_length_b   15.93885646
_cell_length_c   15.20120334
_cell_angle_alpha   90.05689920
_cell_angle_beta   89.93776680
_cell_angle_gamma   89.95456172
_symmetry_Int_Tables_number   1
_chemical_formula_structural   HfZrTaTiMo
_chemical_formula_sum   'Hf40 Zr40 Ta40 Ti40 Mo40'
_cell_volume   3859.26011266
_cell_formula_units_Z   40
loop_
 _symmetry_equiv_pos_site_id
 _symmetry_equiv_pos_as_xyz
  1  'x, y, z'
loop_
 _atom_site_type_symbol
 _atom_site_label
 _atom_site_symmetry_multiplicity
 _atom_site_fract_x
 _atom_site_fract_y
 _atom_site_fract_z
 _atom_site_occupancy
  Hf  Hf0  1  0.39352656  -0.00555674  0.23681247  1
  Hf  Hf1  1  0.38831571  0.40147105  0.75762344  1
  Hf  Hf2  1  0.60092666  0.20073720  0.50833927  1
  Hf  Hf3  1  0.61812192  -0.02544040  0.50844133  1
  Hf  Hf4  1  0.60733684  0.39986551  0.26358053  1
  Hf  Hf5  1  0.00263476  0.19481828  0.25858056  1
  Hf  Hf6  1  0.49700654  0.69868609  0.62513213  1
  Hf  Hf7  1  0.60187131  0.40592293  -0.01354932  1
  Hf  Hf8  1  0.60218276  0.80104399  -0.01127455  1
  Hf  Hf9  1  0.80513935  -0.00704562  0.26691883  1
  Hf  Hf10  1  0.09210648  0.90035422  0.63388040  1
  Hf  Hf11  1  0.81796674  0.41799751  0.49303911  1
  Hf  Hf12  1  -0.01033467  0.21009953  -0.00065469  1
  Hf  Hf13  1  0.01256371  0.40871916  0.48953620  1
  Hf  Hf14  1  0.20270282  0.61190625  0.01062273  1
  Hf  Hf15  1  0.80765898  0.19693486  0.75701484  1
  Hf  Hf16  1  0.31311704  0.50627172  0.13558565  1
  Hf  Hf17  1  0.30071594  0.09107103  0.37657237  1
  Hf  Hf18  1  0.50470791  0.89055779  0.63255512  1
  Hf  Hf19  1  0.60401333  0.40794318  0.74955655  1
  Hf  Hf20  1  0.89857051  0.30613911  0.12778501  1
  Hf  Hf21  1  0.81109794  0.79779398  0.25814513  1
  Hf  Hf22  1  0.01123587  0.18759747  0.74448578  1
  Hf  Hf23  1  0.59782618  0.60133489  -0.01038796  1
  Hf  Hf24  1  0.48384104  0.69045654  0.12538827  1
  Hf  Hf25  1  0.40189193  0.40287469  0.49165875  1
  Hf  Hf26  1  0.30147962  0.30449636  0.62272340  1
  Hf  Hf27  1  0.49878040  0.29446293  0.86973740  1
  Hf  Hf28  1  0.60293195  0.60789572  0.75499688  1
  Hf  Hf29  1  0.88790684  0.89363743  0.61369602  1
  Hf  Hf30  1  0.40101194  0.19612500  0.00926755  1
  Hf  Hf31  1  0.39945512  0.20330957  0.49452907  1
  Hf  Hf32  1  -0.00431625  0.40966170  0.75165648  1
  Hf  Hf33  1  0.10084806  0.89453518  0.37977255  1
  Hf  Hf34  1  0.80232176  -0.00693624  0.75529280  1
  Hf  Hf35  1  0.69900130  0.90268156  0.12972039  1
  Hf  Hf36  1  0.80120393  0.40172540  0.26884745  1
  Hf  Hf37  1  0.49594300  0.89274496  0.37465304  1
  Hf  Hf38  1  0.50728137  0.08624145  0.37676248  1
  Hf  Hf39  1  0.10219978  0.30214923  0.88249842  1
  Zr  Zr40  1  0.69979781  0.71756726  0.61020562  1
  Zr  Zr41  1  0.49885346  0.89542972  0.12269996  1
  Zr  Zr42  1  0.60229111  0.79337694  0.25355077  1
  Zr  Zr43  1  0.69917681  0.29041053  0.87180368  1
  Zr  Zr44  1  0.89876915  0.69940515  0.39061670  1
  Zr  Zr45  1  0.00357897  0.20380123  0.48495292  1
  Zr  Zr46  1  0.10877792  0.10314325  0.89443922  1
  Zr  Zr47  1  0.49454668  0.90317428  0.87160608  1
  Zr  Zr48  1  0.38977280  0.59280276  0.51071426  1
  Zr  Zr49  1  0.10767419  0.30820423  0.62505417  1
  Zr  Zr50  1  0.21226447  0.41103020  -0.00959542  1
  Zr  Zr51  1  0.49929506  0.49838433  0.12405148  1
  Zr  Zr52  1  0.69791481  0.10140798  0.12488097  1
  Zr  Zr53  1  0.10171861  0.31003160  0.12768419  1
  Zr  Zr54  1  0.09608602  0.69804790  0.62704012  1
  Zr  Zr55  1  0.60816310  0.20238719  0.25705664  1
  Zr  Zr56  1  0.08674822  0.52007038  0.87676688  1
  Zr  Zr57  1  0.29865996  0.89598066  0.63312319  1
  Zr  Zr58  1  0.50516249  0.30570249  0.11926738  1
  Zr  Zr59  1  0.70369974  0.30250525  0.62620592  1
  Zr  Zr60  1  0.19783552  0.20508294  0.48454518  1
  Zr  Zr61  1  0.90275251  0.50254547  0.13183078  1
  Zr  Zr62  1  0.08800710  0.90717778  0.87377306  1
  Zr  Zr63  1  0.50104376  0.09617086  0.62741990  1
  Zr  Zr64  1  0.39264763  0.78459522  0.76001771  1
  Zr  Zr65  1  0.79857725  0.79449256  0.76490672  1
  Zr  Zr66  1  0.19695737  0.61737087  0.24214608  1
  Zr  Zr67  1  0.89914082  0.29986219  0.61893521  1
  Zr  Zr68  1  0.09317569  0.49895760  0.12971934  1
  Zr  Zr69  1  0.78757967  -0.01043344  -0.01590449  1
  Zr  Zr70  1  0.89177525  0.09821355  0.11847520  1
  Zr  Zr71  1  0.19290318  0.01220253  0.74676124  1
  Zr  Zr72  1  0.91080860  0.08806628  0.88003147  1
  Zr  Zr73  1  0.40221407  0.19897303  0.24698521  1
  Zr  Zr74  1  0.19529880  0.80268911  0.23395602  1
  Zr  Zr75  1  0.49263283  0.68820563  0.37607965  1
  Zr  Zr76  1  0.70657951  0.69199942  0.12172577  1
  Zr  Zr77  1  0.80540106  0.20427410  0.27182106  1
  Zr  Zr78  1  0.81758229  0.39781846  -0.02230802  1
  Zr  Zr79  1  0.19613082  0.00013668  0.23381322  1
  Ta  Ta80  1  0.60728012  0.00002210  0.75072991  1
  Ta  Ta81  1  0.30271308  0.31109478  0.12957590  1
  Ta  Ta82  1  0.91175983  0.68919493  0.88962855  1
  Ta  Ta83  1  0.69689386  0.69707022  0.38801218  1
  Ta  Ta84  1  0.00462070  -0.00087576  0.50110606  1
  Ta  Ta85  1  0.18859333  0.59005852  0.50178166  1
  Ta  Ta86  1  0.39794409  0.00068318  -0.00192357  1
  Ta  Ta87  1  0.20570671  0.00056925  0.01413993  1
  Ta  Ta88  1  0.39214407  0.79753500  0.50289172  1
  Ta  Ta89  1  0.40572244  0.40162608  0.26902640  1
  Ta  Ta90  1  0.50042623  0.30105342  0.63547978  1
  Ta  Ta91  1  0.70431238  0.09337838  0.39182934  1
  Ta  Ta92  1  0.59759452  0.59131144  0.50669331  1
  Ta  Ta93  1  0.09392070  0.70552353  0.87854264  1
  Ta  Ta94  1  -0.00335148  -0.00991084  0.24716940  1
  Ta  Ta95  1  0.48009936  0.51258071  0.87132498  1
  Ta  Ta96  1  0.19846979  0.40636406  0.76079385  1
  Ta  Ta97  1  0.19719846  0.80410653  -0.00328135  1
  Ta  Ta98  1  0.20770670  0.20362387  0.74787432  1
  Ta  Ta99  1  0.90277194  0.70293930  0.10944522  1
  Ta  Ta100  1  0.39485188  0.00671059  0.75894001  1
  Ta  Ta101  1  0.39078791  0.78898690  -0.01314610  1
  Ta  Ta102  1  0.19771668  0.00077724  0.50687889  1
  Ta  Ta103  1  -0.00761650  0.58592916  0.50846692  1
  Ta  Ta104  1  0.19843558  0.79207238  0.76332272  1
  Ta  Ta105  1  0.70432990  0.49421065  0.12494634  1
  Ta  Ta106  1  0.39432421  0.19569006  0.75190733  1
  Ta  Ta107  1  0.29975357  0.50950580  0.36295858  1
  Ta  Ta108  1  0.00181011  0.80264953  0.23995931  1
  Ta  Ta109  1  0.20370029  0.40484082  0.47560479  1
  Ta  Ta110  1  0.71262956  0.09611273  0.61912441  1
  Ta  Ta111  1  0.20475800  0.20361040  0.24706648  1
  Ta  Ta112  1  0.90248669  0.09397497  0.61533873  1
  Ta  Ta113  1  0.28891509  0.70152144  0.38811127  1
  Ta  Ta114  1  0.70213060  0.51139578  0.38474979  1
  Ta  Ta115  1  0.59765297  0.40820368  0.50383373  1
  Ta  Ta116  1  0.29978061  0.10477289  0.88673844  1
  Ta  Ta117  1  0.29888675  0.10248023  0.62067782  1
  Ta  Ta118  1  -0.00943432  0.79307790  0.75199162  1
  Ta  Ta119  1  0.70883108  0.30131643  0.11179641  1
  Ti  Ti120  1  0.60264028  0.19473531  0.00320703  1
  Ti  Ti121  1  0.39567496  -0.00824194  0.50661320  1
  Ti  Ti122  1  0.29915402  0.29432783  0.88590123  1
  Ti  Ti123  1  0.59476480  0.00233423  -0.01410409  1
  Ti  Ti124  1  0.09650518  0.69900612  0.38594367  1
  Ti  Ti125  1  0.89231073  0.69584937  0.61153027  1
  Ti  Ti126  1  0.50857057  0.08955180  0.12857148  1
  Ti  Ti127  1  0.29669602  0.89496493  0.38089250  1
  Ti  Ti128  1  0.10047923  0.50998276  0.35825726  1
  Ti  Ti129  1  -0.00296658  0.61722364  0.24753818  1
  Ti  Ti130  1  0.30275657  0.67986619  0.87503861  1
  Ti  Ti131  1  0.90459798  0.88681064  0.88852685  1
  Ti  Ti132  1  0.80607296  0.40731553  0.75324664  1
  Ti  Ti133  1  0.60198822  0.59131541  0.25529855  1
  Ti  Ti134  1  0.80021276  0.59991169  0.25624649  1
  Ti  Ti135  1  -0.00139714  0.79976807  0.50081967  1
  Ti  Ti136  1  0.70891258  0.50746973  0.86911069  1
  Ti  Ti137  1  0.10303522  0.09145423  0.36930697  1
  Ti  Ti138  1  0.80621391  0.59212870  -0.00294587  1
  Ti  Ti139  1  -0.00361816  0.39633426  0.27559889  1
  Ti  Ti140  1  0.10191565  0.10639243  0.12091878  1
  Ti  Ti141  1  0.38275824  0.78833345  0.25083709  1
  Ti  Ti142  1  0.71177783  0.50960170  0.62009307  1
  Ti  Ti143  1  0.50636288  0.29986639  0.38010565  1
  Ti  Ti144  1  0.69105621  0.10334573  0.86998816  1
  Ti  Ti145  1  0.20149287  0.60170968  0.74315660  1
  Ti  Ti146  1  0.00474442  -0.00723896  0.02070574  1
  Ti  Ti147  1  0.49465036  0.49940157  0.63801550  1
  Ti  Ti148  1  0.30403296  0.89119315  0.11073765  1
  Ti  Ti149  1  0.28527299  0.49843345  0.62811894  1
  Ti  Ti150  1  0.70868852  0.29931790  0.40094156  1
  Ti  Ti151  1  0.81127159  0.60117961  0.74778928  1
  Ti  Ti152  1  0.77943699  0.82695112  0.47928230  1
  Ti  Ti153  1  0.20075466  0.79665985  0.51005956  1
  Ti  Ti154  1  0.29204419  0.90593515  0.87664372  1
  Ti  Ti155  1  0.71296552  0.69856533  0.88641563  1
  Ti  Ti156  1  0.50207382  0.10518069  0.86647978  1
  Ti  Ti157  1  0.60504881  0.79963033  0.76819406  1
  Ti  Ti158  1  0.90038876  0.09200647  0.39175933  1
  Ti  Ti159  1  0.89721562  0.89142830  0.11224249  1
  Mo  Mo160  1  -0.00820647  -0.00499645  0.73094580  1
  Mo  Mo161  1  0.80193905  0.19666774  0.49692859  1
  Mo  Mo162  1  0.59883032  0.19157988  0.73557339  1
  Mo  Mo163  1  0.50609943  0.49792893  0.37459682  1
  Mo  Mo164  1  0.89930690  0.50853896  0.63757432  1
  Mo  Mo165  1  0.90959978  0.90050783  0.38529413  1
  Mo  Mo166  1  0.28971648  0.69652834  0.61587556  1
  Mo  Mo167  1  0.69555179  0.90000996  0.35709832  1
  Mo  Mo168  1  0.90587025  0.30132785  0.86521917  1
  Mo  Mo169  1  -0.00682551  0.60987448  0.73315478  1
  Mo  Mo170  1  -0.00217752  0.40367571  -0.02011483  1
  Mo  Mo171  1  0.39477344  0.59744920  -0.00860556  1
  Mo  Mo172  1  0.10750646  0.30602628  0.35665202  1
  Mo  Mo173  1  -0.00209167  0.60089658  0.01077395  1
  Mo  Mo174  1  0.20540893  0.40208157  0.26097433  1
  Mo  Mo175  1  0.09493658  0.90225188  0.11861737  1
  Mo  Mo176  1  0.10445236  0.50094035  0.62989278  1
  Mo  Mo177  1  0.08959941  0.70772211  0.10726818  1
  Mo  Mo178  1  0.79278104  0.19896233  -0.01399757  1
  Mo  Mo179  1  0.69531010  0.89970903  0.86895186  1
  Mo  Mo180  1  0.10209060  0.10001707  0.61445858  1
  Mo  Mo181  1  0.79898344  0.60072896  0.50497821  1
  Mo  Mo182  1  0.89567537  0.51042003  0.86141578  1
  Mo  Mo183  1  0.00051536  0.80249076  0.00300357  1
  Mo  Mo184  1  0.90438065  0.30006249  0.38126567  1
  Mo  Mo185  1  0.20551377  0.20269517  0.02263588  1
  Mo  Mo186  1  0.39066049  0.59463253  0.73608317  1
  Mo  Mo187  1  0.80165921  0.79371440  -0.00753828  1
  Mo  Mo188  1  0.30350945  0.70767333  0.11286138  1
  Mo  Mo189  1  0.29330531  0.50516729  0.86431698  1
  Mo  Mo190  1  0.39747259  0.60416796  0.26433556  1
  Mo  Mo191  1  0.90778959  0.51208100  0.35920528  1
  Mo  Mo192  1  0.59538684  0.79341880  0.49031139  1
  Mo  Mo193  1  0.69846475  0.89935052  0.64172244  1
  Mo  Mo194  1  0.30156007  0.10316583  0.11580875  1
  Mo  Mo195  1  0.39705249  0.40024089  -0.01786412  1
  Mo  Mo196  1  0.30277255  0.30381463  0.35960644  1
  Mo  Mo197  1  0.49687413  0.69606313  0.87257154  1
  Mo  Mo198  1  0.80438512  -0.00117248  0.49383972  1
  Mo  Mo199  1  0.60096448  0.00124642  0.26072086  1
