# generated using pymatgen
data_HfZrTaTiMo
_symmetry_space_group_name_H-M   'P 1'
_cell_length_a   15.93299460
_cell_length_b   15.92626554
_cell_length_c   15.21819629
_cell_angle_alpha   90.01245927
_cell_angle_beta   89.95939574
_cell_angle_gamma   90.04414957
_symmetry_Int_Tables_number   1
_chemical_formula_structural   HfZrTaTiMo
_chemical_formula_sum   'Hf40 Zr40 Ta40 Ti40 Mo40'
_cell_volume   3861.66232091
_cell_formula_units_Z   40
loop_
 _symmetry_equiv_pos_site_id
 _symmetry_equiv_pos_as_xyz
  1  'x, y, z'
loop_
 _atom_site_type_symbol
 _atom_site_label
 _atom_site_symmetry_multiplicity
 _atom_site_fract_x
 _atom_site_fract_y
 _atom_site_fract_z
 _atom_site_occupancy
  Hf  Hf0  1  0.30281680  0.50070451  0.12547105  1
  Hf  Hf1  1  0.60345915  0.40966672  0.72751985  1
  Hf  Hf2  1  0.80620308  0.79125252  0.49168505  1
  Hf  Hf3  1  0.81181012  -0.00034613  0.50334872  1
  Hf  Hf4  1  -0.01310891  0.00377042  0.00112242  1
  Hf  Hf5  1  0.70319558  0.69416881  0.12612914  1
  Hf  Hf6  1  -0.00110868  0.60323296  0.02352532  1
  Hf  Hf7  1  0.50800200  0.30622847  0.86802247  1
  Hf  Hf8  1  0.59947487  0.79823818  0.24577749  1
  Hf  Hf9  1  0.09447808  0.70317615  0.88118759  1
  Hf  Hf10  1  0.09807139  0.09468506  0.36440012  1
  Hf  Hf11  1  0.38908962  0.19232112  0.52687249  1
  Hf  Hf12  1  0.19296560  0.60324193  0.23695602  1
  Hf  Hf13  1  0.10119515  0.70099657  0.62957873  1
  Hf  Hf14  1  0.18580845  0.20098938  0.50238433  1
  Hf  Hf15  1  0.09322784  0.70839182  0.36182119  1
  Hf  Hf16  1  0.31192539  0.70424951  0.36756809  1
  Hf  Hf17  1  0.19581108  0.79709684  0.01750226  1
  Hf  Hf18  1  0.19793577  0.41700719  0.76473647  1
  Hf  Hf19  1  0.50918054  0.70166825  0.88193456  1
  Hf  Hf20  1  0.89456751  0.10452201  0.36187040  1
  Hf  Hf21  1  0.20021050  0.60094423  0.76144072  1
  Hf  Hf22  1  0.00106326  0.80680851  0.49286544  1
  Hf  Hf23  1  0.19941875  0.60442982  0.49090744  1
  Hf  Hf24  1  0.51715231  0.91693760  0.09735312  1
  Hf  Hf25  1  0.70214546  0.29439816  0.38778473  1
  Hf  Hf26  1  0.50424463  0.29280172  0.40046105  1
  Hf  Hf27  1  0.37950816  -0.00690261  0.52841773  1
  Hf  Hf28  1  0.70590628  0.49006395  0.88514253  1
  Hf  Hf29  1  -0.00842410  0.59969520  0.49731680  1
  Hf  Hf30  1  0.29898961  0.10101158  0.37166552  1
  Hf  Hf31  1  0.61756188  0.21018729  0.73856068  1
  Hf  Hf32  1  0.50342688  0.69891947  0.38138218  1
  Hf  Hf33  1  0.31893110  0.90646738  0.10320961  1
  Hf  Hf34  1  0.59689952  -0.00624814  0.51313714  1
  Hf  Hf35  1  0.88853284  0.89937565  0.86521500  1
  Hf  Hf36  1  0.00407404  0.00848690  0.76387979  1
  Hf  Hf37  1  0.28462544  0.30891774  0.63226628  1
  Hf  Hf38  1  0.70085976  0.49447526  0.38466017  1
  Hf  Hf39  1  0.57996787  0.19394964  0.24840161  1
  Zr  Zr40  1  0.51344913  0.08913687  0.86755415  1
  Zr  Zr41  1  0.61206842  0.20121562  -0.01341798  1
  Zr  Zr42  1  0.30266500  0.30135752  0.12354328  1
  Zr  Zr43  1  0.29896564  0.90724944  0.36525464  1
  Zr  Zr44  1  0.50138762  0.50266669  0.38700616  1
  Zr  Zr45  1  0.50143118  0.89297584  0.87161538  1
  Zr  Zr46  1  0.19534266  0.20379700  0.01000687  1
  Zr  Zr47  1  0.69776187  0.10764449  0.38617268  1
  Zr  Zr48  1  0.20557189  0.81580638  0.49569796  1
  Zr  Zr49  1  0.68743854  0.09484070  0.12908134  1
  Zr  Zr50  1  0.81020598  0.80137865  0.01702120  1
  Zr  Zr51  1  0.40934770  0.39396593  0.25473025  1
  Zr  Zr52  1  0.39819527  0.20034652  0.74362240  1
  Zr  Zr53  1  0.69628884  0.90186179  0.85898824  1
  Zr  Zr54  1  0.89762115  0.69446909  0.86988012  1
  Zr  Zr55  1  0.80068359  0.19756651  0.00386864  1
  Zr  Zr56  1  0.89798166  0.70184964  0.63892802  1
  Zr  Zr57  1  0.90526868  0.48476115  0.13354332  1
  Zr  Zr58  1  0.08861461  0.30491896  0.87485865  1
  Zr  Zr59  1  0.41397373  0.01191418  0.24353933  1
  Zr  Zr60  1  0.20015819  0.80585856  0.23193198  1
  Zr  Zr61  1  0.79266540  0.58761125  0.73739691  1
  Zr  Zr62  1  0.89385245  0.28824493  0.85076520  1
  Zr  Zr63  1  0.39797283  0.40285073  -0.01665941  1
  Zr  Zr64  1  0.50457914  0.49803289  0.11427792  1
  Zr  Zr65  1  0.39781353  0.58846989  0.75707090  1
  Zr  Zr66  1  0.90344615  0.90237138  0.63790686  1
  Zr  Zr67  1  0.08203526  0.32129106  0.11988093  1
  Zr  Zr68  1  0.60388257  0.59469242  0.74194576  1
  Zr  Zr69  1  0.60584625  0.39216981  0.23984621  1
  Zr  Zr70  1  0.19128259  0.40250907  0.26277886  1
  Zr  Zr71  1  0.07851480  0.30556378  0.63906429  1
  Zr  Zr72  1  0.30706148  0.71046023  0.88573373  1
  Zr  Zr73  1  0.09867921  0.10691917  0.88547037  1
  Zr  Zr74  1  0.49628773  0.69657066  0.62821686  1
  Zr  Zr75  1  0.11037377  0.90931502  0.62972319  1
  Zr  Zr76  1  0.19537993  0.00140149  0.22217342  1
  Zr  Zr77  1  0.30322925  0.29621944  0.37797468  1
  Zr  Zr78  1  0.59560908  -0.00554950  0.26350890  1
  Zr  Zr79  1  0.70061699  0.89418393  0.38282424  1
  Ta  Ta80  1  0.79504322  -0.00668206  0.24565470  1
  Ta  Ta81  1  0.89129688  0.29782375  0.36563391  1
  Ta  Ta82  1  0.29507464  0.29875793  0.86983475  1
  Ta  Ta83  1  0.91070754  0.48323717  0.62449146  1
  Ta  Ta84  1  0.30248078  0.90578439  0.88392502  1
  Ta  Ta85  1  0.69948355  0.68853526  0.37622242  1
  Ta  Ta86  1  0.19678786  0.60208713  0.01340678  1
  Ta  Ta87  1  0.29292851  0.50361974  0.61528138  1
  Ta  Ta88  1  0.39273733  -0.00174854  0.74612756  1
  Ta  Ta89  1  0.60177076  0.59656187  0.24129151  1
  Ta  Ta90  1  0.70528474  0.69793453  0.88336558  1
  Ta  Ta91  1  0.89540878  0.10241912  0.14346199  1
  Ta  Ta92  1  0.00061469  0.39449202  0.48265261  1
  Ta  Ta93  1  0.32628967  0.11110523  0.10693985  1
  Ta  Ta94  1  0.79137491  0.38824351  0.72967275  1
  Ta  Ta95  1  0.19069446  0.40383669  0.48870023  1
  Ta  Ta96  1  0.91313571  0.90402960  0.35768978  1
  Ta  Ta97  1  0.60173701  0.79390850  0.51003312  1
  Ta  Ta98  1  0.79340798  -0.00071329  0.00978453  1
  Ta  Ta99  1  0.00417669  0.58642088  0.74857051  1
  Ta  Ta100  1  0.00675542  0.00513101  0.49516660  1
  Ta  Ta101  1  0.39863448  0.40837928  0.74788893  1
  Ta  Ta102  1  0.19834269  0.20093094  0.23932916  1
  Ta  Ta103  1  0.80257395  0.79816209  0.24886526  1
  Ta  Ta104  1  0.49293605  0.09911620  0.40171891  1
  Ta  Ta105  1  0.41008165  0.80228089  0.23194920  1
  Ta  Ta106  1  0.49066040  0.89404147  0.39014595  1
  Ta  Ta107  1  0.09894524  0.49764809  0.61752333  1
  Ta  Ta108  1  0.30286114  0.10018383  0.88035474  1
  Ta  Ta109  1  -0.01720545  0.20498663  0.01286377  1
  Ta  Ta110  1  0.60883014  0.59587706  0.00562213  1
  Ta  Ta111  1  0.79932019  0.59568334  0.24947655  1
  Ta  Ta112  1  0.90722265  0.11086649  0.63343434  1
  Ta  Ta113  1  0.19473924  0.41233351  -0.00668579  1
  Ta  Ta114  1  0.00153185  0.20695034  0.24750498  1
  Ta  Ta115  1  0.29502641  0.70357486  0.62998423  1
  Ta  Ta116  1  0.39926827  0.80262700  0.51732242  1
  Ta  Ta117  1  0.70612975  0.89274029  0.63264031  1
  Ta  Ta118  1  0.49111016  0.27808438  0.10824834  1
  Ta  Ta119  1  0.72096911  0.09607338  0.85233090  1
  Ti  Ti120  1  0.71162080  0.48839238  0.12500903  1
  Ti  Ti121  1  0.90117799  0.69537385  0.35559338  1
  Ti  Ti122  1  0.39494436  0.40634628  0.51041332  1
  Ti  Ti123  1  0.39582772  0.60162389  0.50804282  1
  Ti  Ti124  1  0.50706253  0.09628203  0.63214066  1
  Ti  Ti125  1  -0.00934377  0.20487485  0.49238265  1
  Ti  Ti126  1  0.61428145  0.80033263  0.00297039  1
  Ti  Ti127  1  0.50479593  0.89720906  0.63962978  1
  Ti  Ti128  1  0.61237936  0.38956307  0.00805393  1
  Ti  Ti129  1  0.88391571  0.30073690  0.14666945  1
  Ti  Ti130  1  0.50270594  0.30555792  0.61629531  1
  Ti  Ti131  1  0.70937996  0.09839129  0.62531083  1
  Ti  Ti132  1  0.80258599  0.59604616  0.50458081  1
  Ti  Ti133  1  0.00693802  0.80196929  0.75698329  1
  Ti  Ti134  1  0.09121020  0.50692769  0.37425426  1
  Ti  Ti135  1  0.20406974  0.00201112  0.75903784  1
  Ti  Ti136  1  0.39335126  0.80207063  0.74431764  1
  Ti  Ti137  1  0.90317281  0.90671700  0.13822436  1
  Ti  Ti138  1  0.08598664  0.50361744  0.89105189  1
  Ti  Ti139  1  0.90024712  0.48987091  0.87559832  1
  Ti  Ti140  1  0.19825131  0.00405293  0.00625495  1
  Ti  Ti141  1  0.61376598  0.78579245  0.73801465  1
  Ti  Ti142  1  0.08728097  0.10305238  0.12448057  1
  Ti  Ti143  1  0.89369387  0.49846459  0.37051031  1
  Ti  Ti144  1  0.19410687  0.19410054  0.75069851  1
  Ti  Ti145  1  0.80913841  0.39236386  0.50838362  1
  Ti  Ti146  1  0.10291485  0.89988337  0.88839812  1
  Ti  Ti147  1  0.30483733  0.50427287  0.37536186  1
  Ti  Ti148  1  0.09756988  0.10149622  0.62548023  1
  Ti  Ti149  1  0.80574982  0.59567269  0.00952705  1
  Ti  Ti150  1  0.20281942  0.80767456  0.75910038  1
  Ti  Ti151  1  -0.00146620  0.80100229  0.01925376  1
  Ti  Ti152  1  0.40827864  0.60754515  0.24057480  1
  Ti  Ti153  1  0.49904925  0.70245651  0.11041564  1
  Ti  Ti154  1  -0.00093807  0.40154280  0.26852870  1
  Ti  Ti155  1  0.39788349  0.60348190  -0.00076715  1
  Ti  Ti156  1  0.60522213  0.59415324  0.51799993  1
  Ti  Ti157  1  0.80261215  0.38271775  -0.00062113  1
  Ti  Ti158  1  0.00578510  0.80567375  0.23382074  1
  Ti  Ti159  1  0.50798833  0.50241440  0.88416884  1
  Mo  Mo160  1  0.90062645  0.29882192  0.62231209  1
  Mo  Mo161  1  0.29842845  0.89597441  0.64845201  1
  Mo  Mo162  1  0.00245359  0.19631812  0.74688141  1
  Mo  Mo163  1  0.70636611  0.89778155  0.12710702  1
  Mo  Mo164  1  0.09874113  0.49942838  0.12007239  1
  Mo  Mo165  1  -0.01352872  0.39953577  -0.01246798  1
  Mo  Mo166  1  0.09257493  0.29558385  0.37019168  1
  Mo  Mo167  1  0.48974039  0.49510315  0.61093898  1
  Mo  Mo168  1  0.19206334  0.00801470  0.50815331  1
  Mo  Mo169  1  0.79377844  0.79236755  0.74958227  1
  Mo  Mo170  1  0.29649716  0.50480298  0.89106902  1
  Mo  Mo171  1  0.80038597  0.20057268  0.73028875  1
  Mo  Mo172  1  -0.00167172  0.00017100  0.24128096  1
  Mo  Mo173  1  0.80192620  0.00223435  0.73269011  1
  Mo  Mo174  1  0.80921115  0.20077790  0.51374618  1
  Mo  Mo175  1  -0.00654942  0.41197751  0.75978540  1
  Mo  Mo176  1  0.59957640  0.40113165  0.51449037  1
  Mo  Mo177  1  0.70466121  0.30657328  0.86641607  1
  Mo  Mo178  1  0.09598748  0.70137846  0.13343118  1
  Mo  Mo179  1  0.27975358  0.09717273  0.64440345  1
  Mo  Mo180  1  0.40560417  0.00506502  -0.02073441  1
  Mo  Mo181  1  0.70931945  0.49522022  0.60183214  1
  Mo  Mo182  1  0.31311255  0.69782848  0.12549802  1
  Mo  Mo183  1  0.89446447  0.09791350  0.86434064  1
  Mo  Mo184  1  -0.00512194  0.59713535  0.25181826  1
  Mo  Mo185  1  0.09380596  0.90790069  0.37538225  1
  Mo  Mo186  1  0.70104501  0.30147029  0.13278626  1
  Mo  Mo187  1  0.40702635  0.79769229  0.00774464  1
  Mo  Mo188  1  0.09147818  0.90685006  0.10535884  1
  Mo  Mo189  1  0.79077199  0.20287856  0.24127291  1
  Mo  Mo190  1  0.90077229  0.69860640  0.14736619  1
  Mo  Mo191  1  0.40207603  0.19517879  0.25309251  1
  Mo  Mo192  1  0.49775286  0.10246269  0.09844965  1
  Mo  Mo193  1  0.59743860  0.19410137  0.52094769  1
  Mo  Mo194  1  0.61667574  0.00096407  -0.01443159  1
  Mo  Mo195  1  0.70286795  0.29590556  0.60040246  1
  Mo  Mo196  1  0.60242094  -0.00042720  0.72831334  1
  Mo  Mo197  1  0.79916674  0.40057347  0.26347884  1
  Mo  Mo198  1  0.70280884  0.69764424  0.60516304  1
  Mo  Mo199  1  0.40182495  0.20337035  -0.02828315  1
