# generated using pymatgen
data_HfZrTaTiMo
_symmetry_space_group_name_H-M   'P 1'
_cell_length_a   16.42484977
_cell_length_b   16.42234134
_cell_length_c   14.24464509
_cell_angle_alpha   89.77510846
_cell_angle_beta   90.03564415
_cell_angle_gamma   90.40883469
_symmetry_Int_Tables_number   1
_chemical_formula_structural   HfZrTaTiMo
_chemical_formula_sum   'Hf40 Zr40 Ta40 Ti40 Mo40'
_cell_volume   3842.14397944
_cell_formula_units_Z   40
loop_
 _symmetry_equiv_pos_site_id
 _symmetry_equiv_pos_as_xyz
  1  'x, y, z'
loop_
 _atom_site_type_symbol
 _atom_site_label
 _atom_site_symmetry_multiplicity
 _atom_site_fract_x
 _atom_site_fract_y
 _atom_site_fract_z
 _atom_site_occupancy
  Hf  Hf0  1  0.59858779  0.59660974  0.51036405  1
  Hf  Hf1  1  0.70909218  0.49656798  0.62920548  1
  Hf  Hf2  1  0.49002591  0.29901477  0.87511689  1
  Hf  Hf3  1  0.39227757  0.79344752  -0.00028738  1
  Hf  Hf4  1  0.90509315  0.30857464  0.63952664  1
  Hf  Hf5  1  0.70364054  0.71162854  0.37476391  1
  Hf  Hf6  1  0.10973228  0.49849003  0.12221322  1
  Hf  Hf7  1  0.01037412  0.60668648  0.25184932  1
  Hf  Hf8  1  0.89297293  0.10146888  0.11975102  1
  Hf  Hf9  1  0.59081171  -0.00079605  0.24847555  1
  Hf  Hf10  1  0.10411223  0.90725259  0.86683016  1
  Hf  Hf11  1  0.01196344  0.60200461  0.75125262  1
  Hf  Hf12  1  0.49874279  0.90239985  0.87721769  1
  Hf  Hf13  1  0.70272180  0.09988266  0.36259976  1
  Hf  Hf14  1  0.29172764  0.89540269  0.86395058  1
  Hf  Hf15  1  0.60008490  0.19354873  0.75129557  1
  Hf  Hf16  1  0.29523458  0.09241220  0.62133038  1
  Hf  Hf17  1  0.08685117  0.88876560  0.37615638  1
  Hf  Hf18  1  0.89154517  0.09770327  0.36251194  1
  Hf  Hf19  1  0.80377331  0.81217108  0.74104792  1
  Hf  Hf20  1  0.19598285  -0.00394617  0.25020453  1
  Hf  Hf21  1  0.70319537  0.30187976  0.87283351  1
  Hf  Hf22  1  0.49503430  0.30471924  0.11089131  1
  Hf  Hf23  1  0.80444708  0.61319395  0.74059464  1
  Hf  Hf24  1  0.40169561  0.19345380  0.24958671  1
  Hf  Hf25  1  -0.00116369  0.19708584  0.76732502  1
  Hf  Hf26  1  0.69765282  0.28642139  0.37669497  1
  Hf  Hf27  1  0.90844487  0.50167803  0.12214766  1
  Hf  Hf28  1  0.29872820  0.28876139  0.63212258  1
  Hf  Hf29  1  0.70248870  0.90760865  0.88153015  1
  Hf  Hf30  1  0.00402096  0.20344447  0.25402073  1
  Hf  Hf31  1  -0.00146678  0.20132520  0.49852723  1
  Hf  Hf32  1  0.58748564  0.40768454  0.73978814  1
  Hf  Hf33  1  0.60210128  0.81788266  0.50025123  1
  Hf  Hf34  1  0.00969840  0.40330824  0.76952185  1
  Hf  Hf35  1  0.29965517  0.29706890  0.37336471  1
  Hf  Hf36  1  0.11289978  0.71158551  0.86728922  1
  Hf  Hf37  1  0.49870314  0.69849782  0.13309845  1
  Hf  Hf38  1  0.59051860  0.18970899  0.23489130  1
  Hf  Hf39  1  0.91681807  0.50403365  0.39324539  1
  Zr  Zr40  1  0.29554999  0.09479152  0.38065249  1
  Zr  Zr41  1  0.70092018  0.50334449  0.87004131  1
  Zr  Zr42  1  0.48899616  0.70651686  0.61292198  1
  Zr  Zr43  1  0.08365498  0.07738287  0.64263648  1
  Zr  Zr44  1  0.91067874  0.50384633  0.61743406  1
  Zr  Zr45  1  0.91363674  0.71692124  0.38682913  1
  Zr  Zr46  1  0.19076862  0.39073910  0.50126590  1
  Zr  Zr47  1  0.59522983  0.80965283  0.74087170  1
  Zr  Zr48  1  0.40255080  0.59494353  0.74408149  1
  Zr  Zr49  1  0.70291427  0.50539104  0.11708758  1
  Zr  Zr50  1  0.49453578  0.70883658  0.37335131  1
  Zr  Zr51  1  0.70660778  0.50259897  0.38214338  1
  Zr  Zr52  1  0.50433994  0.89071422  0.12350257  1
  Zr  Zr53  1  0.19682598  0.59555662  0.49532626  1
  Zr  Zr54  1  0.81177917  0.60867157  0.25163861  1
  Zr  Zr55  1  0.59670317  0.39867419  0.24714633  1
  Zr  Zr56  1  0.49172880  0.49373004  0.37834621  1
  Zr  Zr57  1  0.29898027  0.49531796  0.88054312  1
  Zr  Zr58  1  0.70088837  0.89837972  0.12020418  1
  Zr  Zr59  1  0.19821239  0.19758078  0.00041931  1
  Zr  Zr60  1  0.81449299  0.39162624  0.25517646  1
  Zr  Zr61  1  0.80761614  0.39052872  0.49494881  1
  Zr  Zr62  1  0.29685123  0.89653400  0.38961914  1
  Zr  Zr63  1  0.40919846  -0.00563185  0.73903448  1
  Zr  Zr64  1  0.60563441  0.00284628  0.51249445  1
  Zr  Zr65  1  0.00940488  0.60181711  -0.00716345  1
  Zr  Zr66  1  0.59902566  0.59795489  0.24865807  1
  Zr  Zr67  1  0.18064441  0.19591843  0.49783279  1
  Zr  Zr68  1  0.79875928  0.18969264  0.52325976  1
  Zr  Zr69  1  0.70177347  0.71209439  0.12013464  1
  Zr  Zr70  1  0.89257490  0.90578603  0.10756713  1
  Zr  Zr71  1  0.79742005  -0.00080629  0.51803113  1
  Zr  Zr72  1  0.92584282  0.91946258  0.62832345  1
  Zr  Zr73  1  0.89506363  0.50177157  0.87142003  1
  Zr  Zr74  1  0.81296511  0.39316927  -0.00349783  1
  Zr  Zr75  1  0.29264607  0.09482098  0.85916035  1
  Zr  Zr76  1  0.39712077  0.18984261  0.00243803  1
  Zr  Zr77  1  0.29362725  0.89589686  0.61628584  1
  Zr  Zr78  1  0.70612025  0.28762640  0.11968788  1
  Zr  Zr79  1  0.49078697  0.49435555  0.89083424  1
  Ta  Ta80  1  0.69892490  0.29989255  0.63365226  1
  Ta  Ta81  1  0.79794462  0.01128015  0.75190905  1
  Ta  Ta82  1  0.00566483  0.80258386  -0.00201017  1
  Ta  Ta83  1  0.40216568  -0.00173850  0.24838463  1
  Ta  Ta84  1  0.90215247  0.71245311  0.87401457  1
  Ta  Ta85  1  0.18117693  0.78328189  0.50389069  1
  Ta  Ta86  1  0.30234599  0.30042280  0.86380867  1
  Ta  Ta87  1  0.29501870  0.09591934  0.13390834  1
  Ta  Ta88  1  0.20013994  0.39663259  0.24866287  1
  Ta  Ta89  1  -0.00062161  0.80106077  0.23094687  1
  Ta  Ta90  1  0.59297625  0.60786008  -0.01116715  1
  Ta  Ta91  1  0.09808283  0.09881838  0.12586431  1
  Ta  Ta92  1  0.59472996  0.01267209  -0.00191964  1
  Ta  Ta93  1  0.59621531  0.39318005  0.50859430  1
  Ta  Ta94  1  0.30011220  0.69649764  0.13916421  1
  Ta  Ta95  1  0.20676831  0.80162869  0.01207625  1
  Ta  Ta96  1  0.39300873  0.80833247  0.25301373  1
  Ta  Ta97  1  0.30422051  0.50102937  0.12604801  1
  Ta  Ta98  1  0.40209081  0.19662144  0.50301364  1
  Ta  Ta99  1  0.80097442  0.81035304  0.51440302  1
  Ta  Ta100  1  0.39733896  0.39864783  0.73331385  1
  Ta  Ta101  1  0.29297420  0.70043760  0.62522176  1
  Ta  Ta102  1  0.00686091  0.39394299  0.25713923  1
  Ta  Ta103  1  0.89807873  0.90450584  0.37576961  1
  Ta  Ta104  1  0.50069580  0.29325489  0.38572187  1
  Ta  Ta105  1  0.80294433  0.19823618  0.76002700  1
  Ta  Ta106  1  0.89410700  0.09745409  0.88910239  1
  Ta  Ta107  1  0.70122633  0.70458779  0.87095204  1
  Ta  Ta108  1  0.10034892  0.90139097  0.11875616  1
  Ta  Ta109  1  0.39361488  -0.00332836  0.01135277  1
  Ta  Ta110  1  0.10910433  0.30083177  0.88071517  1
  Ta  Ta111  1  0.80675712  0.61832263  0.51105511  1
  Ta  Ta112  1  0.20945117  0.60785686  0.00074951  1
  Ta  Ta113  1  0.49982462  0.10214106  0.62339650  1
  Ta  Ta114  1  0.19569389  0.40152392  0.74723925  1
  Ta  Ta115  1  0.38928826  0.59610382  0.49871436  1
  Ta  Ta116  1  0.39625239  0.39737434  0.24599741  1
  Ta  Ta117  1  0.10770618  0.70355006  0.12405957  1
  Ta  Ta118  1  -0.00099294  -0.00281732  0.24602071  1
  Ta  Ta119  1  0.59431050  0.60684516  0.75125374  1
  Ti  Ti120  1  0.40142347  0.79843779  0.74552348  1
  Ti  Ti121  1  0.00679528  0.00629022  -0.00343149  1
  Ti  Ti122  1  0.48960178  0.50074176  0.11722353  1
  Ti  Ti123  1  0.40129491  0.39874349  0.50803245  1
  Ti  Ti124  1  0.10482860  0.29868398  0.12596919  1
  Ti  Ti125  1  0.18721335  0.19773247  0.75221007  1
  Ti  Ti126  1  0.29768674  0.49763746  0.62215891  1
  Ti  Ti127  1  0.49841179  0.29168053  0.62069808  1
  Ti  Ti128  1  0.09070973  0.49082104  0.61025613  1
  Ti  Ti129  1  0.90397885  0.29265628  0.12194698  1
  Ti  Ti130  1  0.20362093  0.39809201  0.00019396  1
  Ti  Ti131  1  0.39765106  0.60829341  -0.00275710  1
  Ti  Ti132  1  0.80996560  0.80524016  0.24958809  1
  Ti  Ti133  1  0.20285654  0.59867475  0.25529357  1
  Ti  Ti134  1  0.17491196  -0.00309445  0.49732103  1
  Ti  Ti135  1  0.59444027  0.79072365  -0.01621892  1
  Ti  Ti136  1  0.29691346  0.70236914  0.37667831  1
  Ti  Ti137  1  0.20374861  -0.00171254  0.00786078  1
  Ti  Ti138  1  0.02253725  0.62740140  0.50261258  1
  Ti  Ti139  1  0.49601671  0.09773175  0.86968608  1
  Ti  Ti140  1  0.39335158  0.59645185  0.25654374  1
  Ti  Ti141  1  0.50049553  0.09981456  0.39198148  1
  Ti  Ti142  1  0.79874059  0.61102330  -0.00626060  1
  Ti  Ti143  1  0.29621633  0.29983701  0.12815644  1
  Ti  Ti144  1  0.19576050  0.59025142  0.74620968  1
  Ti  Ti145  1  0.00163931  0.20424921  -0.00528504  1
  Ti  Ti146  1  0.90202830  0.90391620  0.87838263  1
  Ti  Ti147  1  0.29867404  0.49217706  0.37077897  1
  Ti  Ti148  1  0.69818899  0.70695581  0.62423178  1
  Ti  Ti149  1  0.29891203  0.70060619  0.86034789  1
  Ti  Ti150  1  0.60113286  0.18933640  -0.00490182  1
  Ti  Ti151  1  0.09889703  0.88850907  0.63890125  1
  Ti  Ti152  1  0.90123866  0.70723343  0.10902701  1
  Ti  Ti153  1  0.10044552  0.49379859  0.37541449  1
  Ti  Ti154  1  0.60164062  0.40487694  0.00078500  1
  Ti  Ti155  1  0.70859052  0.90402286  0.36033493  1
  Ti  Ti156  1  0.00847876  0.39336145  -0.00362970  1
  Ti  Ti157  1  0.92069659  0.71691033  0.62807689  1
  Ti  Ti158  1  0.19972247  0.79934028  0.24588437  1
  Ti  Ti159  1  0.71044295  0.09430452  0.11817196  1
  Mo  Mo160  1  0.38723812  0.39450378  0.01443842  1
  Mo  Mo161  1  0.49395214  0.09505572  0.11385929  1
  Mo  Mo162  1  0.19745886  -0.00204306  0.74364827  1
  Mo  Mo163  1  0.90566426  0.29479008  0.88360189  1
  Mo  Mo164  1  0.69831743  0.10254068  0.88259537  1
  Mo  Mo165  1  0.11371421  0.49793858  0.89036592  1
  Mo  Mo166  1  0.00901967  0.38238881  0.48481864  1
  Mo  Mo167  1  0.59400187  0.80919767  0.27013761  1
  Mo  Mo168  1  0.10787959  0.70484453  0.35337478  1
  Mo  Mo169  1  0.80056308  0.19832142  0.23482554  1
  Mo  Mo170  1  0.49291585  0.49620210  0.61250088  1
  Mo  Mo171  1  0.70112892  0.90407766  0.64211514  1
  Mo  Mo172  1  0.80462454  0.79761901  -0.01653529  1
  Mo  Mo173  1  0.09987698  0.29966578  0.64890483  1
  Mo  Mo174  1  0.40203370  0.20066827  0.74097772  1
  Mo  Mo175  1  0.69650641  0.10156157  0.64771849  1
  Mo  Mo176  1  0.59684350  0.20172520  0.51243019  1
  Mo  Mo177  1  0.49325172  0.90321384  0.61325355  1
  Mo  Mo178  1  0.09335445  0.09252408  0.36250060  1
  Mo  Mo179  1  0.10312012  0.69955468  0.64085718  1
  Mo  Mo180  1  0.89887250  0.10371711  0.64540163  1
  Mo  Mo181  1  -0.00491449  0.00274958  0.78206209  1
  Mo  Mo182  1  0.79803649  -0.00469564  0.24455287  1
  Mo  Mo183  1  0.60112803  0.00580132  0.75328430  1
  Mo  Mo184  1  0.79441643  0.00231360  -0.00968336  1
  Mo  Mo185  1  0.00382946  0.80534593  0.51101568  1
  Mo  Mo186  1  0.80087900  0.39419307  0.75018798  1
  Mo  Mo187  1  0.19792410  0.19983063  0.23981881  1
  Mo  Mo188  1  0.80202382  0.19749479  -0.00532467  1
  Mo  Mo189  1  0.38804015  0.79556247  0.49269667  1
  Mo  Mo190  1  0.49839506  0.70033155  0.87147181  1
  Mo  Mo191  1  0.10361169  0.29717209  0.35608373  1
  Mo  Mo192  1  0.20244249  0.79633128  0.73801376  1
  Mo  Mo193  1  0.00023053  0.80386234  0.75802737  1
  Mo  Mo194  1  0.29782252  0.89875261  0.12995886  1
  Mo  Mo195  1  0.09856629  0.09913337  0.88979293  1
  Mo  Mo196  1  0.49315061  0.90579693  0.37706032  1
  Mo  Mo197  1  0.41192696  -0.00229676  0.49685515  1
  Mo  Mo198  1  0.90302301  0.29749092  0.37381540  1
  Mo  Mo199  1  0.00017606  0.00546947  0.47791646  1
