# generated using pymatgen
data_HfZrTaTiMo
_symmetry_space_group_name_H-M   'P 1'
_cell_length_a   15.92376963
_cell_length_b   15.93844690
_cell_length_c   15.22430710
_cell_angle_alpha   90.04012139
_cell_angle_beta   89.96363000
_cell_angle_gamma   89.95825871
_symmetry_Int_Tables_number   1
_chemical_formula_structural   HfZrTaTiMo
_chemical_formula_sum   'Hf40 Zr40 Ta40 Ti40 Mo40'
_cell_volume   3863.92877648
_cell_formula_units_Z   40
loop_
 _symmetry_equiv_pos_site_id
 _symmetry_equiv_pos_as_xyz
  1  'x, y, z'
loop_
 _atom_site_type_symbol
 _atom_site_label
 _atom_site_symmetry_multiplicity
 _atom_site_fract_x
 _atom_site_fract_y
 _atom_site_fract_z
 _atom_site_occupancy
  Hf  Hf0  1  0.69661340  0.90224621  0.37492431  1
  Hf  Hf1  1  0.69685815  0.88618544  0.89541587  1
  Hf  Hf2  1  0.70206505  0.50211136  0.39265864  1
  Hf  Hf3  1  0.39640600  -0.00498647  0.49197145  1
  Hf  Hf4  1  0.00282047  0.79665215  0.24913532  1
  Hf  Hf5  1  0.70230098  0.11082257  0.12719944  1
  Hf  Hf6  1  0.48519468  0.11325029  0.12958326  1
  Hf  Hf7  1  0.80037088  0.20854854  -0.01343950  1
  Hf  Hf8  1  0.30999166  0.29190184  0.12815393  1
  Hf  Hf9  1  0.09713017  0.31386613  0.87091693  1
  Hf  Hf10  1  0.80739484  0.79591986  0.26230794  1
  Hf  Hf11  1  0.29870075  0.09903603  0.63403907  1
  Hf  Hf12  1  0.81429473  0.39146145  0.75062463  1
  Hf  Hf13  1  0.30279616  0.69558675  0.11803073  1
  Hf  Hf14  1  0.10044500  0.50305360  0.86921130  1
  Hf  Hf15  1  0.60104544  0.60413016  0.25304916  1
  Hf  Hf16  1  0.89654713  0.89026647  0.62590895  1
  Hf  Hf17  1  0.61629536  0.60745148  0.72861977  1
  Hf  Hf18  1  0.28658123  0.69485309  0.88105473  1
  Hf  Hf19  1  0.20055469  0.59535539  0.51365129  1
  Hf  Hf20  1  0.39262078  0.80750082  0.76288290  1
  Hf  Hf21  1  0.59539472  0.78425896  0.02886036  1
  Hf  Hf22  1  0.88087221  0.49995555  0.12259994  1
  Hf  Hf23  1  0.80269952  0.39694701  0.27382329  1
  Hf  Hf24  1  0.81273324  0.19752676  0.48886176  1
  Hf  Hf25  1  0.58622801  0.39668011  0.49504707  1
  Hf  Hf26  1  0.78165851  0.78526549  0.75034265  1
  Hf  Hf27  1  0.59972873  -0.00778862  0.73618756  1
  Hf  Hf28  1  0.50178263  0.10395890  0.37058441  1
  Hf  Hf29  1  0.49893832  0.30524241  0.63508221  1
  Hf  Hf30  1  0.09944991  0.89114662  0.62083246  1
  Hf  Hf31  1  0.08714068  0.69916422  0.86805922  1
  Hf  Hf32  1  0.20153187  0.80212814  0.26388035  1
  Hf  Hf33  1  0.50511986  0.90074594  0.88740729  1
  Hf  Hf34  1  0.60772478  0.21012535  0.26197254  1
  Hf  Hf35  1  0.40518077  0.60259411  0.74868959  1
  Hf  Hf36  1  0.41020055  0.59063163  -0.00298443  1
  Hf  Hf37  1  0.49635938  0.30942183  0.14486485  1
  Hf  Hf38  1  0.71330327  0.51707216  0.86907544  1
  Hf  Hf39  1  0.19751802  0.79234263  0.49109005  1
  Zr  Zr40  1  0.61125700  0.20557910  0.74427214  1
  Zr  Zr41  1  0.40054304  0.60350807  0.49883881  1
  Zr  Zr42  1  0.10372498  0.30909553  0.36628209  1
  Zr  Zr43  1  0.59190023  0.79806711  0.73044485  1
  Zr  Zr44  1  0.09483047  0.29741720  0.11459625  1
  Zr  Zr45  1  0.79529566  0.00300922  0.49976328  1
  Zr  Zr46  1  0.69892849  0.32533365  0.12086812  1
  Zr  Zr47  1  0.58072410  0.79978407  0.50036125  1
  Zr  Zr48  1  0.49348146  0.90290979  0.12828857  1
  Zr  Zr49  1  -0.00650542  0.00833278  0.24890024  1
  Zr  Zr50  1  0.00922702  -0.01347946  0.76264389  1
  Zr  Zr51  1  0.19769186  0.59436479  0.23447937  1
  Zr  Zr52  1  0.40303319  0.78836058  0.25769038  1
  Zr  Zr53  1  0.19283477  0.18665482  0.23147268  1
  Zr  Zr54  1  0.80695479  0.00271642  0.00242738  1
  Zr  Zr55  1  0.88508641  0.68210455  0.87024506  1
  Zr  Zr56  1  0.20216742  0.21755626  0.51170549  1
  Zr  Zr57  1  0.72611849  0.68987650  0.12245738  1
  Zr  Zr58  1  0.07937770  0.11806687  0.38951841  1
  Zr  Zr59  1  0.41466852  0.39043845  -0.01587333  1
  Zr  Zr60  1  0.10234986  0.49812517  0.37426352  1
  Zr  Zr61  1  0.28391294  0.29547567  0.86777712  1
  Zr  Zr62  1  0.10135774  0.10233373  0.63527022  1
  Zr  Zr63  1  0.89706021  0.29934336  0.12188435  1
  Zr  Zr64  1  0.38174034  0.00154836  0.25152897  1
  Zr  Zr65  1  0.40070077  0.19998421  0.75793918  1
  Zr  Zr66  1  0.89588438  0.10181177  0.63895575  1
  Zr  Zr67  1  0.18972952  -0.00130391  0.25375518  1
  Zr  Zr68  1  0.11272225  0.11542005  0.86960252  1
  Zr  Zr69  1  -0.01893919  0.22222290  0.75485134  1
  Zr  Zr70  1  0.28955617  0.89564493  0.10766405  1
  Zr  Zr71  1  0.29702835  0.71174254  0.63253783  1
  Zr  Zr72  1  0.90211489  0.88562180  0.87444616  1
  Zr  Zr73  1  0.69556849  0.09646703  0.87967291  1
  Zr  Zr74  1  0.09737755  0.90226773  0.10826531  1
  Zr  Zr75  1  0.29319114  0.11170819  0.38133272  1
  Zr  Zr76  1  0.51915122  0.69285384  0.87825150  1
  Zr  Zr77  1  0.50492404  0.10110670  0.87819852  1
  Zr  Zr78  1  0.82540967  0.60216626  0.49221296  1
  Zr  Zr79  1  0.40435184  0.21724324  0.50045532  1
  Ta  Ta80  1  0.09844613  0.30924033  0.63819243  1
  Ta  Ta81  1  0.50066995  0.90404325  0.36508743  1
  Ta  Ta82  1  0.29677918  0.49545620  0.86436199  1
  Ta  Ta83  1  0.81063576  0.19576299  0.26478522  1
  Ta  Ta84  1  -0.00532559  0.78545917  0.49635306  1
  Ta  Ta85  1  0.58868594  0.60059099  0.50224151  1
  Ta  Ta86  1  0.60931963  0.58366499  0.01715301  1
  Ta  Ta87  1  0.70577986  0.89986474  0.13018759  1
  Ta  Ta88  1  0.90279427  0.69928086  0.63370211  1
  Ta  Ta89  1  0.21162578  0.40666322  0.51401036  1
  Ta  Ta90  1  0.51764501  0.49025304  0.86023778  1
  Ta  Ta91  1  0.70961643  0.49472140  0.60942747  1
  Ta  Ta92  1  -0.00588918  0.00249056  0.50154125  1
  Ta  Ta93  1  0.49905383  0.09648336  0.62229301  1
  Ta  Ta94  1  0.20428176  0.40670665  0.01026885  1
  Ta  Ta95  1  0.71480809  0.30443542  0.60656704  1
  Ta  Ta96  1  0.60088256  0.79488727  0.24943645  1
  Ta  Ta97  1  0.70966178  0.69939901  0.59690385  1
  Ta  Ta98  1  0.19567656  0.58933622  0.00877692  1
  Ta  Ta99  1  0.60476179  0.19762764  0.50079793  1
  Ta  Ta100  1  0.58744180  0.21994851  -0.00206596  1
  Ta  Ta101  1  0.30187669  0.31059507  0.35550486  1
  Ta  Ta102  1  0.39373392  -0.00374334  0.76197653  1
  Ta  Ta103  1  0.29374685  0.90483368  0.62243978  1
  Ta  Ta104  1  0.90140867  0.89863097  0.38429092  1
  Ta  Ta105  1  0.09115535  0.90022387  0.38729691  1
  Ta  Ta106  1  0.70221802  0.70250004  0.38590608  1
  Ta  Ta107  1  0.38954635  0.00333025  -0.01063436  1
  Ta  Ta108  1  0.49623360  0.49612473  0.63274862  1
  Ta  Ta109  1  0.60312926  0.00056967  0.24348256  1
  Ta  Ta110  1  0.89835914  0.09960538  0.86701194  1
  Ta  Ta111  1  0.69251122  0.32001619  0.88468438  1
  Ta  Ta112  1  0.39426457  0.40950051  0.48874236  1
  Ta  Ta113  1  0.39775817  0.79528208  -0.00571653  1
  Ta  Ta114  1  0.89400826  0.89336045  0.11958147  1
  Ta  Ta115  1  -0.00816221  0.78943129  0.00752010  1
  Ta  Ta116  1  -0.00252934  0.59843798  0.01315837  1
  Ta  Ta117  1  0.79152638  -0.00570319  0.75188589  1
  Ta  Ta118  1  0.19658426  -0.00282642  0.49418966  1
  Ta  Ta119  1  0.80941399  0.59861039  0.26931096  1
  Ti  Ti120  1  0.48155484  0.90099589  0.62209706  1
  Ti  Ti121  1  0.70269232  0.89461602  0.60987904  1
  Ti  Ti122  1  0.39201377  0.19575539  -0.01508441  1
  Ti  Ti123  1  0.79457153  0.20699774  0.75771218  1
  Ti  Ti124  1  0.01177787  0.60170564  0.51370808  1
  Ti  Ti125  1  0.31464305  0.49177856  0.12539126  1
  Ti  Ti126  1  0.30218429  0.31870569  0.64494479  1
  Ti  Ti127  1  0.39461567  0.79936090  0.48558819  1
  Ti  Ti128  1  0.90638871  0.10413731  0.12325658  1
  Ti  Ti129  1  0.92229428  0.28958541  0.37718132  1
  Ti  Ti130  1  0.40972471  0.59299538  0.25508039  1
  Ti  Ti131  1  0.29708618  0.49758057  0.36349010  1
  Ti  Ti132  1  0.09408312  0.68889123  0.37143773  1
  Ti  Ti133  1  0.50798255  0.49325189  0.13375667  1
  Ti  Ti134  1  -0.00196798  0.19532848  -0.00869714  1
  Ti  Ti135  1  0.59696117  0.00585903  0.01961798  1
  Ti  Ti136  1  0.10328097  0.70120706  0.11633054  1
  Ti  Ti137  1  0.19969007  0.40577893  0.22851467  1
  Ti  Ti138  1  0.00098431  0.40269694  0.24070060  1
  Ti  Ti139  1  0.20003401  0.00852697  -0.01319411  1
  Ti  Ti140  1  0.70046201  0.09687750  0.37212013  1
  Ti  Ti141  1  -0.00428038  0.40629297  0.00081246  1
  Ti  Ti142  1  0.18846846  0.81101620  0.76287242  1
  Ti  Ti143  1  0.61343968  0.40199204  0.73748547  1
  Ti  Ti144  1  0.00453399  0.39205426  0.50877659  1
  Ti  Ti145  1  0.70004510  0.10234655  0.62396708  1
  Ti  Ti146  1  0.90481958  0.49575699  0.87649176  1
  Ti  Ti147  1  0.70226403  0.30063095  0.39003652  1
  Ti  Ti148  1  0.90339598  0.48906346  0.61992166  1
  Ti  Ti149  1  0.29820238  0.68844825  0.37140558  1
  Ti  Ti150  1  0.91939309  0.49555832  0.37837671  1
  Ti  Ti151  1  0.19899029  0.59914605  0.73687615  1
  Ti  Ti152  1  -0.00606903  0.59252395  0.73689391  1
  Ti  Ti153  1  0.80275593  0.00257764  0.25009674  1
  Ti  Ti154  1  -0.00188805  0.59864598  0.23560375  1
  Ti  Ti155  1  0.00144542  0.00159175  -0.00938240  1
  Ti  Ti156  1  0.59487895  0.40851271  0.27374734  1
  Ti  Ti157  1  0.20860877  -0.00986239  0.76920116  1
  Ti  Ti158  1  0.09962464  0.49440687  0.63444049  1
  Ti  Ti159  1  0.59440969  0.00256460  0.50352748  1
  Mo  Mo160  1  0.50211817  0.70180181  0.36935872  1
  Mo  Mo161  1  0.29493442  0.89575881  0.39078919  1
  Mo  Mo162  1  0.00132848  0.79076908  0.74320862  1
  Mo  Mo163  1  0.49891540  0.70035868  0.62220649  1
  Mo  Mo164  1  0.39892966  0.20396369  0.25907674  1
  Mo  Mo165  1  0.80078741  0.40848960  -0.01544101  1
  Mo  Mo166  1  0.20113621  0.41080118  0.73863952  1
  Mo  Mo167  1  0.81338471  0.39719241  0.48985932  1
  Mo  Mo168  1  0.49655154  0.68750618  0.12676934  1
  Mo  Mo169  1  0.80248625  0.79568264  0.00504022  1
  Mo  Mo170  1  0.80682481  0.59559141  0.00336694  1
  Mo  Mo171  1  0.69801445  0.49635494  0.14220277  1
  Mo  Mo172  1  0.90957582  0.69703152  0.13435874  1
  Mo  Mo173  1  0.91410635  0.69245217  0.36783479  1
  Mo  Mo174  1  0.59946726  0.40964108  -0.00119285  1
  Mo  Mo175  1  0.40511882  0.40514836  0.76245108  1
  Mo  Mo176  1  0.40048025  0.41068489  0.26221744  1
  Mo  Mo177  1  0.49649967  0.50369003  0.37407974  1
  Mo  Mo178  1  0.30367367  0.49779274  0.63759058  1
  Mo  Mo179  1  0.19871558  0.20671304  0.73422989  1
  Mo  Mo180  1  0.19154831  0.79132308  -0.01109489  1
  Mo  Mo181  1  0.80452908  0.79854917  0.49029147  1
  Mo  Mo182  1  0.29752555  0.09835695  0.87338102  1
  Mo  Mo183  1  0.90075138  0.30574089  0.60727228  1
  Mo  Mo184  1  0.80380234  0.59113514  0.72091683  1
  Mo  Mo185  1  0.10199837  0.89225046  0.89036505  1
  Mo  Mo186  1  0.09151764  0.49724052  0.11689170  1
  Mo  Mo187  1  0.09220338  0.09960959  0.09768211  1
  Mo  Mo188  1  0.29510809  0.10051882  0.10177477  1
  Mo  Mo189  1  0.70213623  0.69523139  0.89601545  1
  Mo  Mo190  1  0.49623894  0.30401158  0.36831126  1
  Mo  Mo191  1  0.89830823  0.09708763  0.36980047  1
  Mo  Mo192  1  0.09350200  0.69836157  0.64095303  1
  Mo  Mo193  1  0.89847150  0.30827881  0.89205332  1
  Mo  Mo194  1  -0.00088813  0.20586613  0.51735510  1
  Mo  Mo195  1  0.51053210  0.30594282  0.86084067  1
  Mo  Mo196  1  -0.00203970  0.41078039  0.74357746  1
  Mo  Mo197  1  0.29465276  0.89743657  0.88516783  1
  Mo  Mo198  1  0.20063155  0.19880651  0.00990761  1
  Mo  Mo199  1  -0.00893394  0.20094039  0.23484434  1
