# generated using pymatgen
data_HfZrTaTiMo
_symmetry_space_group_name_H-M   'P 1'
_cell_length_a   15.92543735
_cell_length_b   15.94873791
_cell_length_c   15.15808311
_cell_angle_alpha   89.94504904
_cell_angle_beta   89.99141819
_cell_angle_gamma   90.06168395
_symmetry_Int_Tables_number   1
_chemical_formula_structural   HfZrTaTiMo
_chemical_formula_sum   'Hf40 Zr40 Ta40 Ti40 Mo40'
_cell_volume   3850.00697795
_cell_formula_units_Z   40
loop_
 _symmetry_equiv_pos_site_id
 _symmetry_equiv_pos_as_xyz
  1  'x, y, z'
loop_
 _atom_site_type_symbol
 _atom_site_label
 _atom_site_symmetry_multiplicity
 _atom_site_fract_x
 _atom_site_fract_y
 _atom_site_fract_z
 _atom_site_occupancy
  Hf  Hf0  1  0.20020340  0.00414722  0.51321882  1
  Hf  Hf1  1  0.70157095  0.70062127  0.11663253  1
  Hf  Hf2  1  0.70399707  0.51251764  0.89405411  1
  Hf  Hf3  1  0.00518743  0.39194073  0.76364531  1
  Hf  Hf4  1  0.10067910  0.68759485  0.63175024  1
  Hf  Hf5  1  0.48969089  0.10093052  0.12174760  1
  Hf  Hf6  1  0.50880265  0.89391095  0.86335984  1
  Hf  Hf7  1  0.80196764  0.40953157  0.02083881  1
  Hf  Hf8  1  0.21844327  0.77923247  -0.01180647  1
  Hf  Hf9  1  0.19734751  0.58920536  0.49747822  1
  Hf  Hf10  1  0.89301783  0.90714080  0.86728443  1
  Hf  Hf11  1  0.48342471  0.50160816  0.12970894  1
  Hf  Hf12  1  -0.00104144  0.00068095  0.00321972  1
  Hf  Hf13  1  0.70441613  0.10503681  0.87237977  1
  Hf  Hf14  1  0.70026865  0.10003552  0.12891478  1
  Hf  Hf15  1  -0.00543868  0.78873632  0.75335601  1
  Hf  Hf16  1  0.68411785  0.11655073  0.61876705  1
  Hf  Hf17  1  0.88752143  0.10270782  0.63452355  1
  Hf  Hf18  1  0.90491573  0.89820795  0.36771563  1
  Hf  Hf19  1  0.70619209  0.69471613  0.37471863  1
  Hf  Hf20  1  0.20006488  0.19263572  0.25043461  1
  Hf  Hf21  1  0.61674794  0.39351635  0.75325989  1
  Hf  Hf22  1  0.00380332  0.00532012  0.74140476  1
  Hf  Hf23  1  -0.00005076  0.20428834  0.50206745  1
  Hf  Hf24  1  0.60172882  0.59737346  0.24086419  1
  Hf  Hf25  1  0.49300232  0.69298903  0.37776869  1
  Hf  Hf26  1  0.38227374  0.60434970  -0.00076280  1
  Hf  Hf27  1  0.81347803  0.42285977  0.76464005  1
  Hf  Hf28  1  0.59627018  0.80257966  0.25204898  1
  Hf  Hf29  1  -0.00523716  -0.00411300  0.50997270  1
  Hf  Hf30  1  0.89629634  0.10973000  0.86614723  1
  Hf  Hf31  1  0.10874353  0.88067120  0.38421114  1
  Hf  Hf32  1  0.90555654  0.30590607  0.13045256  1
  Hf  Hf33  1  0.29039529  0.30748173  0.85769335  1
  Hf  Hf34  1  0.30445342  0.29180119  0.38455395  1
  Hf  Hf35  1  0.30875673  0.90540285  0.38882367  1
  Hf  Hf36  1  0.39249573  0.40614707  -0.00673942  1
  Hf  Hf37  1  0.09975313  0.09988771  0.38659987  1
  Hf  Hf38  1  0.58913692  0.19978485  0.25569695  1
  Hf  Hf39  1  0.40931061  0.80479188  0.51445173  1
  Zr  Zr40  1  0.59665115  0.39686516  0.24144974  1
  Zr  Zr41  1  0.10803775  0.89295864  0.11262431  1
  Zr  Zr42  1  0.40749932  0.79554771  -0.00300809  1
  Zr  Zr43  1  0.39829285  0.00516399  -0.02400170  1
  Zr  Zr44  1  0.30420741  0.90216229  0.12162788  1
  Zr  Zr45  1  0.69902619  0.30363602  0.37087101  1
  Zr  Zr46  1  0.59995511  -0.00175806  -0.00799504  1
  Zr  Zr47  1  0.58717431  -0.00371571  0.26146170  1
  Zr  Zr48  1  0.30087151  0.89212340  0.85299601  1
  Zr  Zr49  1  0.58160418  -0.00706924  0.50899914  1
  Zr  Zr50  1  -0.01832151  0.58695857  0.75867672  1
  Zr  Zr51  1  0.50027576  0.49149045  0.63524085  1
  Zr  Zr52  1  0.80589110  0.81064397  0.00347478  1
  Zr  Zr53  1  0.29195575  0.48907628  0.64506439  1
  Zr  Zr54  1  -0.00053954  0.18949426  0.01903391  1
  Zr  Zr55  1  0.29299663  0.70649661  0.37477102  1
  Zr  Zr56  1  0.60095430  0.79592725  0.73133485  1
  Zr  Zr57  1  0.50245507  0.30299379  0.86739612  1
  Zr  Zr58  1  0.00877671  0.00621930  0.23778051  1
  Zr  Zr59  1  0.10599981  0.30648334  0.12194177  1
  Zr  Zr60  1  0.30464407  0.29738998  0.11981942  1
  Zr  Zr61  1  0.90235469  0.32150993  0.61784210  1
  Zr  Zr62  1  0.90208941  0.70014949  0.36420850  1
  Zr  Zr63  1  0.71855958  0.51071753  0.61712179  1
  Zr  Zr64  1  0.79664100  0.77834846  0.74704249  1
  Zr  Zr65  1  0.79258113  0.22480761  0.74574021  1
  Zr  Zr66  1  0.47577889  0.10003218  0.39307363  1
  Zr  Zr67  1  0.30007681  0.89127028  0.63523367  1
  Zr  Zr68  1  0.09297266  0.69303462  0.37406022  1
  Zr  Zr69  1  0.71287756  0.90432856  0.37472358  1
  Zr  Zr70  1  0.61800341  0.60663049  0.74790932  1
  Zr  Zr71  1  0.19765479  0.01396459  0.74160869  1
  Zr  Zr72  1  0.60453857  0.79933747  0.50589408  1
  Zr  Zr73  1  0.19579611  0.58998516  0.24149880  1
  Zr  Zr74  1  0.20784594  0.00132143  0.25648167  1
  Zr  Zr75  1  0.10142770  0.89277877  0.87464033  1
  Zr  Zr76  1  0.49556435  0.49893686  0.37715635  1
  Zr  Zr77  1  0.09802274  0.69820701  0.11275832  1
  Zr  Zr78  1  0.59917394  0.40201915  0.49893372  1
  Zr  Zr79  1  0.80293399  0.20736016  0.48805841  1
  Ta  Ta80  1  0.80460794  0.79823585  0.23668151  1
  Ta  Ta81  1  0.10214328  0.88525354  0.62798677  1
  Ta  Ta82  1  0.09354052  0.48834913  0.62813330  1
  Ta  Ta83  1  0.30541953  0.49962413  0.37148876  1
  Ta  Ta84  1  0.09926921  0.30095374  0.37556625  1
  Ta  Ta85  1  0.10047908  0.68700405  0.87779221  1
  Ta  Ta86  1  0.90567210  0.51016175  0.35140946  1
  Ta  Ta87  1  0.10170863  0.11210931  0.87249488  1
  Ta  Ta88  1  0.58912473  0.60050347  0.00883201  1
  Ta  Ta89  1  0.70916530  0.90987878  0.63277616  1
  Ta  Ta90  1  0.90168612  0.89841046  0.12950992  1
  Ta  Ta91  1  0.39567503  0.59532935  0.51263289  1
  Ta  Ta92  1  0.90075190  0.30083729  0.89613534  1
  Ta  Ta93  1  0.89213266  0.09513598  0.36345687  1
  Ta  Ta94  1  0.29494374  0.69222553  0.63637294  1
  Ta  Ta95  1  0.69712541  0.29515125  0.11991290  1
  Ta  Ta96  1  0.49918356  0.50334770  0.87110073  1
  Ta  Ta97  1  0.81368951  0.41247596  0.47683344  1
  Ta  Ta98  1  0.18893658  0.21229085  0.72830145  1
  Ta  Ta99  1  0.70206360  0.90396566  0.12911555  1
  Ta  Ta100  1  0.69472665  0.70790866  0.89828022  1
  Ta  Ta101  1  0.20033241  0.20510148  0.51671487  1
  Ta  Ta102  1  0.39872778  0.19670746  -0.02073617  1
  Ta  Ta103  1  0.59585594  0.40305057  0.00898448  1
  Ta  Ta104  1  0.59400623  0.19987878  -0.00606945  1
  Ta  Ta105  1  0.50468872  0.69470855  0.87788025  1
  Ta  Ta106  1  0.70817500  0.30142869  0.89952007  1
  Ta  Ta107  1  0.39219292  0.39492877  0.24984540  1
  Ta  Ta108  1  0.00208706  0.19873620  0.24943395  1
  Ta  Ta109  1  0.19940929  0.40091944  0.26042752  1
  Ta  Ta110  1  0.59877275  0.00904372  0.74557108  1
  Ta  Ta111  1  0.19744350  0.39740969  0.49496969  1
  Ta  Ta112  1  0.70401746  0.90482176  0.86415412  1
  Ta  Ta113  1  0.39968470  0.80428723  0.24793569  1
  Ta  Ta114  1  0.69856314  0.10047767  0.37778117  1
  Ta  Ta115  1  0.80203886  0.20075391  0.24686799  1
  Ta  Ta116  1  -0.00664397  0.79215771  0.51661493  1
  Ta  Ta117  1  0.29956550  0.10043387  0.11219788  1
  Ta  Ta118  1  0.79880717  0.41085129  0.24213162  1
  Ta  Ta119  1  0.39920548  0.20136645  0.74284015  1
  Ti  Ti120  1  0.40652571  0.78411936  0.74472651  1
  Ti  Ti121  1  0.39581830  0.00278781  0.25335280  1
  Ti  Ti122  1  0.89571669  0.89755205  0.63426055  1
  Ti  Ti123  1  0.70421474  0.50768234  0.37013184  1
  Ti  Ti124  1  0.00546044  0.79640513  0.24014072  1
  Ti  Ti125  1  0.08761541  0.49710808  0.10963155  1
  Ti  Ti126  1  0.50332711  0.90026235  0.11930965  1
  Ti  Ti127  1  0.49397678  0.29397210  0.11688840  1
  Ti  Ti128  1  0.49313853  0.70278001  0.12637130  1
  Ti  Ti129  1  0.39157267  0.19419112  0.25279244  1
  Ti  Ti130  1  0.00701775  0.20748717  0.74064160  1
  Ti  Ti131  1  0.88917522  0.68026927  0.62229427  1
  Ti  Ti132  1  0.29378530  0.50178120  0.85511347  1
  Ti  Ti133  1  0.20026799  0.00917630  -0.01121920  1
  Ti  Ti134  1  0.40347134  0.60009805  0.75118769  1
  Ti  Ti135  1  0.41005654  0.00884386  0.73957384  1
  Ti  Ti136  1  0.90785131  0.50503369  0.90912578  1
  Ti  Ti137  1  0.20342186  0.19550772  -0.00299541  1
  Ti  Ti138  1  0.70031675  0.30641521  0.60797325  1
  Ti  Ti139  1  0.89766225  0.69162463  0.89773970  1
  Ti  Ti140  1  0.50575915  0.68493748  0.61639423  1
  Ti  Ti141  1  0.29607157  0.10929331  0.86086975  1
  Ti  Ti142  1  0.01041827  0.41085161  0.25353813  1
  Ti  Ti143  1  -0.00539718  0.58874754  0.50155304  1
  Ti  Ti144  1  0.20316175  0.40803108  -0.00068180  1
  Ti  Ti145  1  0.09963331  0.29781243  0.88790404  1
  Ti  Ti146  1  0.90633791  0.69135253  0.11749592  1
  Ti  Ti147  1  0.80701197  0.01072266  0.01093802  1
  Ti  Ti148  1  0.39266692  0.39683899  0.51229170  1
  Ti  Ti149  1  0.80003632  0.00148097  0.50503177  1
  Ti  Ti150  1  0.80886523  0.59754715  0.48873188  1
  Ti  Ti151  1  0.49295062  0.29776862  0.38530861  1
  Ti  Ti152  1  0.00304418  0.40844914  0.48411237  1
  Ti  Ti153  1  0.20550957  0.58962741  0.00147870  1
  Ti  Ti154  1  0.90577853  0.30536840  0.35916070  1
  Ti  Ti155  1  0.30541808  0.10514875  0.62405038  1
  Ti  Ti156  1  0.80566121  0.79938293  0.51060930  1
  Ti  Ti157  1  0.51062822  0.28872932  0.63251208  1
  Ti  Ti158  1  0.10266867  0.49646885  0.88176944  1
  Ti  Ti159  1  0.40051814  0.20335526  0.52303884  1
  Mo  Mo160  1  0.19104517  0.59186281  0.75894927  1
  Mo  Mo161  1  0.69508136  0.50207455  0.12095412  1
  Mo  Mo162  1  0.89696113  0.09753462  0.14295139  1
  Mo  Mo163  1  0.80514956  0.60584398  0.76922824  1
  Mo  Mo164  1  0.29054681  0.49479199  0.13412355  1
  Mo  Mo165  1  0.60320674  0.60038711  0.49711571  1
  Mo  Mo166  1  0.11329873  0.09977723  0.11042089  1
  Mo  Mo167  1  0.90582020  0.50233620  0.61242899  1
  Mo  Mo168  1  0.30351404  0.30223288  0.62804475  1
  Mo  Mo169  1  0.60072599  0.20415092  0.76314057  1
  Mo  Mo170  1  0.20669400  0.79807939  0.24076353  1
  Mo  Mo171  1  0.40448724  0.40043685  0.75347985  1
  Mo  Mo172  1  0.90647190  0.50550057  0.13252478  1
  Mo  Mo173  1  0.79525155  0.00346681  0.74102149  1
  Mo  Mo174  1  0.80152023  0.59738247  0.23313661  1
  Mo  Mo175  1  0.59294178  0.20500235  0.48762608  1
  Mo  Mo176  1  0.70860156  0.69799706  0.59958936  1
  Mo  Mo177  1  0.48968814  0.89673463  0.36844772  1
  Mo  Mo178  1  0.00592190  0.39907169  -0.00829395  1
  Mo  Mo179  1  0.09513920  0.10510304  0.62248789  1
  Mo  Mo180  1  0.19820193  0.78529544  0.75353198  1
  Mo  Mo181  1  0.19809598  0.79282014  0.52156400  1
  Mo  Mo182  1  0.18747213  0.39662219  0.75595071  1
  Mo  Mo183  1  0.50057747  0.10463112  0.85684635  1
  Mo  Mo184  1  0.00531205  0.59795538  0.00074220  1
  Mo  Mo185  1  0.50025769  0.90227580  0.64620391  1
  Mo  Mo186  1  -0.00037319  0.59570095  0.23212812  1
  Mo  Mo187  1  0.79868255  0.20175620  0.01462360  1
  Mo  Mo188  1  0.30253319  0.69804565  0.14320472  1
  Mo  Mo189  1  0.39417658  0.60167277  0.24305205  1
  Mo  Mo190  1  0.80208151  0.60438364  0.01039739  1
  Mo  Mo191  1  0.09948544  0.30916197  0.61102475  1
  Mo  Mo192  1  0.30135762  0.68653421  0.85024145  1
  Mo  Mo193  1  0.09792368  0.49505344  0.37875309  1
  Mo  Mo194  1  -0.00092549  0.79667716  -0.01324558  1
  Mo  Mo195  1  0.49557806  0.10735784  0.62972812  1
  Mo  Mo196  1  0.59902211  0.80212249  0.00512829  1
  Mo  Mo197  1  0.30037396  0.10582914  0.39846233  1
  Mo  Mo198  1  0.80048174  0.00003502  0.24466951  1
  Mo  Mo199  1  0.39594260  0.00278953  0.52518325  1
