# generated using pymatgen
data_HfZrTaTiMo
_symmetry_space_group_name_H-M   'P 1'
_cell_length_a   15.92696525
_cell_length_b   15.93736850
_cell_length_c   15.20990212
_cell_angle_alpha   89.95410655
_cell_angle_beta   90.04501015
_cell_angle_gamma   90.01425439
_symmetry_Int_Tables_number   1
_chemical_formula_structural   HfZrTaTiMo
_chemical_formula_sum   'Hf40 Zr40 Ta40 Ti40 Mo40'
_cell_volume   3860.78644240
_cell_formula_units_Z   40
loop_
 _symmetry_equiv_pos_site_id
 _symmetry_equiv_pos_as_xyz
  1  'x, y, z'
loop_
 _atom_site_type_symbol
 _atom_site_label
 _atom_site_symmetry_multiplicity
 _atom_site_fract_x
 _atom_site_fract_y
 _atom_site_fract_z
 _atom_site_occupancy
  Hf  Hf0  1  0.49216410  0.31405182  0.38611383  1
  Hf  Hf1  1  0.70163967  0.70605439  0.37780536  1
  Hf  Hf2  1  -0.00310628  -0.00779640  0.74990430  1
  Hf  Hf3  1  0.60182249  0.40568348  0.23631878  1
  Hf  Hf4  1  0.09877756  0.69503615  0.36986011  1
  Hf  Hf5  1  0.40334264  0.40913780  -0.00225003  1
  Hf  Hf6  1  0.91236606  0.68681709  0.61851698  1
  Hf  Hf7  1  0.30746564  0.89717370  0.11512842  1
  Hf  Hf8  1  0.19276472  0.19880617  0.50456011  1
  Hf  Hf9  1  0.79665136  0.20206705  0.49983386  1
  Hf  Hf10  1  0.91815935  0.30755220  0.36511619  1
  Hf  Hf11  1  0.40850197  0.80889039  -0.01213178  1
  Hf  Hf12  1  0.79883051  0.40267039  0.24834818  1
  Hf  Hf13  1  0.29644782  0.10236046  0.87283179  1
  Hf  Hf14  1  0.89421493  0.09136910  0.62413762  1
  Hf  Hf15  1  0.78639119  -0.01316018  0.49511560  1
  Hf  Hf16  1  0.30004372  0.09855568  0.36783150  1
  Hf  Hf17  1  0.68864112  0.09482162  0.13595387  1
  Hf  Hf18  1  0.29877519  0.69202796  0.86637834  1
  Hf  Hf19  1  0.69521770  0.09288115  0.86321748  1
  Hf  Hf20  1  0.30337471  0.09392052  0.12113343  1
  Hf  Hf21  1  0.40217886  0.20283733  0.25557635  1
  Hf  Hf22  1  0.89720448  0.09722257  0.87444044  1
  Hf  Hf23  1  0.40746220  0.40496151  0.23616684  1
  Hf  Hf24  1  0.09138928  0.10958399  0.35747094  1
  Hf  Hf25  1  -0.00017927  0.78994741  0.75550720  1
  Hf  Hf26  1  0.48829021  0.10064049  0.11601327  1
  Hf  Hf27  1  0.79636388  -0.00630459  0.01301865  1
  Hf  Hf28  1  0.80367523  0.79402883  0.74955087  1
  Hf  Hf29  1  0.30933932  0.49037617  0.37873837  1
  Hf  Hf30  1  0.48691579  0.31438888  0.62023638  1
  Hf  Hf31  1  0.39417013  0.19628092  0.49959450  1
  Hf  Hf32  1  0.40789125  0.60970031  0.25005225  1
  Hf  Hf33  1  0.19818328  0.79381443  0.74190305  1
  Hf  Hf34  1  -0.01152834  -0.00596906  0.23444270  1
  Hf  Hf35  1  0.29820500  0.29658104  0.11729468  1
  Hf  Hf36  1  0.60338602  0.60019579  0.24541288  1
  Hf  Hf37  1  0.19995417  0.00416663  0.50179620  1
  Hf  Hf38  1  0.71634710  0.70996802  0.12566470  1
  Hf  Hf39  1  0.18950505  0.19924997  -0.00118965  1
  Zr  Zr40  1  0.89281919  0.10398364  0.36442983  1
  Zr  Zr41  1  0.09568297  0.88906119  0.36895331  1
  Zr  Zr42  1  -0.00192520  0.78246008  -0.00587132  1
  Zr  Zr43  1  -0.01270835  0.40650556  0.76000098  1
  Zr  Zr44  1  0.09640839  0.31274626  0.64222206  1
  Zr  Zr45  1  0.69892370  0.50822541  0.89792073  1
  Zr  Zr46  1  0.00271382  0.39195383  0.00752634  1
  Zr  Zr47  1  0.68386449  0.09393954  0.37156502  1
  Zr  Zr48  1  0.20476879  0.79714714  0.50456355  1
  Zr  Zr49  1  0.80317611  0.59920497  0.75604758  1
  Zr  Zr50  1  0.10563711  0.09526968  0.13366450  1
  Zr  Zr51  1  0.19535693  0.40645120  -0.00822438  1
  Zr  Zr52  1  0.10896440  0.88079287  0.12465662  1
  Zr  Zr53  1  0.59775625  0.41384249  0.74732690  1
  Zr  Zr54  1  0.09762400  0.89833666  0.62408116  1
  Zr  Zr55  1  0.59570038  0.21073596  0.25005331  1
  Zr  Zr56  1  0.59903280  0.21188167  0.74292139  1
  Zr  Zr57  1  0.79370747  0.40217287  0.74553558  1
  Zr  Zr58  1  0.00594458  0.20596462  0.51026904  1
  Zr  Zr59  1  0.19654793  0.59538650  0.50495893  1
  Zr  Zr60  1  0.20336126  0.59602715  0.25667771  1
  Zr  Zr61  1  0.40927221  0.79689310  0.74548066  1
  Zr  Zr62  1  0.29754029  0.50603148  0.12344095  1
  Zr  Zr63  1  0.88278582  0.87292875  0.12357849  1
  Zr  Zr64  1  0.59240053  -0.00884026  -0.00257882  1
  Zr  Zr65  1  0.09835371  0.29413240  0.86545124  1
  Zr  Zr66  1  0.29654807  0.30086420  0.63696484  1
  Zr  Zr67  1  0.79858474  0.20728719  0.73838663  1
  Zr  Zr68  1  0.89608952  0.50635651  0.12182810  1
  Zr  Zr69  1  0.21422778  -0.02219656  0.25898183  1
  Zr  Zr70  1  0.50676326  0.72425081  0.12781999  1
  Zr  Zr71  1  -0.00527486  -0.00310984  0.49925457  1
  Zr  Zr72  1  0.49429768  0.09508264  0.63837332  1
  Zr  Zr73  1  0.00998819  0.59823175  -0.00258623  1
  Zr  Zr74  1  0.58694034  0.42153715  0.49985560  1
  Zr  Zr75  1  0.69682204  0.30600570  0.89074940  1
  Zr  Zr76  1  0.18059527  0.40117987  0.49404831  1
  Zr  Zr77  1  0.51135428  0.69637728  0.88177437  1
  Zr  Zr78  1  0.80042619  0.19634406  0.01799319  1
  Zr  Zr79  1  0.42270472  0.59070369  0.50021267  1
  Ta  Ta80  1  0.60326634  0.81954697  0.49235377  1
  Ta  Ta81  1  0.41055078  0.80463735  0.49874376  1
  Ta  Ta82  1  0.70143373  0.70195555  0.60739759  1
  Ta  Ta83  1  0.30910541  0.49412420  0.62996496  1
  Ta  Ta84  1  0.69849253  0.50433476  0.38106456  1
  Ta  Ta85  1  0.31246930  0.90491963  0.62483973  1
  Ta  Ta86  1  0.90511471  0.69890467  0.37272118  1
  Ta  Ta87  1  0.70352251  0.51160953  0.60709199  1
  Ta  Ta88  1  0.80544114  0.80239352  0.50123194  1
  Ta  Ta89  1  0.70123499  0.89418980  0.87078721  1
  Ta  Ta90  1  0.29741804  0.09322190  0.63704442  1
  Ta  Ta91  1  0.89474293  0.88957112  0.36836068  1
  Ta  Ta92  1  0.40931807  -0.00366512  0.49072838  1
  Ta  Ta93  1  0.89601449  0.89660951  0.88600538  1
  Ta  Ta94  1  0.11140806  0.51637622  0.85878643  1
  Ta  Ta95  1  0.49699598  0.10652861  0.87251039  1
  Ta  Ta96  1  0.68250109  0.88657548  0.13978879  1
  Ta  Ta97  1  0.19522189  -0.00689615  -0.01145085  1
  Ta  Ta98  1  0.79135096  -0.00963897  0.24840448  1
  Ta  Ta99  1  0.19915568  0.60775158  0.00366628  1
  Ta  Ta100  1  0.49845630  0.30019349  0.88750730  1
  Ta  Ta101  1  0.41203301  0.59589604  0.74226003  1
  Ta  Ta102  1  0.80863235  0.59974758  0.48823568  1
  Ta  Ta103  1  0.30409044  0.50957355  0.86714970  1
  Ta  Ta104  1  0.80573733  0.40468164  0.48929295  1
  Ta  Ta105  1  0.90502109  0.49872022  0.61105290  1
  Ta  Ta106  1  0.69889463  0.30462364  0.38188938  1
  Ta  Ta107  1  -0.00690823  0.19489802  0.02074045  1
  Ta  Ta108  1  0.59506662  0.19771776  0.50213154  1
  Ta  Ta109  1  0.89833820  0.29369494  0.88341721  1
  Ta  Ta110  1  0.49613476  0.90883914  0.14535675  1
  Ta  Ta111  1  -0.00381318  0.19405350  0.74322385  1
  Ta  Ta112  1  0.69106773  0.09037133  0.62466406  1
  Ta  Ta113  1  0.61019221  0.79362396  0.74987464  1
  Ta  Ta114  1  0.30935126  0.69427171  0.62314574  1
  Ta  Ta115  1  -0.00274381  -0.00171555  0.00703968  1
  Ta  Ta116  1  0.29555644  0.89996243  0.86890729  1
  Ta  Ta117  1  0.39191664  0.81512153  0.27427742  1
  Ta  Ta118  1  0.60635938  0.60662189  0.73996494  1
  Ta  Ta119  1  0.50814820  0.90283349  0.62986711  1
  Ti  Ti120  1  0.29174709  0.30356673  0.37357326  1
  Ti  Ti121  1  0.20744246  0.40828553  0.75667660  1
  Ti  Ti122  1  0.19298653  0.18995705  0.74799191  1
  Ti  Ti123  1  0.40493502  0.40541395  0.76618835  1
  Ti  Ti124  1  0.69573351  0.30882993  0.60586295  1
  Ti  Ti125  1  0.81505359  0.62342437  -0.00675295  1
  Ti  Ti126  1  0.30252889  0.30098684  0.87676534  1
  Ti  Ti127  1  0.00581283  0.58074228  0.48333453  1
  Ti  Ti128  1  0.19617593  0.21173713  0.24679128  1
  Ti  Ti129  1  0.30586339  0.70212309  0.38470976  1
  Ti  Ti130  1  0.59925715  0.60751184  0.01465304  1
  Ti  Ti131  1  0.50747382  0.70750599  0.37792063  1
  Ti  Ti132  1  0.50197474  0.29936689  0.10423563  1
  Ti  Ti133  1  0.19516624  -0.00178768  0.75227353  1
  Ti  Ti134  1  0.39688510  0.20567923  0.75775145  1
  Ti  Ti135  1  0.09825708  0.89767616  0.87837319  1
  Ti  Ti136  1  0.09294330  0.51291039  0.64164590  1
  Ti  Ti137  1  0.10452532  0.69303171  0.13922471  1
  Ti  Ti138  1  0.80605152  0.60044733  0.25928738  1
  Ti  Ti139  1  0.51338657  0.70320045  0.61583120  1
  Ti  Ti140  1  0.50508769  0.50638239  0.88475264  1
  Ti  Ti141  1  0.80115712  0.38848328  0.01827409  1
  Ti  Ti142  1  0.60019262  0.20140044  0.00111334  1
  Ti  Ti143  1  0.10510417  0.49022236  0.13968323  1
  Ti  Ti144  1  -0.00260536  0.58575777  0.25540832  1
  Ti  Ti145  1  0.89810774  0.49875508  0.88873118  1
  Ti  Ti146  1  -0.00622704  0.78688114  0.24385126  1
  Ti  Ti147  1  0.39951842  0.60665606  0.00922476  1
  Ti  Ti148  1  0.80048226  -0.01223140  0.74395133  1
  Ti  Ti149  1  0.79995779  0.20704299  0.23822370  1
  Ti  Ti150  1  0.70271645  0.50508170  0.11170006  1
  Ti  Ti151  1  0.39685852  -0.00241958  0.75702826  1
  Ti  Ti152  1  0.69495726  0.89940719  0.63362272  1
  Ti  Ti153  1  0.09075961  0.09534068  0.87652555  1
  Ti  Ti154  1  -0.00107821  0.79484084  0.50493645  1
  Ti  Ti155  1  0.39888202  -0.00142251  -0.01824814  1
  Ti  Ti156  1  0.29479975  0.71398144  0.12865134  1
  Ti  Ti157  1  0.50907572  0.90558860  0.85709608  1
  Ti  Ti158  1  0.89969166  0.30883396  0.61730320  1
  Ti  Ti159  1  0.19709008  0.79175861  -0.01412712  1
  Mo  Mo160  1  0.39840557  0.20267428  -0.01326809  1
  Mo  Mo161  1  0.69658937  0.90023425  0.36296865  1
  Mo  Mo162  1  0.10164135  0.30025902  0.35635295  1
  Mo  Mo163  1  0.89996016  0.29785567  0.13679233  1
  Mo  Mo164  1  0.90216502  0.69083110  0.14589566  1
  Mo  Mo165  1  0.20711191  0.59880844  0.72969594  1
  Mo  Mo166  1  0.79831646  0.79619602  0.26853153  1
  Mo  Mo167  1  0.09055335  0.48634263  0.35752418  1
  Mo  Mo168  1  0.49826108  0.10280923  0.38293694  1
  Mo  Mo169  1  0.50598330  0.91041176  0.36882369  1
  Mo  Mo170  1  0.90257123  0.69389521  0.86493749  1
  Mo  Mo171  1  0.00084127  0.59894409  0.76190289  1
  Mo  Mo172  1  0.40531033  0.00185488  0.26807475  1
  Mo  Mo173  1  0.79689858  0.79677951  -0.01579780  1
  Mo  Mo174  1  0.89331671  0.89190395  0.61578059  1
  Mo  Mo175  1  0.50479208  0.50925877  0.35586756  1
  Mo  Mo176  1  0.09944218  0.29989196  0.13868586  1
  Mo  Mo177  1  0.00336604  0.40032632  0.23484173  1
  Mo  Mo178  1  0.70061017  0.70268162  0.88894025  1
  Mo  Mo179  1  0.89467041  0.09340729  0.13478599  1
  Mo  Mo180  1  0.50316026  0.51149113  0.11346187  1
  Mo  Mo181  1  0.59638963  -0.00103483  0.51278483  1
  Mo  Mo182  1  0.69687474  0.30210265  0.11903315  1
  Mo  Mo183  1  0.21153400  0.78700259  0.25745902  1
  Mo  Mo184  1  0.20001193  0.39255267  0.25786866  1
  Mo  Mo185  1  -0.00140352  0.40596631  0.50455829  1
  Mo  Mo186  1  0.39004690  0.40133143  0.49897708  1
  Mo  Mo187  1  0.30681911  0.89644392  0.39858211  1
  Mo  Mo188  1  0.60598605  0.61165276  0.50008946  1
  Mo  Mo189  1  0.10876627  0.69531977  0.86573088  1
  Mo  Mo190  1  0.60154175  -0.00488163  0.75288081  1
  Mo  Mo191  1  0.59790785  0.40583088  0.01539403  1
  Mo  Mo192  1  0.10386091  0.09937481  0.64189263  1
  Mo  Mo193  1  0.60462692  0.80740564  -0.01071255  1
  Mo  Mo194  1  0.50107655  0.50629067  0.63850050  1
  Mo  Mo195  1  0.59445762  0.80402566  0.26986542  1
  Mo  Mo196  1  0.59202846  0.00172856  0.24427595  1
  Mo  Mo197  1  0.09921369  0.68863311  0.62155588  1
  Mo  Mo198  1  -0.00416111  0.20225717  0.23026522  1
  Mo  Mo199  1  0.90042044  0.50066971  0.37546157  1
