# generated using pymatgen
data_HfZrTaTiMo
_symmetry_space_group_name_H-M   'P 1'
_cell_length_a   15.93775644
_cell_length_b   15.93283806
_cell_length_c   15.17347702
_cell_angle_alpha   89.97728169
_cell_angle_beta   89.98068084
_cell_angle_gamma   90.07403657
_symmetry_Int_Tables_number   1
_chemical_formula_structural   HfZrTaTiMo
_chemical_formula_sum   'Hf40 Zr40 Ta40 Ti40 Mo40'
_cell_volume   3853.05330573
_cell_formula_units_Z   40
loop_
 _symmetry_equiv_pos_site_id
 _symmetry_equiv_pos_as_xyz
  1  'x, y, z'
loop_
 _atom_site_type_symbol
 _atom_site_label
 _atom_site_symmetry_multiplicity
 _atom_site_fract_x
 _atom_site_fract_y
 _atom_site_fract_z
 _atom_site_occupancy
  Hf  Hf0  1  0.59271383  0.19529118  0.48579234  1
  Hf  Hf1  1  0.89476915  0.50397020  0.38805758  1
  Hf  Hf2  1  0.32268338  0.68825103  0.84652005  1
  Hf  Hf3  1  0.40069897  0.20523973  0.74410396  1
  Hf  Hf4  1  0.79216757  0.59622758  0.00311362  1
  Hf  Hf5  1  0.50597545  0.09580178  0.13336390  1
  Hf  Hf6  1  0.91384225  0.71025343  0.10443205  1
  Hf  Hf7  1  0.50251769  0.70918426  0.62640174  1
  Hf  Hf8  1  0.90123465  0.29435323  0.12848193  1
  Hf  Hf9  1  0.19891895  0.60458171  0.49869760  1
  Hf  Hf10  1  -0.00326567  0.80874602  0.25514590  1
  Hf  Hf11  1  0.50927836  0.70591219  0.87323318  1
  Hf  Hf12  1  0.09462157  0.10013488  0.63529048  1
  Hf  Hf13  1  0.39251006  0.40619843  0.02655505  1
  Hf  Hf14  1  0.69886931  0.70258806  0.87331233  1
  Hf  Hf15  1  -0.00821455  -0.00028360  -0.01286513  1
  Hf  Hf16  1  0.40043864  0.40348836  0.24751793  1
  Hf  Hf17  1  0.30722835  0.30765689  0.87557170  1
  Hf  Hf18  1  0.09348920  0.90161539  0.39423514  1
  Hf  Hf19  1  0.09600928  0.30224743  0.12232462  1
  Hf  Hf20  1  0.21027252  0.59243756  -0.01562942  1
  Hf  Hf21  1  0.39659320  0.79812679  0.00567574  1
  Hf  Hf22  1  0.79487643  0.60650170  0.23640290  1
  Hf  Hf23  1  0.39209803  0.60251383  0.02617967  1
  Hf  Hf24  1  0.79436340  0.79616813  0.23981523  1
  Hf  Hf25  1  0.70414983  0.30063753  0.37787632  1
  Hf  Hf26  1  0.10447548  0.69875425  0.11302316  1
  Hf  Hf27  1  0.40463857  0.01112020  0.48552926  1
  Hf  Hf28  1  0.69641101  0.09633084  0.13740346  1
  Hf  Hf29  1  0.50960024  0.30560479  0.87898735  1
  Hf  Hf30  1  0.79644840  0.40712909  0.24899839  1
  Hf  Hf31  1  0.39163751  0.00746309  -0.00639891  1
  Hf  Hf32  1  0.58851719  -0.00238463  0.75487468  1
  Hf  Hf33  1  0.89124198  0.29305090  0.61282892  1
  Hf  Hf34  1  0.79405867  0.00259414  -0.00400589  1
  Hf  Hf35  1  0.20375190  0.00295769  0.76222038  1
  Hf  Hf36  1  0.19925436  0.39536830  0.48982670  1
  Hf  Hf37  1  0.50165018  0.10077279  0.62471290  1
  Hf  Hf38  1  0.00550664  0.60884293  0.26316598  1
  Hf  Hf39  1  0.40781306  0.60323141  0.25314242  1
  Zr  Zr40  1  0.91319791  0.50000557  0.11283828  1
  Zr  Zr41  1  0.69010149  0.52218739  0.38887635  1
  Zr  Zr42  1  0.79632756  -0.00133632  0.49939376  1
  Zr  Zr43  1  0.40392271  -0.00598497  0.26296474  1
  Zr  Zr44  1  -0.00776673  0.20926513  0.76182518  1
  Zr  Zr45  1  0.20640025  0.19499349  0.49597189  1
  Zr  Zr46  1  0.89483396  0.48538119  0.88196661  1
  Zr  Zr47  1  0.50320010  0.11379977  0.87788270  1
  Zr  Zr48  1  0.20242870  0.58836052  0.74885814  1
  Zr  Zr49  1  0.09201958  0.30451963  0.61878295  1
  Zr  Zr50  1  0.40604965  0.79648140  0.26306500  1
  Zr  Zr51  1  0.39639006  0.20464973  0.48352201  1
  Zr  Zr52  1  0.28481614  0.89394515  0.38765678  1
  Zr  Zr53  1  0.19886589  0.40270699  0.74750953  1
  Zr  Zr54  1  0.79141218  -0.00109926  0.76146567  1
  Zr  Zr55  1  -0.00417293  0.60641362  0.50523817  1
  Zr  Zr56  1  0.59949426  0.59169504  0.74038211  1
  Zr  Zr57  1  0.41051176  0.61090583  0.48056158  1
  Zr  Zr58  1  0.39727874  0.20537670  0.01783873  1
  Zr  Zr59  1  0.09523891  0.30883913  0.89023042  1
  Zr  Zr60  1  0.49144830  0.50970738  0.88342457  1
  Zr  Zr61  1  0.30819503  0.90232169  0.61877884  1
  Zr  Zr62  1  0.19945789  0.59921194  0.25600029  1
  Zr  Zr63  1  0.20120709  0.79058917  -0.02257595  1
  Zr  Zr64  1  0.39642219  0.20282167  0.26103627  1
  Zr  Zr65  1  0.55007815  0.70142654  0.37485398  1
  Zr  Zr66  1  0.80270080  0.79502832  0.51562423  1
  Zr  Zr67  1  0.09019861  0.08968222  0.36224724  1
  Zr  Zr68  1  0.79579603  -0.01802071  0.25031316  1
  Zr  Zr69  1  0.29408286  0.89604530  0.12620400  1
  Zr  Zr70  1  0.20410246  0.19403344  0.00289792  1
  Zr  Zr71  1  0.52373952  0.70881189  0.12614526  1
  Zr  Zr72  1  0.80298935  0.58916931  0.74229817  1
  Zr  Zr73  1  0.10009590  0.90147801  0.62571658  1
  Zr  Zr74  1  0.08562498  0.89468512  0.10854505  1
  Zr  Zr75  1  0.30105842  0.49825057  0.37714994  1
  Zr  Zr76  1  0.00890975  0.41034465  0.25924511  1
  Zr  Zr77  1  0.60965746  0.40082275  0.01179919  1
  Zr  Zr78  1  -0.00671476  0.18865375  0.49723034  1
  Zr  Zr79  1  0.60209079  0.39718732  0.74264794  1
  Ta  Ta80  1  0.60302372  0.00246489  -0.01100343  1
  Ta  Ta81  1  0.69914852  0.29061995  0.61505186  1
  Ta  Ta82  1  0.19855481  0.00243222  -0.01207159  1
  Ta  Ta83  1  0.69990129  0.10655826  0.62541094  1
  Ta  Ta84  1  0.88815267  0.09983316  0.63982732  1
  Ta  Ta85  1  0.19730643  0.79178404  0.25284562  1
  Ta  Ta86  1  0.20412347  0.79831807  0.74911994  1
  Ta  Ta87  1  0.70828563  0.29353801  0.86886554  1
  Ta  Ta88  1  0.80063757  0.80714855  -0.00158230  1
  Ta  Ta89  1  0.30630887  0.70381911  0.62331151  1
  Ta  Ta90  1  0.09505628  0.29672952  0.36899989  1
  Ta  Ta91  1  0.90451673  0.48781109  0.61956497  1
  Ta  Ta92  1  0.59832888  0.41105346  0.25675399  1
  Ta  Ta93  1  0.30610395  0.30536771  0.62382086  1
  Ta  Ta94  1  0.68858949  0.89990907  0.63297031  1
  Ta  Ta95  1  -0.01088888  0.19543883  -0.00130961  1
  Ta  Ta96  1  0.90038510  0.29371621  0.37594883  1
  Ta  Ta97  1  -0.00144233  0.79559048  0.74917741  1
  Ta  Ta98  1  0.28726685  0.09301723  0.13862466  1
  Ta  Ta99  1  0.10211166  0.69980181  0.63317150  1
  Ta  Ta100  1  0.09102329  0.09676333  0.12964879  1
  Ta  Ta101  1  0.20580386  0.19981587  0.75125656  1
  Ta  Ta102  1  0.00488285  0.59285212  0.75263603  1
  Ta  Ta103  1  0.88780889  0.11150402  0.86959207  1
  Ta  Ta104  1  0.51005125  0.29884071  0.13864180  1
  Ta  Ta105  1  0.40223254  0.41221311  0.74147773  1
  Ta  Ta106  1  -0.00702045  0.79750067  0.51977456  1
  Ta  Ta107  1  0.90027464  0.09405846  0.35949097  1
  Ta  Ta108  1  0.19534712  0.20483403  0.24561365  1
  Ta  Ta109  1  0.79963235  0.19664248  0.25554428  1
  Ta  Ta110  1  0.89834026  0.70201988  0.86865600  1
  Ta  Ta111  1  0.01354697  0.60250152  -0.02949415  1
  Ta  Ta112  1  0.49997893  0.49937577  0.60153600  1
  Ta  Ta113  1  0.79769798  0.39745499  0.50023783  1
  Ta  Ta114  1  -0.00681780  -0.00052763  0.76084697  1
  Ta  Ta115  1  0.50951051  0.90416899  0.11746138  1
  Ta  Ta116  1  -0.00476659  0.40585173  0.75750826  1
  Ta  Ta117  1  0.39624869  0.00518072  0.75627104  1
  Ta  Ta118  1  0.31094614  0.49954118  0.61025830  1
  Ta  Ta119  1  0.90357323  0.09399928  0.13713332  1
  Ti  Ti120  1  0.79624847  0.38971907  0.00913278  1
  Ti  Ti121  1  0.10140702  0.50143692  0.10994936  1
  Ti  Ti122  1  0.79528523  0.19867923  0.00733796  1
  Ti  Ti123  1  0.69491093  0.49287183  0.87774534  1
  Ti  Ti124  1  0.68782308  0.87435767  0.38506637  1
  Ti  Ti125  1  0.09388079  0.49494676  0.61272848  1
  Ti  Ti126  1  0.51723231  0.50809413  0.12861679  1
  Ti  Ti127  1  0.09662036  0.10297842  0.87487681  1
  Ti  Ti128  1  0.30601347  0.89720444  0.87024796  1
  Ti  Ti129  1  0.28310458  0.09376066  0.35723658  1
  Ti  Ti130  1  0.09454879  0.89293038  0.87045865  1
  Ti  Ti131  1  0.59309339  0.39936611  0.48760141  1
  Ti  Ti132  1  0.20194903  0.39955739  0.24938959  1
  Ti  Ti133  1  0.80212064  0.38892864  0.74457089  1
  Ti  Ti134  1  0.50213813  0.89695216  0.88704351  1
  Ti  Ti135  1  0.60881231  0.20162766  0.00964248  1
  Ti  Ti136  1  0.69949769  0.48866366  0.61338282  1
  Ti  Ti137  1  0.69412177  0.11567256  0.86422837  1
  Ti  Ti138  1  0.50176151  0.30568479  0.61866393  1
  Ti  Ti139  1  -0.01480279  -0.00264462  0.51745972  1
  Ti  Ti140  1  0.10326102  0.71460269  0.39182316  1
  Ti  Ti141  1  0.89211665  0.89700687  0.64383598  1
  Ti  Ti142  1  0.20922639  0.40738359  0.00711815  1
  Ti  Ti143  1  0.89287854  0.70586956  0.37916442  1
  Ti  Ti144  1  0.41413521  0.81841843  0.74400713  1
  Ti  Ti145  1  0.69762871  0.29634539  0.14019003  1
  Ti  Ti146  1  0.89478232  0.89223856  0.87015105  1
  Ti  Ti147  1  0.70080912  0.70990430  0.64274433  1
  Ti  Ti148  1  0.70176633  0.09457176  0.37361957  1
  Ti  Ti149  1  0.18424688  -0.01319071  0.24243568  1
  Ti  Ti150  1  0.41220370  0.80506235  0.48814671  1
  Ti  Ti151  1  0.59705612  -0.00769874  0.49398567  1
  Ti  Ti152  1  0.90301598  0.90009903  0.38405108  1
  Ti  Ti153  1  0.20392340  0.01081080  0.51183061  1
  Ti  Ti154  1  0.79870814  0.60668734  0.52145718  1
  Ti  Ti155  1  0.68833885  0.89328127  0.11559021  1
  Ti  Ti156  1  0.59817668  0.20076601  0.26476621  1
  Ti  Ti157  1  0.69127966  0.88820984  0.86781803  1
  Ti  Ti158  1  0.59768685  -0.01653786  0.26773842  1
  Ti  Ti159  1  0.40557608  0.39109205  0.47969727  1
  Mo  Mo160  1  -0.00285545  0.19867087  0.24698761  1
  Mo  Mo161  1  0.28902334  0.71020100  0.38763788  1
  Mo  Mo162  1  0.50486306  0.30499688  0.36148604  1
  Mo  Mo163  1  0.29391094  0.30105398  0.13625065  1
  Mo  Mo164  1  0.10283139  0.69885616  0.85222675  1
  Mo  Mo165  1  0.29865099  0.70211610  0.13561420  1
  Mo  Mo166  1  0.61466475  0.80864061  0.23996295  1
  Mo  Mo167  1  0.19649719  0.79522671  0.52038611  1
  Mo  Mo168  1  0.60618359  0.80396788  0.52193020  1
  Mo  Mo169  1  0.29716388  0.10165863  0.86605222  1
  Mo  Mo170  1  -0.00268272  0.39909729  0.48685873  1
  Mo  Mo171  1  0.69894470  0.49836303  0.12562967  1
  Mo  Mo172  1  0.00236373  0.40033807  0.00010251  1
  Mo  Mo173  1  0.70377593  0.70375309  0.10182957  1
  Mo  Mo174  1  0.29289634  0.29883689  0.36087655  1
  Mo  Mo175  1  0.28718531  0.50193488  0.14203313  1
  Mo  Mo176  1  0.79287577  0.20495237  0.75093822  1
  Mo  Mo177  1  0.61468240  0.60306816  0.52550133  1
  Mo  Mo178  1  0.29954302  0.10492746  0.63763816  1
  Mo  Mo179  1  0.30896018  0.49272925  0.87063951  1
  Mo  Mo180  1  0.61546257  0.60096099  0.23241745  1
  Mo  Mo181  1  0.60461410  0.81087076  -0.00591054  1
  Mo  Mo182  1  0.90253009  0.69457769  0.64692620  1
  Mo  Mo183  1  0.50972234  0.89564526  0.38869917  1
  Mo  Mo184  1  -0.00325460  0.79836879  -0.03182979  1
  Mo  Mo185  1  0.50785252  0.50082701  0.38201937  1
  Mo  Mo186  1  0.71828991  0.70128801  0.38508865  1
  Mo  Mo187  1  0.79581903  0.19223921  0.48185261  1
  Mo  Mo188  1  0.40319576  0.59370772  0.72753298  1
  Mo  Mo189  1  0.10186410  0.49454047  0.88211242  1
  Mo  Mo190  1  0.89488416  0.90122812  0.10580205  1
  Mo  Mo191  1  -0.00573525  -0.00744524  0.24172327  1
  Mo  Mo192  1  0.88844547  0.29850272  0.89363826  1
  Mo  Mo193  1  0.79994244  0.80064143  0.75093439  1
  Mo  Mo194  1  0.60533627  0.60053534  0.00443976  1
  Mo  Mo195  1  0.09481102  0.49746959  0.38673151  1
  Mo  Mo196  1  0.59764447  0.80975892  0.74798701  1
  Mo  Mo197  1  0.51382462  0.09493212  0.36548589  1
  Mo  Mo198  1  0.50096067  0.90593476  0.61088844  1
  Mo  Mo199  1  0.60242722  0.20473819  0.73541073  1
