# generated using pymatgen
data_HfZrTaTiMo
_symmetry_space_group_name_H-M   'P 1'
_cell_length_a   15.92964955
_cell_length_b   15.93209881
_cell_length_c   15.21789385
_cell_angle_alpha   90.02757648
_cell_angle_beta   90.02209555
_cell_angle_gamma   90.03391757
_symmetry_Int_Tables_number   1
_chemical_formula_structural   HfZrTaTiMo
_chemical_formula_sum   'Hf40 Zr40 Ta40 Ti40 Mo40'
_cell_volume   3862.18972903
_cell_formula_units_Z   40
loop_
 _symmetry_equiv_pos_site_id
 _symmetry_equiv_pos_as_xyz
  1  'x, y, z'
loop_
 _atom_site_type_symbol
 _atom_site_label
 _atom_site_symmetry_multiplicity
 _atom_site_fract_x
 _atom_site_fract_y
 _atom_site_fract_z
 _atom_site_occupancy
  Hf  Hf0  1  0.79512883  0.60467489  0.75078622  1
  Hf  Hf1  1  0.39958165  0.59330253  0.25987122  1
  Hf  Hf2  1  0.40044834  0.00723760  0.73465219  1
  Hf  Hf3  1  -0.00484387  0.40252583  0.25748827  1
  Hf  Hf4  1  0.90262792  0.49868106  0.63403596  1
  Hf  Hf5  1  0.40519240  0.41446334  0.73521015  1
  Hf  Hf6  1  0.10904433  0.10395490  0.37902483  1
  Hf  Hf7  1  0.70193018  0.90256754  0.88954608  1
  Hf  Hf8  1  0.10172018  0.30613394  0.12684750  1
  Hf  Hf9  1  0.19730404  0.40564693  -0.01020536  1
  Hf  Hf10  1  0.50823208  0.30474754  0.86000396  1
  Hf  Hf11  1  0.60217072  -0.00009368  0.75507664  1
  Hf  Hf12  1  0.79081131  0.00612991  0.74302204  1
  Hf  Hf13  1  -0.00011236  0.00031667  0.25058480  1
  Hf  Hf14  1  0.89814131  0.88188397  0.36395017  1
  Hf  Hf15  1  0.39809638  0.40295242  -0.00434312  1
  Hf  Hf16  1  0.18804662  0.60993016  -0.00022548  1
  Hf  Hf17  1  0.20488757  0.40439045  0.51755755  1
  Hf  Hf18  1  0.90271477  0.89475701  0.61917415  1
  Hf  Hf19  1  -0.00771647  0.59619563  -0.00934438  1
  Hf  Hf20  1  0.58113917  0.59817314  0.73694848  1
  Hf  Hf21  1  0.00914835  -0.01030959  0.01363020  1
  Hf  Hf22  1  0.29578104  0.89622706  0.36812500  1
  Hf  Hf23  1  0.30567793  0.30520873  0.13546273  1
  Hf  Hf24  1  0.01695530  -0.01119489  0.74459549  1
  Hf  Hf25  1  0.69651894  0.30154565  0.37464586  1
  Hf  Hf26  1  0.60188198  0.79941703  0.01982761  1
  Hf  Hf27  1  0.51463759  0.11453061  0.88278362  1
  Hf  Hf28  1  0.79167715  0.57475339  0.26738484  1
  Hf  Hf29  1  0.68740280  0.09037497  0.11980236  1
  Hf  Hf30  1  0.00256375  -0.00670173  0.48747800  1
  Hf  Hf31  1  0.18836176  0.60528851  0.51926995  1
  Hf  Hf32  1  0.01900791  0.19909587  0.74181800  1
  Hf  Hf33  1  0.39200433  0.60812215  0.73917954  1
  Hf  Hf34  1  0.49943264  0.70278564  0.37873727  1
  Hf  Hf35  1  0.30320355  0.10327994  0.13367358  1
  Hf  Hf36  1  0.29276333  0.70916723  0.87587920  1
  Hf  Hf37  1  0.89955678  0.68105082  0.14307447  1
  Hf  Hf38  1  0.79287542  0.80255550  0.74187602  1
  Hf  Hf39  1  -0.00179876  0.19789603  0.24491850  1
  Zr  Zr40  1  0.59361443  0.20646696  0.24696767  1
  Zr  Zr41  1  0.69946215  0.70208072  0.37126941  1
  Zr  Zr42  1  0.90171748  0.29511189  0.62581291  1
  Zr  Zr43  1  0.20984864  0.20817712  -0.00318080  1
  Zr  Zr44  1  0.40446888  0.80675194  0.73848152  1
  Zr  Zr45  1  0.11584739  0.08957808  0.88218329  1
  Zr  Zr46  1  0.90383439  0.09672830  0.87580487  1
  Zr  Zr47  1  0.28158185  0.91165982  0.88112242  1
  Zr  Zr48  1  0.20094893  0.41160459  0.25605888  1
  Zr  Zr49  1  0.49834649  0.89651726  0.88416749  1
  Zr  Zr50  1  0.88797764  0.48129370  0.12579555  1
  Zr  Zr51  1  0.69103519  0.70407254  0.61643847  1
  Zr  Zr52  1  0.09665961  0.70147876  0.37465098  1
  Zr  Zr53  1  0.90046158  0.49039369  0.85877975  1
  Zr  Zr54  1  0.68297168  0.49085190  0.86412672  1
  Zr  Zr55  1  0.80973138  0.20014503  0.01398678  1
  Zr  Zr56  1  0.50509150  0.29410807  0.62836914  1
  Zr  Zr57  1  0.59811025  0.39815723  0.01801840  1
  Zr  Zr58  1  0.00164620  0.79199787  0.01437954  1
  Zr  Zr59  1  0.30296782  0.50829635  0.12128475  1
  Zr  Zr60  1  0.39422791  0.59575766  0.51195763  1
  Zr  Zr61  1  0.29080273  0.70443614  0.37360920  1
  Zr  Zr62  1  0.09666976  0.50025581  0.85852889  1
  Zr  Zr63  1  0.41239238  0.20272794  0.26250072  1
  Zr  Zr64  1  0.80179834  0.39058563  -0.01676577  1
  Zr  Zr65  1  0.79946534  0.39669653  0.50130878  1
  Zr  Zr66  1  0.18782089  0.81454270  0.73181284  1
  Zr  Zr67  1  0.59260373  0.58409381  0.24714114  1
  Zr  Zr68  1  0.30426853  0.30837988  0.37832145  1
  Zr  Zr69  1  0.90388102  0.89260282  0.87593034  1
  Zr  Zr70  1  0.51052852  0.91898448  0.12669416  1
  Zr  Zr71  1  0.40116492  0.00889146  0.00564601  1
  Zr  Zr72  1  0.80015953  0.79622383  0.49928540  1
  Zr  Zr73  1  0.68509921  0.70115755  0.87789235  1
  Zr  Zr74  1  0.89700574  0.10064518  0.61824453  1
  Zr  Zr75  1  0.19712895  0.39483249  0.73433483  1
  Zr  Zr76  1  0.29049627  0.70337560  0.13316978  1
  Zr  Zr77  1  0.51794543  0.09012027  0.60532314  1
  Zr  Zr78  1  0.79107272  -0.00127955  0.49064767  1
  Zr  Zr79  1  0.31167021  0.11017850  0.87220372  1
  Ta  Ta80  1  0.80367151  0.19478933  0.24621764  1
  Ta  Ta81  1  0.42434937  0.40358122  0.24808486  1
  Ta  Ta82  1  0.31093902  0.29871290  0.85323971  1
  Ta  Ta83  1  0.09750596  0.71183580  0.86299415  1
  Ta  Ta84  1  0.10835548  0.09937860  0.12451248  1
  Ta  Ta85  1  0.69815354  0.89965165  0.35252618  1
  Ta  Ta86  1  0.21349493  0.19708267  0.72728731  1
  Ta  Ta87  1  0.80582649  -0.00795663  0.01873793  1
  Ta  Ta88  1  0.40514594  -0.00229263  0.48871574  1
  Ta  Ta89  1  0.50094900  0.48579722  0.39323029  1
  Ta  Ta90  1  0.40548311  0.80471030  0.24178148  1
  Ta  Ta91  1  0.40673945  0.00773504  0.26106292  1
  Ta  Ta92  1  0.79939432  0.79384662  0.02089681  1
  Ta  Ta93  1  0.59973647  0.39441586  0.51382452  1
  Ta  Ta94  1  0.20519763  -0.00291356  0.50115121  1
  Ta  Ta95  1  0.39897817  0.80578236  0.50063930  1
  Ta  Ta96  1  0.10015259  0.30343819  0.38563291  1
  Ta  Ta97  1  0.29628007  0.90657620  0.13544474  1
  Ta  Ta98  1  0.09344811  0.50418165  0.38815987  1
  Ta  Ta99  1  0.78982205  0.59765025  -0.00230051  1
  Ta  Ta100  1  0.18530243  0.81391400  0.01443812  1
  Ta  Ta101  1  0.70160311  0.69136933  0.13504582  1
  Ta  Ta102  1  0.49239287  0.51067883  0.88384936  1
  Ta  Ta103  1  0.59801557  0.79903985  0.23973744  1
  Ta  Ta104  1  0.20453692  0.00730047  0.72254899  1
  Ta  Ta105  1  0.40377301  0.20049279  0.49889659  1
  Ta  Ta106  1  0.00062233  0.20118013  0.01112558  1
  Ta  Ta107  1  0.00169562  0.20142244  0.49431835  1
  Ta  Ta108  1  0.78560981  0.38044879  0.74615679  1
  Ta  Ta109  1  0.00815378  0.79302792  0.24203073  1
  Ta  Ta110  1  0.62129650  0.19570022  0.73529637  1
  Ta  Ta111  1  0.89417206  0.89257986  0.14206226  1
  Ta  Ta112  1  0.89936369  0.29616920  0.37475761  1
  Ta  Ta113  1  0.30140782  0.09992439  0.38035520  1
  Ta  Ta114  1  0.71426064  0.31327860  0.14212033  1
  Ta  Ta115  1  0.49073832  0.69158205  0.12040859  1
  Ta  Ta116  1  0.79950989  0.59414907  0.49798652  1
  Ta  Ta117  1  0.39185378  0.80190958  0.01486728  1
  Ta  Ta118  1  0.69751797  0.49433404  0.62824962  1
  Ta  Ta119  1  0.10432080  0.10079205  0.60757996  1
  Ti  Ti120  1  0.18438239  0.60014132  0.24984220  1
  Ti  Ti121  1  0.20026751  0.20408576  0.25633694  1
  Ti  Ti122  1  -0.00085869  0.61240739  0.75351077  1
  Ti  Ti123  1  0.91146867  0.29535893  0.85947354  1
  Ti  Ti124  1  0.89282138  0.70416019  0.87754234  1
  Ti  Ti125  1  0.79824589  0.00314386  0.24403447  1
  Ti  Ti126  1  0.70154550  0.10229257  0.89564179  1
  Ti  Ti127  1  0.00680329  0.39793984  0.50768712  1
  Ti  Ti128  1  0.69648513  0.10378127  0.37832539  1
  Ti  Ti129  1  0.50118745  0.71116055  0.60809963  1
  Ti  Ti130  1  0.01382524  0.78899842  0.50940123  1
  Ti  Ti131  1  0.69163679  0.28563399  0.87729853  1
  Ti  Ti132  1  0.20847449  0.20547107  0.51062796  1
  Ti  Ti133  1  0.79545146  0.19449371  0.75348813  1
  Ti  Ti134  1  0.59661040  0.81561716  0.49092783  1
  Ti  Ti135  1  0.10124279  0.29814804  0.87220056  1
  Ti  Ti136  1  0.29633343  0.50912042  0.86460072  1
  Ti  Ti137  1  0.59265368  0.80504634  0.74279673  1
  Ti  Ti138  1  0.19831106  0.00071268  0.25194153  1
  Ti  Ti139  1  0.60470971  0.40790209  0.24725484  1
  Ti  Ti140  1  0.08788500  0.50740937  0.63473849  1
  Ti  Ti141  1  0.89352790  0.10208590  0.37550631  1
  Ti  Ti142  1  0.08620059  0.50916300  0.12853064  1
  Ti  Ti143  1  0.59391624  0.01043176  0.26287865  1
  Ti  Ti144  1  -0.00341429  0.38909122  0.00023359  1
  Ti  Ti145  1  0.41774862  0.21393557  0.01279956  1
  Ti  Ti146  1  0.39699822  0.40070145  0.51602328  1
  Ti  Ti147  1  0.59595332  0.59489790  0.01346537  1
  Ti  Ti148  1  0.90675713  0.68880830  0.37163225  1
  Ti  Ti149  1  0.60073632  0.59194519  0.50118708  1
  Ti  Ti150  1  0.90598347  0.69220791  0.61753265  1
  Ti  Ti151  1  0.68164827  0.91285759  0.61268469  1
  Ti  Ti152  1  -0.00122137  0.79857265  0.74294020  1
  Ti  Ti153  1  0.90428392  0.49623925  0.38927129  1
  Ti  Ti154  1  0.30368217  0.90319113  0.61002124  1
  Ti  Ti155  1  0.49148608  0.69881985  0.89134825  1
  Ti  Ti156  1  0.10811041  0.88954517  0.37480620  1
  Ti  Ti157  1  0.28923041  0.70931980  0.62340851  1
  Ti  Ti158  1  0.29693442  0.50217113  0.38126722  1
  Ti  Ti159  1  0.50129254  0.90116296  0.36925715  1
  Mo  Mo160  1  0.60410874  0.39837061  0.73802197  1
  Mo  Mo161  1  0.90159279  0.09347297  0.12583205  1
  Mo  Mo162  1  0.79929682  0.79021866  0.24451078  1
  Mo  Mo163  1  0.19717229  0.80514432  0.23902016  1
  Mo  Mo164  1  0.40535750  0.19971966  0.73316729  1
  Mo  Mo165  1  0.19909994  0.80445473  0.51259501  1
  Mo  Mo166  1  0.70223056  0.50190606  0.11885759  1
  Mo  Mo167  1  0.19959787  -0.00054190  0.01935921  1
  Mo  Mo168  1  0.10203073  0.29437872  0.60630450  1
  Mo  Mo169  1  0.70533341  0.28837807  0.61734265  1
  Mo  Mo170  1  0.08762732  0.69823242  0.63628111  1
  Mo  Mo171  1  -0.00046025  0.38899159  0.74135855  1
  Mo  Mo172  1  -0.00796554  0.59748511  0.50163503  1
  Mo  Mo173  1  0.79732206  0.39550075  0.26995689  1
  Mo  Mo174  1  0.50221129  0.30662906  0.39622970  1
  Mo  Mo175  1  0.10506094  0.89365077  0.87391040  1
  Mo  Mo176  1  0.70410497  0.89816903  0.14049288  1
  Mo  Mo177  1  0.19539392  0.60744957  0.74188489  1
  Mo  Mo178  1  0.70297751  0.10232614  0.60714602  1
  Mo  Mo179  1  0.80374725  0.19518377  0.47946947  1
  Mo  Mo180  1  0.39542844  0.60605250  -0.01309001  1
  Mo  Mo181  1  0.49655507  0.50529007  0.11333939  1
  Mo  Mo182  1  0.10197824  0.90061124  0.14478339  1
  Mo  Mo183  1  0.50371552  0.89602432  0.60825704  1
  Mo  Mo184  1  0.50235707  0.10788877  0.11284398  1
  Mo  Mo185  1  0.29596628  0.50665133  0.63350507  1
  Mo  Mo186  1  0.50488405  0.30544416  0.12590268  1
  Mo  Mo187  1  0.09988096  0.90070044  0.60435423  1
  Mo  Mo188  1  0.30803394  0.29526058  0.62803155  1
  Mo  Mo189  1  0.60864710  0.00305850  -0.01018268  1
  Mo  Mo190  1  0.90078855  0.29482369  0.13933096  1
  Mo  Mo191  1  0.50380238  0.10193311  0.38841515  1
  Mo  Mo192  1  0.60189160  -0.00492005  0.47120315  1
  Mo  Mo193  1  0.09569843  0.69155448  0.13883307  1
  Mo  Mo194  1  0.60827035  0.19895930  0.49739434  1
  Mo  Mo195  1  0.30642453  0.09867204  0.60293850  1
  Mo  Mo196  1  0.60407313  0.20766120  0.01614288  1
  Mo  Mo197  1  0.69173980  0.49675386  0.39846213  1
  Mo  Mo198  1  0.50292857  0.50400142  0.61018718  1
  Mo  Mo199  1  -0.00273376  0.59064439  0.26760727  1
