# generated using pymatgen
data_HfZrTaTiMo
_symmetry_space_group_name_H-M   'P 1'
_cell_length_a   15.92647601
_cell_length_b   15.92765840
_cell_length_c   15.19948176
_cell_angle_alpha   89.95534794
_cell_angle_beta   90.03657709
_cell_angle_gamma   90.15132016
_symmetry_Int_Tables_number   1
_chemical_formula_structural   HfZrTaTiMo
_chemical_formula_sum   'Hf40 Zr40 Ta40 Ti40 Mo40'
_cell_volume   3855.65947313
_cell_formula_units_Z   40
loop_
 _symmetry_equiv_pos_site_id
 _symmetry_equiv_pos_as_xyz
  1  'x, y, z'
loop_
 _atom_site_type_symbol
 _atom_site_label
 _atom_site_symmetry_multiplicity
 _atom_site_fract_x
 _atom_site_fract_y
 _atom_site_fract_z
 _atom_site_occupancy
  Hf  Hf0  1  -0.00113271  0.00113402  0.00272355  1
  Hf  Hf1  1  0.10370022  0.30693878  0.12572823  1
  Hf  Hf2  1  0.50104931  0.30469561  0.36620907  1
  Hf  Hf3  1  0.19901937  0.59482329  0.74904731  1
  Hf  Hf4  1  0.79457576  0.79853957  -0.01170966  1
  Hf  Hf5  1  0.70877937  0.10654897  0.62831373  1
  Hf  Hf6  1  0.89920216  0.09750141  0.13057628  1
  Hf  Hf7  1  0.29336665  0.72407506  0.39429276  1
  Hf  Hf8  1  0.50547295  0.30523434  0.86412055  1
  Hf  Hf9  1  -0.00416870  0.41124135  0.24062935  1
  Hf  Hf10  1  0.09945335  0.49519353  0.38508298  1
  Hf  Hf11  1  0.68994700  0.48657307  0.87846890  1
  Hf  Hf12  1  0.11875229  0.89107848  0.36430752  1
  Hf  Hf13  1  0.30723839  0.09719483  0.89284813  1
  Hf  Hf14  1  -0.00358066  0.60016299  0.74380790  1
  Hf  Hf15  1  0.79239874  0.38864282  0.49948577  1
  Hf  Hf16  1  0.21379728  0.80204096  0.23396868  1
  Hf  Hf17  1  0.89230215  0.49550898  0.62266683  1
  Hf  Hf18  1  0.69311706  0.50023196  0.38983861  1
  Hf  Hf19  1  0.49762316  0.71343072  0.38190111  1
  Hf  Hf20  1  0.11217764  0.10098580  0.34708122  1
  Hf  Hf21  1  0.19439242  -0.00861556  0.50764722  1
  Hf  Hf22  1  0.80229607  0.79437394  0.75478888  1
  Hf  Hf23  1  0.78454774  0.60478955  0.74953224  1
  Hf  Hf24  1  -0.00123536  0.19141832  0.76799783  1
  Hf  Hf25  1  0.89545168  0.49259308  0.87469600  1
  Hf  Hf26  1  -0.00810505  0.38920357  0.49080987  1
  Hf  Hf27  1  0.50202897  0.10075780  0.87874794  1
  Hf  Hf28  1  0.59721481  -0.01415734  0.24228276  1
  Hf  Hf29  1  -0.00978526  0.60092947  0.26268136  1
  Hf  Hf30  1  0.10509233  0.90837779  0.86825367  1
  Hf  Hf31  1  0.19604123  0.60515734  0.26660334  1
  Hf  Hf32  1  0.60218104  0.00588112  0.49927079  1
  Hf  Hf33  1  0.20433440  0.19978762  0.75344466  1
  Hf  Hf34  1  0.71210098  0.89869105  0.62889327  1
  Hf  Hf35  1  0.50274633  0.49936503  0.37983361  1
  Hf  Hf36  1  0.47416196  0.49584984  0.13792196  1
  Hf  Hf37  1  0.60132281  0.20347350  0.50017597  1
  Hf  Hf38  1  0.59411190  0.59720003  -0.00550036  1
  Hf  Hf39  1  0.20249710  0.80078150  -0.00468137  1
  Zr  Zr40  1  0.20453655  0.19185751  0.50665886  1
  Zr  Zr41  1  0.09498097  0.29271064  0.62395084  1
  Zr  Zr42  1  0.20207885  0.00942408  0.74311663  1
  Zr  Zr43  1  0.59709582  0.60642935  0.24554436  1
  Zr  Zr44  1  0.50119637  0.50151975  0.61954005  1
  Zr  Zr45  1  0.18376664  0.61620690  0.50527352  1
  Zr  Zr46  1  0.49675187  0.29805441  0.62515167  1
  Zr  Zr47  1  0.69923648  0.30119285  0.88979596  1
  Zr  Zr48  1  0.41538994  0.00033753  0.51186379  1
  Zr  Zr49  1  0.09425499  0.69923144  0.11971504  1
  Zr  Zr50  1  0.58615168  0.81241743  0.52195881  1
  Zr  Zr51  1  0.69676583  0.10238425  0.89077139  1
  Zr  Zr52  1  0.07557065  0.08287126  0.62282730  1
  Zr  Zr53  1  0.20610228  0.41388960  0.00105025  1
  Zr  Zr54  1  0.41005111  0.21608609  0.01436984  1
  Zr  Zr55  1  -0.00613401  0.19069230  0.47697966  1
  Zr  Zr56  1  0.81084371  0.00665933  0.48480936  1
  Zr  Zr57  1  0.29456558  0.49496982  0.61764218  1
  Zr  Zr58  1  0.30838282  0.89833619  0.62717715  1
  Zr  Zr59  1  -0.00394326  0.79976164  -0.01057779  1
  Zr  Zr60  1  0.50275009  0.90346021  0.87680841  1
  Zr  Zr61  1  0.02752983  0.79809686  0.51064224  1
  Zr  Zr62  1  0.70316720  0.88999674  0.37506397  1
  Zr  Zr63  1  0.29745806  0.08895379  0.12546562  1
  Zr  Zr64  1  0.39315906  0.40180921  0.75346834  1
  Zr  Zr65  1  0.89864627  0.30163502  0.88803635  1
  Zr  Zr66  1  0.29428548  0.29405555  0.36732886  1
  Zr  Zr67  1  0.31265269  0.90198526  0.87680526  1
  Zr  Zr68  1  0.79815249  0.20145144  0.48154640  1
  Zr  Zr69  1  0.30178738  0.08836094  0.35761193  1
  Zr  Zr70  1  -0.00490117  -0.01219330  0.25301137  1
  Zr  Zr71  1  0.40112809  0.20721380  0.22911201  1
  Zr  Zr72  1  0.49572260  0.09744219  0.35997668  1
  Zr  Zr73  1  0.80976398  0.01123650  0.76202899  1
  Zr  Zr74  1  0.80580594  0.41391687  0.24636671  1
  Zr  Zr75  1  0.70118086  0.70074699  0.40056344  1
  Zr  Zr76  1  0.92114599  0.91812823  0.62368372  1
  Zr  Zr77  1  0.69917428  0.30651075  0.12183422  1
  Zr  Zr78  1  0.80182560  0.60471585  0.25234036  1
  Zr  Zr79  1  0.30214717  0.68125665  0.10695188  1
  Ta  Ta80  1  0.40638263  0.79961326  0.23642874  1
  Ta  Ta81  1  0.79836776  -0.01061880  0.00898273  1
  Ta  Ta82  1  0.89436978  0.29063292  0.63447427  1
  Ta  Ta83  1  0.19116984  0.39511932  0.75575890  1
  Ta  Ta84  1  0.30542145  0.69930212  0.62396732  1
  Ta  Ta85  1  0.89546664  0.69545437  0.11488009  1
  Ta  Ta86  1  0.89358061  0.70473743  0.61493490  1
  Ta  Ta87  1  -0.00537983  0.59951911  0.50222906  1
  Ta  Ta88  1  0.49685565  0.70378225  0.88110652  1
  Ta  Ta89  1  0.89886006  0.88709700  0.12739356  1
  Ta  Ta90  1  0.41164245  0.79444830  0.74140445  1
  Ta  Ta91  1  0.40314595  0.60334373  0.75820384  1
  Ta  Ta92  1  0.30054692  0.29793819  0.87810658  1
  Ta  Ta93  1  0.89511156  0.70523960  0.39824062  1
  Ta  Ta94  1  0.69875549  0.70243102  0.11552713  1
  Ta  Ta95  1  0.59907330  0.19960013  0.23164815  1
  Ta  Ta96  1  0.10178909  0.69638378  0.87076651  1
  Ta  Ta97  1  0.30374653  0.70149491  0.87386257  1
  Ta  Ta98  1  0.60369335  0.20065907  0.74360400  1
  Ta  Ta99  1  0.10515019  0.10117661  0.12840324  1
  Ta  Ta100  1  0.21112870  0.41606131  0.24672778  1
  Ta  Ta101  1  0.69685137  0.90173623  0.86920940  1
  Ta  Ta102  1  0.68955741  0.49970861  0.61772840  1
  Ta  Ta103  1  0.69571994  0.50367711  0.11674813  1
  Ta  Ta104  1  0.49454191  0.69752632  0.11378988  1
  Ta  Ta105  1  0.00275303  0.80018198  0.74879037  1
  Ta  Ta106  1  -0.00187899  0.59325296  -0.00711729  1
  Ta  Ta107  1  0.09965523  0.30309223  0.88882500  1
  Ta  Ta108  1  0.00001882  0.39439108  0.74915396  1
  Ta  Ta109  1  0.39351116  0.39559188  0.49129011  1
  Ta  Ta110  1  0.39559954  0.60310032  0.49320540  1
  Ta  Ta111  1  0.38406488  0.60100164  0.26883049  1
  Ta  Ta112  1  0.20034566  0.79469251  0.74281474  1
  Ta  Ta113  1  0.10476129  0.90567953  0.12511910  1
  Ta  Ta114  1  0.60658650  0.78707885  0.75106846  1
  Ta  Ta115  1  0.39955849  0.58408725  -0.01973908  1
  Ta  Ta116  1  0.09376170  0.49161027  0.62146586  1
  Ta  Ta117  1  0.20422433  0.20753263  0.00928132  1
  Ta  Ta118  1  0.68866442  0.30511449  0.35281264  1
  Ta  Ta119  1  0.70074836  0.09314310  0.12667283  1
  Ti  Ti120  1  0.79901637  0.20457774  0.24020089  1
  Ti  Ti121  1  0.60049316  0.79925506  0.23851105  1
  Ti  Ti122  1  0.10537184  0.51220251  0.11863191  1
  Ti  Ti123  1  0.89978470  0.10643888  0.62452419  1
  Ti  Ti124  1  -0.00456095  0.79007933  0.25495772  1
  Ti  Ti125  1  0.30359059  0.29341028  0.62451005  1
  Ti  Ti126  1  0.59650809  0.60137015  0.75751036  1
  Ti  Ti127  1  0.57402419  0.40172014  0.01194307  1
  Ti  Ti128  1  0.89655007  0.09766246  0.35210615  1
  Ti  Ti129  1  0.89462622  0.30133342  0.35598478  1
  Ti  Ti130  1  -0.00083563  0.20721897  0.01048471  1
  Ti  Ti131  1  0.19841797  0.39187870  0.49795043  1
  Ti  Ti132  1  0.79888570  0.20454410  0.75909903  1
  Ti  Ti133  1  0.49825916  0.89036469  0.10990083  1
  Ti  Ti134  1  0.10759938  0.10498427  0.89725551  1
  Ti  Ti135  1  0.40745957  0.01310196  0.73767745  1
  Ti  Ti136  1  0.49795296  0.08511132  0.12073156  1
  Ti  Ti137  1  0.69913535  0.10418340  0.35161969  1
  Ti  Ti138  1  0.78977183  0.39288606  0.74217734  1
  Ti  Ti139  1  0.90176427  0.90473740  0.87157280  1
  Ti  Ti140  1  0.50048900  0.69379281  0.62311242  1
  Ti  Ti141  1  0.31943640  0.90186240  0.37685344  1
  Ti  Ti142  1  0.89807007  0.10211330  0.89385996  1
  Ti  Ti143  1  0.31350650  0.32941896  0.12699030  1
  Ti  Ti144  1  0.09349741  0.49545691  0.87521413  1
  Ti  Ti145  1  0.79563687  0.60007712  -0.00500991  1
  Ti  Ti146  1  0.80295704  0.19954487  0.01640514  1
  Ti  Ti147  1  0.79522104  -0.01582732  0.24145029  1
  Ti  Ti148  1  0.30954799  0.90262602  0.10765938  1
  Ti  Ti149  1  0.59485080  0.20169832  0.01966110  1
  Ti  Ti150  1  0.10602582  0.29737427  0.35472240  1
  Ti  Ti151  1  -0.00344717  0.20744041  0.24114411  1
  Ti  Ti152  1  0.90077330  0.69375406  0.87554581  1
  Ti  Ti153  1  0.81542305  0.40564695  0.02069343  1
  Ti  Ti154  1  0.60058321  0.00156121  0.74250516  1
  Ti  Ti155  1  0.90343341  0.88919658  0.38436357  1
  Ti  Ti156  1  0.29662966  0.49930421  0.87071582  1
  Ti  Ti157  1  0.60929032  -0.00995599  0.01265792  1
  Ti  Ti158  1  0.80113018  0.79491209  0.24432013  1
  Ti  Ti159  1  0.60439305  0.79779195  -0.00407187  1
  Mo  Mo160  1  0.59950974  0.40488505  0.23726428  1
  Mo  Mo161  1  0.80625174  0.80334736  0.51675369  1
  Mo  Mo162  1  0.09872278  0.69506239  0.64602111  1
  Mo  Mo163  1  -0.00124303  0.00675383  0.78002370  1
  Mo  Mo164  1  0.40621350  0.79229726  0.00399643  1
  Mo  Mo165  1  0.31412304  0.11108893  0.62416124  1
  Mo  Mo166  1  0.60051174  0.39452436  0.50788807  1
  Mo  Mo167  1  0.50039135  0.50020703  0.86221139  1
  Mo  Mo168  1  0.90276326  0.51047812  0.10843091  1
  Mo  Mo169  1  0.10250216  0.89930916  0.64468434  1
  Mo  Mo170  1  0.29672459  0.50216824  0.39379687  1
  Mo  Mo171  1  0.49313620  0.89459650  0.36012229  1
  Mo  Mo172  1  0.90477874  0.29914919  0.12578982  1
  Mo  Mo173  1  0.40300552  0.80097041  0.51885259  1
  Mo  Mo174  1  0.19492691  0.59986991  -0.02540352  1
  Mo  Mo175  1  0.39939062  0.19872378  0.51029923  1
  Mo  Mo176  1  0.00135543  0.40735075  0.00969503  1
  Mo  Mo177  1  0.50095448  0.31323040  0.13754925  1
  Mo  Mo178  1  0.40505418  -0.02124396  0.23409753  1
  Mo  Mo179  1  0.39868030  0.40522388  -0.01810403  1
  Mo  Mo180  1  0.20677630  -0.01096937  0.23462751  1
  Mo  Mo181  1  0.39829235  0.19444557  0.74906811  1
  Mo  Mo182  1  0.89528305  0.50531944  0.39773232  1
  Mo  Mo183  1  0.70155880  0.30118303  0.63644913  1
  Mo  Mo184  1  0.29399916  0.50849620  0.12210090  1
  Mo  Mo185  1  0.20361699  0.80480618  0.52064577  1
  Mo  Mo186  1  0.69501391  0.69230266  0.61965790  1
  Mo  Mo187  1  0.41109030  -0.00310457  0.01061286  1
  Mo  Mo188  1  0.19843050  0.00224152  0.00847299  1
  Mo  Mo189  1  0.19987017  0.21159148  0.22603032  1
  Mo  Mo190  1  0.60836025  0.39910823  0.73851764  1
  Mo  Mo191  1  0.50640088  0.10350158  0.63826332  1
  Mo  Mo192  1  0.09278964  0.70601425  0.36436867  1
  Mo  Mo193  1  0.39004802  0.41343814  0.27065854  1
  Mo  Mo194  1  0.69371269  0.69916743  0.88329098  1
  Mo  Mo195  1  0.59393329  0.60283914  0.50874249  1
  Mo  Mo196  1  0.79820826  0.59857992  0.51377974  1
  Mo  Mo197  1  0.70161040  0.89015757  0.12443454  1
  Mo  Mo198  1  0.00092111  -0.00093807  0.47107914  1
  Mo  Mo199  1  0.50843109  0.90191631  0.65153985  1
