# generated using pymatgen
data_HfZrTaTiMo
_symmetry_space_group_name_H-M   'P 1'
_cell_length_a   15.92868258
_cell_length_b   15.92849194
_cell_length_c   15.19783834
_cell_angle_alpha   89.93998202
_cell_angle_beta   90.03269664
_cell_angle_gamma   89.90193917
_symmetry_Int_Tables_number   1
_chemical_formula_structural   HfZrTaTiMo
_chemical_formula_sum   'Hf40 Zr40 Ta40 Ti40 Mo40'
_cell_volume   3855.98550953
_cell_formula_units_Z   40
loop_
 _symmetry_equiv_pos_site_id
 _symmetry_equiv_pos_as_xyz
  1  'x, y, z'
loop_
 _atom_site_type_symbol
 _atom_site_label
 _atom_site_symmetry_multiplicity
 _atom_site_fract_x
 _atom_site_fract_y
 _atom_site_fract_z
 _atom_site_occupancy
  Hf  Hf0  1  0.19880686  0.19825979  0.00594225  1
  Hf  Hf1  1  0.49450748  0.70844749  0.37255451  1
  Hf  Hf2  1  0.09855996  0.89616939  0.11043793  1
  Hf  Hf3  1  0.89754386  0.90083780  0.87351747  1
  Hf  Hf4  1  0.59886414  0.19953563  0.76084368  1
  Hf  Hf5  1  0.40220000  0.19742891  0.50421950  1
  Hf  Hf6  1  0.89997808  0.50385463  0.37354602  1
  Hf  Hf7  1  0.51146419  0.30467814  0.11853175  1
  Hf  Hf8  1  0.09809891  0.90510636  0.62164165  1
  Hf  Hf9  1  0.39942215  0.40671431  -0.00978679  1
  Hf  Hf10  1  0.40635572  0.00271086  0.74300618  1
  Hf  Hf11  1  0.40609390  0.19843615  0.74346532  1
  Hf  Hf12  1  0.20371904  -0.00488148  0.25006304  1
  Hf  Hf13  1  0.40487911  0.40298346  0.48866359  1
  Hf  Hf14  1  0.89203056  0.30488201  0.88795854  1
  Hf  Hf15  1  0.30077845  0.09607281  0.88045016  1
  Hf  Hf16  1  0.00175523  0.39867477  0.73795773  1
  Hf  Hf17  1  0.40441247  0.00380591  0.50801103  1
  Hf  Hf18  1  0.09312720  0.30759713  0.89192226  1
  Hf  Hf19  1  0.80634904  0.60186950  0.01462246  1
  Hf  Hf20  1  0.69709187  0.72084360  0.12134084  1
  Hf  Hf21  1  0.29483454  0.29632528  0.36913702  1
  Hf  Hf22  1  0.29691220  0.89253654  0.39009673  1
  Hf  Hf23  1  0.09865345  0.50316879  0.61867202  1
  Hf  Hf24  1  0.10169586  0.29157210  0.37261597  1
  Hf  Hf25  1  0.19669854  0.60222349  0.75071670  1
  Hf  Hf26  1  0.49737387  0.70017442  0.11629345  1
  Hf  Hf27  1  0.60542920  0.00645460  0.75642278  1
  Hf  Hf28  1  0.40803864  0.78994977  0.75520196  1
  Hf  Hf29  1  0.29470802  0.89394647  0.10545151  1
  Hf  Hf30  1  0.70303622  0.90142673  0.88728733  1
  Hf  Hf31  1  0.19775790  0.79919024  0.75414890  1
  Hf  Hf32  1  0.50113088  0.29595185  0.88696437  1
  Hf  Hf33  1  0.79233686  0.38752786  0.25046713  1
  Hf  Hf34  1  0.51971689  0.08842498  0.12208095  1
  Hf  Hf35  1  0.29728229  0.90070396  0.88398041  1
  Hf  Hf36  1  0.00161316  0.18423852  0.50527790  1
  Hf  Hf37  1  0.79564786  0.40292711  0.73561816  1
  Hf  Hf38  1  0.20109315  0.60408783  0.49540718  1
  Hf  Hf39  1  0.69456141  0.49795991  0.12379381  1
  Zr  Zr40  1  0.59785038  0.60204846  0.25118362  1
  Zr  Zr41  1  0.70718536  0.70221711  0.37630097  1
  Zr  Zr42  1  0.10031578  0.49249793  0.36942450  1
  Zr  Zr43  1  0.68780432  0.29991594  0.60772237  1
  Zr  Zr44  1  0.29542388  0.30065241  0.62244670  1
  Zr  Zr45  1  0.89026351  0.69148761  0.86642288  1
  Zr  Zr46  1  0.30987030  0.50309413  0.63255452  1
  Zr  Zr47  1  0.01105843  0.60731100  0.24911828  1
  Zr  Zr48  1  0.90749818  0.30066102  0.37371386  1
  Zr  Zr49  1  0.78723650  0.19776585  0.76730011  1
  Zr  Zr50  1  0.09504940  0.09349797  0.63993089  1
  Zr  Zr51  1  0.00273231  0.18522935  0.01055534  1
  Zr  Zr52  1  0.40148146  0.60324221  0.49959959  1
  Zr  Zr53  1  -0.00131414  0.79190020  -0.00361943  1
  Zr  Zr54  1  0.78644785  0.79240498  0.74906464  1
  Zr  Zr55  1  0.89890487  0.70292314  0.61930517  1
  Zr  Zr56  1  0.29471269  0.90082601  0.62560026  1
  Zr  Zr57  1  0.29939498  0.50949872  0.12023732  1
  Zr  Zr58  1  0.69755377  0.10375407  0.61177965  1
  Zr  Zr59  1  0.91279499  0.50251020  0.87212394  1
  Zr  Zr60  1  0.89758156  0.28762759  0.62192398  1
  Zr  Zr61  1  0.41176036  -0.01004960  0.25093612  1
  Zr  Zr62  1  0.40590290  0.19630108  0.24360492  1
  Zr  Zr63  1  0.61796287  0.20108920  0.25952359  1
  Zr  Zr64  1  0.80652390  -0.00120599  0.48482679  1
  Zr  Zr65  1  0.70456233  0.89983661  0.62624281  1
  Zr  Zr66  1  0.09625104  0.89867685  0.38735537  1
  Zr  Zr67  1  0.87959467  0.89756460  0.11024896  1
  Zr  Zr68  1  0.19322621  0.20391242  0.75805572  1
  Zr  Zr69  1  0.29528354  0.31113651  0.12491702  1
  Zr  Zr70  1  0.60074884  0.60650405  0.74804447  1
  Zr  Zr71  1  0.60194463  0.40395822  0.75949979  1
  Zr  Zr72  1  -0.00449437  -0.00354869  0.23871318  1
  Zr  Zr73  1  0.89672049  0.70634191  0.13983173  1
  Zr  Zr74  1  0.39238932  0.80018611  0.24330827  1
  Zr  Zr75  1  0.60230447  0.59400476  0.50401767  1
  Zr  Zr76  1  0.19980452  0.40299095  0.76095279  1
  Zr  Zr77  1  0.40276287  0.40912316  0.25556407  1
  Zr  Zr78  1  0.70887316  0.50678125  0.88793018  1
  Zr  Zr79  1  0.09176031  0.68743475  0.87532867  1
  Ta  Ta80  1  0.79554991  0.58884354  0.72489044  1
  Ta  Ta81  1  0.30208925  0.69651372  0.88901438  1
  Ta  Ta82  1  0.19670901  0.01588075  0.49353952  1
  Ta  Ta83  1  0.00458054  0.59072320  0.02088138  1
  Ta  Ta84  1  0.10402735  0.30611496  0.12731152  1
  Ta  Ta85  1  0.59938825  0.80955486  0.48732899  1
  Ta  Ta86  1  0.51166729  0.89506123  0.62806940  1
  Ta  Ta87  1  0.80337234  0.19406653  0.24324306  1
  Ta  Ta88  1  0.19707482  0.19289936  0.23563101  1
  Ta  Ta89  1  0.90622646  0.90843137  0.63270398  1
  Ta  Ta90  1  0.50412284  0.10351767  0.37948874  1
  Ta  Ta91  1  0.40272415  0.19425194  0.00933722  1
  Ta  Ta92  1  0.50101359  0.09521048  0.88991423  1
  Ta  Ta93  1  0.50521262  0.89574540  0.87984608  1
  Ta  Ta94  1  0.79870285  0.60075531  0.25097218  1
  Ta  Ta95  1  -0.00233483  0.40378051  0.01811435  1
  Ta  Ta96  1  0.79683456  0.19801281  0.47810227  1
  Ta  Ta97  1  0.59334196  0.82277315  0.25557330  1
  Ta  Ta98  1  0.79925722  0.19549141  0.00640610  1
  Ta  Ta99  1  0.90321808  0.70601181  0.37693296  1
  Ta  Ta100  1  -0.00174750  0.19754200  0.23117230  1
  Ta  Ta101  1  0.00390638  0.79653958  0.74431563  1
  Ta  Ta102  1  0.29315082  0.70011193  0.10370906  1
  Ta  Ta103  1  0.89883410  0.49469980  0.13839902  1
  Ta  Ta104  1  0.30012100  0.09116449  0.11740416  1
  Ta  Ta105  1  0.90595531  0.09840859  0.36157127  1
  Ta  Ta106  1  0.40679418  0.40333791  0.76356150  1
  Ta  Ta107  1  0.59969457  0.00116960  0.49021268  1
  Ta  Ta108  1  0.00438651  0.80112603  0.25090167  1
  Ta  Ta109  1  0.20958680  0.60666941  0.25770656  1
  Ta  Ta110  1  0.50201282  0.50559724  0.11141084  1
  Ta  Ta111  1  -0.00028402  0.60512151  0.50050181  1
  Ta  Ta112  1  0.78653190  0.00431817  0.25092586  1
  Ta  Ta113  1  0.11197396  0.49279317  0.13113474  1
  Ta  Ta114  1  0.79722499  0.40525565  0.50083618  1
  Ta  Ta115  1  0.59852814  0.39656727  0.26205887  1
  Ta  Ta116  1  0.20214183  0.39909824  0.49516614  1
  Ta  Ta117  1  0.89979129  0.08958531  0.87478283  1
  Ta  Ta118  1  0.89651350  0.08779282  0.64175062  1
  Ta  Ta119  1  0.09897760  0.10192873  0.36675135  1
  Ti  Ti120  1  0.60692119  -0.00302406  0.26863418  1
  Ti  Ti121  1  0.50605586  0.49235714  0.62666319  1
  Ti  Ti122  1  0.17933793  0.01150865  -0.00557474  1
  Ti  Ti123  1  0.70364631  0.29968398  0.11091786  1
  Ti  Ti124  1  0.61176286  0.19282230  -0.00546812  1
  Ti  Ti125  1  -0.00009566  0.80028345  0.50549115  1
  Ti  Ti126  1  0.80139954  0.59436207  0.50737611  1
  Ti  Ti127  1  0.39318555  0.60393552  0.25316714  1
  Ti  Ti128  1  0.50289253  0.30175946  0.62062309  1
  Ti  Ti129  1  0.59814000  0.39404913  0.47971338  1
  Ti  Ti130  1  0.29576183  0.70629039  0.38177218  1
  Ti  Ti131  1  -0.00295960  0.20000104  0.75605560  1
  Ti  Ti132  1  0.09619851  0.90891918  0.87381154  1
  Ti  Ti133  1  0.11279113  0.69933318  0.11825454  1
  Ti  Ti134  1  0.40409307  0.80142433  0.50956583  1
  Ti  Ti135  1  0.19618099  0.79389087  0.24764696  1
  Ti  Ti136  1  0.50638251  0.70680672  0.62591747  1
  Ti  Ti137  1  0.89398390  0.09064658  0.11818651  1
  Ti  Ti138  1  -0.00037654  0.39264358  0.23827831  1
  Ti  Ti139  1  0.50074298  0.50477315  0.37024271  1
  Ti  Ti140  1  0.19374994  0.59175686  -0.00763988  1
  Ti  Ti141  1  0.50611072  0.69252532  0.89048766  1
  Ti  Ti142  1  0.10144358  0.70953579  0.38249596  1
  Ti  Ti143  1  -0.00081280  0.39726589  0.50956144  1
  Ti  Ti144  1  0.60583408  0.40352169  -0.01020502  1
  Ti  Ti145  1  0.29928415  0.50591268  0.87859371  1
  Ti  Ti146  1  0.41061907  -0.00480913  0.00672336  1
  Ti  Ti147  1  0.40813025  0.59584748  0.76293061  1
  Ti  Ti148  1  0.69233528  0.70514203  0.61580071  1
  Ti  Ti149  1  0.29605773  0.10380223  0.37291235  1
  Ti  Ti150  1  0.29971141  0.70306356  0.62465233  1
  Ti  Ti151  1  0.69193487  0.70478903  0.89050719  1
  Ti  Ti152  1  0.79223562  0.81453711  0.26232505  1
  Ti  Ti153  1  0.80102813  0.80396400  0.49604659  1
  Ti  Ti154  1  0.70228674  0.49919620  0.37507668  1
  Ti  Ti155  1  0.30102545  0.29868297  0.88171116  1
  Ti  Ti156  1  0.40509422  0.79875452  -0.00510848  1
  Ti  Ti157  1  0.68371420  0.91453751  0.10940221  1
  Ti  Ti158  1  0.90416565  0.89704975  0.37423589  1
  Ti  Ti159  1  0.28808172  0.09863252  0.63094613  1
  Mo  Mo160  1  0.59976060  0.60052744  0.00265267  1
  Mo  Mo161  1  0.70555501  0.09662879  0.11915492  1
  Mo  Mo162  1  0.40018186  0.60224832  -0.01069184  1
  Mo  Mo163  1  0.59458908  0.20343829  0.48421168  1
  Mo  Mo164  1  0.09651794  0.49930040  0.88657745  1
  Mo  Mo165  1  0.70253484  0.30363176  0.38372219  1
  Mo  Mo166  1  0.19636836  0.40059351  0.26122740  1
  Mo  Mo167  1  -0.00090848  0.00147512  -0.00776241  1
  Mo  Mo168  1  -0.00028544  -0.00440653  0.76541110  1
  Mo  Mo169  1  0.59922847  0.00321582  -0.00912285  1
  Mo  Mo170  1  0.79265336  0.79964267  -0.00496954  1
  Mo  Mo171  1  0.70197964  0.90061675  0.37608424  1
  Mo  Mo172  1  0.70229888  0.30167744  0.89773772  1
  Mo  Mo173  1  0.19933963  0.19515777  0.50043328  1
  Mo  Mo174  1  0.79756036  0.00807697  0.00602114  1
  Mo  Mo175  1  0.10003620  0.70382632  0.62092526  1
  Mo  Mo176  1  0.50167950  0.29973803  0.37554941  1
  Mo  Mo177  1  -0.00359450  -0.00084537  0.48972628  1
  Mo  Mo178  1  0.19493389  0.40645408  -0.01304345  1
  Mo  Mo179  1  0.89920080  0.29758706  0.12293897  1
  Mo  Mo180  1  0.10149230  0.30059849  0.60475906  1
  Mo  Mo181  1  0.29996127  0.50542446  0.36884594  1
  Mo  Mo182  1  0.59201082  0.79706498  0.76217532  1
  Mo  Mo183  1  0.09491089  0.09604921  0.86221590  1
  Mo  Mo184  1  0.49854325  0.90341924  0.38922276  1
  Mo  Mo185  1  0.50528272  0.09980295  0.61297214  1
  Mo  Mo186  1  0.50625082  0.89497277  0.10763993  1
  Mo  Mo187  1  0.59312772  0.80210704  -0.00458989  1
  Mo  Mo188  1  0.19944977  -0.00036216  0.76547017  1
  Mo  Mo189  1  0.10334682  0.09580514  0.13495241  1
  Mo  Mo190  1  0.80413426  0.39686341  0.01837272  1
  Mo  Mo191  1  0.69521048  0.49902185  0.60923477  1
  Mo  Mo192  1  0.80174755  0.00170622  0.75015724  1
  Mo  Mo193  1  0.49969639  0.50541500  0.88413063  1
  Mo  Mo194  1  0.19834670  0.79645969  -0.01416970  1
  Mo  Mo195  1  0.70345774  0.09829375  0.89177187  1
  Mo  Mo196  1  -0.00201690  0.60024118  0.72662410  1
  Mo  Mo197  1  0.70337408  0.10106558  0.37698474  1
  Mo  Mo198  1  0.19940144  0.79388118  0.51169651  1
  Mo  Mo199  1  0.89940682  0.50002151  0.61031040  1
