# generated using pymatgen
data_HfZrTaTiMo
_symmetry_space_group_name_H-M   'P 1'
_cell_length_a   15.92420224
_cell_length_b   15.93857271
_cell_length_c   15.20774783
_cell_angle_alpha   90.00634583
_cell_angle_beta   89.95656280
_cell_angle_gamma   89.78979433
_symmetry_Int_Tables_number   1
_chemical_formula_structural   HfZrTaTiMo
_chemical_formula_sum   'Hf40 Zr40 Ta40 Ti40 Mo40'
_cell_volume   3859.83699593
_cell_formula_units_Z   40
loop_
 _symmetry_equiv_pos_site_id
 _symmetry_equiv_pos_as_xyz
  1  'x, y, z'
loop_
 _atom_site_type_symbol
 _atom_site_label
 _atom_site_symmetry_multiplicity
 _atom_site_fract_x
 _atom_site_fract_y
 _atom_site_fract_z
 _atom_site_occupancy
  Hf  Hf0  1  0.59570045  0.00242326  0.00404910  1
  Hf  Hf1  1  0.70218158  0.29871136  0.13070723  1
  Hf  Hf2  1  0.28751070  0.69406661  0.35496994  1
  Hf  Hf3  1  0.79001181  0.39714075  0.26659412  1
  Hf  Hf4  1  0.91176495  0.91228203  0.13049543  1
  Hf  Hf5  1  0.29959033  0.28534767  0.11702801  1
  Hf  Hf6  1  0.78658127  0.60308163  0.24299321  1
  Hf  Hf7  1  0.79984465  0.61195470  0.74359852  1
  Hf  Hf8  1  0.21130914  0.80101371  0.75689992  1
  Hf  Hf9  1  0.90065363  0.50509974  0.62628201  1
  Hf  Hf10  1  0.20029265  0.59773757  0.51208761  1
  Hf  Hf11  1  0.40409856  0.19451370  0.73875253  1
  Hf  Hf12  1  0.10299367  0.09758356  0.10374475  1
  Hf  Hf13  1  0.68793482  0.71698905  0.60151631  1
  Hf  Hf14  1  0.40267883  0.19567847  -0.01599711  1
  Hf  Hf15  1  0.89699256  0.29214714  0.87099132  1
  Hf  Hf16  1  0.50548418  0.50158549  0.60995072  1
  Hf  Hf17  1  0.60120290  0.61490076  0.73856805  1
  Hf  Hf18  1  0.20322354  0.39164962  0.73739211  1
  Hf  Hf19  1  0.60183569  -0.00274450  0.75886070  1
  Hf  Hf20  1  0.61158396  0.19925286  -0.01380506  1
  Hf  Hf21  1  0.09545972  0.49663718  0.85769768  1
  Hf  Hf22  1  -0.00055996  0.00818019  -0.02435468  1
  Hf  Hf23  1  0.59324308  0.00420406  0.26279751  1
  Hf  Hf24  1  -0.00747230  0.59810584  -0.00606167  1
  Hf  Hf25  1  0.70338547  0.10943284  0.14264768  1
  Hf  Hf26  1  0.50282442  0.30149565  0.13104499  1
  Hf  Hf27  1  0.48242289  0.72133201  0.60957965  1
  Hf  Hf28  1  0.10725512  0.49759650  0.13211795  1
  Hf  Hf29  1  0.60257620  0.41881272  0.00611809  1
  Hf  Hf30  1  0.00219406  0.61457005  0.50416396  1
  Hf  Hf31  1  0.69289480  0.70573436  0.38403199  1
  Hf  Hf32  1  0.19948927  0.18761442  0.73093884  1
  Hf  Hf33  1  0.18404610  0.01119332  0.26284523  1
  Hf  Hf34  1  0.10141294  0.28395112  0.87302229  1
  Hf  Hf35  1  0.78539164  0.59630661  0.01388039  1
  Hf  Hf36  1  0.70424108  0.89797551  0.37247647  1
  Hf  Hf37  1  0.38190155  0.00111211  0.25209692  1
  Hf  Hf38  1  0.90975518  0.29752912  0.39175463  1
  Hf  Hf39  1  0.40828020  0.58235642  0.26023376  1
  Zr  Zr40  1  0.02504997  0.19041316  0.26851994  1
  Zr  Zr41  1  0.19599408  0.82664584  0.22959323  1
  Zr  Zr42  1  0.00102097  0.40203456  -0.00699042  1
  Zr  Zr43  1  0.78793840  0.01313898  0.49675575  1
  Zr  Zr44  1  0.80127017  0.00672157  0.74823322  1
  Zr  Zr45  1  0.69982036  0.89323724  0.88081263  1
  Zr  Zr46  1  0.79479400  0.01659843  -0.00664278  1
  Zr  Zr47  1  0.49247180  0.10909373  0.13062317  1
  Zr  Zr48  1  0.40559623  0.38692784  0.27244212  1
  Zr  Zr49  1  0.01148556  0.39989080  0.51740998  1
  Zr  Zr50  1  0.61178282  0.18966664  0.49350666  1
  Zr  Zr51  1  0.79853966  0.40397327  0.00154284  1
  Zr  Zr52  1  0.31684136  0.88155608  0.61721129  1
  Zr  Zr53  1  0.90532352  0.10745456  0.13526899  1
  Zr  Zr54  1  0.19320082  0.79458572  0.50631524  1
  Zr  Zr55  1  0.60305471  0.80264062  0.02137186  1
  Zr  Zr56  1  0.39681495  0.60827971  0.74621439  1
  Zr  Zr57  1  0.10535862  0.28977246  0.11176777  1
  Zr  Zr58  1  0.50817550  0.50031756  0.85718908  1
  Zr  Zr59  1  0.39776510  -0.00757652  0.75843653  1
  Zr  Zr60  1  0.79031387  0.80353308  0.74057319  1
  Zr  Zr61  1  0.89023400  0.71202927  0.37511560  1
  Zr  Zr62  1  0.90077987  0.50369769  0.38029206  1
  Zr  Zr63  1  0.90425137  0.49476653  0.14168762  1
  Zr  Zr64  1  0.30227603  0.49561671  0.12826540  1
  Zr  Zr65  1  0.91326926  0.89631019  0.37244811  1
  Zr  Zr66  1  0.20686315  0.38217991  0.26308169  1
  Zr  Zr67  1  0.10280054  0.69829567  0.12258720  1
  Zr  Zr68  1  0.68703017  0.50843849  0.40213514  1
  Zr  Zr69  1  0.29948765  0.69629399  0.11852569  1
  Zr  Zr70  1  0.08797146  0.72140029  0.35761250  1
  Zr  Zr71  1  0.90332576  0.28865943  0.12603624  1
  Zr  Zr72  1  0.70103696  0.30525155  0.86262844  1
  Zr  Zr73  1  -0.00005629  0.00205932  0.75097973  1
  Zr  Zr74  1  0.42088481  -0.02156476  0.49172045  1
  Zr  Zr75  1  0.09568281  0.70624854  0.87931138  1
  Zr  Zr76  1  0.09439930  0.70140581  0.64491023  1
  Zr  Zr77  1  0.49438577  0.68908574  0.12006216  1
  Zr  Zr78  1  0.40408715  0.39809286  -0.01213468  1
  Zr  Zr79  1  0.10643755  0.50504149  0.36504323  1
  Ta  Ta80  1  0.59448534  0.40628594  0.26992361  1
  Ta  Ta81  1  0.79974597  0.39950689  0.73330491  1
  Ta  Ta82  1  0.40364730  0.39190046  0.73726831  1
  Ta  Ta83  1  0.50039685  0.69775491  0.37580806  1
  Ta  Ta84  1  0.48896651  0.90287000  0.13179098  1
  Ta  Ta85  1  0.11204887  0.29406182  0.39820608  1
  Ta  Ta86  1  0.89653292  0.89727859  0.60838745  1
  Ta  Ta87  1  0.79829813  0.80320413  0.02019592  1
  Ta  Ta88  1  0.28992991  0.09549743  0.10840932  1
  Ta  Ta89  1  0.40570160  0.80161114  0.77644846  1
  Ta  Ta90  1  0.30120133  0.29561709  0.86395701  1
  Ta  Ta91  1  -0.00210859  0.19595727  0.73251434  1
  Ta  Ta92  1  0.57576973  0.82646179  0.48473020  1
  Ta  Ta93  1  0.29392243  0.89529306  0.38220365  1
  Ta  Ta94  1  0.59964774  0.21481922  0.27787186  1
  Ta  Ta95  1  0.59898942  0.79825949  0.24207224  1
  Ta  Ta96  1  0.20838908  0.60044110  0.75518301  1
  Ta  Ta97  1  -0.01499909  0.80362647  0.74880187  1
  Ta  Ta98  1  0.39329161  0.60259380  0.49399225  1
  Ta  Ta99  1  0.20358928  0.58770349  -0.01710592  1
  Ta  Ta100  1  0.51273992  0.08571289  0.61720228  1
  Ta  Ta101  1  0.70163465  0.50487903  0.85664186  1
  Ta  Ta102  1  0.39630145  -0.00473696  -0.00873621  1
  Ta  Ta103  1  0.69443937  0.69640307  0.88827846  1
  Ta  Ta104  1  0.50506470  0.70066047  0.89177189  1
  Ta  Ta105  1  0.20604558  0.39839374  -0.01575218  1
  Ta  Ta106  1  0.30057785  0.09860351  0.39798584  1
  Ta  Ta107  1  0.20087639  -0.00316319  0.74615190  1
  Ta  Ta108  1  0.60373764  0.19635718  0.73992359  1
  Ta  Ta109  1  0.20023560  0.19350572  0.51789793  1
  Ta  Ta110  1  0.70067522  0.30019729  0.61780977  1
  Ta  Ta111  1  0.50291878  0.10094232  0.86884716  1
  Ta  Ta112  1  0.90348914  0.70434925  0.12775570  1
  Ta  Ta113  1  0.91018747  0.09742490  0.38016297  1
  Ta  Ta114  1  0.30544522  0.49695418  0.62237789  1
  Ta  Ta115  1  0.30480616  0.69775029  0.89351160  1
  Ta  Ta116  1  0.79169395  0.80482040  0.22899501  1
  Ta  Ta117  1  -0.00537304  0.38796037  0.73657560  1
  Ta  Ta118  1  0.19783845  -0.00307997  0.50886075  1
  Ta  Ta119  1  0.89829610  0.89189585  0.88336648  1
  Ti  Ti120  1  0.30883384  0.28500970  0.40385352  1
  Ti  Ti121  1  0.69724631  0.50270564  0.61792791  1
  Ti  Ti122  1  0.58959464  0.80528237  0.75476971  1
  Ti  Ti123  1  0.20371779  0.81459319  0.00244154  1
  Ti  Ti124  1  0.80249716  0.19886610  0.73398198  1
  Ti  Ti125  1  0.00880663  0.19463992  0.51746001  1
  Ti  Ti126  1  0.88836052  0.70865489  0.88846891  1
  Ti  Ti127  1  0.10331582  0.90049004  0.87417910  1
  Ti  Ti128  1  0.80148065  0.19932411  0.50103046  1
  Ti  Ti129  1  0.39888472  0.81077726  -0.00361004  1
  Ti  Ti130  1  0.60224179  0.39637257  0.73226483  1
  Ti  Ti131  1  0.09368409  0.89941002  0.62726550  1
  Ti  Ti132  1  -0.01206792  0.60930413  0.75588046  1
  Ti  Ti133  1  0.39786289  0.80316347  0.24928111  1
  Ti  Ti134  1  0.49238154  0.10551864  0.38413169  1
  Ti  Ti135  1  0.90210321  0.09771140  0.61338789  1
  Ti  Ti136  1  0.80353063  0.00408289  0.25729779  1
  Ti  Ti137  1  0.68272400  0.91256822  0.61028107  1
  Ti  Ti138  1  0.00984977  -0.00039025  0.49730491  1
  Ti  Ti139  1  0.40835465  0.58423915  -0.00396487  1
  Ti  Ti140  1  0.29748753  0.49435542  0.38563268  1
  Ti  Ti141  1  0.40732826  0.39866470  0.49487230  1
  Ti  Ti142  1  0.89207101  0.49738575  0.86148751  1
  Ti  Ti143  1  0.28811986  0.09855432  0.87780997  1
  Ti  Ti144  1  0.31263386  0.08871150  0.61156682  1
  Ti  Ti145  1  0.50322491  0.30041858  0.86126195  1
  Ti  Ti146  1  0.50362126  0.29466317  0.60932437  1
  Ti  Ti147  1  0.39616064  0.19760824  0.26471338  1
  Ti  Ti148  1  0.30421418  0.49351121  0.86264863  1
  Ti  Ti149  1  0.00226714  0.80728250  0.00622073  1
  Ti  Ti150  1  0.31047393  0.29760305  0.61304327  1
  Ti  Ti151  1  0.80225963  0.60988589  0.51152565  1
  Ti  Ti152  1  -0.00168582  0.60655129  0.24973546  1
  Ti  Ti153  1  0.21213273  0.19257990  0.26885129  1
  Ti  Ti154  1  0.00672480  0.38797937  0.25871054  1
  Ti  Ti155  1  0.20299308  0.39813750  0.51242409  1
  Ti  Ti156  1  0.59755700  0.59359578  0.24263518  1
  Ti  Ti157  1  0.79982021  0.39613815  0.50908607  1
  Ti  Ti158  1  0.10056163  0.50396403  0.64112139  1
  Ti  Ti159  1  0.79884679  0.20377113  0.27845686  1
  Mo  Mo160  1  0.49928666  0.29746062  0.38891689  1
  Mo  Mo161  1  0.30142990  0.69300516  0.63089339  1
  Mo  Mo162  1  0.00879083  -0.00141788  0.26685480  1
  Mo  Mo163  1  0.10032667  0.90981951  0.10301623  1
  Mo  Mo164  1  0.09931003  0.90541927  0.38803351  1
  Mo  Mo165  1  -0.00188357  0.80596242  0.51955252  1
  Mo  Mo166  1  0.10299774  0.09844120  0.86279145  1
  Mo  Mo167  1  0.69967285  0.90863181  0.13904522  1
  Mo  Mo168  1  0.70441416  0.30458590  0.39684895  1
  Mo  Mo169  1  0.49855630  0.50178462  0.39583002  1
  Mo  Mo170  1  0.30051791  0.91079561  0.10985126  1
  Mo  Mo171  1  0.09971143  0.08978929  0.62168004  1
  Mo  Mo172  1  0.89530974  0.70783698  0.61751442  1
  Mo  Mo173  1  0.59965799  0.59727739  -0.00056199  1
  Mo  Mo174  1  0.49407907  0.89333763  0.34591213  1
  Mo  Mo175  1  0.20036203  -0.00226305  -0.02172451  1
  Mo  Mo176  1  0.50769109  0.89603305  0.63571100  1
  Mo  Mo177  1  0.10380113  0.10250101  0.40232958  1
  Mo  Mo178  1  -0.00059545  0.80693536  0.22896448  1
  Mo  Mo179  1  0.70185124  0.10951783  0.85860712  1
  Mo  Mo180  1  0.70847122  0.10290333  0.36111567  1
  Mo  Mo181  1  0.80074442  0.19594633  -0.01019139  1
  Mo  Mo182  1  0.29611357  0.89726633  0.88479087  1
  Mo  Mo183  1  0.60116530  0.39508414  0.50421507  1
  Mo  Mo184  1  0.70070207  0.10326072  0.63546992  1
  Mo  Mo185  1  0.40291235  0.19320505  0.51413965  1
  Mo  Mo186  1  0.68949954  0.49656076  0.14424318  1
  Mo  Mo187  1  0.50312755  0.49407983  0.12909898  1
  Mo  Mo188  1  0.59927615  0.00281636  0.48460982  1
  Mo  Mo189  1  0.10226211  0.29659606  0.62090823  1
  Mo  Mo190  1  0.39247438  0.79045402  0.47167025  1
  Mo  Mo191  1  0.49914758  0.89747238  0.88593180  1
  Mo  Mo192  1  0.59169121  0.60933971  0.50856954  1
  Mo  Mo193  1  0.89637375  0.29349822  0.61945342  1
  Mo  Mo194  1  -0.00469019  0.19206795  -0.01941834  1
  Mo  Mo195  1  0.69764171  0.69861416  0.12513179  1
  Mo  Mo196  1  0.20449411  0.19690295  -0.01739927  1
  Mo  Mo197  1  0.79335120  0.80886626  0.50777563  1
  Mo  Mo198  1  0.20199342  0.59125137  0.25236364  1
  Mo  Mo199  1  0.89869741  0.11133170  0.86592751  1
