# generated using pymatgen
data_HfZrTaTiMo
_symmetry_space_group_name_H-M   'P 1'
_cell_length_a   15.93416850
_cell_length_b   15.92404304
_cell_length_c   15.20870670
_cell_angle_alpha   90.00438854
_cell_angle_beta   89.98044328
_cell_angle_gamma   90.11672381
_symmetry_Int_Tables_number   1
_chemical_formula_structural   HfZrTaTiMo
_chemical_formula_sum   'Hf40 Zr40 Ta40 Ti40 Mo40'
_cell_volume   3858.99401403
_cell_formula_units_Z   40
loop_
 _symmetry_equiv_pos_site_id
 _symmetry_equiv_pos_as_xyz
  1  'x, y, z'
loop_
 _atom_site_type_symbol
 _atom_site_label
 _atom_site_symmetry_multiplicity
 _atom_site_fract_x
 _atom_site_fract_y
 _atom_site_fract_z
 _atom_site_occupancy
  Hf  Hf0  1  0.89287562  0.29956879  0.11010135  1
  Hf  Hf1  1  0.59714014  0.80326788  -0.00120776  1
  Hf  Hf2  1  0.08853597  0.70151773  0.38314035  1
  Hf  Hf3  1  0.09500136  0.29401357  0.39722087  1
  Hf  Hf4  1  0.60097046  0.20934409  0.25601403  1
  Hf  Hf5  1  0.60405072  0.80424844  0.74469750  1
  Hf  Hf6  1  0.79250012  0.39531712  0.25238526  1
  Hf  Hf7  1  0.90686705  0.90384193  0.38417608  1
  Hf  Hf8  1  0.39702704  0.79129841  0.00696954  1
  Hf  Hf9  1  0.10623828  0.49764982  0.11673632  1
  Hf  Hf10  1  0.19926781  0.00517541  0.74433362  1
  Hf  Hf11  1  0.60045607  0.61010397  0.73774234  1
  Hf  Hf12  1  0.10456922  0.88574091  0.86408494  1
  Hf  Hf13  1  0.31170917  0.28645908  0.39287513  1
  Hf  Hf14  1  0.12070113  0.51966148  0.87150121  1
  Hf  Hf15  1  0.20070499  0.79781613  0.24909111  1
  Hf  Hf16  1  0.21833988  0.40894708  0.50001926  1
  Hf  Hf17  1  0.80058718  0.80596536  0.24457309  1
  Hf  Hf18  1  0.28455542  0.68250908  0.85008632  1
  Hf  Hf19  1  0.50433820  0.30334300  0.62863075  1
  Hf  Hf20  1  0.20305002  0.19389907  0.25044882  1
  Hf  Hf21  1  0.19961057  0.20095302  -0.01333043  1
  Hf  Hf22  1  -0.00325547  0.18909193  0.76230016  1
  Hf  Hf23  1  0.89658484  0.29909314  0.88608591  1
  Hf  Hf24  1  0.31445287  0.90421974  0.38273117  1
  Hf  Hf25  1  0.40403891  0.00799859  0.74776369  1
  Hf  Hf26  1  0.38612799  0.60175584  0.00765096  1
  Hf  Hf27  1  -0.04213851  0.18780888  0.49428968  1
  Hf  Hf28  1  0.89895899  0.50345408  0.88569054  1
  Hf  Hf29  1  0.30432458  0.69952206  0.38305173  1
  Hf  Hf30  1  0.19811369  -0.00373872  0.50981060  1
  Hf  Hf31  1  0.19648466  0.77088184  0.00902465  1
  Hf  Hf32  1  0.70236805  0.70635767  0.11433459  1
  Hf  Hf33  1  0.30496419  0.48277183  0.12887099  1
  Hf  Hf34  1  0.40719661  0.58354643  0.50628270  1
  Hf  Hf35  1  0.58910952  0.41280045  0.49434788  1
  Hf  Hf36  1  0.89823617  0.48793002  0.62044056  1
  Hf  Hf37  1  -0.00662080  -0.00262560  -0.00573531  1
  Hf  Hf38  1  -0.00469052  0.79795369  0.23285764  1
  Hf  Hf39  1  0.80308256  0.60113118  0.24267602  1
  Zr  Zr40  1  -0.00328669  0.19346637  0.25025562  1
  Zr  Zr41  1  0.60299014  0.00177658  -0.01238935  1
  Zr  Zr42  1  0.09055235  0.50395983  0.39338056  1
  Zr  Zr43  1  0.40688140  0.20306414  -0.01975447  1
  Zr  Zr44  1  0.50669841  0.69915622  0.37785229  1
  Zr  Zr45  1  0.48895187  0.10889291  0.38950591  1
  Zr  Zr46  1  0.89498923  0.70000190  0.88452203  1
  Zr  Zr47  1  0.71145248  0.12091701  0.63161608  1
  Zr  Zr48  1  0.10422574  0.29889544  0.11602788  1
  Zr  Zr49  1  0.30455611  0.09832664  0.11748063  1
  Zr  Zr50  1  0.20365241  0.39077641  0.26395111  1
  Zr  Zr51  1  0.10402274  0.49554342  0.62372948  1
  Zr  Zr52  1  0.19432876  0.79906055  0.50593389  1
  Zr  Zr53  1  0.71515466  0.91089156  0.62077434  1
  Zr  Zr54  1  0.61243929  0.00743263  0.49066706  1
  Zr  Zr55  1  0.69485627  0.30012812  0.87837321  1
  Zr  Zr56  1  0.49450561  0.89743530  0.86814551  1
  Zr  Zr57  1  0.19812218  0.20271444  0.75103350  1
  Zr  Zr58  1  0.19678309  0.00004283  0.25652296  1
  Zr  Zr59  1  0.50415409  0.91040702  0.61914692  1
  Zr  Zr60  1  0.09368779  0.29699801  0.60771422  1
  Zr  Zr61  1  0.09036079  0.09085013  0.39148643  1
  Zr  Zr62  1  0.40424843  0.60375624  0.24262628  1
  Zr  Zr63  1  0.39840131  0.20232093  0.75487793  1
  Zr  Zr64  1  0.88123759  0.28650446  0.64186527  1
  Zr  Zr65  1  0.48814366  0.50961136  0.86099160  1
  Zr  Zr66  1  0.30778076  0.90152655  0.12842276  1
  Zr  Zr67  1  0.19876950  0.59832663  0.25041845  1
  Zr  Zr68  1  -0.00392242  0.80557335  0.00324784  1
  Zr  Zr69  1  0.79145613  0.37886901  0.49051916  1
  Zr  Zr70  1  0.69745945  0.10440906  0.12473127  1
  Zr  Zr71  1  0.89549444  0.70134642  0.38956196  1
  Zr  Zr72  1  0.89982727  0.49734794  0.10274604  1
  Zr  Zr73  1  -0.00683486  0.39965905  0.25739048  1
  Zr  Zr74  1  0.01052162  0.39312420  0.76473877  1
  Zr  Zr75  1  0.69701011  0.51205192  0.37601476  1
  Zr  Zr76  1  0.50361278  0.30073644  0.11543911  1
  Zr  Zr77  1  0.60138809  -0.00411879  0.26037090  1
  Zr  Zr78  1  0.60276211  0.41103264  -0.01081904  1
  Zr  Zr79  1  -0.00457668  0.60704002  0.74597468  1
  Ta  Ta80  1  0.80492002  0.00358447  0.76807979  1
  Ta  Ta81  1  0.80320020  -0.00480606  -0.01498599  1
  Ta  Ta82  1  0.08679669  0.09975663  0.61603762  1
  Ta  Ta83  1  0.79530477  0.19209024  -0.00275266  1
  Ta  Ta84  1  0.69425465  0.70087053  0.87649263  1
  Ta  Ta85  1  -0.00638253  0.80042136  0.74111020  1
  Ta  Ta86  1  0.59477215  0.40399687  0.25510795  1
  Ta  Ta87  1  0.20026270  -0.01185784  -0.00899669  1
  Ta  Ta88  1  0.82393465  0.01846934  0.50183255  1
  Ta  Ta89  1  0.29758891  0.88732385  0.86250408  1
  Ta  Ta90  1  0.70210137  0.70570421  0.38254458  1
  Ta  Ta91  1  0.79305157  0.40855075  0.76381193  1
  Ta  Ta92  1  0.80367485  0.80174273  0.75255168  1
  Ta  Ta93  1  0.49925191  0.49651429  0.12749689  1
  Ta  Ta94  1  0.49972801  0.09849559  0.11791557  1
  Ta  Ta95  1  0.30117812  0.89678765  0.63169580  1
  Ta  Ta96  1  0.60481548  0.01071655  0.75810348  1
  Ta  Ta97  1  0.02426155  0.61605607  0.00252498  1
  Ta  Ta98  1  0.60171961  0.80202319  0.25094239  1
  Ta  Ta99  1  0.58740791  0.60606661  0.00564734  1
  Ta  Ta100  1  0.21447695  0.39923169  -0.02054903  1
  Ta  Ta101  1  0.77534552  0.58892992  -0.00688709  1
  Ta  Ta102  1  0.69886308  0.49444830  0.63147071  1
  Ta  Ta103  1  0.60200239  0.60497655  0.23442845  1
  Ta  Ta104  1  0.29997905  0.08773012  0.87920388  1
  Ta  Ta105  1  0.79578533  0.60109802  0.51473253  1
  Ta  Ta106  1  -0.00433184  -0.00629016  0.23375727  1
  Ta  Ta107  1  0.90010466  0.50269051  0.39069225  1
  Ta  Ta108  1  0.79934235  0.20500308  0.25735061  1
  Ta  Ta109  1  -0.00972928  0.80486366  0.52878972  1
  Ta  Ta110  1  0.40538295  0.79699782  0.51375221  1
  Ta  Ta111  1  0.10229600  0.90153559  0.11947028  1
  Ta  Ta112  1  0.30331178  0.10137108  0.39619815  1
  Ta  Ta113  1  0.89434612  0.09652559  0.12212628  1
  Ta  Ta114  1  -0.00567863  0.60218417  0.23870467  1
  Ta  Ta115  1  0.60478627  0.79985326  0.50151463  1
  Ta  Ta116  1  0.40255566  0.79106597  0.73747014  1
  Ta  Ta117  1  0.60174323  0.60367760  0.51583235  1
  Ta  Ta118  1  0.30213946  0.69424300  0.62570525  1
  Ta  Ta119  1  0.50746659  0.10914226  0.61430054  1
  Ti  Ti120  1  0.79555192  0.60396408  0.74575018  1
  Ti  Ti121  1  0.80440920  0.00125146  0.25141975  1
  Ti  Ti122  1  0.40579697  0.00651846  0.25248225  1
  Ti  Ti123  1  0.10635170  0.70188844  0.63566106  1
  Ti  Ti124  1  0.01731616  0.39826095  -0.01548052  1
  Ti  Ti125  1  0.49944052  0.89953404  0.38386069  1
  Ti  Ti126  1  0.21030166  0.39320785  0.76325701  1
  Ti  Ti127  1  0.30644616  0.10504900  0.60851173  1
  Ti  Ti128  1  0.70463425  0.90623807  0.12407559  1
  Ti  Ti129  1  0.69520782  0.30258524  0.64231800  1
  Ti  Ti130  1  0.79766531  0.81503016  -0.01250400  1
  Ti  Ti131  1  0.49610269  0.49611265  0.64089455  1
  Ti  Ti132  1  0.32910235  0.48342745  0.36601741  1
  Ti  Ti133  1  0.30643635  0.29916565  0.12118312  1
  Ti  Ti134  1  0.61062396  0.21587642  0.49052967  1
  Ti  Ti135  1  0.09120113  0.89772197  0.38128713  1
  Ti  Ti136  1  0.10084566  0.09398457  0.11549220  1
  Ti  Ti137  1  0.48941208  0.31224595  0.38190009  1
  Ti  Ti138  1  0.20628277  0.59901649  0.50727871  1
  Ti  Ti139  1  0.70787198  0.70819918  0.61750311  1
  Ti  Ti140  1  0.69612200  0.49164916  0.12459618  1
  Ti  Ti141  1  0.89404182  0.69621702  0.10522602  1
  Ti  Ti142  1  0.59083453  0.19632085  0.76683505  1
  Ti  Ti143  1  0.59726547  0.40350505  0.75939586  1
  Ti  Ti144  1  -0.00556182  0.60756956  0.52075771  1
  Ti  Ti145  1  0.50421210  0.90605963  0.12767329  1
  Ti  Ti146  1  -0.00792381  -0.00236458  0.75138505  1
  Ti  Ti147  1  0.30665836  0.49691766  0.64728026  1
  Ti  Ti148  1  0.70046420  0.10441559  0.87535013  1
  Ti  Ti149  1  0.41054084  0.80034721  0.24291164  1
  Ti  Ti150  1  0.40128967  0.20055501  0.24636446  1
  Ti  Ti151  1  0.09630055  0.90171889  0.63450030  1
  Ti  Ti152  1  0.71142313  0.10418330  0.37471579  1
  Ti  Ti153  1  0.10052911  0.09189777  0.87703701  1
  Ti  Ti154  1  0.71256516  0.89593943  0.38645503  1
  Ti  Ti155  1  0.39820898  0.39845066  -0.02354648  1
  Ti  Ti156  1  0.00035241  0.19234155  -0.00580938  1
  Ti  Ti157  1  0.30553603  0.30225672  0.62035925  1
  Ti  Ti158  1  0.49171186  0.69928241  0.86801118  1
  Ti  Ti159  1  0.40100480  -0.00544243  -0.00834782  1
  Mo  Mo160  1  0.30132539  0.69712199  0.14063009  1
  Mo  Mo161  1  0.89506884  0.09188303  0.35294173  1
  Mo  Mo162  1  0.89968315  0.09956269  0.88123323  1
  Mo  Mo163  1  0.20517010  0.59594697  0.01351961  1
  Mo  Mo164  1  0.40299995  0.40332446  0.51737071  1
  Mo  Mo165  1  0.79742460  0.80623071  0.50407129  1
  Mo  Mo166  1  0.40341714  0.60333639  0.73161189  1
  Mo  Mo167  1  0.40859753  0.38712104  0.24846934  1
  Mo  Mo168  1  0.50417521  0.70180536  0.61408936  1
  Mo  Mo169  1  0.20355985  0.19694713  0.51515078  1
  Mo  Mo170  1  0.30230989  0.49840703  0.85998358  1
  Mo  Mo171  1  0.70265858  0.30356298  0.11207409  1
  Mo  Mo172  1  0.19983280  0.59696222  0.72568497  1
  Mo  Mo173  1  0.09948941  0.70060363  0.85496990  1
  Mo  Mo174  1  0.09589060  0.69785746  0.13972547  1
  Mo  Mo175  1  0.89357759  0.29944128  0.36412293  1
  Mo  Mo176  1  0.89090600  0.70147296  0.62332839  1
  Mo  Mo177  1  0.89478563  0.09485334  0.64643907  1
  Mo  Mo178  1  -0.01132050  0.39700923  0.49118862  1
  Mo  Mo179  1  0.70329657  0.89802843  0.86475549  1
  Mo  Mo180  1  0.40055099  -0.00142341  0.51336983  1
  Mo  Mo181  1  0.68817935  0.29974048  0.37029396  1
  Mo  Mo182  1  0.50396173  0.09949605  0.88266140  1
  Mo  Mo183  1  0.50441760  0.70528977  0.12967083  1
  Mo  Mo184  1  0.39677384  0.39738439  0.74797691  1
  Mo  Mo185  1  0.30134633  0.30082769  0.86815209  1
  Mo  Mo186  1  0.50168083  0.30414759  0.86423924  1
  Mo  Mo187  1  0.90194853  0.89920312  0.86016259  1
  Mo  Mo188  1  0.50253429  0.50175662  0.36040000  1
  Mo  Mo189  1  0.78763808  0.19514495  0.48495152  1
  Mo  Mo190  1  0.19914002  0.80052003  0.73389449  1
  Mo  Mo191  1  0.90077971  0.90583206  0.63544354  1
  Mo  Mo192  1  0.10177979  0.29855697  0.88328654  1
  Mo  Mo193  1  0.79341006  0.40277311  -0.00434507  1
  Mo  Mo194  1  0.88944869  0.90671071  0.12316498  1
  Mo  Mo195  1  0.59984315  0.19817779  -0.00437524  1
  Mo  Mo196  1  0.79413133  0.20101129  0.77366042  1
  Mo  Mo197  1  -0.00175473  -0.00612293  0.51746175  1
  Mo  Mo198  1  0.40689317  0.20366566  0.51598074  1
  Mo  Mo199  1  0.69654986  0.51249680  0.85641486  1
