# generated using pymatgen
data_HfZrTaTiMo
_symmetry_space_group_name_H-M   'P 1'
_cell_length_a   15.93525040
_cell_length_b   15.91723561
_cell_length_c   15.19090904
_cell_angle_alpha   90.00383286
_cell_angle_beta   90.01810641
_cell_angle_gamma   89.94374569
_symmetry_Int_Tables_number   1
_chemical_formula_structural   HfZrTaTiMo
_chemical_formula_sum   'Hf40 Zr40 Ta40 Ti40 Mo40'
_cell_volume   3853.09812020
_cell_formula_units_Z   40
loop_
 _symmetry_equiv_pos_site_id
 _symmetry_equiv_pos_as_xyz
  1  'x, y, z'
loop_
 _atom_site_type_symbol
 _atom_site_label
 _atom_site_symmetry_multiplicity
 _atom_site_fract_x
 _atom_site_fract_y
 _atom_site_fract_z
 _atom_site_occupancy
  Hf  Hf0  1  0.89742018  0.10295153  0.63065813  1
  Hf  Hf1  1  0.00413013  0.60512966  0.74060313  1
  Hf  Hf2  1  0.70648877  0.89705037  0.13628830  1
  Hf  Hf3  1  0.09796629  0.69884446  0.38522926  1
  Hf  Hf4  1  0.80142213  0.00062288  0.49132727  1
  Hf  Hf5  1  0.48820474  0.28877757  0.62705075  1
  Hf  Hf6  1  0.29830877  0.89077704  0.59984047  1
  Hf  Hf7  1  0.49930585  0.89769919  0.13589459  1
  Hf  Hf8  1  0.19329928  0.40460185  0.25004389  1
  Hf  Hf9  1  0.69818719  0.90104608  0.87234719  1
  Hf  Hf10  1  0.30128534  0.50033425  0.61918216  1
  Hf  Hf11  1  0.09984237  0.71170949  0.60261538  1
  Hf  Hf12  1  0.48985042  0.30037084  0.13067138  1
  Hf  Hf13  1  0.10053317  0.89639113  0.88474263  1
  Hf  Hf14  1  0.80939387  0.79056899  -0.00753900  1
  Hf  Hf15  1  0.49715000  0.09782923  0.87524692  1
  Hf  Hf16  1  0.29383929  0.90488492  0.87576602  1
  Hf  Hf17  1  0.60582006  0.60412802  0.01023767  1
  Hf  Hf18  1  0.39637359  0.19589731  0.00208064  1
  Hf  Hf19  1  0.59386391  0.59172375  0.50761630  1
  Hf  Hf20  1  0.60380564  0.79175936  0.00681370  1
  Hf  Hf21  1  0.29701245  0.29899552  0.12407355  1
  Hf  Hf22  1  0.10683168  0.51012657  0.61531963  1
  Hf  Hf23  1  0.91255671  0.30540598  0.88073702  1
  Hf  Hf24  1  0.29428145  0.50852943  0.88217966  1
  Hf  Hf25  1  0.10751167  0.09922505  0.87800469  1
  Hf  Hf26  1  0.39777652  0.79888504  0.00113597  1
  Hf  Hf27  1  0.70029373  0.90796621  0.62138296  1
  Hf  Hf28  1  0.29650597  0.70422379  0.14409328  1
  Hf  Hf29  1  0.50969207  0.69985329  0.15849693  1
  Hf  Hf30  1  0.91078701  0.10707324  0.38567162  1
  Hf  Hf31  1  0.09077134  0.30875902  0.11434267  1
  Hf  Hf32  1  0.89350426  0.30763473  0.38033216  1
  Hf  Hf33  1  0.19126194  0.39028176  0.50055336  1
  Hf  Hf34  1  0.09280194  0.69354305  0.89508132  1
  Hf  Hf35  1  0.79548607  0.20094260  0.24514521  1
  Hf  Hf36  1  0.58665327  0.80280375  0.73450240  1
  Hf  Hf37  1  0.49628260  0.50050569  0.87450850  1
  Hf  Hf38  1  0.00332608  0.79606449  0.24813271  1
  Hf  Hf39  1  0.09382997  0.29425322  0.36776787  1
  Zr  Zr40  1  0.91257158  0.09891516  0.87471894  1
  Zr  Zr41  1  0.70202650  0.70688632  0.61562580  1
  Zr  Zr42  1  0.59568570  0.00747535  0.25340237  1
  Zr  Zr43  1  0.78795815  0.21025106  0.76356063  1
  Zr  Zr44  1  0.58367905  0.82025146  0.49292539  1
  Zr  Zr45  1  0.39636799  0.61028257  0.00393133  1
  Zr  Zr46  1  0.29243820  0.08513532  0.38439346  1
  Zr  Zr47  1  0.69667052  0.69731409  0.85752446  1
  Zr  Zr48  1  0.49355423  0.49678379  0.13243956  1
  Zr  Zr49  1  0.28843209  0.69416134  0.60216068  1
  Zr  Zr50  1  0.38704369  0.79082240  0.75176967  1
  Zr  Zr51  1  0.38896384  0.59266197  0.26628740  1
  Zr  Zr52  1  0.31427337  0.10346076  0.61513274  1
  Zr  Zr53  1  0.60459642  0.39495421  0.26084836  1
  Zr  Zr54  1  0.81003600  0.60991623  0.00682370  1
  Zr  Zr55  1  -0.00028094  0.19844074  0.23956749  1
  Zr  Zr56  1  0.60151324  0.39368917  0.73732605  1
  Zr  Zr57  1  0.91300637  0.51129927  0.87465127  1
  Zr  Zr58  1  0.49997568  0.29244334  0.37354201  1
  Zr  Zr59  1  0.01359212  0.00057187  0.24343512  1
  Zr  Zr60  1  0.91492142  0.49167665  0.12983361  1
  Zr  Zr61  1  0.40462360  -0.00602092  0.73846272  1
  Zr  Zr62  1  0.59654331  0.39262355  -0.00454458  1
  Zr  Zr63  1  0.29848786  0.27991641  0.37899851  1
  Zr  Zr64  1  0.70575371  0.50285151  0.14439424  1
  Zr  Zr65  1  0.69802757  0.10432605  0.62522173  1
  Zr  Zr66  1  0.79415401  0.40352308  -0.01115342  1
  Zr  Zr67  1  0.90021573  0.09887011  0.10809735  1
  Zr  Zr68  1  0.69939736  0.11041429  0.38186480  1
  Zr  Zr69  1  0.10186752  0.29519077  0.88034180  1
  Zr  Zr70  1  0.69710812  0.50490922  0.86022115  1
  Zr  Zr71  1  0.89959660  0.89448830  0.11949929  1
  Zr  Zr72  1  0.50163916  0.89976006  0.88177526  1
  Zr  Zr73  1  0.90818367  0.89821727  0.62043766  1
  Zr  Zr74  1  0.29994219  0.29860469  0.62898178  1
  Zr  Zr75  1  0.00949928  0.20872653  0.52063331  1
  Zr  Zr76  1  0.80043195  0.58806060  0.50076249  1
  Zr  Zr77  1  0.69546227  0.69564924  0.36721721  1
  Zr  Zr78  1  0.78618375  0.19747421  -0.01296196  1
  Zr  Zr79  1  0.59873384  0.20438681  0.50441692  1
  Ta  Ta80  1  0.20041278  0.18257181  0.23606449  1
  Ta  Ta81  1  0.90965550  0.89442264  0.87642079  1
  Ta  Ta82  1  0.39878850  0.59944065  0.74301384  1
  Ta  Ta83  1  0.49701216  0.70248282  0.37303123  1
  Ta  Ta84  1  0.70183757  0.90011958  0.36693884  1
  Ta  Ta85  1  0.59565412  0.19564806  0.23492766  1
  Ta  Ta86  1  -0.00569512  0.40437104  0.50997886  1
  Ta  Ta87  1  0.38991599  0.39890206  0.26783094  1
  Ta  Ta88  1  0.11189420  0.90925344  0.38699018  1
  Ta  Ta89  1  0.40767276  0.40237106  0.49253983  1
  Ta  Ta90  1  0.08886406  0.49928798  0.37862083  1
  Ta  Ta91  1  0.89833484  0.30539234  0.11606180  1
  Ta  Ta92  1  0.19739487  -0.00350996  0.73455804  1
  Ta  Ta93  1  0.90458575  0.70608256  0.61445911  1
  Ta  Ta94  1  0.19545446  0.40729884  0.75759670  1
  Ta  Ta95  1  0.29639679  0.49609324  0.11988404  1
  Ta  Ta96  1  0.81093789  0.79998611  0.75151748  1
  Ta  Ta97  1  0.80680323  0.80220148  0.48559831  1
  Ta  Ta98  1  0.58739328  0.59765648  0.72191837  1
  Ta  Ta99  1  0.49836858  0.69291720  0.86575069  1
  Ta  Ta100  1  0.41936423  -0.01859442  0.48574744  1
  Ta  Ta101  1  0.20624556  0.79107742  0.00407962  1
  Ta  Ta102  1  0.80890124  0.00077089  0.26039123  1
  Ta  Ta103  1  0.60430767  0.40764466  0.50804330  1
  Ta  Ta104  1  0.59844472  0.19511043  0.00354618  1
  Ta  Ta105  1  0.21073477  0.00098824  0.01273079  1
  Ta  Ta106  1  0.80440631  0.60387324  0.73474164  1
  Ta  Ta107  1  0.70087447  0.29950708  0.12546958  1
  Ta  Ta108  1  0.29559545  0.10269956  0.87052875  1
  Ta  Ta109  1  0.00857623  -0.00596407  0.74521604  1
  Ta  Ta110  1  0.20126141  0.40268139  -0.00175165  1
  Ta  Ta111  1  0.80320508  -0.00119194  0.76192024  1
  Ta  Ta112  1  0.39222127  0.01060885  0.24404149  1
  Ta  Ta113  1  0.10601052  0.89203460  0.11295749  1
  Ta  Ta114  1  0.10864743  0.09720551  0.37941788  1
  Ta  Ta115  1  0.71108562  0.70675406  0.15475126  1
  Ta  Ta116  1  0.29871351  0.29798253  0.87494637  1
  Ta  Ta117  1  0.39719102  0.00216170  0.01581114  1
  Ta  Ta118  1  0.19028247  0.59887098  0.24903277  1
  Ta  Ta119  1  0.39603054  0.40178596  0.75572482  1
  Ti  Ti120  1  0.81288244  0.60065565  0.25504509  1
  Ti  Ti121  1  0.49150040  0.10456220  0.37693549  1
  Ti  Ti122  1  0.00770593  0.40233372  0.74054816  1
  Ti  Ti123  1  0.79518859  -0.00074109  -0.01429417  1
  Ti  Ti124  1  0.79883367  0.40276796  0.75015635  1
  Ti  Ti125  1  0.40098665  0.59492750  0.49114882  1
  Ti  Ti126  1  0.59764463  0.19828523  0.75851240  1
  Ti  Ti127  1  0.71382061  0.30647648  0.61028448  1
  Ti  Ti128  1  0.89501277  0.49517165  0.62753917  1
  Ti  Ti129  1  0.18904861  0.19186997  0.51850978  1
  Ti  Ti130  1  0.70869441  0.30544593  0.38479080  1
  Ti  Ti131  1  0.49245281  0.29765347  0.87197647  1
  Ti  Ti132  1  0.00721326  0.59913455  0.24118893  1
  Ti  Ti133  1  0.89637009  0.30620398  0.62740424  1
  Ti  Ti134  1  0.29434730  0.70524024  0.38110921  1
  Ti  Ti135  1  0.70189990  0.09466450  0.12413901  1
  Ti  Ti136  1  0.00959340  0.20350763  0.73752902  1
  Ti  Ti137  1  0.90223605  0.70024427  0.37488968  1
  Ti  Ti138  1  0.60172110  0.00358230  0.74906126  1
  Ti  Ti139  1  0.10595627  0.10256801  0.10644392  1
  Ti  Ti140  1  0.90222235  0.49149245  0.36636987  1
  Ti  Ti141  1  0.39488448  0.81236898  0.27145897  1
  Ti  Ti142  1  -0.00937527  0.59651358  0.49949707  1
  Ti  Ti143  1  0.28910529  0.49830063  0.38526234  1
  Ti  Ti144  1  0.01411505  0.00753417  0.51125623  1
  Ti  Ti145  1  0.50418974  0.09135516  0.61558173  1
  Ti  Ti146  1  0.19988074  0.19930484  0.74155407  1
  Ti  Ti147  1  0.20200917  0.60945406  0.75702887  1
  Ti  Ti148  1  0.00393470  0.79882275  0.75060366  1
  Ti  Ti149  1  0.10387667  0.89525584  0.60970504  1
  Ti  Ti150  1  0.09703994  0.50344953  0.89601790  1
  Ti  Ti151  1  0.71160696  0.49044338  0.37053590  1
  Ti  Ti152  1  0.19386021  0.79699181  0.75442477  1
  Ti  Ti153  1  0.91282194  0.90274608  0.37856456  1
  Ti  Ti154  1  0.50620010  0.50111417  0.37171053  1
  Ti  Ti155  1  0.48181047  0.70718414  0.60801816  1
  Ti  Ti156  1  0.60004721  0.00533258  0.00759044  1
  Ti  Ti157  1  0.00498859  -0.00527079  0.00121540  1
  Ti  Ti158  1  0.19551955  0.80710784  0.25772382  1
  Ti  Ti159  1  0.29560002  0.90150025  0.13777448  1
  Mo  Mo160  1  -0.00109324  0.19878471  0.00918188  1
  Mo  Mo161  1  0.00293551  0.60729883  0.02019116  1
  Mo  Mo162  1  0.39963237  0.20109417  0.76836442  1
  Mo  Mo163  1  0.80900760  0.80460264  0.27010878  1
  Mo  Mo164  1  0.10057304  0.70004503  0.12224193  1
  Mo  Mo165  1  0.10482151  0.50452293  0.11956361  1
  Mo  Mo166  1  0.10294384  0.09893455  0.64147677  1
  Mo  Mo167  1  -0.00089968  0.40476586  0.25965727  1
  Mo  Mo168  1  0.80246626  0.40376339  0.50721040  1
  Mo  Mo169  1  0.70085460  0.49580929  0.63402779  1
  Mo  Mo170  1  0.60101250  0.80250316  0.25852791  1
  Mo  Mo171  1  -0.00488872  0.80612161  0.48553721  1
  Mo  Mo172  1  0.39991886  0.19275356  0.24486257  1
  Mo  Mo173  1  0.60378615  0.59641091  0.26587557  1
  Mo  Mo174  1  0.50115451  0.09890297  0.11656030  1
  Mo  Mo175  1  0.48923965  0.49558481  0.62077148  1
  Mo  Mo176  1  0.40245981  0.19248434  0.49333673  1
  Mo  Mo177  1  0.49795540  0.90651253  0.62453688  1
  Mo  Mo178  1  0.39220836  0.39756998  -0.01656583  1
  Mo  Mo179  1  0.59748097  0.00283870  0.48546097  1
  Mo  Mo180  1  0.19618332  -0.00298919  0.23285593  1
  Mo  Mo181  1  0.00298310  0.40451494  -0.00626952  1
  Mo  Mo182  1  0.19483094  0.00201362  0.51611590  1
  Mo  Mo183  1  0.30004832  0.09920935  0.12895182  1
  Mo  Mo184  1  0.39928427  0.79632682  0.47709745  1
  Mo  Mo185  1  0.20250044  0.19518968  0.00583766  1
  Mo  Mo186  1  0.68818581  0.09200944  0.87263328  1
  Mo  Mo187  1  0.80333040  0.39392685  0.25008743  1
  Mo  Mo188  1  0.68746574  0.29649877  0.87751081  1
  Mo  Mo189  1  0.19831984  0.59524483  0.47788907  1
  Mo  Mo190  1  0.90663477  0.70454874  0.85666421  1
  Mo  Mo191  1  0.19805135  0.60080649  0.01946957  1
  Mo  Mo192  1  0.29603836  0.90133686  0.37081306  1
  Mo  Mo193  1  0.29279007  0.69986852  0.87041435  1
  Mo  Mo194  1  0.49814855  0.90567271  0.35296923  1
  Mo  Mo195  1  -0.00044001  0.79493582  0.01165801  1
  Mo  Mo196  1  0.80493836  0.20809121  0.50764570  1
  Mo  Mo197  1  0.10091032  0.30785585  0.64311008  1
  Mo  Mo198  1  0.90019749  0.69764199  0.14805776  1
  Mo  Mo199  1  0.20026628  0.80390583  0.47895537  1
