# generated using pymatgen
data_HfZrTaTiMo
_symmetry_space_group_name_H-M   'P 1'
_cell_length_a   15.93844091
_cell_length_b   15.92495788
_cell_length_c   15.19483201
_cell_angle_alpha   89.99129283
_cell_angle_beta   89.95535278
_cell_angle_gamma   89.92346500
_symmetry_Int_Tables_number   1
_chemical_formula_structural   HfZrTaTiMo
_chemical_formula_sum   'Hf40 Zr40 Ta40 Ti40 Mo40'
_cell_volume   3856.73241413
_cell_formula_units_Z   40
loop_
 _symmetry_equiv_pos_site_id
 _symmetry_equiv_pos_as_xyz
  1  'x, y, z'
loop_
 _atom_site_type_symbol
 _atom_site_label
 _atom_site_symmetry_multiplicity
 _atom_site_fract_x
 _atom_site_fract_y
 _atom_site_fract_z
 _atom_site_occupancy
  Hf  Hf0  1  0.00585783  0.41056493  0.48286687  1
  Hf  Hf1  1  0.70162422  0.68313426  0.62784106  1
  Hf  Hf2  1  0.90214326  0.90251377  0.62541569  1
  Hf  Hf3  1  0.40229391  0.79921869  -0.01811109  1
  Hf  Hf4  1  0.20718090  0.79565570  0.74415526  1
  Hf  Hf5  1  0.70085985  0.90931725  0.86474507  1
  Hf  Hf6  1  0.77631399  0.21063099  0.50708969  1
  Hf  Hf7  1  -0.00043400  0.79810474  0.22924969  1
  Hf  Hf8  1  0.09439014  0.70518211  0.38145531  1
  Hf  Hf9  1  0.10732859  0.29896406  0.62385387  1
  Hf  Hf10  1  -0.00532143  0.19596554  0.01684155  1
  Hf  Hf11  1  0.11506738  0.10828459  0.63298702  1
  Hf  Hf12  1  0.59223137  0.00690263  0.74989385  1
  Hf  Hf13  1  0.60585918  0.20129239  0.00509772  1
  Hf  Hf14  1  0.29070305  0.10399000  0.87992302  1
  Hf  Hf15  1  0.80159873  0.80113147  -0.01013367  1
  Hf  Hf16  1  0.39917415  0.20136007  0.76229149  1
  Hf  Hf17  1  -0.00528978  0.40481916  0.75899884  1
  Hf  Hf18  1  0.30677823  0.89762066  0.12405531  1
  Hf  Hf19  1  0.19363610  0.58909613  0.49117704  1
  Hf  Hf20  1  0.19349241  0.38930156  0.47252718  1
  Hf  Hf21  1  0.81000278  0.00759818  0.00143877  1
  Hf  Hf22  1  0.29457412  0.49128610  0.61729089  1
  Hf  Hf23  1  0.80503907  0.79177598  0.75128937  1
  Hf  Hf24  1  0.48924351  0.68525461  0.39055651  1
  Hf  Hf25  1  0.71360658  0.10644693  0.86535326  1
  Hf  Hf26  1  0.09405446  0.50774791  0.88480230  1
  Hf  Hf27  1  0.60163712  0.39699581  0.01327299  1
  Hf  Hf28  1  0.88978687  0.31158196  0.37255429  1
  Hf  Hf29  1  0.30174543  0.29771828  0.90530905  1
  Hf  Hf30  1  0.01723792  -0.00771275  0.50693375  1
  Hf  Hf31  1  0.90108882  0.10605609  0.62028761  1
  Hf  Hf32  1  0.80269174  0.39522681  0.00569518  1
  Hf  Hf33  1  0.39320129  0.39865984  0.75181201  1
  Hf  Hf34  1  0.41371001  -0.00613399  -0.01864841  1
  Hf  Hf35  1  0.89151160  0.50713832  0.61416182  1
  Hf  Hf36  1  0.80083084  0.59239986  -0.00769337  1
  Hf  Hf37  1  -0.00581922  -0.00555165  0.24775589  1
  Hf  Hf38  1  0.19977738  0.81354685  0.51724385  1
  Hf  Hf39  1  0.92200647  0.69676849  0.88384538  1
  Zr  Zr40  1  0.59772121  0.01275526  0.50919346  1
  Zr  Zr41  1  0.19568895  0.38968762  0.76460630  1
  Zr  Zr42  1  0.71742273  0.90882714  0.39468201  1
  Zr  Zr43  1  -0.00369400  0.39000186  0.01539620  1
  Zr  Zr44  1  0.30950161  0.50256468  0.35950476  1
  Zr  Zr45  1  0.31311097  0.29875746  0.35483359  1
  Zr  Zr46  1  0.40486541  0.00245892  0.25847195  1
  Zr  Zr47  1  -0.00651062  0.59703057  0.24348255  1
  Zr  Zr48  1  0.49422671  0.29566767  0.62007295  1
  Zr  Zr49  1  0.80729756  0.59588073  0.76866834  1
  Zr  Zr50  1  0.39786716  -0.00121253  0.49862481  1
  Zr  Zr51  1  0.48289529  0.50546450  0.88566496  1
  Zr  Zr52  1  -0.00144549  0.20314864  0.24823159  1
  Zr  Zr53  1  0.29527529  0.50279798  0.89626435  1
  Zr  Zr54  1  0.50107534  0.89621597  0.38220174  1
  Zr  Zr55  1  0.68411273  0.49203843  0.87049499  1
  Zr  Zr56  1  0.31034466  0.10606804  0.11635497  1
  Zr  Zr57  1  0.89702490  0.70055616  0.38567048  1
  Zr  Zr58  1  0.30952269  0.30334861  0.12986294  1
  Zr  Zr59  1  0.68839917  0.30928749  0.35700669  1
  Zr  Zr60  1  0.79387557  0.19040550  0.24993829  1
  Zr  Zr61  1  0.80239713  0.39679712  0.75202447  1
  Zr  Zr62  1  0.88544979  0.08495086  0.38995645  1
  Zr  Zr63  1  0.70783862  0.69189347  0.38468728  1
  Zr  Zr64  1  0.49215328  0.50424739  0.62302882  1
  Zr  Zr65  1  0.19126140  -0.00181937  0.00229971  1
  Zr  Zr66  1  0.59917019  0.79475938  0.51379813  1
  Zr  Zr67  1  0.80619676  0.80727885  0.23859624  1
  Zr  Zr68  1  0.90765450  0.91282238  0.86672147  1
  Zr  Zr69  1  0.09281156  0.10614163  0.86807274  1
  Zr  Zr70  1  0.60128194  0.59579838  0.25503249  1
  Zr  Zr71  1  0.21259724  -0.00047923  0.49549451  1
  Zr  Zr72  1  0.30130793  0.10902756  0.63083625  1
  Zr  Zr73  1  0.01446959  0.20707293  0.48209091  1
  Zr  Zr74  1  0.29665155  0.70749358  0.37767665  1
  Zr  Zr75  1  0.49848481  0.70184629  0.11453057  1
  Zr  Zr76  1  0.69527399  0.70282213  0.11424089  1
  Zr  Zr77  1  0.10869717  0.89648107  0.36154240  1
  Zr  Zr78  1  0.80473390  0.20577240  0.01391995  1
  Zr  Zr79  1  0.60363201  0.80314026  0.25739640  1
  Ta  Ta80  1  0.00500527  0.00287562  0.74132913  1
  Ta  Ta81  1  0.69228367  0.90622811  0.10813835  1
  Ta  Ta82  1  0.30623799  0.68760917  0.62185974  1
  Ta  Ta83  1  0.51037251  0.90487316  0.12089147  1
  Ta  Ta84  1  0.69578876  0.29778109  0.86282432  1
  Ta  Ta85  1  0.50398019  0.09692431  0.11734792  1
  Ta  Ta86  1  0.39970207  0.79879145  0.24885464  1
  Ta  Ta87  1  0.60480713  0.00277007  0.25461401  1
  Ta  Ta88  1  0.90683981  0.89039108  0.39771223  1
  Ta  Ta89  1  0.49555465  0.89561556  0.63660250  1
  Ta  Ta90  1  0.59643654  0.79296261  0.75469473  1
  Ta  Ta91  1  0.10760067  0.70046614  0.88102375  1
  Ta  Ta92  1  0.19668712  0.19830167  0.24487186  1
  Ta  Ta93  1  0.70320399  0.90471565  0.63553080  1
  Ta  Ta94  1  0.59402844  0.80769683  -0.02739122  1
  Ta  Ta95  1  0.30158735  0.49979658  0.12931537  1
  Ta  Ta96  1  0.29802029  0.69929989  0.11718704  1
  Ta  Ta97  1  0.39156063  0.80493494  0.51381853  1
  Ta  Ta98  1  0.60427324  0.38897567  0.50612078  1
  Ta  Ta99  1  0.58637629  0.60585476  0.75956004  1
  Ta  Ta100  1  0.39723064  -0.00405082  0.75654311  1
  Ta  Ta101  1  0.69247518  0.09003143  0.12449913  1
  Ta  Ta102  1  0.90208620  0.30439354  0.61566502  1
  Ta  Ta103  1  0.10039479  0.89762950  0.86635842  1
  Ta  Ta104  1  0.68866976  0.49290967  0.63654442  1
  Ta  Ta105  1  0.50324283  0.30620867  0.88225683  1
  Ta  Ta106  1  0.90035987  0.28776690  0.87040333  1
  Ta  Ta107  1  0.49464230  0.49935326  0.12297345  1
  Ta  Ta108  1  0.00967000  0.80812030  0.00834073  1
  Ta  Ta109  1  0.80567682  0.79379308  0.52235873  1
  Ta  Ta110  1  -0.00070284  0.60022530  0.50394403  1
  Ta  Ta111  1  0.00483196  0.60252627  0.74272294  1
  Ta  Ta112  1  0.18852548  0.39751516  0.01795658  1
  Ta  Ta113  1  0.00832756  0.79546672  0.73962732  1
  Ta  Ta114  1  0.19427554  0.60441059  0.24058914  1
  Ta  Ta115  1  0.10273130  0.69508875  0.62103199  1
  Ta  Ta116  1  0.17748669  0.20687166  0.02064258  1
  Ta  Ta117  1  0.30119395  0.68714202  0.87931166  1
  Ta  Ta118  1  0.50465789  0.48409260  0.36926896  1
  Ta  Ta119  1  0.60321203  0.58013900  0.49597231  1
  Ti  Ti120  1  0.80423377  0.20497162  0.73803685  1
  Ti  Ti121  1  0.29384305  0.89849376  0.86598042  1
  Ti  Ti122  1  0.58984153  0.19149266  0.24378597  1
  Ti  Ti123  1  0.20280087  0.79536653  0.23790408  1
  Ti  Ti124  1  0.40293421  0.39754120  0.49252079  1
  Ti  Ti125  1  0.49584709  0.10599234  0.62668619  1
  Ti  Ti126  1  0.19900326  0.79911586  -0.00271897  1
  Ti  Ti127  1  0.68821461  0.10371223  0.37853449  1
  Ti  Ti128  1  0.40344381  0.78985623  0.75383506  1
  Ti  Ti129  1  0.00147592  0.00169669  0.00990671  1
  Ti  Ti130  1  0.81040071  0.41350192  0.23194816  1
  Ti  Ti131  1  0.19318470  0.60105762  0.01796122  1
  Ti  Ti132  1  0.10453721  0.90251686  0.12592147  1
  Ti  Ti133  1  0.78635308  0.40461640  0.50790623  1
  Ti  Ti134  1  0.09961136  0.49773610  0.62940841  1
  Ti  Ti135  1  0.39982231  0.60522072  0.24054242  1
  Ti  Ti136  1  0.50490152  0.29800057  0.36386946  1
  Ti  Ti137  1  0.69790978  0.10404678  0.63133255  1
  Ti  Ti138  1  0.59538061  0.61095863  -0.01578202  1
  Ti  Ti139  1  0.89954130  0.69962100  0.11148346  1
  Ti  Ti140  1  0.49420245  0.29605124  0.13031280  1
  Ti  Ti141  1  0.09887508  0.49278131  0.14011563  1
  Ti  Ti142  1  0.88786226  0.50741137  0.37912569  1
  Ti  Ti143  1  0.40891565  0.19446374  0.48261143  1
  Ti  Ti144  1  0.69748167  0.30118406  0.14366048  1
  Ti  Ti145  1  0.00472562  0.59720545  0.01889791  1
  Ti  Ti146  1  0.29414556  0.28904603  0.60866732  1
  Ti  Ti147  1  0.20045545  0.59717607  0.74797766  1
  Ti  Ti148  1  0.79686888  -0.01037353  0.24196988  1
  Ti  Ti149  1  0.20323519  0.00290373  0.24378240  1
  Ti  Ti150  1  0.10956502  0.10117856  0.36833519  1
  Ti  Ti151  1  0.69505536  0.50459990  0.12550131  1
  Ti  Ti152  1  0.80192125  0.59952981  0.23656244  1
  Ti  Ti153  1  0.30207116  0.10464610  0.36605366  1
  Ti  Ti154  1  0.59942021  0.20872382  0.74580090  1
  Ti  Ti155  1  0.50739051  0.10801272  0.88111738  1
  Ti  Ti156  1  0.70263219  0.49258671  0.36782647  1
  Ti  Ti157  1  0.49378980  0.69226256  0.62215305  1
  Ti  Ti158  1  0.89728853  0.09408303  0.13664963  1
  Ti  Ti159  1  0.00027345  0.20864632  0.74963258  1
  Mo  Mo160  1  0.90603339  0.69691472  0.62088543  1
  Mo  Mo161  1  0.49860591  0.89961412  0.85390583  1
  Mo  Mo162  1  0.69575578  0.30183937  0.64012230  1
  Mo  Mo163  1  0.69375626  0.70133905  0.87147774  1
  Mo  Mo164  1  0.10007206  0.29704523  0.87637772  1
  Mo  Mo165  1  0.19582473  0.40434604  0.24514953  1
  Mo  Mo166  1  0.41505851  0.19943032  -0.00860574  1
  Mo  Mo167  1  0.80131822  0.00979838  0.73631793  1
  Mo  Mo168  1  0.09980136  0.30511731  0.14660245  1
  Mo  Mo169  1  0.00368206  0.79690359  0.51999163  1
  Mo  Mo170  1  0.60246837  0.00143968  -0.00980113  1
  Mo  Mo171  1  0.41031102  0.19548502  0.25353996  1
  Mo  Mo172  1  0.90205167  0.10789951  0.85389354  1
  Mo  Mo173  1  0.20184366  -0.00306688  0.75633874  1
  Mo  Mo174  1  0.89927186  0.90440004  0.11082037  1
  Mo  Mo175  1  0.10540491  0.70289881  0.11164258  1
  Mo  Mo176  1  0.60083102  0.40098098  0.23295874  1
  Mo  Mo177  1  0.79275467  0.58897994  0.50062720  1
  Mo  Mo178  1  0.41191814  0.40388205  0.24009512  1
  Mo  Mo179  1  0.38813009  0.60541902  0.74371320  1
  Mo  Mo180  1  0.19953092  0.20853819  0.76221117  1
  Mo  Mo181  1  0.09690543  0.50418284  0.35427864  1
  Mo  Mo182  1  -0.00559255  0.40766380  0.25762679  1
  Mo  Mo183  1  0.79676426  0.00155270  0.51603142  1
  Mo  Mo184  1  0.20757428  0.19825159  0.47218723  1
  Mo  Mo185  1  0.29979040  0.89584606  0.35451842  1
  Mo  Mo186  1  0.10334751  0.30388530  0.35489142  1
  Mo  Mo187  1  0.49220829  0.69711530  0.87094450  1
  Mo  Mo188  1  0.10652195  0.90298387  0.64582922  1
  Mo  Mo189  1  0.89660378  0.30443235  0.14773775  1
  Mo  Mo190  1  0.50494340  0.11141985  0.37122924  1
  Mo  Mo191  1  0.10046090  0.09485285  0.13711372  1
  Mo  Mo192  1  0.39320162  0.60322498  0.01669229  1
  Mo  Mo193  1  0.89621130  0.50548992  0.12056186  1
  Mo  Mo194  1  0.59246290  0.39620966  0.74722571  1
  Mo  Mo195  1  0.90918141  0.49861871  0.89328695  1
  Mo  Mo196  1  0.40010883  0.59597682  0.50272806  1
  Mo  Mo197  1  0.30954373  0.89622472  0.64595121  1
  Mo  Mo198  1  0.40205938  0.39863929  0.01713253  1
  Mo  Mo199  1  0.59243190  0.20244010  0.50137908  1
