# generated using pymatgen
data_HfZrTaTiMo
_symmetry_space_group_name_H-M   'P 1'
_cell_length_a   15.91595255
_cell_length_b   15.94337832
_cell_length_c   15.19886392
_cell_angle_alpha   90.02353953
_cell_angle_beta   90.02067767
_cell_angle_gamma   90.01948360
_symmetry_Int_Tables_number   1
_chemical_formula_structural   HfZrTaTiMo
_chemical_formula_sum   'Hf40 Zr40 Ta40 Ti40 Mo40'
_cell_volume   3856.77251733
_cell_formula_units_Z   40
loop_
 _symmetry_equiv_pos_site_id
 _symmetry_equiv_pos_as_xyz
  1  'x, y, z'
loop_
 _atom_site_type_symbol
 _atom_site_label
 _atom_site_symmetry_multiplicity
 _atom_site_fract_x
 _atom_site_fract_y
 _atom_site_fract_z
 _atom_site_occupancy
  Hf  Hf0  1  0.58621769  0.58828033  0.00238172  1
  Hf  Hf1  1  0.69884889  0.28956741  0.86842359  1
  Hf  Hf2  1  0.68468685  0.90882170  0.11879606  1
  Hf  Hf3  1  0.80421877  0.18929287  -0.00199850  1
  Hf  Hf4  1  0.21217590  0.38345270  0.01919264  1
  Hf  Hf5  1  0.28561902  0.49703479  0.37090102  1
  Hf  Hf6  1  0.10131962  0.69690875  0.12034629  1
  Hf  Hf7  1  0.51399094  0.29627855  0.13926627  1
  Hf  Hf8  1  0.79834710  0.60235166  0.51259976  1
  Hf  Hf9  1  0.50791408  0.29192456  0.36902799  1
  Hf  Hf10  1  0.09852418  0.49678769  0.62173134  1
  Hf  Hf11  1  0.09516556  0.69517794  0.36096166  1
  Hf  Hf12  1  0.69358904  0.49226390  0.86346418  1
  Hf  Hf13  1  0.21766768  0.20282995  0.48209150  1
  Hf  Hf14  1  0.20272850  0.18644358  0.02912882  1
  Hf  Hf15  1  0.82408920  0.18759261  0.76179277  1
  Hf  Hf16  1  0.49439758  0.50689369  0.37891436  1
  Hf  Hf17  1  0.11177307  0.49047171  0.88864266  1
  Hf  Hf18  1  0.48960145  0.90046928  0.61434541  1
  Hf  Hf19  1  0.89910414  0.89798569  0.37324985  1
  Hf  Hf20  1  0.79210572  0.80233738  0.23885352  1
  Hf  Hf21  1  0.80326223  0.38900080  0.48532672  1
  Hf  Hf22  1  0.59061919  0.79517445  0.74833732  1
  Hf  Hf23  1  0.40021094  0.79672773  0.76108562  1
  Hf  Hf24  1  0.90539847  0.69567091  0.37492459  1
  Hf  Hf25  1  0.39765962  0.20622115  0.02199492  1
  Hf  Hf26  1  0.90309516  0.10771710  0.60222499  1
  Hf  Hf27  1  0.30823980  0.29919835  0.86908185  1
  Hf  Hf28  1  0.29679942  0.69483931  0.37616840  1
  Hf  Hf29  1  0.19917726  0.80774294  0.23957300  1
  Hf  Hf30  1  0.19451855  0.81474889  0.00114790  1
  Hf  Hf31  1  0.29631477  0.29966830  0.63128577  1
  Hf  Hf32  1  0.48955467  0.49597789  0.61513639  1
  Hf  Hf33  1  0.69059023  0.70073852  0.87637431  1
  Hf  Hf34  1  0.60228420  0.79254211  0.51629368  1
  Hf  Hf35  1  0.57878126  0.01032222  0.25846777  1
  Hf  Hf36  1  0.80137248  0.79712469  0.51493102  1
  Hf  Hf37  1  0.90839101  0.09335788  0.37328158  1
  Hf  Hf38  1  0.59869694  0.60816727  0.23402530  1
  Hf  Hf39  1  0.39377945  0.39118759  0.25135657  1
  Zr  Zr40  1  0.71069365  0.29995594  0.13549602  1
  Zr  Zr41  1  0.82012383  0.40038108  0.76025841  1
  Zr  Zr42  1  0.18176133  -0.00202706  0.73354737  1
  Zr  Zr43  1  0.60697087  0.40140868  0.00543090  1
  Zr  Zr44  1  0.29577478  0.90876872  0.38136636  1
  Zr  Zr45  1  0.50205900  0.11137937  0.87337558  1
  Zr  Zr46  1  0.29308999  0.89641742  0.61921862  1
  Zr  Zr47  1  0.28090761  0.11002951  0.86109146  1
  Zr  Zr48  1  0.09815085  0.50814543  0.36242271  1
  Zr  Zr49  1  0.38853426  0.38337130  0.48874492  1
  Zr  Zr50  1  0.29843309  0.69456603  0.88458465  1
  Zr  Zr51  1  0.01036326  0.81427779  0.76354126  1
  Zr  Zr52  1  0.49403894  0.70378621  0.38594072  1
  Zr  Zr53  1  0.01317712  0.18999523  0.01380756  1
  Zr  Zr54  1  0.10270490  0.11090103  0.61252773  1
  Zr  Zr55  1  0.70128854  0.90840401  0.63236248  1
  Zr  Zr56  1  0.50152346  0.30535453  0.87168328  1
  Zr  Zr57  1  0.70905610  0.29182368  0.63225147  1
  Zr  Zr58  1  0.09625387  0.90576867  0.36840213  1
  Zr  Zr59  1  0.49767447  0.71797219  0.10933421  1
  Zr  Zr60  1  0.29262714  0.90832737  0.87270359  1
  Zr  Zr61  1  0.18616352  0.80264320  0.50401597  1
  Zr  Zr62  1  0.20458666  0.40609837  0.75530398  1
  Zr  Zr63  1  0.90088069  0.70651235  0.88248305  1
  Zr  Zr64  1  0.68978564  0.90351863  0.38071510  1
  Zr  Zr65  1  0.78653630  0.58026397  0.00347883  1
  Zr  Zr66  1  0.70082916  0.49151659  0.62957168  1
  Zr  Zr67  1  -0.00226324  0.58623919  -0.00082843  1
  Zr  Zr68  1  0.89195282  0.09974412  0.14593444  1
  Zr  Zr69  1  0.00214809  0.59013696  0.76700337  1
  Zr  Zr70  1  0.69688783  0.70068172  0.37202779  1
  Zr  Zr71  1  0.39366794  0.00809468  0.00315787  1
  Zr  Zr72  1  0.91468498  0.29612386  0.61634939  1
  Zr  Zr73  1  0.31002035  0.70887285  0.11208103  1
  Zr  Zr74  1  0.89351408  0.70359937  0.10928222  1
  Zr  Zr75  1  0.79797998  0.59323546  0.23234777  1
  Zr  Zr76  1  0.69289365  0.49889777  0.37212165  1
  Zr  Zr77  1  0.79889951  0.82231203  -0.00268582  1
  Zr  Zr78  1  0.69686966  0.91222923  0.86424760  1
  Zr  Zr79  1  0.80319263  0.60095028  0.75041590  1
  Ta  Ta80  1  0.91419623  0.29725349  0.89301408  1
  Ta  Ta81  1  0.80518602  0.80198564  0.74500538  1
  Ta  Ta82  1  -0.00870601  0.59478799  0.23011131  1
  Ta  Ta83  1  0.00600669  0.39131579  0.76377631  1
  Ta  Ta84  1  0.80517475  0.39795477  0.26129743  1
  Ta  Ta85  1  0.91104346  0.69902971  0.63105635  1
  Ta  Ta86  1  0.32113327  0.50432246  0.88670546  1
  Ta  Ta87  1  0.58203711  0.60060055  0.74407607  1
  Ta  Ta88  1  0.48663682  0.90776824  0.39399205  1
  Ta  Ta89  1  0.60593808  0.20093894  0.50041098  1
  Ta  Ta90  1  0.10227287  0.30276496  0.61781825  1
  Ta  Ta91  1  0.90465401  0.29915277  0.13306075  1
  Ta  Ta92  1  0.01445131  0.20755501  0.47127138  1
  Ta  Ta93  1  0.58939671  0.01470016  0.73759366  1
  Ta  Ta94  1  0.41385911  0.17880970  0.24507186  1
  Ta  Ta95  1  0.60051704  0.60136082  0.52051782  1
  Ta  Ta96  1  0.00640718  0.39939275  0.48171115  1
  Ta  Ta97  1  0.11786304  0.31202805  0.36318750  1
  Ta  Ta98  1  0.91299633  0.49668296  0.61154717  1
  Ta  Ta99  1  0.70554973  0.10496739  0.62459241  1
  Ta  Ta100  1  0.30882229  0.09181642  0.36036037  1
  Ta  Ta101  1  0.19185457  0.60101255  0.50669314  1
  Ta  Ta102  1  -0.01077480  0.01438938  0.75181597  1
  Ta  Ta103  1  0.10298982  0.49258077  0.13294675  1
  Ta  Ta104  1  0.90660153  0.90548116  0.62625689  1
  Ta  Ta105  1  0.11358475  0.28416075  0.87520565  1
  Ta  Ta106  1  0.39679239  0.60470070  0.24016140  1
  Ta  Ta107  1  0.39889572  0.00814213  0.73879657  1
  Ta  Ta108  1  0.29967207  0.69551915  0.62205675  1
  Ta  Ta109  1  0.40826245  0.19534016  0.72899334  1
  Ta  Ta110  1  0.09957007  0.69688612  0.63393542  1
  Ta  Ta111  1  0.20668009  0.58946536  0.00985712  1
  Ta  Ta112  1  0.21189865  0.20207594  0.24592903  1
  Ta  Ta113  1  -0.00714500  0.80382196  0.23058225  1
  Ta  Ta114  1  0.29758430  0.50364027  0.61360768  1
  Ta  Ta115  1  0.40331507  0.81163440  0.25764996  1
  Ta  Ta116  1  0.60220282  0.39270235  0.49552210  1
  Ta  Ta117  1  -0.00872011  0.00176081  0.01431541  1
  Ta  Ta118  1  0.80067507  0.00017841  0.50151735  1
  Ta  Ta119  1  0.70475061  0.09433326  0.86098658  1
  Ti  Ti120  1  0.57384491  0.81623096  -0.02851549  1
  Ti  Ti121  1  0.49081973  0.90560837  0.11906543  1
  Ti  Ti122  1  0.58933091  0.80995147  0.25285869  1
  Ti  Ti123  1  0.59566645  0.00619496  -0.00901532  1
  Ti  Ti124  1  0.38644526  0.01710676  0.51418715  1
  Ti  Ti125  1  0.69443785  0.09779517  0.12668519  1
  Ti  Ti126  1  0.11413399  0.09223772  0.36573201  1
  Ti  Ti127  1  0.88940961  0.92492375  0.87040950  1
  Ti  Ti128  1  0.59426249  0.01183091  0.50433381  1
  Ti  Ti129  1  0.60825720  0.19024348  0.26129234  1
  Ti  Ti130  1  0.90610644  0.50759110  0.38013909  1
  Ti  Ti131  1  0.01089901  0.38643251  0.00939019  1
  Ti  Ti132  1  0.90593403  0.29508129  0.36561013  1
  Ti  Ti133  1  0.60345275  0.19336414  0.00615321  1
  Ti  Ti134  1  0.68771639  0.71253471  0.10462026  1
  Ti  Ti135  1  0.01329601  0.19638982  0.76276561  1
  Ti  Ti136  1  0.00540184  -0.00741706  0.23543999  1
  Ti  Ti137  1  0.89296317  0.47776334  0.11510122  1
  Ti  Ti138  1  0.29984720  0.90925406  0.12405777  1
  Ti  Ti139  1  0.01367082  0.20173272  0.25394173  1
  Ti  Ti140  1  0.20756958  0.60130853  0.75347833  1
  Ti  Ti141  1  0.01285744  -0.00590608  0.50344507  1
  Ti  Ti142  1  -0.00241217  0.81865217  0.00564691  1
  Ti  Ti143  1  0.09515068  0.92636047  0.89063438  1
  Ti  Ti144  1  0.30058467  0.50106074  0.13312354  1
  Ti  Ti145  1  0.79647105  0.20062490  0.26575924  1
  Ti  Ti146  1  0.59192068  0.39736041  0.74297513  1
  Ti  Ti147  1  -0.00272699  0.39997601  0.25068906  1
  Ti  Ti148  1  0.19349220  0.79837043  0.75168870  1
  Ti  Ti149  1  0.70332072  0.10299122  0.38893907  1
  Ti  Ti150  1  0.78724082  -0.00056237  0.25509571  1
  Ti  Ti151  1  0.00029402  0.79653184  0.50899188  1
  Ti  Ti152  1  0.40365794  0.40770653  0.74760015  1
  Ti  Ti153  1  0.40743942  0.19213792  0.49995991  1
  Ti  Ti154  1  0.50554581  0.29680924  0.62045800  1
  Ti  Ti155  1  0.10500699  0.69827357  0.88527756  1
  Ti  Ti156  1  0.50175321  0.49350384  0.14300462  1
  Ti  Ti157  1  0.48001172  0.67964046  0.88391693  1
  Ti  Ti158  1  0.40775379  0.40541046  0.01281995  1
  Ti  Ti159  1  0.48029749  0.69449765  0.61598776  1
  Mo  Mo160  1  0.50300567  0.10344856  0.61145329  1
  Mo  Mo161  1  0.09555751  0.90342690  0.11859886  1
  Mo  Mo162  1  0.30664926  0.09226172  0.14444778  1
  Mo  Mo163  1  0.20192083  0.60119045  0.22826518  1
  Mo  Mo164  1  0.89378702  0.90817974  0.13521649  1
  Mo  Mo165  1  0.00085522  0.60454455  0.50679614  1
  Mo  Mo166  1  0.81012171  0.38983356  -0.00279657  1
  Mo  Mo167  1  0.20184881  0.00300507  0.23538458  1
  Mo  Mo168  1  0.19833968  0.01085064  0.50466357  1
  Mo  Mo169  1  0.49779129  0.09609621  0.39426638  1
  Mo  Mo170  1  0.60345066  0.20045168  0.73225942  1
  Mo  Mo171  1  0.49489069  0.49991705  0.86042712  1
  Mo  Mo172  1  0.40254230  0.58082693  0.02109813  1
  Mo  Mo173  1  0.30505169  0.28894201  0.35906322  1
  Mo  Mo174  1  0.49645597  0.91420187  0.85922512  1
  Mo  Mo175  1  0.09996900  0.09663487  0.15158227  1
  Mo  Mo176  1  0.30178470  0.10455936  0.62802683  1
  Mo  Mo177  1  0.80456379  0.00412791  0.73290537  1
  Mo  Mo178  1  0.09533908  0.09858623  0.87484899  1
  Mo  Mo179  1  0.20123720  0.39781990  0.23519618  1
  Mo  Mo180  1  0.79212328  0.00909308  0.00725235  1
  Mo  Mo181  1  0.39549417  0.79879834  0.49349557  1
  Mo  Mo182  1  0.08855954  0.89862280  0.62176454  1
  Mo  Mo183  1  0.80493401  0.19647029  0.47942752  1
  Mo  Mo184  1  0.69829634  0.48935810  0.14066654  1
  Mo  Mo185  1  0.30932424  0.29712372  0.13833615  1
  Mo  Mo186  1  0.09765565  0.30088469  0.14802608  1
  Mo  Mo187  1  0.39293921  0.59695177  0.73812928  1
  Mo  Mo188  1  0.70187971  0.29240530  0.36882158  1
  Mo  Mo189  1  0.39145610  0.59884529  0.50484634  1
  Mo  Mo190  1  0.19771046  0.20466339  0.74354981  1
  Mo  Mo191  1  0.69993702  0.69676358  0.64504758  1
  Mo  Mo192  1  0.90638804  0.48148309  0.89546758  1
  Mo  Mo193  1  0.90580931  0.09397590  0.88401822  1
  Mo  Mo194  1  0.51418645  0.09633785  0.11399579  1
  Mo  Mo195  1  0.60356263  0.40245174  0.25946462  1
  Mo  Mo196  1  0.18498419  0.00667948  0.01971000  1
  Mo  Mo197  1  0.40280672  0.81711111  -0.02003322  1
  Mo  Mo198  1  0.19415141  0.39713947  0.49991075  1
  Mo  Mo199  1  0.40212027  -0.00664910  0.24217767  1
