# generated using pymatgen
data_HfZrTaTiMo
_symmetry_space_group_name_H-M   'P 1'
_cell_length_a   15.92779227
_cell_length_b   15.92847962
_cell_length_c   15.21382286
_cell_angle_alpha   90.05678394
_cell_angle_beta   89.94395233
_cell_angle_gamma   90.03279835
_symmetry_Int_Tables_number   1
_chemical_formula_structural   HfZrTaTiMo
_chemical_formula_sum   'Hf40 Zr40 Ta40 Ti40 Mo40'
_cell_volume   3859.82638533
_cell_formula_units_Z   40
loop_
 _symmetry_equiv_pos_site_id
 _symmetry_equiv_pos_as_xyz
  1  'x, y, z'
loop_
 _atom_site_type_symbol
 _atom_site_label
 _atom_site_symmetry_multiplicity
 _atom_site_fract_x
 _atom_site_fract_y
 _atom_site_fract_z
 _atom_site_occupancy
  Hf  Hf0  1  0.88923006  0.07914680  0.87747621  1
  Hf  Hf1  1  0.09195158  0.30105122  0.63213229  1
  Hf  Hf2  1  0.29197586  0.29305400  0.63440759  1
  Hf  Hf3  1  0.39937234  0.20276945  0.24902712  1
  Hf  Hf4  1  0.79819681  0.79438990  0.49200617  1
  Hf  Hf5  1  0.30084125  0.50472732  0.88173951  1
  Hf  Hf6  1  0.50212581  0.70312112  0.61521616  1
  Hf  Hf7  1  0.20669046  0.02195888  0.72814038  1
  Hf  Hf8  1  0.40119336  0.19848405  0.00664254  1
  Hf  Hf9  1  0.49194303  0.69737125  0.39422718  1
  Hf  Hf10  1  0.41204268  0.41447606  0.25013961  1
  Hf  Hf11  1  0.50103060  0.68730154  0.11131969  1
  Hf  Hf12  1  -0.00274202  0.79844561  0.74450932  1
  Hf  Hf13  1  -0.00361138  0.59923616  0.24895917  1
  Hf  Hf14  1  0.19494678  0.40523417  0.50204188  1
  Hf  Hf15  1  0.32537289  0.50419836  0.10258014  1
  Hf  Hf16  1  0.89949533  0.29790036  0.37693809  1
  Hf  Hf17  1  0.40147473  0.80657658  -0.01705141  1
  Hf  Hf18  1  0.70717694  0.68784335  0.86248126  1
  Hf  Hf19  1  0.19221133  0.61329377  0.00498895  1
  Hf  Hf20  1  0.59815826  0.19178212  0.75526149  1
  Hf  Hf21  1  0.10018203  0.29716525  0.86129715  1
  Hf  Hf22  1  0.20118921  0.00547926  0.24028746  1
  Hf  Hf23  1  0.20511106  0.59599168  0.23815199  1
  Hf  Hf24  1  0.59560282  0.19811208  0.49840664  1
  Hf  Hf25  1  0.60738730  0.80099179  -0.01037933  1
  Hf  Hf26  1  0.39669419  0.40606314  0.51652542  1
  Hf  Hf27  1  0.19852927  0.80180878  0.23896683  1
  Hf  Hf28  1  0.30152264  0.30505309  0.37319720  1
  Hf  Hf29  1  0.40308727  0.40440910  0.74671901  1
  Hf  Hf30  1  0.90349618  0.68094929  0.86447826  1
  Hf  Hf31  1  0.60228788  0.40606194  0.52349585  1
  Hf  Hf32  1  0.91726776  0.28698633  0.13917388  1
  Hf  Hf33  1  0.40442155  0.59746974  0.74404247  1
  Hf  Hf34  1  0.70580472  0.30292694  0.86659963  1
  Hf  Hf35  1  0.90479967  0.30340996  0.62283576  1
  Hf  Hf36  1  0.90253753  0.70780805  0.13247463  1
  Hf  Hf37  1  0.40652204  0.18742165  0.49821396  1
  Hf  Hf38  1  0.59876068  -0.00136313  0.01191167  1
  Hf  Hf39  1  0.70511751  0.10343182  0.36568274  1
  Zr  Zr40  1  0.30134121  0.69493748  0.38215339  1
  Zr  Zr41  1  0.31493441  0.71142966  0.12274366  1
  Zr  Zr42  1  0.09728463  0.90493965  0.61802017  1
  Zr  Zr43  1  0.21420161  0.00091768  0.50138027  1
  Zr  Zr44  1  0.19538348  0.19486823  0.49757868  1
  Zr  Zr45  1  -0.00213857  0.59447337  0.50766914  1
  Zr  Zr46  1  -0.01483970  0.00241901  0.73591402  1
  Zr  Zr47  1  0.80811568  0.81192998  0.74473721  1
  Zr  Zr48  1  0.69730599  0.49451239  0.37207386  1
  Zr  Zr49  1  0.29535992  0.70774550  0.86524058  1
  Zr  Zr50  1  0.30213874  0.91320957  0.86697861  1
  Zr  Zr51  1  0.20163317  0.79822682  0.50675321  1
  Zr  Zr52  1  0.48753550  0.88857681  0.13603944  1
  Zr  Zr53  1  0.50662751  0.31374508  0.11620188  1
  Zr  Zr54  1  0.80355080  0.80128617  -0.00652417  1
  Zr  Zr55  1  0.01300733  0.39572985  0.26060996  1
  Zr  Zr56  1  0.80132949  0.20032981  0.00070543  1
  Zr  Zr57  1  0.68929410  0.68154616  0.38341993  1
  Zr  Zr58  1  0.18793721  0.20332221  0.01281288  1
  Zr  Zr59  1  0.39184035  0.17942661  0.74661337  1
  Zr  Zr60  1  0.80313845  0.40182236  0.00690820  1
  Zr  Zr61  1  0.30047362  0.29588669  0.87577409  1
  Zr  Zr62  1  0.00127927  0.80399894  -0.00835692  1
  Zr  Zr63  1  0.69991047  0.10745949  0.14848172  1
  Zr  Zr64  1  -0.01241767  0.79006022  0.50342198  1
  Zr  Zr65  1  0.70699927  0.29666779  0.63042864  1
  Zr  Zr66  1  0.70139166  0.69859842  0.62937002  1
  Zr  Zr67  1  0.70282792  0.30353505  0.36851325  1
  Zr  Zr68  1  0.58268502  0.00026528  0.48686774  1
  Zr  Zr69  1  0.10106878  0.49389438  0.12179111  1
  Zr  Zr70  1  0.09877528  0.69605023  0.37388857  1
  Zr  Zr71  1  0.50281946  0.51154162  0.39454293  1
  Zr  Zr72  1  -0.00263763  0.39516507  -0.00948621  1
  Zr  Zr73  1  0.10473390  0.90779572  0.86779131  1
  Zr  Zr74  1  0.79820861  -0.00420525  0.02058140  1
  Zr  Zr75  1  0.09666937  0.90276168  0.37633458  1
  Zr  Zr76  1  0.59259632  0.79054636  0.26117252  1
  Zr  Zr77  1  0.49009548  0.08465677  0.88269506  1
  Zr  Zr78  1  0.80249581  0.18107347  0.74745839  1
  Zr  Zr79  1  0.71025027  0.92346730  0.86229132  1
  Ta  Ta80  1  0.89949843  0.09939586  0.14535993  1
  Ta  Ta81  1  0.59007728  -0.00149447  0.25828586  1
  Ta  Ta82  1  0.19580035  0.40856512  0.75416861  1
  Ta  Ta83  1  0.89681439  0.90017722  0.15156293  1
  Ta  Ta84  1  0.79958026  0.59393481  0.24172365  1
  Ta  Ta85  1  -0.00339371  0.60041539  0.00765420  1
  Ta  Ta86  1  0.60104173  0.00518099  0.73877077  1
  Ta  Ta87  1  0.09836098  0.09798577  0.87648541  1
  Ta  Ta88  1  0.60023493  0.40616820  0.74888859  1
  Ta  Ta89  1  0.89914538  0.90199770  0.37087682  1
  Ta  Ta90  1  -0.01861107  0.41229699  0.76454754  1
  Ta  Ta91  1  0.20857677  0.40208755  0.24965959  1
  Ta  Ta92  1  0.08338264  0.11234168  0.13360396  1
  Ta  Ta93  1  0.69985428  0.69615858  0.12868155  1
  Ta  Ta94  1  0.09050721  0.49339751  0.63462562  1
  Ta  Ta95  1  0.49903161  0.90339902  0.63016239  1
  Ta  Ta96  1  0.29845676  0.31150216  0.12297067  1
  Ta  Ta97  1  0.60554478  0.19746056  -0.00653763  1
  Ta  Ta98  1  0.19777349  0.40129665  -0.00291631  1
  Ta  Ta99  1  0.89562024  0.49873539  0.38092812  1
  Ta  Ta100  1  0.50267940  0.30298502  0.87650408  1
  Ta  Ta101  1  0.50500114  0.49803127  0.88694623  1
  Ta  Ta102  1  0.80734945  0.40567761  0.23626079  1
  Ta  Ta103  1  0.28652012  0.09497712  0.88919247  1
  Ta  Ta104  1  0.80008289  0.78986225  0.26695510  1
  Ta  Ta105  1  0.10216716  0.69760746  0.86295105  1
  Ta  Ta106  1  0.39730956  0.81996323  0.50226138  1
  Ta  Ta107  1  0.59745876  0.80221451  0.75461945  1
  Ta  Ta108  1  0.50025373  0.29476265  0.63615952  1
  Ta  Ta109  1  0.30256877  0.70195980  0.62622720  1
  Ta  Ta110  1  -0.00257026  0.00045659  0.01391151  1
  Ta  Ta111  1  0.60024511  0.58932730  0.74478793  1
  Ta  Ta112  1  -0.00370293  0.19281813  0.75186675  1
  Ta  Ta113  1  0.61346619  0.59432498  -0.00501669  1
  Ta  Ta114  1  0.19648355  0.81026005  0.01279361  1
  Ta  Ta115  1  0.70180018  0.89232577  0.14767250  1
  Ta  Ta116  1  0.19131849  -0.00006376  0.02110988  1
  Ta  Ta117  1  0.00050357  0.00232007  0.25382165  1
  Ta  Ta118  1  0.80447434  0.59468390  0.51367897  1
  Ta  Ta119  1  0.79988160  0.00053115  0.49376904  1
  Ti  Ti120  1  0.50108341  0.90395668  0.86025087  1
  Ti  Ti121  1  0.80367489  0.59189077  0.01531154  1
  Ti  Ti122  1  0.19031802  0.21372512  0.24760844  1
  Ti  Ti123  1  0.70025932  0.09092924  0.61256212  1
  Ti  Ti124  1  0.38822501  -0.00222834  0.01953475  1
  Ti  Ti125  1  0.30420719  0.50879538  0.38138601  1
  Ti  Ti126  1  0.40682259  0.60391795  0.24955712  1
  Ti  Ti127  1  0.59008424  0.20647535  0.25686458  1
  Ti  Ti128  1  0.09893353  0.10539950  0.36504230  1
  Ti  Ti129  1  0.30624154  0.09606154  0.37033585  1
  Ti  Ti130  1  0.69211943  0.49428134  0.13046364  1
  Ti  Ti131  1  0.19914237  0.59672029  0.74281737  1
  Ti  Ti132  1  0.69870232  0.30012572  0.13787656  1
  Ti  Ti133  1  0.89843685  0.10014282  0.36459310  1
  Ti  Ti134  1  0.30958983  0.90071464  0.36311616  1
  Ti  Ti135  1  0.09097692  0.51226172  0.86984763  1
  Ti  Ti136  1  0.08572064  0.89636933  0.13449682  1
  Ti  Ti137  1  -0.00712866  0.19558444  -0.01357046  1
  Ti  Ti138  1  0.70001590  0.90251625  0.36700286  1
  Ti  Ti139  1  0.40243518  0.80453253  0.74587070  1
  Ti  Ti140  1  0.80315637  0.40717102  0.50920265  1
  Ti  Ti141  1  0.09925342  0.69145327  0.63605606  1
  Ti  Ti142  1  0.80513135  0.19240259  0.50220636  1
  Ti  Ti143  1  0.59742415  0.81026000  0.49372567  1
  Ti  Ti144  1  0.40000598  0.00115445  0.24694391  1
  Ti  Ti145  1  0.10623748  0.50020176  0.37848486  1
  Ti  Ti146  1  0.60853713  0.40149739  -0.00599713  1
  Ti  Ti147  1  0.59097932  0.58442083  0.23612665  1
  Ti  Ti148  1  0.00346057  0.19815093  0.49271514  1
  Ti  Ti149  1  0.50514022  0.31102367  0.37571015  1
  Ti  Ti150  1  0.89283429  0.90683656  0.60624940  1
  Ti  Ti151  1  0.82199684  0.57468157  0.72993354  1
  Ti  Ti152  1  0.50164525  0.10174796  0.13059088  1
  Ti  Ti153  1  0.69511247  0.90158653  0.62030016  1
  Ti  Ti154  1  0.20578487  0.59264437  0.51954776  1
  Ti  Ti155  1  0.50643002  0.69465212  0.87077871  1
  Ti  Ti156  1  -0.00199255  0.01487027  0.49696432  1
  Ti  Ti157  1  0.71354988  0.50052862  0.86400983  1
  Ti  Ti158  1  0.20167959  0.80468983  0.73699359  1
  Ti  Ti159  1  0.29554957  0.10611394  0.12715586  1
  Mo  Mo160  1  0.40191919  -0.00291709  0.73362937  1
  Mo  Mo161  1  0.80321933  0.39868437  0.75419396  1
  Mo  Mo162  1  0.90108335  0.29482467  0.86106212  1
  Mo  Mo163  1  0.30511722  0.09848976  0.60883416  1
  Mo  Mo164  1  0.70760592  0.49664755  0.63930386  1
  Mo  Mo165  1  0.89740606  0.50117794  0.12330342  1
  Mo  Mo166  1  0.80375748  0.20462456  0.24874799  1
  Mo  Mo167  1  0.39892975  -0.00079740  0.50159035  1
  Mo  Mo168  1  0.60422955  0.59721633  0.52658557  1
  Mo  Mo169  1  0.41100130  0.60668171  -0.02393135  1
  Mo  Mo170  1  0.29015330  0.50261831  0.63486557  1
  Mo  Mo171  1  0.49025813  0.90066545  0.36791884  1
  Mo  Mo172  1  0.90015300  0.69238460  0.63628335  1
  Mo  Mo173  1  0.29673899  0.90748313  0.12824321  1
  Mo  Mo174  1  0.49508543  0.10265381  0.35402067  1
  Mo  Mo175  1  0.00340394  0.39836420  0.48574537  1
  Mo  Mo176  1  0.40334429  0.39763367  -0.01082462  1
  Mo  Mo177  1  0.79788544  -0.00475663  0.26372729  1
  Mo  Mo178  1  0.90140365  0.10330333  0.60135094  1
  Mo  Mo179  1  0.90566373  0.48844200  0.60937590  1
  Mo  Mo180  1  -0.00342156  0.80191291  0.25773584  1
  Mo  Mo181  1  0.60303150  0.40187304  0.24190822  1
  Mo  Mo182  1  0.09297164  0.11129061  0.62243656  1
  Mo  Mo183  1  0.69315838  0.09776117  0.87689684  1
  Mo  Mo184  1  0.30945452  0.89669608  0.63662134  1
  Mo  Mo185  1  0.10388387  0.30213419  0.38040211  1
  Mo  Mo186  1  0.38997576  0.60188962  0.52076381  1
  Mo  Mo187  1  0.00552114  0.59568535  0.74069995  1
  Mo  Mo188  1  0.79396417  0.00043525  0.71764128  1
  Mo  Mo189  1  0.39806961  0.79989283  0.26733923  1
  Mo  Mo190  1  0.90404419  0.90218067  0.87511312  1
  Mo  Mo191  1  0.10708800  0.29878363  0.12737706  1
  Mo  Mo192  1  0.89556793  0.50448277  0.88692998  1
  Mo  Mo193  1  0.19114600  0.19735456  0.74972455  1
  Mo  Mo194  1  0.51118843  0.50356321  0.10302772  1
  Mo  Mo195  1  0.50208490  0.50145675  0.62464190  1
  Mo  Mo196  1  0.50308704  0.09609358  0.62818031  1
  Mo  Mo197  1  0.89148851  0.69133010  0.36507277  1
  Mo  Mo198  1  0.00592917  0.19520473  0.26963681  1
  Mo  Mo199  1  0.09843900  0.70511456  0.12232789  1
