# generated using pymatgen
data_HfZrTaTiMo
_symmetry_space_group_name_H-M   'P 1'
_cell_length_a   15.92318415
_cell_length_b   15.92999070
_cell_length_c   15.21581894
_cell_angle_alpha   90.09240539
_cell_angle_beta   90.00445902
_cell_angle_gamma   89.96574886
_symmetry_Int_Tables_number   1
_chemical_formula_structural   HfZrTaTiMo
_chemical_formula_sum   'Hf40 Zr40 Ta40 Ti40 Mo40'
_cell_volume   3859.58071660
_cell_formula_units_Z   40
loop_
 _symmetry_equiv_pos_site_id
 _symmetry_equiv_pos_as_xyz
  1  'x, y, z'
loop_
 _atom_site_type_symbol
 _atom_site_label
 _atom_site_symmetry_multiplicity
 _atom_site_fract_x
 _atom_site_fract_y
 _atom_site_fract_z
 _atom_site_occupancy
  Hf  Hf0  1  0.60199358  0.20469336  0.23862516  1
  Hf  Hf1  1  0.19691378  0.19053918  0.76526021  1
  Hf  Hf2  1  0.50749626  0.49648083  0.37767959  1
  Hf  Hf3  1  0.39424501  0.40151868  0.02062697  1
  Hf  Hf4  1  0.48095859  0.50116988  0.86891947  1
  Hf  Hf5  1  0.09831321  0.30311283  0.87538295  1
  Hf  Hf6  1  0.59801540  0.80614665  0.50963633  1
  Hf  Hf7  1  0.69062356  0.68780093  0.13630026  1
  Hf  Hf8  1  0.89603274  0.29109088  0.62267537  1
  Hf  Hf9  1  0.59678794  0.81318584  0.72829069  1
  Hf  Hf10  1  0.90699052  0.91242283  0.62537190  1
  Hf  Hf11  1  0.00297189  0.59900520  0.26536854  1
  Hf  Hf12  1  0.01009451  0.40216574  0.01042019  1
  Hf  Hf13  1  0.10903659  0.90792652  0.62651356  1
  Hf  Hf14  1  0.30177377  0.89910104  0.62735227  1
  Hf  Hf15  1  0.11585943  0.49606661  0.61011837  1
  Hf  Hf16  1  0.30921879  0.29102943  0.63962342  1
  Hf  Hf17  1  0.30360099  0.68653374  0.61310259  1
  Hf  Hf18  1  0.90662881  0.89073664  0.13130759  1
  Hf  Hf19  1  0.10480704  0.69974192  0.13473593  1
  Hf  Hf20  1  0.10785379  0.48941706  0.38218828  1
  Hf  Hf21  1  0.30781227  0.50010231  0.38353422  1
  Hf  Hf22  1  0.89502700  0.89558148  0.87714057  1
  Hf  Hf23  1  0.69002134  0.30479567  0.61554329  1
  Hf  Hf24  1  0.39537793  0.00455646  0.50010073  1
  Hf  Hf25  1  0.80096680  0.80252914  0.73963309  1
  Hf  Hf26  1  0.30473384  0.11075415  0.12071589  1
  Hf  Hf27  1  0.69853962  0.69073516  0.62483400  1
  Hf  Hf28  1  0.39424404  0.60277764  0.01127499  1
  Hf  Hf29  1  0.79722369  0.80036027  0.50800693  1
  Hf  Hf30  1  0.79538190  0.20024572  0.76572163  1
  Hf  Hf31  1  0.89085480  0.70132907  0.37003369  1
  Hf  Hf32  1  0.61004053  0.39341959  0.24361996  1
  Hf  Hf33  1  0.89992131  0.90552135  0.37113157  1
  Hf  Hf34  1  0.31293931  0.89042489  0.87398899  1
  Hf  Hf35  1  0.10484119  0.88833333  0.88017903  1
  Hf  Hf36  1  0.60086508  0.59973578  -0.00581074  1
  Hf  Hf37  1  0.20084334  0.79525498  0.48601533  1
  Hf  Hf38  1  0.00400334  0.79981144  0.50147338  1
  Hf  Hf39  1  0.29956380  0.69937764  0.14051878  1
  Zr  Zr40  1  0.00523744  0.00509273  0.76634418  1
  Zr  Zr41  1  0.29025369  0.09421236  0.63528374  1
  Zr  Zr42  1  0.49549741  0.89816614  0.38467152  1
  Zr  Zr43  1  0.59511830  0.00315310  0.74326069  1
  Zr  Zr44  1  0.89309163  0.69036649  0.14108432  1
  Zr  Zr45  1  0.59572585  0.20318564  -0.00324534  1
  Zr  Zr46  1  0.78305933  0.80947273  0.25128390  1
  Zr  Zr47  1  0.50305620  0.10228726  0.36749252  1
  Zr  Zr48  1  -0.00301018  0.00186614  0.00503950  1
  Zr  Zr49  1  0.68011490  0.49563891  0.85710699  1
  Zr  Zr50  1  0.10264663  0.28642968  0.62409142  1
  Zr  Zr51  1  0.81267865  0.59571299  0.73986013  1
  Zr  Zr52  1  0.79752510  0.40155811  0.74867882  1
  Zr  Zr53  1  0.31042868  0.68587748  0.85930783  1
  Zr  Zr54  1  0.39016650  0.20109953  0.49032552  1
  Zr  Zr55  1  0.58036725  0.79454224  0.24768132  1
  Zr  Zr56  1  0.40122917  -0.00774988  0.23728260  1
  Zr  Zr57  1  0.10797627  0.68337829  0.86116523  1
  Zr  Zr58  1  0.60491606  0.00034441  0.23117761  1
  Zr  Zr59  1  0.00516332  0.58999169  0.00294429  1
  Zr  Zr60  1  0.79103430  0.01351064  0.23856483  1
  Zr  Zr61  1  0.09287113  0.10868576  0.11788671  1
  Zr  Zr62  1  0.29777422  0.32156405  0.86741945  1
  Zr  Zr63  1  0.19866579  -0.00363051  0.24740252  1
  Zr  Zr64  1  0.50358645  0.70882500  0.86600705  1
  Zr  Zr65  1  -0.00105901  0.78528022  -0.00444821  1
  Zr  Zr66  1  0.00086021  0.19391823  0.48255174  1
  Zr  Zr67  1  0.51018113  0.51570335  0.13855922  1
  Zr  Zr68  1  0.88741259  0.48414192  0.36767458  1
  Zr  Zr69  1  0.40554396  0.38767383  0.24001179  1
  Zr  Zr70  1  -0.00121582  0.40156175  0.73746813  1
  Zr  Zr71  1  0.59097182  0.20530646  0.76136857  1
  Zr  Zr72  1  0.79692197  0.40754772  -0.00696191  1
  Zr  Zr73  1  0.79959302  0.00829843  0.49924310  1
  Zr  Zr74  1  0.69113549  0.89470561  0.88736081  1
  Zr  Zr75  1  0.80339768  0.59850753  -0.01452344  1
  Zr  Zr76  1  -0.00681312  0.59979296  0.50418823  1
  Zr  Zr77  1  0.90034144  0.28277138  0.11116708  1
  Zr  Zr78  1  0.70616939  0.11314984  0.62001251  1
  Zr  Zr79  1  0.79777755  0.00871349  0.01706712  1
  Ta  Ta80  1  0.89595824  0.49258681  0.14424182  1
  Ta  Ta81  1  0.09701373  0.09453466  0.62757639  1
  Ta  Ta82  1  0.20283404  0.21445737  0.00718243  1
  Ta  Ta83  1  0.20393584  0.61030889  0.27599753  1
  Ta  Ta84  1  0.90438458  0.29519561  0.88163756  1
  Ta  Ta85  1  0.79476343  0.21135620  0.25835251  1
  Ta  Ta86  1  0.69291578  0.69148840  0.37659663  1
  Ta  Ta87  1  0.69941537  0.31164422  0.38792567  1
  Ta  Ta88  1  0.69543317  0.09456120  0.88826045  1
  Ta  Ta89  1  0.10954795  0.89253473  0.11750921  1
  Ta  Ta90  1  0.40873214  0.79918430  0.01490861  1
  Ta  Ta91  1  0.49548826  0.10899850  0.11346433  1
  Ta  Ta92  1  0.20212356  0.40391818  0.02704528  1
  Ta  Ta93  1  0.20604238  -0.00176684  -0.00487997  1
  Ta  Ta94  1  0.10513536  0.49980352  0.15056170  1
  Ta  Ta95  1  0.00331013  0.00046768  0.24819329  1
  Ta  Ta96  1  0.79482495  0.00292405  0.75046953  1
  Ta  Ta97  1  0.60183762  0.59474203  0.49732110  1
  Ta  Ta98  1  -0.00294555  0.20133086  0.25644623  1
  Ta  Ta99  1  0.89765777  0.10178270  0.36107186  1
  Ta  Ta100  1  0.40325319  0.00120030  -0.00011386  1
  Ta  Ta101  1  0.29868531  0.30077077  0.36216002  1
  Ta  Ta102  1  0.20239278  0.80408008  0.26722305  1
  Ta  Ta103  1  0.00304905  0.59494516  0.73164436  1
  Ta  Ta104  1  0.20291525  0.79544657  0.74705863  1
  Ta  Ta105  1  0.91047251  0.10610863  0.63586228  1
  Ta  Ta106  1  0.10544714  0.30210211  0.36895416  1
  Ta  Ta107  1  0.12140940  0.49027852  0.86314176  1
  Ta  Ta108  1  0.19802797  0.21148386  0.23927540  1
  Ta  Ta109  1  0.50457452  0.30146893  0.38363985  1
  Ta  Ta110  1  0.20414898  -0.00171059  0.77385735  1
  Ta  Ta111  1  0.59602161  0.00456716  0.51898021  1
  Ta  Ta112  1  0.71013236  0.50267880  0.14131452  1
  Ta  Ta113  1  0.48627053  0.11496064  0.63429646  1
  Ta  Ta114  1  0.49201331  0.31009299  0.88081843  1
  Ta  Ta115  1  0.11067898  0.69398463  0.62595450  1
  Ta  Ta116  1  0.79347708  0.78835451  0.00114001  1
  Ta  Ta117  1  0.21087543  0.78797683  -0.00364141  1
  Ta  Ta118  1  0.00107334  0.78943163  0.73801738  1
  Ta  Ta119  1  0.20399637  0.58670180  0.00591543  1
  Ti  Ti120  1  0.30405590  0.89843039  0.37900780  1
  Ti  Ti121  1  0.69225354  0.90915282  0.38112886  1
  Ti  Ti122  1  0.58945403  0.20434270  0.50400398  1
  Ti  Ti123  1  0.29928160  0.10658026  0.35501086  1
  Ti  Ti124  1  0.70451489  0.30286845  0.10866472  1
  Ti  Ti125  1  0.69101716  0.30865128  0.88242338  1
  Ti  Ti126  1  0.38659936  0.42190493  0.73270764  1
  Ti  Ti127  1  0.57678844  0.39902156  0.73098758  1
  Ti  Ti128  1  0.30851480  0.10637253  0.88729830  1
  Ti  Ti129  1  0.40667960  0.39189833  0.50696412  1
  Ti  Ti130  1  0.91687417  0.49693394  0.87052271  1
  Ti  Ti131  1  0.49239725  0.69763087  0.61121277  1
  Ti  Ti132  1  0.79801607  0.59352389  0.50172210  1
  Ti  Ti133  1  0.22129337  0.57554921  0.73992548  1
  Ti  Ti134  1  0.68564598  0.89158680  0.10580233  1
  Ti  Ti135  1  0.40837150  0.80221096  0.73462366  1
  Ti  Ti136  1  0.41368689  0.61995198  0.26864908  1
  Ti  Ti137  1  0.90326242  0.69683994  0.86407200  1
  Ti  Ti138  1  0.00748117  0.00626940  0.48694824  1
  Ti  Ti139  1  0.39843525  0.80187190  0.24564208  1
  Ti  Ti140  1  0.50758420  0.90463133  0.89327869  1
  Ti  Ti141  1  0.21389543  0.38319463  0.50468036  1
  Ti  Ti142  1  0.19606030  0.00443584  0.48367043  1
  Ti  Ti143  1  0.29538570  0.50673261  0.15535429  1
  Ti  Ti144  1  -0.00016329  0.38573487  0.24768696  1
  Ti  Ti145  1  0.69397316  0.10756476  0.38386632  1
  Ti  Ti146  1  0.01870115  0.80612900  0.26778740  1
  Ti  Ti147  1  -0.00656487  0.39178135  0.49943896  1
  Ti  Ti148  1  0.80584858  0.20621925  0.48270588  1
  Ti  Ti149  1  0.09775554  0.10628219  0.89284860  1
  Ti  Ti150  1  0.69204587  0.49748725  0.62228706  1
  Ti  Ti151  1  0.19972768  0.19248536  0.48925263  1
  Ti  Ti152  1  0.40561144  0.00556744  0.76211471  1
  Ti  Ti153  1  0.79714855  0.40589002  0.50507579  1
  Ti  Ti154  1  0.69625159  0.70151030  0.86344263  1
  Ti  Ti155  1  0.89973727  0.10582777  0.87828625  1
  Ti  Ti156  1  0.10386794  0.10146088  0.36184627  1
  Ti  Ti157  1  0.58427317  0.59853644  0.73675876  1
  Ti  Ti158  1  0.29633203  0.89586950  0.11591509  1
  Ti  Ti159  1  0.49100041  0.50487859  0.60982840  1
  Mo  Mo160  1  0.79482643  0.59318896  0.26377664  1
  Mo  Mo161  1  0.09983545  0.30387269  0.13335679  1
  Mo  Mo162  1  -0.00013232  0.20030802  -0.00830063  1
  Mo  Mo163  1  0.89841372  0.10457267  0.14326002  1
  Mo  Mo164  1  0.40566880  0.60005730  0.49598794  1
  Mo  Mo165  1  0.79710479  0.38808480  0.24199440  1
  Mo  Mo166  1  0.90400604  0.69857197  0.62237010  1
  Mo  Mo167  1  0.50039135  0.29935568  0.10863008  1
  Mo  Mo168  1  0.59597959  0.40138419  0.01363153  1
  Mo  Mo169  1  0.40216726  0.20080155  0.25722373  1
  Mo  Mo170  1  0.39659878  0.20506067  -0.01262473  1
  Mo  Mo171  1  -0.00235810  0.19374922  0.76414905  1
  Mo  Mo172  1  0.60125374  0.59867849  0.27276848  1
  Mo  Mo173  1  0.49795604  0.70259887  0.12607840  1
  Mo  Mo174  1  0.49807903  0.90253868  0.11112417  1
  Mo  Mo175  1  0.89852260  0.29945336  0.37690386  1
  Mo  Mo176  1  0.59381687  0.00160943  0.01085846  1
  Mo  Mo177  1  0.48927672  0.91111514  0.61980716  1
  Mo  Mo178  1  0.29559270  0.50047639  0.87856117  1
  Mo  Mo179  1  0.20332910  0.39955886  0.73217861  1
  Mo  Mo180  1  0.70116834  0.49780972  0.37440719  1
  Mo  Mo181  1  0.20148248  0.40294940  0.24720294  1
  Mo  Mo182  1  0.20052515  0.60111307  0.48374911  1
  Mo  Mo183  1  0.39992437  0.80206943  0.50633843  1
  Mo  Mo184  1  0.31070548  0.70665296  0.37404997  1
  Mo  Mo185  1  0.40304943  0.19535171  0.77199307  1
  Mo  Mo186  1  0.49396108  0.30195831  0.62406299  1
  Mo  Mo187  1  0.40552465  0.59556058  0.72642548  1
  Mo  Mo188  1  0.59867390  0.40111074  0.50852676  1
  Mo  Mo189  1  0.59787130  0.79256720  0.00678099  1
  Mo  Mo190  1  0.70367753  0.11786072  0.11043581  1
  Mo  Mo191  1  0.29998904  0.29837966  0.13431171  1
  Mo  Mo192  1  0.49287643  0.09808650  0.88209649  1
  Mo  Mo193  1  0.10036778  0.70211557  0.37566973  1
  Mo  Mo194  1  0.79710012  0.20067469  -0.01599067  1
  Mo  Mo195  1  0.89946295  0.49504616  0.60643355  1
  Mo  Mo196  1  0.49647889  0.69956202  0.39731214  1
  Mo  Mo197  1  0.70158432  0.90691711  0.62238507  1
  Mo  Mo198  1  0.30437128  0.49430723  0.59558489  1
  Mo  Mo199  1  0.10064820  0.90989680  0.38165358  1
