# generated using pymatgen
data_HfZrTaTiMo
_symmetry_space_group_name_H-M   'P 1'
_cell_length_a   15.92147364
_cell_length_b   15.92808586
_cell_length_c   15.20081821
_cell_angle_alpha   89.94224592
_cell_angle_beta   90.01210810
_cell_angle_gamma   90.12439003
_symmetry_Int_Tables_number   1
_chemical_formula_structural   HfZrTaTiMo
_chemical_formula_sum   'Hf40 Zr40 Ta40 Ti40 Mo40'
_cell_volume   3854.89507532
_cell_formula_units_Z   40
loop_
 _symmetry_equiv_pos_site_id
 _symmetry_equiv_pos_as_xyz
  1  'x, y, z'
loop_
 _atom_site_type_symbol
 _atom_site_label
 _atom_site_symmetry_multiplicity
 _atom_site_fract_x
 _atom_site_fract_y
 _atom_site_fract_z
 _atom_site_occupancy
  Hf  Hf0  1  0.90283571  0.10885425  0.12377652  1
  Hf  Hf1  1  0.89582844  0.69389588  0.11077810  1
  Hf  Hf2  1  0.30865844  0.50982997  0.34928678  1
  Hf  Hf3  1  0.00179701  0.59435663  0.48548049  1
  Hf  Hf4  1  0.00346553  -0.00163647  0.23632517  1
  Hf  Hf5  1  0.09014656  0.10057914  0.88133535  1
  Hf  Hf6  1  0.19180107  0.40278297  -0.00767481  1
  Hf  Hf7  1  0.60011340  0.19381337  -0.01546795  1
  Hf  Hf8  1  0.52035203  0.12409719  0.37490881  1
  Hf  Hf9  1  0.80778329  0.79305235  0.26115462  1
  Hf  Hf10  1  0.09678303  0.90636674  0.87620621  1
  Hf  Hf11  1  0.07601458  0.70083549  0.88984541  1
  Hf  Hf12  1  0.69516301  0.68420583  0.37398793  1
  Hf  Hf13  1  0.78978675  0.39450991  0.24923172  1
  Hf  Hf14  1  0.50102741  0.51231696  0.89019501  1
  Hf  Hf15  1  0.59815595  0.19150859  0.74595187  1
  Hf  Hf16  1  0.70780931  0.68999361  0.62250511  1
  Hf  Hf17  1  0.10790591  0.49665573  0.35096264  1
  Hf  Hf18  1  0.50915892  0.70051766  0.88283189  1
  Hf  Hf19  1  0.39463426  0.60704125  0.74377455  1
  Hf  Hf20  1  0.60669804  0.81250463  0.00647343  1
  Hf  Hf21  1  0.10378721  0.70303435  0.62223370  1
  Hf  Hf22  1  0.70448007  0.89670350  0.85192413  1
  Hf  Hf23  1  0.50005392  0.89740009  0.37449259  1
  Hf  Hf24  1  0.69891103  0.69585018  0.12257742  1
  Hf  Hf25  1  0.38979551  0.42056469  0.75797829  1
  Hf  Hf26  1  0.20637787  0.80193174  0.76640405  1
  Hf  Hf27  1  0.80314514  -0.01888449  0.01132742  1
  Hf  Hf28  1  0.09223429  0.28936135  0.12289385  1
  Hf  Hf29  1  0.39409165  0.80438624  0.76470065  1
  Hf  Hf30  1  0.70306877  0.89954073  0.38515780  1
  Hf  Hf31  1  0.81800352  0.78122400  0.74611146  1
  Hf  Hf32  1  0.90455471  0.88882149  0.87807197  1
  Hf  Hf33  1  0.29901450  0.90479654  0.60425375  1
  Hf  Hf34  1  0.29941649  0.30496338  0.63765921  1
  Hf  Hf35  1  0.79368834  0.39582550  0.50347713  1
  Hf  Hf36  1  0.77866239  0.18368963  0.25862921  1
  Hf  Hf37  1  0.41217710  0.40468597  0.22042905  1
  Hf  Hf38  1  0.29606594  0.51331340  0.11939823  1
  Hf  Hf39  1  0.19417290  -0.00237560  0.01483035  1
  Zr  Zr40  1  -0.00504980  0.39938639  0.50773881  1
  Zr  Zr41  1  0.70413819  0.49927701  0.11842507  1
  Zr  Zr42  1  0.39331482  0.58992454  0.51289491  1
  Zr  Zr43  1  0.00247605  0.79605435  0.25640506  1
  Zr  Zr44  1  0.50516735  0.10179370  0.12404233  1
  Zr  Zr45  1  0.00537723  0.82006762  0.03337659  1
  Zr  Zr46  1  -0.00025045  -0.00734545  0.72799854  1
  Zr  Zr47  1  0.80716987  0.38821449  -0.01432691  1
  Zr  Zr48  1  -0.00486450  0.39727272  0.24190459  1
  Zr  Zr49  1  0.30301542  0.11825500  0.12035675  1
  Zr  Zr50  1  0.70050044  0.69342765  0.87265107  1
  Zr  Zr51  1  0.89870088  0.08869575  0.86502616  1
  Zr  Zr52  1  0.50286276  0.48409647  0.37707382  1
  Zr  Zr53  1  0.10349135  0.29634547  0.37174514  1
  Zr  Zr54  1  0.20768597  0.79994864  0.01085342  1
  Zr  Zr55  1  0.21014059  0.41602084  0.50878889  1
  Zr  Zr56  1  0.49393037  0.68694578  0.36585508  1
  Zr  Zr57  1  0.19876957  0.01314162  0.25226499  1
  Zr  Zr58  1  0.69658118  0.07859524  0.86015673  1
  Zr  Zr59  1  0.19832748  0.61011127  0.48544376  1
  Zr  Zr60  1  0.40499353  0.20805041  0.49823779  1
  Zr  Zr61  1  0.90024879  0.28945597  0.37033395  1
  Zr  Zr62  1  0.90517714  0.09677822  0.38117894  1
  Zr  Zr63  1  0.40327830  0.01559638  0.26914226  1
  Zr  Zr64  1  0.67310182  0.29252648  0.37949032  1
  Zr  Zr65  1  0.31384642  0.89900053  0.14982507  1
  Zr  Zr66  1  0.40524970  -0.00682734  -0.00554958  1
  Zr  Zr67  1  0.19431761  0.20187430  0.76146569  1
  Zr  Zr68  1  0.60388750  0.39638998  -0.00498385  1
  Zr  Zr69  1  0.09921621  0.30739025  0.63810608  1
  Zr  Zr70  1  0.40874885  0.80028551  0.01052436  1
  Zr  Zr71  1  0.10482799  0.91264866  0.38409261  1
  Zr  Zr72  1  0.11085638  0.89721799  0.60960103  1
  Zr  Zr73  1  0.49274534  0.30185608  0.64590960  1
  Zr  Zr74  1  0.79814657  0.19940206  -0.01631863  1
  Zr  Zr75  1  0.49341646  0.89761453  0.61914959  1
  Zr  Zr76  1  -0.01946459  0.60781340  0.74948030  1
  Zr  Zr77  1  0.59876519  0.79017309  0.50117963  1
  Zr  Zr78  1  0.20281673  0.60219022  0.76800227  1
  Zr  Zr79  1  0.30836946  0.31518690  0.37456523  1
  Ta  Ta80  1  0.19681722  0.20737402  -0.00892930  1
  Ta  Ta81  1  0.00367691  0.78900785  0.48357078  1
  Ta  Ta82  1  0.39094413  -0.00128449  0.75576208  1
  Ta  Ta83  1  0.51424053  0.90536147  0.14696968  1
  Ta  Ta84  1  0.70099372  0.89861652  0.14083407  1
  Ta  Ta85  1  0.09776947  0.11048844  0.39119286  1
  Ta  Ta86  1  0.20147706  0.79892044  0.25362900  1
  Ta  Ta87  1  0.80047948  0.00017977  0.51082570  1
  Ta  Ta88  1  0.61832526  0.01328317  0.26473605  1
  Ta  Ta89  1  0.89743612  0.69568436  0.60052186  1
  Ta  Ta90  1  0.59305098  0.39759379  0.52181097  1
  Ta  Ta91  1  0.89932955  0.89886150  0.38998811  1
  Ta  Ta92  1  0.70242381  0.49893479  0.63717624  1
  Ta  Ta93  1  0.29851429  0.09917217  0.87968185  1
  Ta  Ta94  1  0.49312724  0.29915707  0.86744957  1
  Ta  Ta95  1  0.70335443  0.30398317  0.64029104  1
  Ta  Ta96  1  0.69588718  0.08958326  0.11523883  1
  Ta  Ta97  1  0.69740187  0.30145400  0.85094426  1
  Ta  Ta98  1  0.49623048  0.09608029  0.86550358  1
  Ta  Ta99  1  0.39760235  0.00885052  0.48660968  1
  Ta  Ta100  1  0.40625957  0.21931141  0.25167806  1
  Ta  Ta101  1  0.60121409  0.00970224  0.50736183  1
  Ta  Ta102  1  0.20693108  -0.00010751  0.75446255  1
  Ta  Ta103  1  0.10048562  0.50679368  0.63877256  1
  Ta  Ta104  1  -0.00441752  0.20120180  0.52217499  1
  Ta  Ta105  1  0.10933119  0.09847728  0.61766214  1
  Ta  Ta106  1  -0.00679578  0.60260627  0.25083385  1
  Ta  Ta107  1  0.29926784  0.71463746  0.61537380  1
  Ta  Ta108  1  0.91852232  0.50097557  0.89148594  1
  Ta  Ta109  1  0.20183559  0.20441387  0.50706897  1
  Ta  Ta110  1  0.89295366  0.49743834  0.36850312  1
  Ta  Ta111  1  0.51538596  0.91084201  0.86153811  1
  Ta  Ta112  1  0.39326168  0.39987678  -0.00188606  1
  Ta  Ta113  1  0.80377725  -0.00531889  0.25272463  1
  Ta  Ta114  1  0.70482176  0.89457152  0.62556131  1
  Ta  Ta115  1  0.90262594  0.49865234  0.11515913  1
  Ta  Ta116  1  0.60588139  0.19902992  0.52830675  1
  Ta  Ta117  1  0.79713499  0.19839313  0.51665905  1
  Ta  Ta118  1  0.80928578  0.40732095  0.75617464  1
  Ta  Ta119  1  0.19399746  0.59986302  -0.00561163  1
  Ti  Ti120  1  0.10927452  0.69081597  0.13287545  1
  Ti  Ti121  1  0.20966578  0.39135723  0.22698518  1
  Ti  Ti122  1  0.49739122  0.29404292  0.10448151  1
  Ti  Ti123  1  0.69008740  0.49397397  0.37214977  1
  Ti  Ti124  1  0.70524413  0.08890131  0.63666828  1
  Ti  Ti125  1  0.89705599  0.88498759  0.60538187  1
  Ti  Ti126  1  0.00119493  0.79785262  0.73920813  1
  Ti  Ti127  1  0.30024071  0.30201394  0.87098838  1
  Ti  Ti128  1  0.70103896  0.50513277  0.86412157  1
  Ti  Ti129  1  0.89676975  0.09813349  0.62863956  1
  Ti  Ti130  1  0.59605996  0.79306935  0.73799087  1
  Ti  Ti131  1  0.49084836  0.70372632  0.61671419  1
  Ti  Ti132  1  0.31162183  0.69000124  0.89860025  1
  Ti  Ti133  1  0.80256082  0.59705359  -0.01569625  1
  Ti  Ti134  1  -0.00950290  0.21177735  -0.01178754  1
  Ti  Ti135  1  0.30737362  0.70166333  0.35090755  1
  Ti  Ti136  1  -0.00687379  0.40770654  0.74623074  1
  Ti  Ti137  1  0.48749591  0.09430152  0.63453804  1
  Ti  Ti138  1  0.20829847  0.79766963  0.47131104  1
  Ti  Ti139  1  0.39536576  0.20560033  -0.01362270  1
  Ti  Ti140  1  0.59183266  0.59666507  0.73579231  1
  Ti  Ti141  1  0.80297288  0.59392031  0.25397275  1
  Ti  Ti142  1  0.29376016  0.11519449  0.37783945  1
  Ti  Ti143  1  0.30133734  0.10258306  0.62826087  1
  Ti  Ti144  1  0.89127699  0.50573162  0.62355093  1
  Ti  Ti145  1  0.79762062  0.59108864  0.48803637  1
  Ti  Ti146  1  0.59292863  0.38646884  0.23234766  1
  Ti  Ti147  1  -0.00004962  0.00254518  0.51025148  1
  Ti  Ti148  1  -0.00717882  0.20514461  0.74262713  1
  Ti  Ti149  1  0.89603035  0.29451844  0.13158620  1
  Ti  Ti150  1  0.07971499  0.31477832  0.87417456  1
  Ti  Ti151  1  0.58562442  0.58435965  0.23002962  1
  Ti  Ti152  1  0.69759346  0.28492426  0.12200342  1
  Ti  Ti153  1  0.19723634  0.41655761  0.76864964  1
  Ti  Ti154  1  0.59691828  0.58542854  0.51311634  1
  Ti  Ti155  1  0.60033754  0.79417852  0.25055251  1
  Ti  Ti156  1  0.19839090  0.20254138  0.24400704  1
  Ti  Ti157  1  0.80596739  0.20280925  0.74502186  1
  Ti  Ti158  1  0.09558190  0.50225273  0.12553941  1
  Ti  Ti159  1  0.59651951  0.40942356  0.75173626  1
  Mo  Mo160  1  0.00712920  0.59439529  0.01794149  1
  Mo  Mo161  1  0.89186040  0.89943670  0.13386827  1
  Mo  Mo162  1  0.30068653  0.50621958  0.89760794  1
  Mo  Mo163  1  0.09455302  0.10818471  0.10557427  1
  Mo  Mo164  1  0.30312814  0.90577208  0.87889965  1
  Mo  Mo165  1  0.00129396  0.00597663  0.01806168  1
  Mo  Mo166  1  0.40424689  0.60591018  0.22868775  1
  Mo  Mo167  1  0.89656173  0.69018319  0.38384908  1
  Mo  Mo168  1  0.90423222  0.30033138  0.85362609  1
  Mo  Mo169  1  0.40309657  0.60570405  0.01704168  1
  Mo  Mo170  1  0.39026757  0.79693853  0.48082181  1
  Mo  Mo171  1  0.39321832  0.19288871  0.76396982  1
  Mo  Mo172  1  0.60142571  -0.00769544  0.00480586  1
  Mo  Mo173  1  0.59284622  -0.00527067  0.72301050  1
  Mo  Mo174  1  0.50230647  0.70255788  0.13539295  1
  Mo  Mo175  1  0.80360789  0.79406978  0.49425270  1
  Mo  Mo176  1  0.30492415  0.89900273  0.37862792  1
  Mo  Mo177  1  0.40435250  0.40701582  0.52015373  1
  Mo  Mo178  1  0.10781370  0.90284781  0.14417481  1
  Mo  Mo179  1  0.40632423  0.79981105  0.25313102  1
  Mo  Mo180  1  0.50296581  0.30777942  0.37918739  1
  Mo  Mo181  1  0.70372034  0.09754779  0.40061192  1
  Mo  Mo182  1  0.80169322  0.59102263  0.75971490  1
  Mo  Mo183  1  0.21018797  0.01752553  0.49173041  1
  Mo  Mo184  1  0.19656990  0.60534289  0.24322482  1
  Mo  Mo185  1  -0.00184416  0.39543131  0.00661132  1
  Mo  Mo186  1  0.00696388  0.19239820  0.24943680  1
  Mo  Mo187  1  0.28880288  0.50781520  0.63122096  1
  Mo  Mo188  1  0.09386026  0.49967694  0.86974357  1
  Mo  Mo189  1  0.50347671  0.50191526  0.10615206  1
  Mo  Mo190  1  0.10233907  0.69833827  0.35996403  1
  Mo  Mo191  1  0.50180696  0.50332685  0.62930066  1
  Mo  Mo192  1  0.60206180  0.60322014  0.01183310  1
  Mo  Mo193  1  0.29932114  0.30050834  0.11481602  1
  Mo  Mo194  1  0.59672483  0.20463479  0.22981923  1
  Mo  Mo195  1  0.80643463  -0.01272106  0.72385805  1
  Mo  Mo196  1  0.30020453  0.69928203  0.13334061  1
  Mo  Mo197  1  0.80049908  0.79666579  -0.00062133  1
  Mo  Mo198  1  0.89821664  0.69984987  0.89877755  1
  Mo  Mo199  1  0.89399963  0.29951433  0.63766006  1
