# generated using pymatgen
data_HfZrTaTiMo
_symmetry_space_group_name_H-M   'P 1'
_cell_length_a   15.92488240
_cell_length_b   15.94053614
_cell_length_c   15.19407300
_cell_angle_alpha   89.97913814
_cell_angle_beta   89.98221767
_cell_angle_gamma   90.02402748
_symmetry_Int_Tables_number   1
_chemical_formula_structural   HfZrTaTiMo
_chemical_formula_sum   'Hf40 Zr40 Ta40 Ti40 Mo40'
_cell_volume   3857.03232657
_cell_formula_units_Z   40
loop_
 _symmetry_equiv_pos_site_id
 _symmetry_equiv_pos_as_xyz
  1  'x, y, z'
loop_
 _atom_site_type_symbol
 _atom_site_label
 _atom_site_symmetry_multiplicity
 _atom_site_fract_x
 _atom_site_fract_y
 _atom_site_fract_z
 _atom_site_occupancy
  Hf  Hf0  1  0.71199825  0.30653131  0.38604289  1
  Hf  Hf1  1  0.89140401  0.69233948  0.12670328  1
  Hf  Hf2  1  0.78771477  0.78672751  0.75442636  1
  Hf  Hf3  1  0.79149305  0.59817640  0.48279440  1
  Hf  Hf4  1  0.41129963  0.60521509  0.76087452  1
  Hf  Hf5  1  0.09294509  0.89167203  0.37129773  1
  Hf  Hf6  1  0.61732855  0.41464011  0.50741944  1
  Hf  Hf7  1  0.49585977  0.31114293  0.61422369  1
  Hf  Hf8  1  -0.01346369  0.58624203  0.50706509  1
  Hf  Hf9  1  0.39716832  0.01168550  0.00282894  1
  Hf  Hf10  1  0.79300505  -0.00413169  0.75909731  1
  Hf  Hf11  1  0.31658849  0.49476892  0.61592957  1
  Hf  Hf12  1  0.51546052  0.30108456  0.37966363  1
  Hf  Hf13  1  0.69769876  0.89691902  0.61803051  1
  Hf  Hf14  1  -0.00344671  0.39414296  -0.01704322  1
  Hf  Hf15  1  0.19525741  0.41462684  0.25175144  1
  Hf  Hf16  1  -0.00153999  0.40121877  0.74175837  1
  Hf  Hf17  1  0.80087750  0.41393102  -0.00949421  1
  Hf  Hf18  1  0.09973085  0.09634899  0.37990597  1
  Hf  Hf19  1  0.21052765  0.20030482  0.00254078  1
  Hf  Hf20  1  0.59149909  0.77955217  0.74816949  1
  Hf  Hf21  1  0.50080503  0.89872064  0.12928647  1
  Hf  Hf22  1  0.90693122  0.30855516  0.13537408  1
  Hf  Hf23  1  0.68893118  0.89635474  0.13112500  1
  Hf  Hf24  1  0.09168257  0.89817927  0.62410946  1
  Hf  Hf25  1  0.10817699  0.10379321  0.13243430  1
  Hf  Hf26  1  0.61334584  0.19363464  0.23690315  1
  Hf  Hf27  1  0.59779241  0.40543602  0.74718152  1
  Hf  Hf28  1  0.00105354  0.20684168  0.74024166  1
  Hf  Hf29  1  0.79924267  0.21054931  -0.00329726  1
  Hf  Hf30  1  0.39928402  0.79545145  0.76117745  1
  Hf  Hf31  1  0.59811007  0.20351626  0.00862702  1
  Hf  Hf32  1  0.69261425  0.89641035  0.35804722  1
  Hf  Hf33  1  0.30535060  0.30468961  0.37539431  1
  Hf  Hf34  1  0.88492718  0.69235470  0.63197628  1
  Hf  Hf35  1  0.20131994  0.78995321  0.24829475  1
  Hf  Hf36  1  0.20283498  -0.00533996  0.75281896  1
  Hf  Hf37  1  0.89701480  0.89619337  0.35655943  1
  Hf  Hf38  1  0.49407086  0.09801890  0.63111722  1
  Hf  Hf39  1  0.59414175  -0.00953596  0.76201468  1
  Zr  Zr40  1  0.40542028  -0.00915323  0.77002049  1
  Zr  Zr41  1  -0.00576497  0.21016944  0.50116318  1
  Zr  Zr42  1  0.30459070  0.10985178  0.86788866  1
  Zr  Zr43  1  0.57883859  -0.00959843  0.49465327  1
  Zr  Zr44  1  0.89106556  0.09967530  0.62512055  1
  Zr  Zr45  1  0.21735441  0.38888051  0.74981332  1
  Zr  Zr46  1  0.90327384  0.69947446  0.35155426  1
  Zr  Zr47  1  0.41274088  0.41511362  0.24780379  1
  Zr  Zr48  1  0.79438428  0.79435137  0.49409003  1
  Zr  Zr49  1  0.89511618  0.88933256  0.13089930  1
  Zr  Zr50  1  0.50230400  0.51762650  0.61947926  1
  Zr  Zr51  1  -0.01313603  0.58837658  -0.00495890  1
  Zr  Zr52  1  0.69719220  0.10489639  0.62049324  1
  Zr  Zr53  1  0.40675326  0.80733538  0.47987110  1
  Zr  Zr54  1  0.09333031  0.89772483  0.12714541  1
  Zr  Zr55  1  0.10914116  0.50040942  0.87076637  1
  Zr  Zr56  1  0.91022777  0.11432796  0.11849667  1
  Zr  Zr57  1  0.30596874  0.51338409  0.38652805  1
  Zr  Zr58  1  0.69066789  0.88448478  0.89827007  1
  Zr  Zr59  1  0.09367984  0.71115257  0.88263118  1
  Zr  Zr60  1  0.00306656  0.00242960  -0.00109827  1
  Zr  Zr61  1  0.29227546  0.90500417  0.12198138  1
  Zr  Zr62  1  0.09901857  0.09186500  0.61950649  1
  Zr  Zr63  1  0.90758383  0.88280205  0.87684565  1
  Zr  Zr64  1  0.30994291  0.90614030  0.61177229  1
  Zr  Zr65  1  0.40914631  0.19012402  0.48652830  1
  Zr  Zr66  1  0.90034795  0.10299321  0.86560950  1
  Zr  Zr67  1  0.78934194  0.02051705  0.24502182  1
  Zr  Zr68  1  0.30173293  0.10244803  0.62003551  1
  Zr  Zr69  1  0.10012503  0.10194995  0.86828181  1
  Zr  Zr70  1  0.29946493  0.30385960  0.13010312  1
  Zr  Zr71  1  0.49938708  0.68899947  0.12318452  1
  Zr  Zr72  1  0.19264474  0.40415954  0.49857379  1
  Zr  Zr73  1  0.21008234  0.60350164  0.74425624  1
  Zr  Zr74  1  0.69581331  0.10913676  0.39884669  1
  Zr  Zr75  1  0.10051257  0.68861414  0.37882322  1
  Zr  Zr76  1  0.20653554  0.79291479  0.73915311  1
  Zr  Zr77  1  0.70758522  0.53335838  0.64289130  1
  Zr  Zr78  1  0.79092885  0.00627105  0.00241633  1
  Zr  Zr79  1  0.09697124  0.29877517  0.12329948  1
  Ta  Ta80  1  0.80058668  0.40141574  0.74647376  1
  Ta  Ta81  1  0.90058972  0.49138419  0.35684743  1
  Ta  Ta82  1  0.39533873  -0.00110487  0.25664290  1
  Ta  Ta83  1  0.60479186  0.40075928  0.24164648  1
  Ta  Ta84  1  0.39163568  0.79339246  0.01342361  1
  Ta  Ta85  1  0.08998933  0.69991623  0.62295182  1
  Ta  Ta86  1  -0.00964547  0.60305273  0.75373694  1
  Ta  Ta87  1  0.50393027  0.69489003  0.90296711  1
  Ta  Ta88  1  0.89680231  0.49657989  0.14173468  1
  Ta  Ta89  1  0.20022849  0.79641696  0.49890991  1
  Ta  Ta90  1  0.30763009  0.49577751  0.88712705  1
  Ta  Ta91  1  0.40617530  0.39393405  0.00002948  1
  Ta  Ta92  1  0.20046703  0.20174362  0.49362981  1
  Ta  Ta93  1  0.90240279  0.89795166  0.63620756  1
  Ta  Ta94  1  0.09367804  0.69996064  0.11696050  1
  Ta  Ta95  1  0.69185784  0.11227517  0.87040043  1
  Ta  Ta96  1  0.00003536  0.20130819  0.27024483  1
  Ta  Ta97  1  0.70879672  0.50534326  0.13535606  1
  Ta  Ta98  1  0.58948326  0.58588393  0.25069550  1
  Ta  Ta99  1  0.01412574  0.58846973  0.24031876  1
  Ta  Ta100  1  0.20130742  0.59876436  0.01066978  1
  Ta  Ta101  1  0.40389909  0.19446891  0.24704682  1
  Ta  Ta102  1  0.50503522  0.49940217  0.88673677  1
  Ta  Ta103  1  0.80815207  0.20359742  0.26016217  1
  Ta  Ta104  1  0.39629255  0.22580337  0.75287697  1
  Ta  Ta105  1  0.39133619  0.79418120  0.24707230  1
  Ta  Ta106  1  0.28962973  0.88915261  0.89406881  1
  Ta  Ta107  1  0.70523429  0.49697083  0.35889945  1
  Ta  Ta108  1  0.30027937  0.69799778  0.37710485  1
  Ta  Ta109  1  0.29949091  0.09804261  0.37065549  1
  Ta  Ta110  1  0.59707756  0.20800264  0.74494962  1
  Ta  Ta111  1  0.29974108  0.69520778  0.89727568  1
  Ta  Ta112  1  0.70017274  0.69709005  0.12852409  1
  Ta  Ta113  1  0.09833425  0.50466191  0.62905504  1
  Ta  Ta114  1  0.69537569  0.30410528  0.86774087  1
  Ta  Ta115  1  0.60110920  0.61030969  0.47872611  1
  Ta  Ta116  1  0.09674733  0.89537784  0.87114500  1
  Ta  Ta117  1  0.59732980  0.78755860  0.49140712  1
  Ta  Ta118  1  0.30856918  0.30321030  0.60584702  1
  Ta  Ta119  1  0.90381691  0.31295946  0.37599299  1
  Ti  Ti120  1  -0.01115239  -0.00569032  0.49220515  1
  Ti  Ti121  1  0.40459908  0.19993097  0.01379488  1
  Ti  Ti122  1  0.88962877  0.69748843  0.88802923  1
  Ti  Ti123  1  0.69676474  0.69432820  0.90388297  1
  Ti  Ti124  1  0.20366893  -0.00048619  0.25741296  1
  Ti  Ti125  1  0.50477358  0.09641666  0.36467562  1
  Ti  Ti126  1  0.20539323  0.20827971  0.74043447  1
  Ti  Ti127  1  -0.00507892  0.01030354  0.25389989  1
  Ti  Ti128  1  0.71094446  0.30737585  0.13073901  1
  Ti  Ti129  1  0.20034799  0.00338296  -0.00332739  1
  Ti  Ti130  1  0.11074917  0.29705310  0.87871599  1
  Ti  Ti131  1  0.49708409  0.88993474  0.62352286  1
  Ti  Ti132  1  0.59461960  0.01081680  -0.00295005  1
  Ti  Ti133  1  0.69845368  0.50607783  0.87017214  1
  Ti  Ti134  1  0.20587018  0.59955949  0.23164895  1
  Ti  Ti135  1  0.39366920  0.59902992  0.24057225  1
  Ti  Ti136  1  -0.00746056  0.79637957  0.50452922  1
  Ti  Ti137  1  0.49751533  0.88589958  0.90022155  1
  Ti  Ti138  1  0.60608271  0.58525240  0.00990954  1
  Ti  Ti139  1  0.31945274  0.69718192  0.60567522  1
  Ti  Ti140  1  0.80687469  -0.00339328  0.49361299  1
  Ti  Ti141  1  0.82192048  0.40932751  0.52060575  1
  Ti  Ti142  1  0.49952682  0.30378451  0.87686660  1
  Ti  Ti143  1  0.50317279  0.89520952  0.34941115  1
  Ti  Ti144  1  0.50285634  0.09262174  0.13597748  1
  Ti  Ti145  1  0.71318419  0.29286066  0.62135060  1
  Ti  Ti146  1  0.19947469  0.60562689  0.51280255  1
  Ti  Ti147  1  0.10409181  0.30351946  0.61752959  1
  Ti  Ti148  1  0.20170155  0.20153258  0.26024040  1
  Ti  Ti149  1  0.30800880  0.50199135  0.10802315  1
  Ti  Ti150  1  0.49614126  0.69376853  0.35776628  1
  Ti  Ti151  1  0.09890073  0.49205105  0.11288679  1
  Ti  Ti152  1  0.09455372  0.30948181  0.37579982  1
  Ti  Ti153  1  0.20818333  -0.00835513  0.48665692  1
  Ti  Ti154  1  0.50143415  0.11500525  0.87051805  1
  Ti  Ti155  1  0.08954816  0.49716734  0.38199673  1
  Ti  Ti156  1  0.89405809  0.29842715  0.86173478  1
  Ti  Ti157  1  0.50218117  0.30371424  0.13070123  1
  Ti  Ti158  1  0.69575679  0.70168756  0.34162385  1
  Ti  Ti159  1  0.60458014  0.39817960  0.00900343  1
  Mo  Mo160  1  0.29472506  0.89918146  0.36816800  1
  Mo  Mo161  1  0.68837242  0.69928619  0.61998181  1
  Mo  Mo162  1  0.79196252  0.20765199  0.76148767  1
  Mo  Mo163  1  0.00843262  0.40261418  0.25144843  1
  Mo  Mo164  1  0.50853951  0.49139413  0.10842494  1
  Mo  Mo165  1  0.40581194  0.40108677  0.76988840  1
  Mo  Mo166  1  0.58983923  0.79024447  0.24910290  1
  Mo  Mo167  1  -0.00317020  0.79454254  0.00825497  1
  Mo  Mo168  1  -0.00118566  0.40350156  0.51360253  1
  Mo  Mo169  1  0.79621235  0.60487889  0.77763398  1
  Mo  Mo170  1  0.00361802  0.79159565  0.24019350  1
  Mo  Mo171  1  0.50771321  0.50266044  0.38444177  1
  Mo  Mo172  1  0.59907489  0.60573124  0.77707051  1
  Mo  Mo173  1  0.60352403  0.20656714  0.52040890  1
  Mo  Mo174  1  0.79276615  0.59296766  -0.00561824  1
  Mo  Mo175  1  0.30736364  0.30295956  0.89134428  1
  Mo  Mo176  1  -0.00099466  -0.00707468  0.75152651  1
  Mo  Mo177  1  0.59136910  0.00508832  0.25232857  1
  Mo  Mo178  1  0.50188378  0.70145024  0.61541832  1
  Mo  Mo179  1  -0.00421979  0.79395800  0.73960351  1
  Mo  Mo180  1  0.40899918  0.40663999  0.48211570  1
  Mo  Mo181  1  0.80023421  0.39543174  0.24499147  1
  Mo  Mo182  1  0.39939135  0.59254214  -0.00067131  1
  Mo  Mo183  1  0.20430929  0.40367964  -0.00218823  1
  Mo  Mo184  1  0.80639926  0.20778623  0.48801621  1
  Mo  Mo185  1  0.19521922  0.79880119  0.00408738  1
  Mo  Mo186  1  0.69693610  0.10734623  0.11145396  1
  Mo  Mo187  1  0.89207056  0.30222748  0.62763429  1
  Mo  Mo188  1  0.79556302  0.78955530  0.01112643  1
  Mo  Mo189  1  0.89763924  0.50307811  0.64131653  1
  Mo  Mo190  1  0.89960768  0.10307612  0.38104316  1
  Mo  Mo191  1  0.30315822  0.10273993  0.14622597  1
  Mo  Mo192  1  0.29555916  0.69249466  0.12218984  1
  Mo  Mo193  1  0.00423000  0.21012801  -0.01949857  1
  Mo  Mo194  1  0.39849459  -0.00352060  0.47104675  1
  Mo  Mo195  1  0.59385280  0.79127894  0.01622333  1
  Mo  Mo196  1  0.79722827  0.59700926  0.25747398  1
  Mo  Mo197  1  0.79379068  0.79815633  0.23936815  1
  Mo  Mo198  1  0.89369016  0.49978222  0.85822833  1
  Mo  Mo199  1  0.40939068  0.61194737  0.49283801  1
