# generated using pymatgen
data_HfZrTaTiMo
_symmetry_space_group_name_H-M   'P 1'
_cell_length_a   15.92679345
_cell_length_b   15.93091554
_cell_length_c   15.20149056
_cell_angle_alpha   90.00822293
_cell_angle_beta   89.96480729
_cell_angle_gamma   89.95834739
_symmetry_Int_Tables_number   1
_chemical_formula_structural   HfZrTaTiMo
_chemical_formula_sum   'Hf40 Zr40 Ta40 Ti40 Mo40'
_cell_volume   3857.04811006
_cell_formula_units_Z   40
loop_
 _symmetry_equiv_pos_site_id
 _symmetry_equiv_pos_as_xyz
  1  'x, y, z'
loop_
 _atom_site_type_symbol
 _atom_site_label
 _atom_site_symmetry_multiplicity
 _atom_site_fract_x
 _atom_site_fract_y
 _atom_site_fract_z
 _atom_site_occupancy
  Hf  Hf0  1  0.50806510  0.30170939  0.37369110  1
  Hf  Hf1  1  0.28980166  0.89962098  0.37767169  1
  Hf  Hf2  1  0.70615075  0.69787757  0.61702939  1
  Hf  Hf3  1  0.89890722  0.30467523  0.36330341  1
  Hf  Hf4  1  0.20693576  -0.00793539  0.72902675  1
  Hf  Hf5  1  -0.00417435  0.20846981  -0.00611218  1
  Hf  Hf6  1  0.79444440  0.81635843  0.00269388  1
  Hf  Hf7  1  0.78846685  0.39913484  0.51588383  1
  Hf  Hf8  1  0.80441900  0.61591902  0.00167498  1
  Hf  Hf9  1  0.09270216  0.08936160  0.13182795  1
  Hf  Hf10  1  0.78955512  0.01015759  -0.01186204  1
  Hf  Hf11  1  0.51111404  0.27699882  0.12548422  1
  Hf  Hf12  1  0.19313768  0.40336374  0.22689270  1
  Hf  Hf13  1  0.09561365  0.69799197  0.37700610  1
  Hf  Hf14  1  0.59024193  0.61335952  0.26242762  1
  Hf  Hf15  1  0.20212512  0.19037204  0.51165750  1
  Hf  Hf16  1  0.41218773  0.80886514  0.00721787  1
  Hf  Hf17  1  0.29816978  0.70726988  0.87046168  1
  Hf  Hf18  1  0.50575444  0.71159799  0.86518370  1
  Hf  Hf19  1  0.51456464  0.49230053  0.61720033  1
  Hf  Hf20  1  0.70399132  0.50515747  0.88661674  1
  Hf  Hf21  1  0.80679103  0.19957487  -0.00245725  1
  Hf  Hf22  1  0.80231819  0.60601866  0.24929278  1
  Hf  Hf23  1  0.18554072  0.39219040  0.00225298  1
  Hf  Hf24  1  0.80732597  0.19514331  0.76414764  1
  Hf  Hf25  1  0.30147663  0.69248325  0.38382685  1
  Hf  Hf26  1  0.60395825  0.39500327  0.00715118  1
  Hf  Hf27  1  0.39505780  0.39649983  0.49839256  1
  Hf  Hf28  1  0.70599363  0.30562288  0.36136103  1
  Hf  Hf29  1  0.90658882  0.29937883  0.63939181  1
  Hf  Hf30  1  0.61684116  0.21074083  0.51004900  1
  Hf  Hf31  1  0.60098599  0.40928757  0.24026547  1
  Hf  Hf32  1  0.50354859  0.90114949  0.85510768  1
  Hf  Hf33  1  0.09696314  0.49247839  0.36934893  1
  Hf  Hf34  1  0.39643292  0.19906392  0.50549641  1
  Hf  Hf35  1  -0.00727284  0.00629200  0.75648776  1
  Hf  Hf36  1  0.29551045  0.51453721  0.10453900  1
  Hf  Hf37  1  0.70523155  0.72006344  0.85597347  1
  Hf  Hf38  1  0.28190088  0.09397558  0.36158279  1
  Hf  Hf39  1  0.19444284  0.80550503  0.51098395  1
  Zr  Zr40  1  0.19080534  0.58730112  0.50545928  1
  Zr  Zr41  1  0.70393701  0.51322703  0.12178027  1
  Zr  Zr42  1  -0.00001934  0.19669650  0.49427230  1
  Zr  Zr43  1  0.18488654  0.59379220  0.76308019  1
  Zr  Zr44  1  0.08048207  0.89131807  0.12853075  1
  Zr  Zr45  1  0.68856206  0.90948158  0.84734807  1
  Zr  Zr46  1  0.30170336  0.90435376  0.87279970  1
  Zr  Zr47  1  0.29816326  0.48980413  0.62792756  1
  Zr  Zr48  1  0.29939838  0.90128988  0.13506774  1
  Zr  Zr49  1  0.50967162  0.30724027  0.63327230  1
  Zr  Zr50  1  0.41412018  -0.01191615  0.26015574  1
  Zr  Zr51  1  0.10686431  0.09601855  0.87297270  1
  Zr  Zr52  1  0.30400259  0.09524858  0.12968092  1
  Zr  Zr53  1  0.29728082  0.29657857  0.36137501  1
  Zr  Zr54  1  0.90742043  0.50766131  0.63153097  1
  Zr  Zr55  1  0.19676980  0.79731182  0.00513504  1
  Zr  Zr56  1  0.08323529  0.89723928  0.62400392  1
  Zr  Zr57  1  0.59329897  0.00390150  0.26448398  1
  Zr  Zr58  1  0.09900971  0.29445500  0.36614229  1
  Zr  Zr59  1  0.19620726  0.78911219  0.24688487  1
  Zr  Zr60  1  0.29293817  0.69877184  0.62653520  1
  Zr  Zr61  1  0.40282233  0.59675295  0.75085317  1
  Zr  Zr62  1  0.38649657  0.00030976  0.51042629  1
  Zr  Zr63  1  0.50695597  0.70016914  0.61116232  1
  Zr  Zr64  1  0.30840282  0.28902948  0.12192306  1
  Zr  Zr65  1  0.69960946  0.30600273  0.87120485  1
  Zr  Zr66  1  0.81222598  0.81040265  0.49733425  1
  Zr  Zr67  1  0.90459472  0.70432963  0.62999241  1
  Zr  Zr68  1  0.60580394  0.17701109  -0.01874493  1
  Zr  Zr69  1  0.40351456  0.40581560  0.23839223  1
  Zr  Zr70  1  0.61058097  0.59041451  0.74726776  1
  Zr  Zr71  1  0.90672243  0.71562733  0.12378208  1
  Zr  Zr72  1  0.09891710  0.30454662  0.63497695  1
  Zr  Zr73  1  0.09581536  0.67839117  0.11171167  1
  Zr  Zr74  1  0.49416123  0.52312768  0.10549900  1
  Zr  Zr75  1  -0.01478000  -0.00539568  -0.01093878  1
  Zr  Zr76  1  0.41399625  0.78819129  0.25877895  1
  Zr  Zr77  1  0.69294960  0.10148124  0.13923249  1
  Zr  Zr78  1  0.19697438  0.39882141  0.76931600  1
  Zr  Zr79  1  0.30103503  0.28986569  0.88091958  1
  Ta  Ta80  1  0.08841385  0.69249598  0.63427544  1
  Ta  Ta81  1  0.80204387  0.20150857  0.24621794  1
  Ta  Ta82  1  0.39321004  0.81285106  0.72527328  1
  Ta  Ta83  1  0.30537009  0.50407733  0.89362095  1
  Ta  Ta84  1  0.42045930  0.18232901  0.25718866  1
  Ta  Ta85  1  0.80317368  0.19974306  0.50729230  1
  Ta  Ta86  1  0.29891742  0.49697753  0.37262963  1
  Ta  Ta87  1  0.90026721  0.09877170  0.62913495  1
  Ta  Ta88  1  0.69928046  0.70454779  0.38440262  1
  Ta  Ta89  1  0.40636003  0.39282742  -0.00375752  1
  Ta  Ta90  1  0.39922442  0.00222325  0.72824669  1
  Ta  Ta91  1  0.70119058  0.90046229  0.62431532  1
  Ta  Ta92  1  0.50176613  0.50108631  0.38496081  1
  Ta  Ta93  1  0.70587835  0.09915051  0.63210423  1
  Ta  Ta94  1  0.40747058  0.40013496  0.76734058  1
  Ta  Ta95  1  0.88827001  0.89232684  0.85355757  1
  Ta  Ta96  1  0.09939866  0.88785127  0.86820577  1
  Ta  Ta97  1  0.50377565  0.50192716  0.88735204  1
  Ta  Ta98  1  0.19942725  -0.00253417  0.00017722  1
  Ta  Ta99  1  0.81512342  0.39407656  0.00969949  1
  Ta  Ta100  1  0.40297121  0.19349239  0.75305723  1
  Ta  Ta101  1  0.40954470  0.18507763  -0.01356550  1
  Ta  Ta102  1  0.50467803  0.10349126  0.62325190  1
  Ta  Ta103  1  0.09653150  0.91002983  0.37496083  1
  Ta  Ta104  1  0.89754779  0.10036676  0.36545095  1
  Ta  Ta105  1  0.00018864  0.40507860  0.77787613  1
  Ta  Ta106  1  0.60367469  0.19751038  0.74917448  1
  Ta  Ta107  1  0.70190470  0.90602025  0.38468009  1
  Ta  Ta108  1  0.20283129  0.19323669  0.74914968  1
  Ta  Ta109  1  0.59500862  0.80740744  0.27373081  1
  Ta  Ta110  1  0.89753447  0.49293013  0.36399297  1
  Ta  Ta111  1  -0.00092262  0.39649488  0.22580063  1
  Ta  Ta112  1  0.91096979  0.50752830  0.11640406  1
  Ta  Ta113  1  0.19589425  0.19321744  0.00260368  1
  Ta  Ta114  1  -0.00335267  0.40471153  0.49813470  1
  Ta  Ta115  1  0.69215142  0.71833134  0.13679488  1
  Ta  Ta116  1  0.88878287  0.91035017  0.14346536  1
  Ta  Ta117  1  0.89987684  0.09607006  0.14331272  1
  Ta  Ta118  1  0.79549126  0.40804675  0.74804049  1
  Ta  Ta119  1  0.60371493  0.00059725  0.50563250  1
  Ti  Ti120  1  0.80307696  0.59190295  0.49281653  1
  Ti  Ti121  1  0.50778174  0.71029033  0.11906128  1
  Ti  Ti122  1  0.90287800  0.50444716  0.88500214  1
  Ti  Ti123  1  -0.00832718  0.79968291  0.26474532  1
  Ti  Ti124  1  0.09145996  0.69856224  0.87806549  1
  Ti  Ti125  1  0.70718925  0.29845280  0.13338643  1
  Ti  Ti126  1  0.08892863  0.49803767  0.63026891  1
  Ti  Ti127  1  0.70633477  0.49732787  0.36710608  1
  Ti  Ti128  1  0.40501676  0.80452433  0.50191645  1
  Ti  Ti129  1  0.50383319  0.29857210  0.87271355  1
  Ti  Ti130  1  0.89886670  0.69475088  0.37596347  1
  Ti  Ti131  1  0.40259627  0.59601605  0.49819830  1
  Ti  Ti132  1  0.30554118  0.09149319  0.87479363  1
  Ti  Ti133  1  0.18922845  0.19989219  0.23466198  1
  Ti  Ti134  1  0.80823888  0.59926560  0.75551289  1
  Ti  Ti135  1  0.70663857  0.10407315  0.37793745  1
  Ti  Ti136  1  0.90282393  0.70603299  0.87010332  1
  Ti  Ti137  1  0.80443822  0.00668090  0.50407831  1
  Ti  Ti138  1  0.09329896  0.09154090  0.36247097  1
  Ti  Ti139  1  0.59440764  -0.01351959  0.00865934  1
  Ti  Ti140  1  -0.00052183  0.79645489  0.75366730  1
  Ti  Ti141  1  0.60505176  0.62429676  -0.00501534  1
  Ti  Ti142  1  0.20151400  0.59482652  0.24760690  1
  Ti  Ti143  1  -0.00510372  0.80275226  0.49269404  1
  Ti  Ti144  1  0.41236213  0.00289617  0.00694798  1
  Ti  Ti145  1  0.30972277  0.69142452  0.11550720  1
  Ti  Ti146  1  0.40055670  0.59946300  0.25894516  1
  Ti  Ti147  1  -0.00040193  0.39560280  0.00204655  1
  Ti  Ti148  1  0.19686584  0.39336508  0.50152280  1
  Ti  Ti149  1  0.30326946  0.29835188  0.64036906  1
  Ti  Ti150  1  -0.00729007  0.00018697  0.49925402  1
  Ti  Ti151  1  0.69589781  0.90194683  0.14271871  1
  Ti  Ti152  1  0.00171827  0.59407330  0.24996273  1
  Ti  Ti153  1  0.50667088  0.08561155  0.85645459  1
  Ti  Ti154  1  -0.00556451  0.59546914  0.49237511  1
  Ti  Ti155  1  0.79512631  0.80474132  0.26253178  1
  Ti  Ti156  1  0.89911369  0.91293590  0.36383891  1
  Ti  Ti157  1  0.09190060  0.10302723  0.62983908  1
  Ti  Ti158  1  0.50778672  0.10248374  0.39560207  1
  Ti  Ti159  1  0.61374197  0.58901958  0.49233115  1
  Mo  Mo160  1  0.59905561  0.40076734  0.76902444  1
  Mo  Mo161  1  0.70345829  0.30209957  0.64328303  1
  Mo  Mo162  1  0.89784637  0.09803363  0.86882378  1
  Mo  Mo163  1  0.29884348  0.10777744  0.63352757  1
  Mo  Mo164  1  0.89994282  0.31015884  0.86937462  1
  Mo  Mo165  1  -0.00334424  0.59777655  0.77013353  1
  Mo  Mo166  1  0.49849234  0.09319055  0.11872962  1
  Mo  Mo167  1  0.79518068  0.00028458  0.26371706  1
  Mo  Mo168  1  0.60468196  0.80296448  0.49548476  1
  Mo  Mo169  1  0.69327175  0.09364956  0.85704236  1
  Mo  Mo170  1  0.60638551  0.80803458  0.00814454  1
  Mo  Mo171  1  0.09498352  0.28922100  0.12530067  1
  Mo  Mo172  1  0.70521788  0.50135450  0.62829253  1
  Mo  Mo173  1  0.19268647  -0.00362746  0.24878916  1
  Mo  Mo174  1  0.60823436  0.40777156  0.48730149  1
  Mo  Mo175  1  0.40613421  0.61138965  -0.01226697  1
  Mo  Mo176  1  0.89782080  0.29868199  0.13317548  1
  Mo  Mo177  1  0.09247006  0.50004631  0.11546639  1
  Mo  Mo178  1  0.09806069  0.29436135  0.87207986  1
  Mo  Mo179  1  0.09497944  0.50153629  0.89804291  1
  Mo  Mo180  1  0.80297590  0.80126624  0.73512479  1
  Mo  Mo181  1  -0.01092429  0.80289458  -0.02228685  1
  Mo  Mo182  1  0.50102908  0.90168220  0.61886616  1
  Mo  Mo183  1  0.19077639  0.79609695  0.74233845  1
  Mo  Mo184  1  0.18018705  0.00791517  0.50505861  1
  Mo  Mo185  1  0.29413885  0.90085466  0.61276339  1
  Mo  Mo186  1  0.89509368  0.90843362  0.63366567  1
  Mo  Mo187  1  -0.00365065  0.60083434  -0.01693001  1
  Mo  Mo188  1  0.60308537  0.19778442  0.26548685  1
  Mo  Mo189  1  0.00449154  0.20328104  0.76365548  1
  Mo  Mo190  1  0.50223251  0.69434488  0.39683087  1
  Mo  Mo191  1  0.79906516  0.00193761  0.74150362  1
  Mo  Mo192  1  0.51449005  0.89447913  0.12201467  1
  Mo  Mo193  1  0.59490442  0.00261938  0.72258527  1
  Mo  Mo194  1  -0.00494085  -0.00302907  0.26010764  1
  Mo  Mo195  1  -0.00161408  0.19797679  0.24896376  1
  Mo  Mo196  1  0.19996500  0.60038264  -0.01471979  1
  Mo  Mo197  1  0.59503327  0.80153902  0.71829689  1
  Mo  Mo198  1  0.50534672  0.89654987  0.40407781  1
  Mo  Mo199  1  0.80585614  0.40548842  0.22858235  1
