# generated using pymatgen
data_HfZrTaTiMo
_symmetry_space_group_name_H-M   'P 1'
_cell_length_a   15.93937398
_cell_length_b   15.92494319
_cell_length_c   15.19917054
_cell_angle_alpha   89.94437621
_cell_angle_beta   89.97587135
_cell_angle_gamma   89.96959341
_symmetry_Int_Tables_number   1
_chemical_formula_structural   HfZrTaTiMo
_chemical_formula_sum   'Hf40 Zr40 Ta40 Ti40 Mo40'
_cell_volume   3858.05785495
_cell_formula_units_Z   40
loop_
 _symmetry_equiv_pos_site_id
 _symmetry_equiv_pos_as_xyz
  1  'x, y, z'
loop_
 _atom_site_type_symbol
 _atom_site_label
 _atom_site_symmetry_multiplicity
 _atom_site_fract_x
 _atom_site_fract_y
 _atom_site_fract_z
 _atom_site_occupancy
  Hf  Hf0  1  0.81024105  -0.00920658  0.48517373  1
  Hf  Hf1  1  0.59783951  0.59277852  0.24333127  1
  Hf  Hf2  1  0.60074933  0.00689600  0.76210686  1
  Hf  Hf3  1  0.59174820  0.78080996  0.75705485  1
  Hf  Hf4  1  0.78943473  0.00115496  -0.01280590  1
  Hf  Hf5  1  -0.00471003  0.80674834  0.51697794  1
  Hf  Hf6  1  0.90381624  0.49216573  0.86939833  1
  Hf  Hf7  1  0.00013321  0.20659277  -0.00255226  1
  Hf  Hf8  1  0.49619614  0.69667786  0.12125705  1
  Hf  Hf9  1  0.31054934  0.30175512  0.60530817  1
  Hf  Hf10  1  0.19992750  0.40511369  0.72503701  1
  Hf  Hf11  1  0.59325417  0.20040932  0.26531582  1
  Hf  Hf12  1  0.28969575  0.10091545  0.13451780  1
  Hf  Hf13  1  0.39783804  0.80035155  0.50362915  1
  Hf  Hf14  1  0.59659824  0.39727679  0.25308140  1
  Hf  Hf15  1  0.49363250  0.30693671  0.88282631  1
  Hf  Hf16  1  0.70971255  0.29127147  0.13358672  1
  Hf  Hf17  1  0.11109326  0.90911662  0.11725717  1
  Hf  Hf18  1  0.69875207  0.29545473  0.61349030  1
  Hf  Hf19  1  0.10332826  0.70312289  0.88220202  1
  Hf  Hf20  1  -0.00979528  0.21222468  0.25496365  1
  Hf  Hf21  1  0.20551913  0.59348250  0.25008588  1
  Hf  Hf22  1  0.70680769  0.09070895  0.62129876  1
  Hf  Hf23  1  0.10268417  0.89803648  0.88200253  1
  Hf  Hf24  1  0.18793824  0.80124540  0.50486392  1
  Hf  Hf25  1  0.19526641  0.20206608  0.49679906  1
  Hf  Hf26  1  0.89414900  0.10485468  0.12632232  1
  Hf  Hf27  1  0.59980923  0.79752974  0.50602501  1
  Hf  Hf28  1  0.80495546  0.19447303  0.74197978  1
  Hf  Hf29  1  0.38767149  0.00374527  0.00446801  1
  Hf  Hf30  1  0.50585531  0.10864354  0.60624519  1
  Hf  Hf31  1  0.00803428  0.39211223  0.00405407  1
  Hf  Hf32  1  0.00540227  0.61150329  0.51587057  1
  Hf  Hf33  1  0.90882551  0.71147056  0.36771355  1
  Hf  Hf34  1  0.48498806  0.29332733  0.11113593  1
  Hf  Hf35  1  0.89795310  0.89349894  0.87894277  1
  Hf  Hf36  1  0.89818602  0.31474530  0.39652763  1
  Hf  Hf37  1  0.41226582  0.40556591  0.74096513  1
  Hf  Hf38  1  0.69767087  0.89647722  0.64147486  1
  Hf  Hf39  1  0.89245228  0.91208150  0.64881971  1
  Zr  Zr40  1  0.69960815  0.09512302  0.14282186  1
  Zr  Zr41  1  0.21647550  0.58759040  -0.00999188  1
  Zr  Zr42  1  0.39768620  0.39991844  0.26262384  1
  Zr  Zr43  1  0.69754172  0.70344558  0.36578481  1
  Zr  Zr44  1  0.77829613  0.59020661  0.75895382  1
  Zr  Zr45  1  0.80485121  0.80554295  0.22780594  1
  Zr  Zr46  1  0.40369129  0.60108390  0.76996684  1
  Zr  Zr47  1  -0.00601860  -0.00646360  0.25805716  1
  Zr  Zr48  1  0.09723913  0.30992050  0.37658312  1
  Zr  Zr49  1  0.60224942  0.40125523  0.01058707  1
  Zr  Zr50  1  0.37864728  0.80481068  -0.00205792  1
  Zr  Zr51  1  0.29091044  0.90699812  0.36645427  1
  Zr  Zr52  1  0.60799842  0.19107803  -0.00357932  1
  Zr  Zr53  1  0.50198711  0.89658086  0.36726793  1
  Zr  Zr54  1  0.59917217  0.59487197  0.50425121  1
  Zr  Zr55  1  0.09888849  0.29765107  0.85157676  1
  Zr  Zr56  1  0.71260534  0.48729365  0.37956325  1
  Zr  Zr57  1  0.48695414  0.11664075  0.87994892  1
  Zr  Zr58  1  0.38907399  0.79628494  0.75615096  1
  Zr  Zr59  1  0.80560786  0.19923575  -0.02060275  1
  Zr  Zr60  1  0.60462814  0.42630108  0.73340916  1
  Zr  Zr61  1  0.39702905  -0.00022312  0.75023684  1
  Zr  Zr62  1  0.60126492  -0.00286462  0.00060919  1
  Zr  Zr63  1  0.80484279  0.60507573  0.23740115  1
  Zr  Zr64  1  0.90021380  0.49815865  0.63260759  1
  Zr  Zr65  1  0.30107647  0.09620445  0.61580684  1
  Zr  Zr66  1  0.29829405  0.70524711  0.36937461  1
  Zr  Zr67  1  0.80204284  0.79822059  0.50971124  1
  Zr  Zr68  1  0.91292716  0.50165981  0.37652217  1
  Zr  Zr69  1  0.31593023  0.51251176  0.60588180  1
  Zr  Zr70  1  0.39498973  0.20420319  0.26754380  1
  Zr  Zr71  1  0.69600782  0.30624103  0.86033050  1
  Zr  Zr72  1  0.29797540  0.29611930  0.86470547  1
  Zr  Zr73  1  0.10165962  0.10472839  0.13623551  1
  Zr  Zr74  1  0.80425688  0.60536028  0.51183629  1
  Zr  Zr75  1  0.49854426  0.89449797  0.88202265  1
  Zr  Zr76  1  0.19270550  0.59935687  0.49612319  1
  Zr  Zr77  1  0.29885224  0.69626237  0.12631788  1
  Zr  Zr78  1  0.90663263  0.49983118  0.12077255  1
  Zr  Zr79  1  0.80884774  0.39163695  -0.00495031  1
  Ta  Ta80  1  0.20008042  -0.00083943  0.75505126  1
  Ta  Ta81  1  0.09377167  0.70499528  0.35672008  1
  Ta  Ta82  1  0.09709155  0.50098265  0.36469675  1
  Ta  Ta83  1  0.02263837  0.40571714  0.52551222  1
  Ta  Ta84  1  0.10471644  0.70290514  0.64600575  1
  Ta  Ta85  1  0.80716107  0.19106784  0.50044273  1
  Ta  Ta86  1  0.29067386  0.30211406  0.12159374  1
  Ta  Ta87  1  0.61028041  0.80129593  0.01480902  1
  Ta  Ta88  1  0.49907355  0.90028661  0.62647200  1
  Ta  Ta89  1  0.80224048  -0.00255297  0.26107006  1
  Ta  Ta90  1  0.49670890  0.90249785  0.12891287  1
  Ta  Ta91  1  0.10159439  0.69722444  0.11562427  1
  Ta  Ta92  1  0.50007902  0.09566726  0.38803566  1
  Ta  Ta93  1  0.00193940  0.19960995  0.72906282  1
  Ta  Ta94  1  0.29045543  0.11105307  0.86812230  1
  Ta  Ta95  1  0.19520978  0.20364432  0.00122276  1
  Ta  Ta96  1  0.38232321  0.41596055  -0.00532660  1
  Ta  Ta97  1  0.49764165  0.69950309  0.36442506  1
  Ta  Ta98  1  0.51361839  0.51181902  0.89153978  1
  Ta  Ta99  1  0.90006146  0.90851293  0.10609937  1
  Ta  Ta100  1  0.69966599  0.89887375  0.36218316  1
  Ta  Ta101  1  -0.00048571  0.19479629  0.51249092  1
  Ta  Ta102  1  0.70519940  0.50254226  0.11763046  1
  Ta  Ta103  1  0.00481479  0.00264707  0.75580987  1
  Ta  Ta104  1  0.00302525  0.60141924  0.75605473  1
  Ta  Ta105  1  0.00550595  0.59556204  -0.00416146  1
  Ta  Ta106  1  0.90730681  0.10043796  0.86067102  1
  Ta  Ta107  1  0.59272135  0.39515894  0.50472744  1
  Ta  Ta108  1  0.10886862  0.49472818  0.13214917  1
  Ta  Ta109  1  0.89689023  0.69535919  0.88382335  1
  Ta  Ta110  1  0.00155920  0.01035501  -0.01053840  1
  Ta  Ta111  1  0.10164287  0.09252498  0.62664883  1
  Ta  Ta112  1  -0.00212381  0.79732379  0.75280389  1
  Ta  Ta113  1  0.20794951  0.60263455  0.75735436  1
  Ta  Ta114  1  -0.00157767  0.79925954  0.22549904  1
  Ta  Ta115  1  0.19768565  0.39777777  -0.00126418  1
  Ta  Ta116  1  0.81069416  0.39087137  0.24391065  1
  Ta  Ta117  1  0.40026065  0.00415831  0.24806567  1
  Ta  Ta118  1  0.48804597  0.68596515  0.62035029  1
  Ta  Ta119  1  0.39925638  0.58886736  0.25987699  1
  Ti  Ti120  1  0.90647757  0.10098919  0.38131305  1
  Ti  Ti121  1  0.39756631  0.80498060  0.24105146  1
  Ti  Ti122  1  0.10178096  0.90254091  0.63858701  1
  Ti  Ti123  1  0.29419257  0.90158568  0.62430737  1
  Ti  Ti124  1  0.59342926  0.20628810  0.74517681  1
  Ti  Ti125  1  0.10515871  0.10779079  0.86117961  1
  Ti  Ti126  1  0.20326314  0.00410398  -0.01374986  1
  Ti  Ti127  1  0.80112076  0.19932302  0.27240817  1
  Ti  Ti128  1  0.60542083  0.80122671  0.23092623  1
  Ti  Ti129  1  -0.00109448  0.79826643  0.00808584  1
  Ti  Ti130  1  0.68857862  0.68213345  0.89399328  1
  Ti  Ti131  1  0.20391305  0.20592174  0.26762978  1
  Ti  Ti132  1  0.20551254  0.80194468  0.75527146  1
  Ti  Ti133  1  0.40016740  -0.00490982  0.49782880  1
  Ti  Ti134  1  0.40418664  0.20513926  0.73481323  1
  Ti  Ti135  1  0.50100076  0.69518212  0.90097860  1
  Ti  Ti136  1  0.19496312  0.80600328  0.23910484  1
  Ti  Ti137  1  0.49423190  0.49964148  0.38830284  1
  Ti  Ti138  1  0.79358272  0.79181807  0.01071492  1
  Ti  Ti139  1  0.48726217  0.50301246  0.11470357  1
  Ti  Ti140  1  0.70103943  0.88678003  0.86861887  1
  Ti  Ti141  1  0.10411202  0.30400722  0.14125611  1
  Ti  Ti142  1  0.69604378  0.09593354  0.38135187  1
  Ti  Ti143  1  0.90296895  0.30089060  0.62063603  1
  Ti  Ti144  1  0.60414273  -0.00947605  0.49763168  1
  Ti  Ti145  1  0.18872036  -0.00547052  0.49590997  1
  Ti  Ti146  1  0.00353174  0.60612555  0.23299360  1
  Ti  Ti147  1  0.10288141  0.49399807  0.86247576  1
  Ti  Ti148  1  0.29910156  0.09790180  0.38226825  1
  Ti  Ti149  1  0.10035608  0.09576719  0.37500050  1
  Ti  Ti150  1  0.59642167  -0.00187033  0.24965234  1
  Ti  Ti151  1  0.00127863  -0.00183140  0.50222707  1
  Ti  Ti152  1  0.09061362  0.89266490  0.36843424  1
  Ti  Ti153  1  0.49306362  0.10301260  0.12490642  1
  Ti  Ti154  1  0.79844023  0.78483040  0.75762935  1
  Ti  Ti155  1  0.20980287  0.40053739  0.25993718  1
  Ti  Ti156  1  0.70147033  0.29780374  0.38930321  1
  Ti  Ti157  1  0.29787478  0.70060599  0.62181786  1
  Ti  Ti158  1  0.79985328  0.39615505  0.74384367  1
  Ti  Ti159  1  0.69345683  0.69147889  0.63442291  1
  Mo  Mo160  1  0.49772897  0.50276220  0.60786580  1
  Mo  Mo161  1  0.70283603  0.10079780  0.85519518  1
  Mo  Mo162  1  0.90826755  0.30151648  0.84345514  1
  Mo  Mo163  1  0.28865446  0.90734781  0.86893252  1
  Mo  Mo164  1  0.40149001  0.60597226  0.47834681  1
  Mo  Mo165  1  0.79917065  -0.00307604  0.76886528  1
  Mo  Mo166  1  0.20096749  0.40666624  0.49641661  1
  Mo  Mo167  1  0.10413420  0.29588969  0.62238387  1
  Mo  Mo168  1  0.70076483  0.69738976  0.11633548  1
  Mo  Mo169  1  0.50203458  0.29673851  0.61139509  1
  Mo  Mo170  1  0.60145803  0.60206690  0.02099595  1
  Mo  Mo171  1  0.90563027  0.89775115  0.37311930  1
  Mo  Mo172  1  0.20217966  0.19426897  0.72789422  1
  Mo  Mo173  1  0.69856548  0.50504815  0.89587302  1
  Mo  Mo174  1  0.19527644  0.80409580  0.00890027  1
  Mo  Mo175  1  0.40477511  0.39993045  0.48743835  1
  Mo  Mo176  1  0.90665849  0.70118774  0.10191447  1
  Mo  Mo177  1  0.30131868  0.49398861  0.86205685  1
  Mo  Mo178  1  0.80069464  0.60030472  -0.00794995  1
  Mo  Mo179  1  0.90678116  0.09484814  0.62429159  1
  Mo  Mo180  1  0.29830933  0.30383329  0.39106670  1
  Mo  Mo181  1  0.30277268  0.48984309  0.13034881  1
  Mo  Mo182  1  0.38238492  0.20414871  0.00740732  1
  Mo  Mo183  1  0.10390576  0.51051733  0.63868265  1
  Mo  Mo184  1  0.40173585  0.59700473  -0.00833314  1
  Mo  Mo185  1  0.50253980  0.29787319  0.39372568  1
  Mo  Mo186  1  0.29696151  0.49636940  0.38650115  1
  Mo  Mo187  1  0.29355894  0.70375682  0.88190648  1
  Mo  Mo188  1  0.40275941  0.19867383  0.48495734  1
  Mo  Mo189  1  0.00008352  0.39887468  0.73725199  1
  Mo  Mo190  1  0.90014422  0.70315073  0.65635529  1
  Mo  Mo191  1  0.70347065  0.49546302  0.60968317  1
  Mo  Mo192  1  0.69946173  0.90204017  0.13590907  1
  Mo  Mo193  1  0.29748758  0.90774575  0.14374715  1
  Mo  Mo194  1  0.19756989  0.00648341  0.27007822  1
  Mo  Mo195  1  0.59226715  0.60292639  0.74514806  1
  Mo  Mo196  1  0.60798628  0.19441389  0.48508684  1
  Mo  Mo197  1  0.90137951  0.29488769  0.13595765  1
  Mo  Mo198  1  0.00564472  0.40467218  0.23976903  1
  Mo  Mo199  1  0.80138070  0.39453973  0.51248702  1
