# generated using pymatgen
data_HfZrTaTiMo
_symmetry_space_group_name_H-M   'P 1'
_cell_length_a   15.92402816
_cell_length_b   15.92688544
_cell_length_c   15.20073648
_cell_angle_alpha   90.01205740
_cell_angle_beta   89.96911161
_cell_angle_gamma   90.21053016
_symmetry_Int_Tables_number   1
_chemical_formula_structural   HfZrTaTiMo
_chemical_formula_sum   'Hf40 Zr40 Ta40 Ti40 Mo40'
_cell_volume   3855.18673298
_cell_formula_units_Z   40
loop_
 _symmetry_equiv_pos_site_id
 _symmetry_equiv_pos_as_xyz
  1  'x, y, z'
loop_
 _atom_site_type_symbol
 _atom_site_label
 _atom_site_symmetry_multiplicity
 _atom_site_fract_x
 _atom_site_fract_y
 _atom_site_fract_z
 _atom_site_occupancy
  Hf  Hf0  1  0.79931170  0.79173886  -0.01087254  1
  Hf  Hf1  1  0.40206731  0.60650422  0.00531888  1
  Hf  Hf2  1  0.29897446  0.70792856  0.13971993  1
  Hf  Hf3  1  0.60767502  0.60645668  -0.00145221  1
  Hf  Hf4  1  0.19817610  0.80364674  0.51321079  1
  Hf  Hf5  1  0.29373169  0.70024264  0.36541074  1
  Hf  Hf6  1  -0.00786216  0.60683839  -0.01385814  1
  Hf  Hf7  1  0.90324569  0.10148080  0.39742864  1
  Hf  Hf8  1  0.00319732  0.40930903  0.50417829  1
  Hf  Hf9  1  0.29923917  0.90112473  0.36118153  1
  Hf  Hf10  1  0.70546235  0.69888886  0.13517313  1
  Hf  Hf11  1  0.60619235  0.39828947  0.01401095  1
  Hf  Hf12  1  0.70212212  0.49813646  0.39446796  1
  Hf  Hf13  1  0.80313118  0.39621087  0.00204987  1
  Hf  Hf14  1  0.60115771  0.61906669  0.74875078  1
  Hf  Hf15  1  0.50513080  0.49983027  0.37901182  1
  Hf  Hf16  1  0.30074648  0.10056416  0.89865396  1
  Hf  Hf17  1  0.09315594  0.70516460  0.14490739  1
  Hf  Hf18  1  0.30013059  0.30592976  0.89360994  1
  Hf  Hf19  1  0.61004880  -0.01516665  0.00002515  1
  Hf  Hf20  1  0.09286593  0.91320856  0.62828858  1
  Hf  Hf21  1  -0.00536959  0.19929201  0.76608046  1
  Hf  Hf22  1  0.80494937  0.39267013  0.24691171  1
  Hf  Hf23  1  0.20061193  0.39885821  0.50093084  1
  Hf  Hf24  1  0.50010673  0.88362715  0.12719217  1
  Hf  Hf25  1  0.39556125  0.18937297  0.74605129  1
  Hf  Hf26  1  0.22545888  0.01529450  0.50622599  1
  Hf  Hf27  1  0.08696528  0.69608065  0.63438697  1
  Hf  Hf28  1  0.59728031  0.19019106  0.49671055  1
  Hf  Hf29  1  -0.01023214  0.79954463  0.75450201  1
  Hf  Hf30  1  0.49465265  0.07423836  0.62192368  1
  Hf  Hf31  1  0.70750662  0.10120989  0.11674199  1
  Hf  Hf32  1  -0.00469749  0.00876348  0.24677049  1
  Hf  Hf33  1  -0.00396313  0.80124695  -0.01218818  1
  Hf  Hf34  1  0.49652346  0.29599440  0.36796400  1
  Hf  Hf35  1  0.70484164  0.10209121  0.88073775  1
  Hf  Hf36  1  0.39807188  0.58902323  0.24627194  1
  Hf  Hf37  1  0.10768838  0.50440907  0.35738747  1
  Hf  Hf38  1  0.61133209  0.39535255  0.24511381  1
  Hf  Hf39  1  0.60520911  0.40345459  0.73814287  1
  Zr  Zr40  1  0.29340203  0.49284687  0.88085346  1
  Zr  Zr41  1  0.19041703  -0.00653239  0.01014264  1
  Zr  Zr42  1  0.80129493  0.20506841  0.24346800  1
  Zr  Zr43  1  0.09979524  0.90756409  0.37798750  1
  Zr  Zr44  1  0.30355500  0.49796280  0.61700299  1
  Zr  Zr45  1  0.31740537  0.69880195  0.62412047  1
  Zr  Zr46  1  0.41037322  0.80427501  0.49516848  1
  Zr  Zr47  1  0.50020392  0.49385552  0.88247142  1
  Zr  Zr48  1  0.90109138  0.50553525  0.12242957  1
  Zr  Zr49  1  0.07504400  0.11167615  0.10374915  1
  Zr  Zr50  1  -0.01132581  0.20832209  0.25543247  1
  Zr  Zr51  1  0.19129942  0.19996594  0.76955707  1
  Zr  Zr52  1  0.39129059  0.17957197  0.49437820  1
  Zr  Zr53  1  0.50148727  0.51217126  0.60519752  1
  Zr  Zr54  1  0.28777952  0.28240975  0.61652796  1
  Zr  Zr55  1  0.40931473  0.60498433  0.75921337  1
  Zr  Zr56  1  -0.01239818  0.60542369  0.26795118  1
  Zr  Zr57  1  0.49700601  0.29761270  0.89105553  1
  Zr  Zr58  1  0.09923745  0.10895333  0.61082062  1
  Zr  Zr59  1  0.49941633  0.09904883  0.89429731  1
  Zr  Zr60  1  0.19623065  0.60226241  -0.00314068  1
  Zr  Zr61  1  0.59839885  0.19585753  0.74760702  1
  Zr  Zr62  1  0.71151812  0.50615689  0.87312620  1
  Zr  Zr63  1  0.32389101  0.91149552  0.63403322  1
  Zr  Zr64  1  0.78999583  -0.00856597  0.50541263  1
  Zr  Zr65  1  0.89965764  0.90388164  0.62914363  1
  Zr  Zr66  1  0.19164557  0.59948817  0.50122096  1
  Zr  Zr67  1  0.60305802  0.80380711  0.49653059  1
  Zr  Zr68  1  0.19339869  0.20755884  0.23213910  1
  Zr  Zr69  1  0.70214362  0.09902513  0.37613068  1
  Zr  Zr70  1  0.40371568  0.00629681  0.24345552  1
  Zr  Zr71  1  0.40019440  0.39268773  0.74010516  1
  Zr  Zr72  1  0.30589660  0.89498500  0.87312758  1
  Zr  Zr73  1  0.50026249  0.10350516  0.11235385  1
  Zr  Zr74  1  0.10293931  0.30374727  0.37260140  1
  Zr  Zr75  1  0.80500742  0.00885542  0.75487018  1
  Zr  Zr76  1  0.70039792  0.68762300  0.37475231  1
  Zr  Zr77  1  0.19591791  0.80190599  0.00141436  1
  Zr  Zr78  1  0.09975468  0.50355304  0.13069855  1
  Zr  Zr79  1  0.19614568  0.59420486  0.74563745  1
  Ta  Ta80  1  0.09166735  0.29595649  0.61914388  1
  Ta  Ta81  1  0.19379139  0.00732499  0.23427471  1
  Ta  Ta82  1  -0.00560175  0.79818288  0.49523993  1
  Ta  Ta83  1  0.10433606  0.10418414  0.38491439  1
  Ta  Ta84  1  0.59860701  0.79098617  0.25593295  1
  Ta  Ta85  1  0.49321068  0.29932860  0.13500065  1
  Ta  Ta86  1  0.09690027  0.90743638  0.85965829  1
  Ta  Ta87  1  0.70624043  0.89546186  0.35656846  1
  Ta  Ta88  1  0.90066098  0.29663187  0.62164320  1
  Ta  Ta89  1  0.90743018  0.10483487  0.61408413  1
  Ta  Ta90  1  0.88985492  0.49885619  0.39246157  1
  Ta  Ta91  1  0.79852514  0.79967378  0.50312740  1
  Ta  Ta92  1  0.89860751  0.49793007  0.85814707  1
  Ta  Ta93  1  0.50371858  0.90034381  0.35857191  1
  Ta  Ta94  1  0.60050739  0.19844281  0.24868587  1
  Ta  Ta95  1  0.89814064  0.89696966  0.37031564  1
  Ta  Ta96  1  0.70598715  0.29991681  0.86890101  1
  Ta  Ta97  1  0.59998258  0.79375063  -0.01444704  1
  Ta  Ta98  1  0.20329209  0.80483313  0.74433833  1
  Ta  Ta99  1  0.68781416  0.89857963  0.63999252  1
  Ta  Ta100  1  0.80828665  -0.01146085  0.00673616  1
  Ta  Ta101  1  0.89346041  0.69693389  0.62218392  1
  Ta  Ta102  1  0.80574408  0.00190798  0.23943483  1
  Ta  Ta103  1  0.70457970  0.29508519  0.61893217  1
  Ta  Ta104  1  0.90311845  0.50477126  0.62709330  1
  Ta  Ta105  1  -0.00365240  0.40273780  -0.01813501  1
  Ta  Ta106  1  0.89982812  0.88858482  0.13780926  1
  Ta  Ta107  1  0.30104777  0.10712290  0.11838044  1
  Ta  Ta108  1  0.09328295  0.31495615  0.11288023  1
  Ta  Ta109  1  0.50000193  0.29519239  0.61275905  1
  Ta  Ta110  1  0.10167797  0.70330295  0.85917063  1
  Ta  Ta111  1  0.20239062  0.01050714  0.75296239  1
  Ta  Ta112  1  0.60646712  0.00015839  0.24462484  1
  Ta  Ta113  1  0.69799856  0.09423049  0.62746284  1
  Ta  Ta114  1  0.70559429  0.88869608  0.13640943  1
  Ta  Ta115  1  0.30459335  0.30261063  0.35837478  1
  Ta  Ta116  1  0.19296161  0.20923840  0.00436257  1
  Ta  Ta117  1  0.29766247  0.10812713  0.35060418  1
  Ta  Ta118  1  -0.00266857  0.60451848  0.49487420  1
  Ta  Ta119  1  0.30519668  0.70799774  0.86863834  1
  Ti  Ti120  1  0.39019056  0.40462705  0.02960873  1
  Ti  Ti121  1  0.80808851  0.20601178  -0.00372069  1
  Ti  Ti122  1  0.59187039  -0.00848421  0.48892406  1
  Ti  Ti123  1  0.40709174  -0.00175245  0.76847616  1
  Ti  Ti124  1  0.10109135  0.71170011  0.36439020  1
  Ti  Ti125  1  0.50489471  0.50126062  0.13367997  1
  Ti  Ti126  1  0.90709158  0.10028790  0.89332866  1
  Ti  Ti127  1  0.89747608  0.90418232  0.86655111  1
  Ti  Ti128  1  0.70242164  0.89326242  0.86422018  1
  Ti  Ti129  1  0.88462472  0.68524503  0.85884477  1
  Ti  Ti130  1  0.39869750  -0.01640939  0.00757723  1
  Ti  Ti131  1  0.59125373  -0.01331347  0.76309085  1
  Ti  Ti132  1  0.79232990  0.59569641  0.73088476  1
  Ti  Ti133  1  0.70508188  0.50784180  0.12758028  1
  Ti  Ti134  1  0.69677635  0.69863974  0.61421963  1
  Ti  Ti135  1  -0.00582055  -0.01074269  -0.00117936  1
  Ti  Ti136  1  0.09019837  0.89076255  0.14219567  1
  Ti  Ti137  1  0.21994602  0.41030576  0.23016374  1
  Ti  Ti138  1  0.70769554  0.29916571  0.39429591  1
  Ti  Ti139  1  0.80288037  0.20201482  0.74762860  1
  Ti  Ti140  1  0.61044480  0.21177199  0.00946287  1
  Ti  Ti141  1  0.43286321  0.80007235  0.75158024  1
  Ti  Ti142  1  -0.00023617  0.39823926  0.74827365  1
  Ti  Ti143  1  0.91109969  0.29254164  0.11010820  1
  Ti  Ti144  1  0.78673423  0.79024267  0.74686515  1
  Ti  Ti145  1  0.60412622  0.39562833  0.50936570  1
  Ti  Ti146  1  0.80108963  0.39602047  0.73794023  1
  Ti  Ti147  1  0.30572388  0.49600897  0.37507686  1
  Ti  Ti148  1  0.09959818  0.30921708  0.88499771  1
  Ti  Ti149  1  0.39991489  0.39266902  0.49732434  1
  Ti  Ti150  1  0.79980070  0.59345462  0.25479305  1
  Ti  Ti151  1  0.50322683  0.69997538  0.13196122  1
  Ti  Ti152  1  0.50122408  0.68896675  0.37324699  1
  Ti  Ti153  1  0.89616343  0.70521089  0.13468315  1
  Ti  Ti154  1  0.18920029  0.39642853  0.73829918  1
  Ti  Ti155  1  0.89026210  0.70075520  0.38697842  1
  Ti  Ti156  1  0.88922108  0.30205166  0.40351241  1
  Ti  Ti157  1  -0.01095649  0.39745351  0.25714532  1
  Ti  Ti158  1  0.09517108  0.49911837  0.86581375  1
  Ti  Ti159  1  0.30204520  0.89295362  0.13662971  1
  Mo  Mo160  1  -0.01016752  0.59753097  0.75802268  1
  Mo  Mo161  1  0.19672516  0.80997966  0.24503138  1
  Mo  Mo162  1  0.70575280  0.49897136  0.61853871  1
  Mo  Mo163  1  -0.00023752  0.20712168  0.49662485  1
  Mo  Mo164  1  0.89170752  0.30662283  0.86073590  1
  Mo  Mo165  1  0.09062754  0.49281713  0.63961856  1
  Mo  Mo166  1  0.50065481  0.89584030  0.88616731  1
  Mo  Mo167  1  0.29626850  0.30466471  0.12335601  1
  Mo  Mo168  1  0.80282036  0.79579811  0.25936760  1
  Mo  Mo169  1  0.40195482  0.59950191  0.47687142  1
  Mo  Mo170  1  0.60049904  0.60541325  0.51074018  1
  Mo  Mo171  1  0.40398349  0.79559126  0.00012383  1
  Mo  Mo172  1  0.80077891  0.39983116  0.51802398  1
  Mo  Mo173  1  0.40009186  0.40082099  0.24443304  1
  Mo  Mo174  1  0.50786387  0.70574197  0.61203608  1
  Mo  Mo175  1  0.00368966  0.01114720  0.76863306  1
  Mo  Mo176  1  0.19224003  0.40414325  0.00827894  1
  Mo  Mo177  1  -0.00681758  0.80078393  0.26885579  1
  Mo  Mo178  1  0.70163245  0.29786434  0.11958288  1
  Mo  Mo179  1  0.39509015  0.20882165  0.01815236  1
  Mo  Mo180  1  0.80272072  0.60098277  0.51527491  1
  Mo  Mo181  1  0.00057294  -0.00151182  0.48915206  1
  Mo  Mo182  1  0.20175698  0.60049645  0.25599667  1
  Mo  Mo183  1  0.50926854  0.90109161  0.63129697  1
  Mo  Mo184  1  0.79681381  0.19860676  0.51678547  1
  Mo  Mo185  1  0.41078071  0.00071271  0.47456924  1
  Mo  Mo186  1  0.49869558  0.70482017  0.88678373  1
  Mo  Mo187  1  0.20335803  0.20206779  0.48107026  1
  Mo  Mo188  1  0.59944792  0.59492459  0.23758058  1
  Mo  Mo189  1  0.30155282  0.50569418  0.12202259  1
  Mo  Mo190  1  0.80642490  0.60163274  0.00560915  1
  Mo  Mo191  1  0.39919461  0.20303644  0.24130466  1
  Mo  Mo192  1  0.60421615  0.80074043  0.75885251  1
  Mo  Mo193  1  0.70639682  0.70053995  0.86955547  1
  Mo  Mo194  1  0.40786507  0.79555209  0.25763923  1
  Mo  Mo195  1  -0.00707070  0.21474943  -0.01939496  1
  Mo  Mo196  1  0.09524546  0.09566145  0.88878408  1
  Mo  Mo197  1  0.50204956  0.09486253  0.36464759  1
  Mo  Mo198  1  0.30187841  0.09360876  0.63874085  1
  Mo  Mo199  1  0.89557416  0.09483957  0.10348450  1
