# generated using pymatgen
data_HfZrTaTiMo
_symmetry_space_group_name_H-M   'P 1'
_cell_length_a   15.94068502
_cell_length_b   15.94956969
_cell_length_c   15.16277832
_cell_angle_alpha   90.05870867
_cell_angle_beta   90.02814752
_cell_angle_gamma   89.79588991
_symmetry_Int_Tables_number   1
_chemical_formula_structural   HfZrTaTiMo
_chemical_formula_sum   'Hf40 Zr40 Ta40 Ti40 Mo40'
_cell_volume   3855.06496581
_cell_formula_units_Z   40
loop_
 _symmetry_equiv_pos_site_id
 _symmetry_equiv_pos_as_xyz
  1  'x, y, z'
loop_
 _atom_site_type_symbol
 _atom_site_label
 _atom_site_symmetry_multiplicity
 _atom_site_fract_x
 _atom_site_fract_y
 _atom_site_fract_z
 _atom_site_occupancy
  Hf  Hf0  1  0.30204005  0.50949092  0.87792029  1
  Hf  Hf1  1  -0.01482401  0.21467659  0.49077067  1
  Hf  Hf2  1  0.59858318  0.01303390  0.74391913  1
  Hf  Hf3  1  0.49943037  0.89698048  0.63271045  1
  Hf  Hf4  1  0.00359125  0.59992124  0.25097263  1
  Hf  Hf5  1  0.19918185  0.20084354  0.74556996  1
  Hf  Hf6  1  0.70217392  0.29963867  0.35566674  1
  Hf  Hf7  1  0.50077424  0.50664335  0.12357165  1
  Hf  Hf8  1  0.70566749  0.70183351  0.65473597  1
  Hf  Hf9  1  0.50053012  0.89212537  0.38423916  1
  Hf  Hf10  1  0.09950857  0.89638996  0.86759849  1
  Hf  Hf11  1  0.91254258  0.29846147  0.88160968  1
  Hf  Hf12  1  0.48953961  0.69899783  0.37477767  1
  Hf  Hf13  1  0.60331138  0.41235108  0.49707242  1
  Hf  Hf14  1  0.30058711  0.30503944  0.87022957  1
  Hf  Hf15  1  0.29543464  0.30437839  0.12452258  1
  Hf  Hf16  1  0.29732266  0.89822657  0.12824849  1
  Hf  Hf17  1  0.29884123  0.89034065  0.85827446  1
  Hf  Hf18  1  0.68395506  0.10391365  0.89776716  1
  Hf  Hf19  1  0.09052358  0.10339293  0.86847714  1
  Hf  Hf20  1  0.39136995  0.40618153  0.25217907  1
  Hf  Hf21  1  0.79927691  -0.00986623  0.00322563  1
  Hf  Hf22  1  0.49238324  0.69702646  0.12129089  1
  Hf  Hf23  1  0.79742655  -0.00361434  0.74436671  1
  Hf  Hf24  1  0.40804348  0.20049814  -0.00259586  1
  Hf  Hf25  1  0.69663303  0.30109470  0.88566990  1
  Hf  Hf26  1  0.69844486  0.51180222  0.64317276  1
  Hf  Hf27  1  0.20101498  0.20609347  0.26164676  1
  Hf  Hf28  1  0.19183982  0.20140887  -0.00412136  1
  Hf  Hf29  1  0.09785700  0.10032817  0.60923865  1
  Hf  Hf30  1  0.49358773  0.10092712  0.60594803  1
  Hf  Hf31  1  0.71502310  0.88229503  0.36827536  1
  Hf  Hf32  1  0.80276616  0.59261974  0.23322932  1
  Hf  Hf33  1  0.10820726  0.70585623  0.88297670  1
  Hf  Hf34  1  0.80328521  0.40928343  0.49294991  1
  Hf  Hf35  1  0.50316570  0.10767780  0.13093449  1
  Hf  Hf36  1  0.70556431  0.31040570  0.63768192  1
  Hf  Hf37  1  0.40867601  0.81247168  -0.00056533  1
  Hf  Hf38  1  0.80434858  0.78399833  0.01191352  1
  Hf  Hf39  1  0.29822174  0.50768575  0.11036519  1
  Zr  Zr40  1  0.50297667  0.50908624  0.36418305  1
  Zr  Zr41  1  0.20707279  0.78685784  0.25455076  1
  Zr  Zr42  1  0.20788769  0.40382959  0.50557313  1
  Zr  Zr43  1  0.08226283  0.31451935  0.12464501  1
  Zr  Zr44  1  0.79418785  0.19338353  0.75720213  1
  Zr  Zr45  1  0.69727602  0.88359015  0.86431236  1
  Zr  Zr46  1  0.30106102  0.08732290  0.86914435  1
  Zr  Zr47  1  0.41181636  0.19024588  0.75827165  1
  Zr  Zr48  1  0.50113190  0.70559438  0.86225470  1
  Zr  Zr49  1  0.09511490  0.30190610  0.62575606  1
  Zr  Zr50  1  0.29958978  0.09762505  0.12814669  1
  Zr  Zr51  1  0.10423381  0.09576418  0.13337311  1
  Zr  Zr52  1  0.09301343  0.50351011  0.62188710  1
  Zr  Zr53  1  0.39620755  -0.00469816  0.26282961  1
  Zr  Zr54  1  0.60948511  0.79254212  0.50733061  1
  Zr  Zr55  1  0.70498836  0.10944636  0.36646319  1
  Zr  Zr56  1  0.59143104  0.80045514  0.23751439  1
  Zr  Zr57  1  0.80558747  -0.00401024  0.49772197  1
  Zr  Zr58  1  0.60968244  0.20958949  0.50292407  1
  Zr  Zr59  1  0.10101076  0.10553978  0.38874637  1
  Zr  Zr60  1  0.58591923  -0.01745029  0.00786020  1
  Zr  Zr61  1  0.92024801  0.48200739  0.11969366  1
  Zr  Zr62  1  0.09742183  0.89419562  0.61081483  1
  Zr  Zr63  1  0.49888815  0.10869496  0.38047866  1
  Zr  Zr64  1  0.90679449  0.10252822  0.12333339  1
  Zr  Zr65  1  0.50171230  0.30636947  0.62925157  1
  Zr  Zr66  1  0.50848159  0.68595504  0.63760517  1
  Zr  Zr67  1  0.81029917  -0.00882922  0.24959807  1
  Zr  Zr68  1  0.10490557  0.69303273  0.39499215  1
  Zr  Zr69  1  0.09921984  0.50234906  0.38392458  1
  Zr  Zr70  1  0.90259923  0.31095709  0.64594710  1
  Zr  Zr71  1  0.30201823  0.10099578  0.60937554  1
  Zr  Zr72  1  0.10308864  0.50532310  0.87401298  1
  Zr  Zr73  1  0.09815152  0.88703127  0.38877120  1
  Zr  Zr74  1  -0.01158354  0.60885759  0.00219937  1
  Zr  Zr75  1  0.29901095  0.69636116  0.86814967  1
  Zr  Zr76  1  0.60161791  -0.00239532  0.24947125  1
  Zr  Zr77  1  0.89706668  0.70741869  0.86022193  1
  Zr  Zr78  1  0.00206002  -0.00779897  0.26431336  1
  Zr  Zr79  1  0.90322975  0.09962926  0.88175233  1
  Ta  Ta80  1  0.19559371  -0.00343768  0.73629615  1
  Ta  Ta81  1  -0.02805222  0.59778562  0.49714961  1
  Ta  Ta82  1  -0.00688893  0.21079735  0.25560651  1
  Ta  Ta83  1  0.80216860  0.79000468  0.51181567  1
  Ta  Ta84  1  0.19866685  -0.00828407  -0.00550873  1
  Ta  Ta85  1  0.09863636  0.70968507  0.11294950  1
  Ta  Ta86  1  0.50198658  0.30518513  0.36507670  1
  Ta  Ta87  1  0.70097001  0.69292698  0.86562023  1
  Ta  Ta88  1  0.89447451  0.50399727  0.64440000  1
  Ta  Ta89  1  0.50722271  0.29940716  0.87902784  1
  Ta  Ta90  1  0.80148664  0.20653927  0.01181613  1
  Ta  Ta91  1  0.30628173  0.29798353  0.61882482  1
  Ta  Ta92  1  0.38167927  0.61642241  0.24777332  1
  Ta  Ta93  1  0.69753030  0.69145450  0.35739318  1
  Ta  Ta94  1  0.69271276  0.68701223  0.12736099  1
  Ta  Ta95  1  0.30266293  0.68752193  0.63912690  1
  Ta  Ta96  1  0.00738656  -0.00715147  0.00147111  1
  Ta  Ta97  1  -0.00411430  0.00030216  0.73915461  1
  Ta  Ta98  1  0.40645476  0.39849929  -0.00036991  1
  Ta  Ta99  1  0.91359072  0.88802535  0.11921095  1
  Ta  Ta100  1  0.20704529  0.40672458  0.74312107  1
  Ta  Ta101  1  0.61032796  -0.00588442  0.50398031  1
  Ta  Ta102  1  0.80289014  0.39888577  0.23243514  1
  Ta  Ta103  1  0.20471434  -0.00555217  0.27474436  1
  Ta  Ta104  1  0.69388112  0.29890462  0.12484243  1
  Ta  Ta105  1  0.21182752  -0.01093341  0.49222578  1
  Ta  Ta106  1  0.19958911  0.60111870  0.23871290  1
  Ta  Ta107  1  0.80057267  0.40167413  0.00573631  1
  Ta  Ta108  1  0.00417500  0.60357456  0.74961296  1
  Ta  Ta109  1  0.90176591  0.10739219  0.62091535  1
  Ta  Ta110  1  0.88573883  0.70517968  0.36518292  1
  Ta  Ta111  1  0.29682241  0.51642593  0.37972372  1
  Ta  Ta112  1  0.19671915  0.40010498  -0.00860137  1
  Ta  Ta113  1  0.60220618  0.59603396  -0.01067337  1
  Ta  Ta114  1  0.40422306  0.40759947  0.50160598  1
  Ta  Ta115  1  0.90655786  0.89657934  0.87376138  1
  Ta  Ta116  1  0.59026152  0.41744660  0.76779911  1
  Ta  Ta117  1  0.69967154  0.10650820  0.12599625  1
  Ta  Ta118  1  0.89631567  0.69158931  0.63564139  1
  Ta  Ta119  1  0.39519233  0.79088882  0.51730794  1
  Ti  Ti120  1  -0.00589756  0.79558533  0.25174592  1
  Ti  Ti121  1  0.30517184  0.89849555  0.63529555  1
  Ti  Ti122  1  0.10445313  0.89584933  0.12553806  1
  Ti  Ti123  1  0.79455470  0.59160052  0.00152848  1
  Ti  Ti124  1  0.09846318  0.30779467  0.37657281  1
  Ti  Ti125  1  -0.01494171  0.40901180  0.48694820  1
  Ti  Ti126  1  0.19509456  0.40957925  0.25502214  1
  Ti  Ti127  1  -0.01735793  0.79127574  0.50205621  1
  Ti  Ti128  1  0.60699157  0.59867472  0.49566355  1
  Ti  Ti129  1  -0.01084807  -0.00451108  0.49256493  1
  Ti  Ti130  1  0.30843417  0.87608414  0.37695695  1
  Ti  Ti131  1  0.30224655  0.11143445  0.39162800  1
  Ti  Ti132  1  0.90381166  0.49876558  0.87415560  1
  Ti  Ti133  1  0.40207722  -0.00055499  -0.00511074  1
  Ti  Ti134  1  0.59969333  0.20045337  0.74923515  1
  Ti  Ti135  1  0.60232263  0.40470269  0.23647200  1
  Ti  Ti136  1  0.10569343  0.50235622  0.11428924  1
  Ti  Ti137  1  0.09720341  0.69237767  0.61373527  1
  Ti  Ti138  1  0.19435147  0.79234232  0.73142209  1
  Ti  Ti139  1  0.00091979  0.80076408  0.73574244  1
  Ti  Ti140  1  0.70795039  0.10592823  0.61256785  1
  Ti  Ti141  1  0.39746076  0.59271494  0.51272431  1
  Ti  Ti142  1  0.59872900  0.40075986  0.00532673  1
  Ti  Ti143  1  0.88988569  0.30647060  0.35893919  1
  Ti  Ti144  1  0.39557253  -0.01192384  0.49403246  1
  Ti  Ti145  1  0.79430195  0.41148974  0.77492169  1
  Ti  Ti146  1  0.60273515  0.79582519  0.00529749  1
  Ti  Ti147  1  0.41418723  0.57869897  0.74695328  1
  Ti  Ti148  1  0.40500605  0.40326396  0.74948288  1
  Ti  Ti149  1  0.79438657  0.60072445  0.49216470  1
  Ti  Ti150  1  0.09285171  0.30404476  0.86397456  1
  Ti  Ti151  1  0.89593443  0.89580482  0.62593459  1
  Ti  Ti152  1  0.70263507  0.50308831  0.35767539  1
  Ti  Ti153  1  0.49102780  0.90669858  0.84885300  1
  Ti  Ti154  1  0.21503261  0.79018810  0.51068439  1
  Ti  Ti155  1  0.30298861  0.30404725  0.38568877  1
  Ti  Ti156  1  0.29362878  0.70160922  0.10006637  1
  Ti  Ti157  1  0.70502109  0.89194877  0.12991147  1
  Ti  Ti158  1  0.88930709  0.11536605  0.37257740  1
  Ti  Ti159  1  0.40087942  0.20873393  0.25483907  1
  Mo  Mo160  1  0.49480810  0.49700265  0.89364774  1
  Mo  Mo161  1  0.49862675  0.30669663  0.13476208  1
  Mo  Mo162  1  0.19605377  0.60286283  0.01330375  1
  Mo  Mo163  1  0.89911005  0.29846986  0.12190882  1
  Mo  Mo164  1  0.39270109  0.79412381  0.24337953  1
  Mo  Mo165  1  0.00223681  0.80767496  0.00241560  1
  Mo  Mo166  1  0.39676265  0.79842764  0.73593744  1
  Mo  Mo167  1  0.70223503  0.90330413  0.62701293  1
  Mo  Mo168  1  0.70179947  0.49746337  0.89023728  1
  Mo  Mo169  1  0.49348366  0.89957026  0.12597804  1
  Mo  Mo170  1  0.19710359  0.60039249  0.73337859  1
  Mo  Mo171  1  0.00065095  0.19692027  0.73725551  1
  Mo  Mo172  1  0.00579909  0.39894145  -0.01855123  1
  Mo  Mo173  1  0.39743194  -0.00088433  0.74726518  1
  Mo  Mo174  1  0.21028340  0.60190154  0.51831393  1
  Mo  Mo175  1  0.50289388  0.09920450  0.88188014  1
  Mo  Mo176  1  0.59938526  0.59793493  0.24865278  1
  Mo  Mo177  1  0.80267598  0.79184931  0.23149849  1
  Mo  Mo178  1  0.59720233  0.20885663  0.01429736  1
  Mo  Mo179  1  0.50421310  0.49866141  0.62031260  1
  Mo  Mo180  1  0.00180376  0.19909165  0.01225903  1
  Mo  Mo181  1  0.40044797  0.21693865  0.48661015  1
  Mo  Mo182  1  0.80873757  0.80522265  0.73887203  1
  Mo  Mo183  1  0.20061752  0.80747038  0.00639351  1
  Mo  Mo184  1  0.80528311  0.59360688  0.76960687  1
  Mo  Mo185  1  0.30879299  0.49567750  0.63588293  1
  Mo  Mo186  1  0.90113788  0.88111524  0.38429651  1
  Mo  Mo187  1  0.20214201  0.20597137  0.48994784  1
  Mo  Mo188  1  0.30187247  0.69353456  0.39618864  1
  Mo  Mo189  1  0.60245488  0.80487710  0.74857306  1
  Mo  Mo190  1  -0.00072146  0.39863945  0.27088178  1
  Mo  Mo191  1  0.60063828  0.59248824  0.77413942  1
  Mo  Mo192  1  0.00109351  0.40682726  0.76322954  1
  Mo  Mo193  1  0.59444396  0.21005378  0.23793568  1
  Mo  Mo194  1  0.69884644  0.49661344  0.11263765  1
  Mo  Mo195  1  0.90137648  0.70062752  0.13500516  1
  Mo  Mo196  1  0.80457787  0.20885578  0.50643666  1
  Mo  Mo197  1  0.89095932  0.50139903  0.36550303  1
  Mo  Mo198  1  0.80112557  0.20461698  0.23085577  1
  Mo  Mo199  1  0.40298865  0.60231165  -0.00151918  1
