# generated using pymatgen
data_HfZrTaTiMo
_symmetry_space_group_name_H-M   'P 1'
_cell_length_a   15.92656713
_cell_length_b   15.94296231
_cell_length_c   15.20560539
_cell_angle_alpha   89.98258396
_cell_angle_beta   89.95420628
_cell_angle_gamma   89.97924466
_symmetry_Int_Tables_number   1
_chemical_formula_structural   HfZrTaTiMo
_chemical_formula_sum   'Hf40 Zr40 Ta40 Ti40 Mo40'
_cell_volume   3860.95485961
_cell_formula_units_Z   40
loop_
 _symmetry_equiv_pos_site_id
 _symmetry_equiv_pos_as_xyz
  1  'x, y, z'
loop_
 _atom_site_type_symbol
 _atom_site_label
 _atom_site_symmetry_multiplicity
 _atom_site_fract_x
 _atom_site_fract_y
 _atom_site_fract_z
 _atom_site_occupancy
  Hf  Hf0  1  0.29814509  0.09516567  0.88930017  1
  Hf  Hf1  1  0.60018313  0.19345254  0.50178989  1
  Hf  Hf2  1  0.80385195  -0.00479766  0.49418261  1
  Hf  Hf3  1  0.79250659  -0.00495352  -0.02344890  1
  Hf  Hf4  1  0.70560555  0.30200779  0.13908409  1
  Hf  Hf5  1  0.20175817  0.60106932  0.50459925  1
  Hf  Hf6  1  0.59848854  0.19831721  0.25906339  1
  Hf  Hf7  1  0.78956516  0.40210645  -0.01447592  1
  Hf  Hf8  1  0.00496780  0.78775872  0.24211287  1
  Hf  Hf9  1  0.29802418  0.29014793  0.86513143  1
  Hf  Hf10  1  0.68719764  0.09849648  0.84992051  1
  Hf  Hf11  1  0.20692357  0.00701583  0.73982964  1
  Hf  Hf12  1  0.80831945  0.40647522  0.50880828  1
  Hf  Hf13  1  0.90686490  0.70126722  0.87994165  1
  Hf  Hf14  1  0.39207115  0.79641521  0.74715978  1
  Hf  Hf15  1  0.89669019  0.30384474  0.84154259  1
  Hf  Hf16  1  0.39603036  0.80089669  0.50219434  1
  Hf  Hf17  1  0.06890462  0.49691015  0.40179791  1
  Hf  Hf18  1  0.50300529  0.69639838  0.62854133  1
  Hf  Hf19  1  0.40488481  0.59093607  0.76089690  1
  Hf  Hf20  1  0.69384981  0.29711695  0.85275766  1
  Hf  Hf21  1  0.20170267  0.41086571  0.26328674  1
  Hf  Hf22  1  0.20237440  -0.00066903  0.49226930  1
  Hf  Hf23  1  0.59192673  0.40520858  0.73765505  1
  Hf  Hf24  1  0.49537625  0.29388434  0.86901293  1
  Hf  Hf25  1  0.49059984  0.50080734  0.60682216  1
  Hf  Hf26  1  0.39043137  0.00797896  0.25461717  1
  Hf  Hf27  1  0.10776539  0.90310540  0.88693882  1
  Hf  Hf28  1  0.49866916  0.10450117  0.13257973  1
  Hf  Hf29  1  0.60113799  -0.00276508  0.00795839  1
  Hf  Hf30  1  0.20178455  0.39765472  0.50296957  1
  Hf  Hf31  1  0.60353493  0.79878749  0.00968522  1
  Hf  Hf32  1  0.59772764  0.59670505  0.24613425  1
  Hf  Hf33  1  0.40117081  -0.00657067  0.49277805  1
  Hf  Hf34  1  0.90209724  0.49747561  0.10759078  1
  Hf  Hf35  1  -0.00075963  0.18981745  0.74179665  1
  Hf  Hf36  1  0.10060421  0.30483554  0.63808636  1
  Hf  Hf37  1  0.49159720  0.70006401  0.37136901  1
  Hf  Hf38  1  0.69521998  0.89932802  0.37462642  1
  Hf  Hf39  1  0.70929479  0.30033197  0.37544667  1
  Zr  Zr40  1  0.91466776  0.31263920  0.38651329  1
  Zr  Zr41  1  0.00173131  0.20808394  -0.00761979  1
  Zr  Zr42  1  0.79859879  0.20055435  -0.00698542  1
  Zr  Zr43  1  0.81464140  0.79519130  0.25061458  1
  Zr  Zr44  1  0.10419793  0.71271915  0.88056790  1
  Zr  Zr45  1  0.90965212  0.90397516  0.62526547  1
  Zr  Zr46  1  0.10505089  0.90486812  0.12004690  1
  Zr  Zr47  1  0.20117308  0.39585169  -0.01286305  1
  Zr  Zr48  1  0.50052937  0.90426141  0.87260897  1
  Zr  Zr49  1  0.21006683  0.60834702  0.75576655  1
  Zr  Zr50  1  0.19722182  0.03448889  0.25834501  1
  Zr  Zr51  1  0.48711540  0.29398586  0.37714468  1
  Zr  Zr52  1  0.01384660  0.19041883  0.24961422  1
  Zr  Zr53  1  0.90271798  0.09320849  0.11362376  1
  Zr  Zr54  1  0.10647312  0.51311792  0.10258962  1
  Zr  Zr55  1  0.29708975  0.89472138  0.88326466  1
  Zr  Zr56  1  0.50023981  0.69809633  0.87847506  1
  Zr  Zr57  1  0.48116825  0.68957722  0.12350847  1
  Zr  Zr58  1  -0.00895495  -0.00176548  0.26926314  1
  Zr  Zr59  1  0.81430333  0.19278350  0.26136898  1
  Zr  Zr60  1  0.38554565  0.18600580  0.72419204  1
  Zr  Zr61  1  0.60488864  0.39863637  0.49839751  1
  Zr  Zr62  1  0.90641131  0.90183916  0.10677987  1
  Zr  Zr63  1  0.70529418  0.70048029  0.37669111  1
  Zr  Zr64  1  0.19933767  0.60329793  0.25529461  1
  Zr  Zr65  1  0.60613974  0.59625357  0.00645720  1
  Zr  Zr66  1  -0.00541190  0.59696804  0.24541340  1
  Zr  Zr67  1  -0.00295610  0.39596769  -0.01636422  1
  Zr  Zr68  1  0.10334836  0.89450588  0.36768541  1
  Zr  Zr69  1  0.78794284  0.79738575  -0.00833835  1
  Zr  Zr70  1  0.79030938  0.42525467  0.73843547  1
  Zr  Zr71  1  0.59566202  0.80791778  0.50532254  1
  Zr  Zr72  1  0.10711101  0.29086548  0.37919142  1
  Zr  Zr73  1  0.10031862  0.70058498  0.38739251  1
  Zr  Zr74  1  0.80175255  0.79691739  0.75143419  1
  Zr  Zr75  1  0.60207777  0.20305405  0.00729359  1
  Zr  Zr76  1  0.49219193  0.09998317  0.87633965  1
  Zr  Zr77  1  0.80655778  -0.00202447  0.75567936  1
  Zr  Zr78  1  0.39615344  0.41137194  0.25323353  1
  Zr  Zr79  1  0.70529661  0.90634122  0.14335408  1
  Ta  Ta80  1  0.20710786  0.40559823  0.75078397  1
  Ta  Ta81  1  0.50296924  0.49168642  0.88507148  1
  Ta  Ta82  1  0.81124612  0.41354735  0.25850223  1
  Ta  Ta83  1  0.10810646  0.10181364  0.88002931  1
  Ta  Ta84  1  0.09278153  0.50585906  0.86176249  1
  Ta  Ta85  1  0.60440025  0.60249040  0.49906579  1
  Ta  Ta86  1  0.49643775  0.30439814  0.13512574  1
  Ta  Ta87  1  0.20072019  0.20365572  0.01331990  1
  Ta  Ta88  1  0.58933734  0.19557179  0.72547986  1
  Ta  Ta89  1  0.70164741  0.09472124  0.62208486  1
  Ta  Ta90  1  0.70203448  0.49540102  0.13232729  1
  Ta  Ta91  1  0.09765759  0.50486112  0.63574297  1
  Ta  Ta92  1  0.70576915  0.29331030  0.62922753  1
  Ta  Ta93  1  0.20131930  0.80447764  0.51559295  1
  Ta  Ta94  1  0.70647602  0.50619871  0.37465303  1
  Ta  Ta95  1  0.21705757  0.20197053  0.51761140  1
  Ta  Ta96  1  0.79326580  0.60025563  0.00384051  1
  Ta  Ta97  1  0.69063952  0.90633826  0.62894250  1
  Ta  Ta98  1  0.80075518  0.60024037  0.51944895  1
  Ta  Ta99  1  0.70680150  0.09592707  0.13855436  1
  Ta  Ta100  1  0.30307483  0.49928751  0.61975204  1
  Ta  Ta101  1  0.00401146  0.20245550  0.51580160  1
  Ta  Ta102  1  0.48903418  0.29788891  0.61407369  1
  Ta  Ta103  1  0.00036547  0.40402856  0.24358723  1
  Ta  Ta104  1  0.09936461  0.09207360  0.61723319  1
  Ta  Ta105  1  0.49668003  0.89542175  0.35481661  1
  Ta  Ta106  1  0.10259811  0.30487087  0.13242362  1
  Ta  Ta107  1  0.90536682  0.68975120  0.39742634  1
  Ta  Ta108  1  -0.00866571  0.60922373  0.74495883  1
  Ta  Ta109  1  0.29837927  0.30329356  0.13349705  1
  Ta  Ta110  1  0.39562787  -0.00266067  0.02210094  1
  Ta  Ta111  1  0.59973637  0.40571177  0.25697457  1
  Ta  Ta112  1  0.29545957  0.88789565  0.35895087  1
  Ta  Ta113  1  0.09751530  0.70861351  0.63406304  1
  Ta  Ta114  1  0.59862030  0.79347281  0.23915149  1
  Ta  Ta115  1  0.00152324  0.80484689  0.50933455  1
  Ta  Ta116  1  0.49328246  0.89788970  0.13912256  1
  Ta  Ta117  1  0.80498733  0.60185837  0.23949833  1
  Ta  Ta118  1  0.40273503  0.39397073  0.00379598  1
  Ta  Ta119  1  0.49514191  0.50500763  0.38710846  1
  Ti  Ti120  1  0.30417353  0.49906359  0.88386464  1
  Ti  Ti121  1  0.80988657  -0.00009915  0.27159068  1
  Ti  Ti122  1  0.90895193  0.50463871  0.62861427  1
  Ti  Ti123  1  0.10041306  0.09661953  0.10398966  1
  Ti  Ti124  1  0.30442894  0.50739656  0.10516728  1
  Ti  Ti125  1  0.59973670  0.39651388  0.00439229  1
  Ti  Ti126  1  0.29125876  0.90260209  0.13475753  1
  Ti  Ti127  1  0.00894020  -0.00387956  0.75532016  1
  Ti  Ti128  1  0.49743232  0.09556455  0.37999252  1
  Ti  Ti129  1  0.38645800  0.79094139  0.24016783  1
  Ti  Ti130  1  0.61295010  0.58647262  0.74711419  1
  Ti  Ti131  1  0.69953586  0.09618423  0.38171283  1
  Ti  Ti132  1  0.28500591  0.68905902  0.10841487  1
  Ti  Ti133  1  0.39558276  0.20399107  0.01448040  1
  Ti  Ti134  1  0.89393189  0.51192530  0.86653429  1
  Ti  Ti135  1  0.10407775  0.29623106  0.85434128  1
  Ti  Ti136  1  0.80680299  0.20111141  0.50971632  1
  Ti  Ti137  1  0.29941329  0.70086620  0.89614942  1
  Ti  Ti138  1  0.80254396  0.79748005  0.50970112  1
  Ti  Ti139  1  0.90141741  0.09858731  0.62007664  1
  Ti  Ti140  1  0.37985156  0.19684047  0.25464042  1
  Ti  Ti141  1  0.60125998  0.80592030  0.74988904  1
  Ti  Ti142  1  0.30221993  0.69561710  0.62287719  1
  Ti  Ti143  1  0.38576221  0.59280868  0.25828820  1
  Ti  Ti144  1  0.29564003  0.70353646  0.37617282  1
  Ti  Ti145  1  0.39686949  0.39998034  0.74746209  1
  Ti  Ti146  1  0.40488633  -0.00402854  0.73445131  1
  Ti  Ti147  1  0.38351747  0.38886651  0.49248378  1
  Ti  Ti148  1  0.39503736  0.80399293  0.01326307  1
  Ti  Ti149  1  0.49558995  0.49491157  0.11739542  1
  Ti  Ti150  1  0.91954885  0.89214201  0.87826883  1
  Ti  Ti151  1  0.59804597  0.00186681  0.25541292  1
  Ti  Ti152  1  0.70198389  0.68723555  0.86017704  1
  Ti  Ti153  1  0.91048311  0.69516416  0.10126848  1
  Ti  Ti154  1  0.50398850  0.08522554  0.61055242  1
  Ti  Ti155  1  0.29901566  0.90006165  0.62692225  1
  Ti  Ti156  1  0.90249697  0.30204875  0.13062124  1
  Ti  Ti157  1  0.70150068  0.69764621  0.63142318  1
  Ti  Ti158  1  0.91486742  0.10202695  0.39832600  1
  Ti  Ti159  1  0.90732653  0.09898912  0.87286632  1
  Mo  Mo160  1  0.79747664  0.60461660  0.73980132  1
  Mo  Mo161  1  0.89896204  0.29963173  0.62829358  1
  Mo  Mo162  1  0.68862630  0.89642557  0.85503236  1
  Mo  Mo163  1  0.30382811  0.11522323  0.39150025  1
  Mo  Mo164  1  0.00639241  0.80725452  0.73957664  1
  Mo  Mo165  1  0.20181819  0.20488227  0.23664376  1
  Mo  Mo166  1  -0.00378872  0.60506992  0.52629667  1
  Mo  Mo167  1  0.20423507  0.80563850  0.73119817  1
  Mo  Mo168  1  0.19531997  0.19492250  0.73834923  1
  Mo  Mo169  1  0.79889615  0.19415526  0.73058843  1
  Mo  Mo170  1  0.39685261  0.60284912  0.49438133  1
  Mo  Mo171  1  0.20464396  0.00613470  0.00935453  1
  Mo  Mo172  1  0.69322484  0.50691835  0.61056079  1
  Mo  Mo173  1  0.29666774  0.29703762  0.36300431  1
  Mo  Mo174  1  0.70708996  0.69508369  0.13570071  1
  Mo  Mo175  1  0.10031750  0.10724425  0.40215443  1
  Mo  Mo176  1  0.00066181  0.40998024  0.75157400  1
  Mo  Mo177  1  0.59824573  -0.00022845  0.49693129  1
  Mo  Mo178  1  0.20728171  0.79990259  0.01905413  1
  Mo  Mo179  1  0.20765184  0.79039154  0.23422909  1
  Mo  Mo180  1  -0.00347631  0.59864266  -0.01897666  1
  Mo  Mo181  1  0.90061830  0.88776899  0.39220034  1
  Mo  Mo182  1  0.00336441  0.79936990  0.01079155  1
  Mo  Mo183  1  0.89275050  0.51018766  0.38673591  1
  Mo  Mo184  1  0.00094198  0.00439262  -0.02262144  1
  Mo  Mo185  1  0.10353468  0.90087054  0.63050927  1
  Mo  Mo186  1  0.39645276  0.58922325  -0.00973047  1
  Mo  Mo187  1  -0.00171434  0.40064016  0.52987879  1
  Mo  Mo188  1  0.39831710  0.19641350  0.50413474  1
  Mo  Mo189  1  0.49803349  0.89968045  0.63361183  1
  Mo  Mo190  1  0.30535660  0.50391472  0.39535645  1
  Mo  Mo191  1  0.20177594  0.59835339  -0.01924115  1
  Mo  Mo192  1  0.30255487  0.09271330  0.61012280  1
  Mo  Mo193  1  0.69321250  0.50413716  0.88370275  1
  Mo  Mo194  1  0.90040310  0.70288311  0.62109408  1
  Mo  Mo195  1  0.00427026  0.00273606  0.49569643  1
  Mo  Mo196  1  0.10179846  0.70171964  0.10268762  1
  Mo  Mo197  1  0.29981245  0.10616798  0.11327925  1
  Mo  Mo198  1  0.59185093  -0.00065181  0.73139621  1
  Mo  Mo199  1  0.30194033  0.30823133  0.63809755  1
