# generated using pymatgen
data_HfZrTaTiMo
_symmetry_space_group_name_H-M   'P 1'
_cell_length_a   15.91948686
_cell_length_b   15.94167542
_cell_length_c   15.20769843
_cell_angle_alpha   90.07002530
_cell_angle_beta   89.94067757
_cell_angle_gamma   90.13560291
_symmetry_Int_Tables_number   1
_chemical_formula_structural   HfZrTaTiMo
_chemical_formula_sum   'Hf40 Zr40 Ta40 Ti40 Mo40'
_cell_volume   3859.44402831
_cell_formula_units_Z   40
loop_
 _symmetry_equiv_pos_site_id
 _symmetry_equiv_pos_as_xyz
  1  'x, y, z'
loop_
 _atom_site_type_symbol
 _atom_site_label
 _atom_site_symmetry_multiplicity
 _atom_site_fract_x
 _atom_site_fract_y
 _atom_site_fract_z
 _atom_site_occupancy
  Hf  Hf0  1  0.10196087  0.29866656  0.87264125  1
  Hf  Hf1  1  0.10510865  0.89839235  0.62191485  1
  Hf  Hf2  1  -0.00690828  0.19223376  0.00401733  1
  Hf  Hf3  1  0.78767286  -0.00898513  0.00598465  1
  Hf  Hf4  1  0.80019842  0.60740707  0.24276305  1
  Hf  Hf5  1  0.59532693  0.41948182  0.51274573  1
  Hf  Hf6  1  0.89768470  0.09038996  0.38255793  1
  Hf  Hf7  1  0.88672007  0.68959050  0.87429881  1
  Hf  Hf8  1  0.62189696  0.60781909  0.74541467  1
  Hf  Hf9  1  0.79409126  0.59391107  0.52048048  1
  Hf  Hf10  1  0.49184438  0.30315719  0.87788774  1
  Hf  Hf11  1  0.79648634  0.19579501  0.25723585  1
  Hf  Hf12  1  0.10000943  0.29780283  0.61779715  1
  Hf  Hf13  1  0.29890761  0.30216805  0.11403135  1
  Hf  Hf14  1  0.10350517  0.10119593  0.62443139  1
  Hf  Hf15  1  0.80882825  0.81030301  -0.00289985  1
  Hf  Hf16  1  0.20933892  0.80385307  0.76815186  1
  Hf  Hf17  1  0.29799608  0.30516630  0.89124216  1
  Hf  Hf18  1  0.20383215  0.40298083  0.25515375  1
  Hf  Hf19  1  0.22121972  0.59463582  0.76751017  1
  Hf  Hf20  1  0.48700813  0.30483659  0.62492953  1
  Hf  Hf21  1  0.89928529  0.29633195  0.87078002  1
  Hf  Hf22  1  0.60995871  0.80633468  0.25042803  1
  Hf  Hf23  1  0.28710503  0.30112178  0.60606666  1
  Hf  Hf24  1  0.69635646  0.30829149  0.38219867  1
  Hf  Hf25  1  0.58375126  0.19148131  0.49948305  1
  Hf  Hf26  1  0.59573350  0.79656146  0.50894074  1
  Hf  Hf27  1  0.39423106  0.19813238  0.23729130  1
  Hf  Hf28  1  0.00726103  0.59106128  0.00589073  1
  Hf  Hf29  1  0.29205441  0.89633083  0.11455985  1
  Hf  Hf30  1  0.61017232  0.81480387  -0.01518462  1
  Hf  Hf31  1  0.89851659  0.70315736  0.38762292  1
  Hf  Hf32  1  0.59921361  0.20241897  0.74382149  1
  Hf  Hf33  1  0.49793938  0.30524207  0.37288378  1
  Hf  Hf34  1  0.11405169  0.49705333  0.63198929  1
  Hf  Hf35  1  0.30124822  0.91325544  0.38767472  1
  Hf  Hf36  1  0.20225724  0.17913799  0.25309771  1
  Hf  Hf37  1  0.00424196  0.39682503  0.01343659  1
  Hf  Hf38  1  0.10094466  0.08363828  0.12262172  1
  Hf  Hf39  1  0.10074850  0.29127131  0.13092185  1
  Zr  Zr40  1  0.20936819  -0.00155731  0.75853265  1
  Zr  Zr41  1  0.37522498  0.40975585  0.75275614  1
  Zr  Zr42  1  0.09791696  0.69525517  0.88221532  1
  Zr  Zr43  1  0.71141365  0.51359719  0.88811226  1
  Zr  Zr44  1  0.09339889  0.29078188  0.38109575  1
  Zr  Zr45  1  0.50958055  0.69745442  0.36470073  1
  Zr  Zr46  1  0.00143618  0.79720452  0.74827642  1
  Zr  Zr47  1  0.81013900  0.80622208  0.24115679  1
  Zr  Zr48  1  0.08712311  0.09885664  0.86033936  1
  Zr  Zr49  1  0.59673309  0.19438889  -0.00426015  1
  Zr  Zr50  1  0.01339242  0.80400809  0.26959426  1
  Zr  Zr51  1  0.58935633  -0.00639316  0.50500738  1
  Zr  Zr52  1  0.51002306  0.90949442  0.12799242  1
  Zr  Zr53  1  0.40078860  0.60939098  0.48243202  1
  Zr  Zr54  1  0.38413764  0.00844546  0.24411723  1
  Zr  Zr55  1  0.00746580  0.59973444  0.50845985  1
  Zr  Zr56  1  0.59365754  0.19561232  0.25735959  1
  Zr  Zr57  1  0.60702491  0.80519579  0.75425477  1
  Zr  Zr58  1  0.71043270  0.89929383  0.39003080  1
  Zr  Zr59  1  -0.00267068  0.39824790  0.73957213  1
  Zr  Zr60  1  0.19900439  0.79891921  0.26459168  1
  Zr  Zr61  1  -0.01600503  -0.01064939  -0.00480694  1
  Zr  Zr62  1  0.39714835  0.41832594  0.48974084  1
  Zr  Zr63  1  0.68219490  0.08379765  0.13356463  1
  Zr  Zr64  1  0.79326467  0.41595097  0.73357036  1
  Zr  Zr65  1  0.20058422  0.78932037  0.48662467  1
  Zr  Zr66  1  0.90377531  0.49907825  0.87801190  1
  Zr  Zr67  1  0.89791285  0.49949154  0.37106895  1
  Zr  Zr68  1  0.49380373  0.09738298  0.86386167  1
  Zr  Zr69  1  0.79876221  0.19043475  -0.00316082  1
  Zr  Zr70  1  0.89575706  0.28813157  0.61121327  1
  Zr  Zr71  1  0.49563453  0.50380008  0.87369903  1
  Zr  Zr72  1  0.71361099  0.09987639  0.61265441  1
  Zr  Zr73  1  0.69450953  0.07743366  0.85829438  1
  Zr  Zr74  1  0.79282498  0.40011873  0.24824307  1
  Zr  Zr75  1  0.69965710  0.29916357  0.61202633  1
  Zr  Zr76  1  0.30729275  0.70096484  0.11985060  1
  Zr  Zr77  1  0.60008156  0.60165815  0.23154921  1
  Zr  Zr78  1  0.30280074  0.29231978  0.38089302  1
  Zr  Zr79  1  0.92041193  0.70964372  0.11512409  1
  Ta  Ta80  1  0.11405847  0.70443926  0.11128750  1
  Ta  Ta81  1  0.19924877  -0.00901760  -0.01878456  1
  Ta  Ta82  1  0.69388848  0.30058661  0.12206028  1
  Ta  Ta83  1  0.09580662  0.88514429  0.10570508  1
  Ta  Ta84  1  -0.00142941  -0.01202185  0.25309923  1
  Ta  Ta85  1  0.09739536  0.50576281  0.36391729  1
  Ta  Ta86  1  0.30247072  0.89655059  0.61764552  1
  Ta  Ta87  1  0.89937286  0.09485244  0.14074225  1
  Ta  Ta88  1  0.29847480  0.51175434  0.61954538  1
  Ta  Ta89  1  0.48955202  0.51623049  0.64359659  1
  Ta  Ta90  1  0.49106989  0.70252188  0.63741523  1
  Ta  Ta91  1  0.38704616  0.19462429  0.73653492  1
  Ta  Ta92  1  0.80091539  0.20039358  0.75378029  1
  Ta  Ta93  1  0.39783484  0.00346489  -0.00060003  1
  Ta  Ta94  1  0.40634520  0.80651118  0.49449203  1
  Ta  Ta95  1  -0.00024477  0.39867355  0.24766851  1
  Ta  Ta96  1  0.10931859  0.49172103  0.86763033  1
  Ta  Ta97  1  0.90208521  0.49947029  0.13078110  1
  Ta  Ta98  1  0.69855358  0.30889314  0.87708266  1
  Ta  Ta99  1  0.30739750  0.70154355  0.62985411  1
  Ta  Ta100  1  0.39830344  0.80543776  0.76157348  1
  Ta  Ta101  1  0.69905148  0.50016569  0.11549542  1
  Ta  Ta102  1  0.59828875  0.60961752  0.00070462  1
  Ta  Ta103  1  0.70598966  0.69721090  0.39005371  1
  Ta  Ta104  1  0.68859673  0.50802541  0.37422186  1
  Ta  Ta105  1  0.80295530  0.39483795  0.01190637  1
  Ta  Ta106  1  0.20639147  0.20366760  0.74970408  1
  Ta  Ta107  1  0.79826779  -0.00826623  0.24757646  1
  Ta  Ta108  1  0.40091763  0.00699894  0.51794208  1
  Ta  Ta109  1  0.40204080  0.80242142  0.26183383  1
  Ta  Ta110  1  0.19738701  0.41429989  0.48065353  1
  Ta  Ta111  1  0.70362210  0.70360973  0.10646095  1
  Ta  Ta112  1  0.18518652  -0.01050538  0.26126436  1
  Ta  Ta113  1  0.89847377  0.29398377  0.13575920  1
  Ta  Ta114  1  0.89452781  0.90267619  0.85002086  1
  Ta  Ta115  1  0.11597693  0.69340717  0.63004824  1
  Ta  Ta116  1  0.59826225  0.40262565  0.00355212  1
  Ta  Ta117  1  0.40235520  0.40747018  0.24123514  1
  Ta  Ta118  1  0.20874077  0.59894760  0.48267547  1
  Ta  Ta119  1  0.59790747  0.40613094  0.74772189  1
  Ti  Ti120  1  0.50377845  0.50109945  0.35192727  1
  Ti  Ti121  1  0.39418547  0.00117262  0.74161270  1
  Ti  Ti122  1  0.50912856  0.91804958  0.86483966  1
  Ti  Ti123  1  0.20500708  0.59551038  -0.00177046  1
  Ti  Ti124  1  -0.00532636  0.18954150  0.49981156  1
  Ti  Ti125  1  0.19837020  0.18737532  -0.00021117  1
  Ti  Ti126  1  0.29232070  0.10331740  0.40324858  1
  Ti  Ti127  1  -0.01025272  -0.00470166  0.52026809  1
  Ti  Ti128  1  0.49836541  0.09454553  0.12198895  1
  Ti  Ti129  1  0.89836005  0.70374480  0.62621664  1
  Ti  Ti130  1  0.10612401  0.50860655  0.14030838  1
  Ti  Ti131  1  0.19894017  0.41407446  0.00757855  1
  Ti  Ti132  1  -0.00161230  0.40629520  0.49696524  1
  Ti  Ti133  1  0.50181896  0.30637561  0.12207642  1
  Ti  Ti134  1  0.49877102  0.49934986  0.12089121  1
  Ti  Ti135  1  0.70289220  0.09225584  0.38607449  1
  Ti  Ti136  1  0.50092410  0.69928249  0.86878425  1
  Ti  Ti137  1  0.48212647  0.09293530  0.37550666  1
  Ti  Ti138  1  0.89967017  0.90104740  0.39808606  1
  Ti  Ti139  1  0.80664116  -0.00507328  0.72799818  1
  Ti  Ti140  1  0.40488340  0.59735283  0.00101032  1
  Ti  Ti141  1  0.09846014  0.08398842  0.39066148  1
  Ti  Ti142  1  0.40924612  0.81069171  -0.01516929  1
  Ti  Ti143  1  0.00980860  0.60883654  0.24882375  1
  Ti  Ti144  1  0.89938770  0.09391597  0.85005391  1
  Ti  Ti145  1  0.49704651  0.70842590  0.12099482  1
  Ti  Ti146  1  0.79186078  0.78679463  0.74444509  1
  Ti  Ti147  1  0.59614252  0.60199545  0.51271101  1
  Ti  Ti148  1  0.00206015  0.79815877  0.50830716  1
  Ti  Ti149  1  0.31038247  0.70164017  0.89100514  1
  Ti  Ti150  1  0.30238598  0.10437855  0.88013353  1
  Ti  Ti151  1  0.00003437  0.19047463  0.25553766  1
  Ti  Ti152  1  -0.00523283  0.59598970  0.73911128  1
  Ti  Ti153  1  0.20694201  0.60859932  0.26351240  1
  Ti  Ti154  1  0.30521068  0.50642556  0.12754490  1
  Ti  Ti155  1  0.89874633  0.29667106  0.37952442  1
  Ti  Ti156  1  0.71191984  0.89453534  0.62008281  1
  Ti  Ti157  1  0.49420634  0.89935044  0.63903167  1
  Ti  Ti158  1  0.80049462  0.40812237  0.50177031  1
  Ti  Ti159  1  0.39769187  0.19369485  0.01082656  1
  Mo  Mo160  1  0.20326831  0.39910831  0.75715561  1
  Mo  Mo161  1  0.19278407  0.19711254  0.49412994  1
  Mo  Mo162  1  0.59486163  0.40193384  0.23100559  1
  Mo  Mo163  1  -0.00342004  0.19591361  0.74379645  1
  Mo  Mo164  1  0.39900127  0.19046232  0.51339916  1
  Mo  Mo165  1  0.89933077  0.89484231  0.63041022  1
  Mo  Mo166  1  0.69302305  0.50255264  0.62283074  1
  Mo  Mo167  1  0.69683119  0.70582802  0.61078156  1
  Mo  Mo168  1  0.09778218  0.69333774  0.38605060  1
  Mo  Mo169  1  0.80886340  -0.00362558  0.51391026  1
  Mo  Mo170  1  0.40335173  0.40556804  0.01786708  1
  Mo  Mo171  1  0.80820642  0.60862220  0.73128004  1
  Mo  Mo172  1  0.40083977  0.60047410  0.23715578  1
  Mo  Mo173  1  0.70081817  0.89786286  0.13527446  1
  Mo  Mo174  1  0.59171125  -0.00631492  -0.00707473  1
  Mo  Mo175  1  0.30219759  0.50509728  0.35356417  1
  Mo  Mo176  1  0.29118823  0.09542448  0.10526903  1
  Mo  Mo177  1  0.70312678  0.70128789  0.89058270  1
  Mo  Mo178  1  0.29687933  0.10001156  0.61817944  1
  Mo  Mo179  1  0.80570445  0.79649906  0.51568121  1
  Mo  Mo180  1  0.30659284  0.70288436  0.36271136  1
  Mo  Mo181  1  0.60058573  -0.00499311  0.72556216  1
  Mo  Mo182  1  -0.00468293  -0.00404790  0.73950772  1
  Mo  Mo183  1  0.90521607  0.49935825  0.62237521  1
  Mo  Mo184  1  0.49586759  0.09561620  0.64020723  1
  Mo  Mo185  1  0.49639886  0.90675057  0.36841993  1
  Mo  Mo186  1  0.31551237  0.90433002  0.88391422  1
  Mo  Mo187  1  0.90530041  0.10025086  0.63035764  1
  Mo  Mo188  1  0.80328975  0.19846085  0.47809368  1
  Mo  Mo189  1  0.90769246  0.90655215  0.12929275  1
  Mo  Mo190  1  0.09671053  0.89690813  0.88130505  1
  Mo  Mo191  1  0.30136976  0.50221225  0.90456480  1
  Mo  Mo192  1  0.00223338  0.80211900  -0.02008740  1
  Mo  Mo193  1  0.59499714  -0.00038968  0.27847930  1
  Mo  Mo194  1  0.08901863  0.90785773  0.39850009  1
  Mo  Mo195  1  0.20464093  0.79994652  -0.01368719  1
  Mo  Mo196  1  0.19691605  -0.00193216  0.49898307  1
  Mo  Mo197  1  0.40154878  0.61321271  0.76224019  1
  Mo  Mo198  1  0.80299412  0.59884486  0.02034892  1
  Mo  Mo199  1  0.71036514  0.90094748  0.85050996  1
