# generated using pymatgen
data_HfZrTaTiMo
_symmetry_space_group_name_H-M   'P 1'
_cell_length_a   15.93333249
_cell_length_b   15.92073542
_cell_length_c   15.21463509
_cell_angle_alpha   89.96819079
_cell_angle_beta   90.03707917
_cell_angle_gamma   90.00122474
_symmetry_Int_Tables_number   1
_chemical_formula_structural   HfZrTaTiMo
_chemical_formula_sum   'Hf40 Zr40 Ta40 Ti40 Mo40'
_cell_volume   3859.50072184
_cell_formula_units_Z   40
loop_
 _symmetry_equiv_pos_site_id
 _symmetry_equiv_pos_as_xyz
  1  'x, y, z'
loop_
 _atom_site_type_symbol
 _atom_site_label
 _atom_site_symmetry_multiplicity
 _atom_site_fract_x
 _atom_site_fract_y
 _atom_site_fract_z
 _atom_site_occupancy
  Hf  Hf0  1  0.40866879  0.20523384  0.25417755  1
  Hf  Hf1  1  0.00654447  0.41019243  0.26557127  1
  Hf  Hf2  1  0.29199879  0.69648005  0.88144382  1
  Hf  Hf3  1  0.49912108  0.69552848  0.87193114  1
  Hf  Hf4  1  0.58867173  0.41309989  0.74224370  1
  Hf  Hf5  1  0.49310692  0.69543096  0.63799090  1
  Hf  Hf6  1  0.79006587  0.60242548  0.25249691  1
  Hf  Hf7  1  0.58637382  0.60135831  0.24441137  1
  Hf  Hf8  1  0.91182136  0.90483265  0.64567303  1
  Hf  Hf9  1  0.39844626  0.39626325  0.75810783  1
  Hf  Hf10  1  0.60264367  0.01125809  0.75578275  1
  Hf  Hf11  1  0.79971515  0.16846848  0.25239161  1
  Hf  Hf12  1  0.10522741  0.49970855  0.11409975  1
  Hf  Hf13  1  0.90284656  0.29747226  0.13456638  1
  Hf  Hf14  1  0.28921988  0.68673288  0.12399538  1
  Hf  Hf15  1  -0.00769275  0.39374457  0.49920565  1
  Hf  Hf16  1  0.91042984  0.10138609  0.85868703  1
  Hf  Hf17  1  0.10292767  0.29314076  0.37203441  1
  Hf  Hf18  1  0.89958928  0.28013090  0.37066011  1
  Hf  Hf19  1  0.09076013  0.69402433  0.12474144  1
  Hf  Hf20  1  -0.00649946  0.59813472  0.49642515  1
  Hf  Hf21  1  0.41022826  0.79093798  0.23502889  1
  Hf  Hf22  1  0.00646319  0.20171980  0.00735651  1
  Hf  Hf23  1  0.20675625  0.21063749  0.00261790  1
  Hf  Hf24  1  0.90864306  0.30002426  0.86227352  1
  Hf  Hf25  1  0.00493052  -0.00220359  -0.01018249  1
  Hf  Hf26  1  0.62989816  0.00157678  0.24694031  1
  Hf  Hf27  1  0.10271053  0.30307778  0.86949003  1
  Hf  Hf28  1  0.30195159  0.88989011  0.37189238  1
  Hf  Hf29  1  0.79964481  0.79849107  0.51763096  1
  Hf  Hf30  1  0.51755161  0.10135027  0.37264416  1
  Hf  Hf31  1  0.11100850  0.69841468  0.38047017  1
  Hf  Hf32  1  0.30731369  0.49660868  0.61019281  1
  Hf  Hf33  1  0.90156775  0.49863512  0.12636878  1
  Hf  Hf34  1  -0.01960840  0.00866383  0.25229898  1
  Hf  Hf35  1  0.40531511  -0.00372578  0.48664643  1
  Hf  Hf36  1  0.79062334  0.00529411  0.75298210  1
  Hf  Hf37  1  0.37977511  0.39820488  -0.01343793  1
  Hf  Hf38  1  0.09181518  0.10430179  0.37834084  1
  Hf  Hf39  1  -0.00285991  0.80600547  0.25617986  1
  Zr  Zr40  1  0.39294051  0.58915945  0.00165156  1
  Zr  Zr41  1  0.49034562  0.90616820  0.63397891  1
  Zr  Zr42  1  0.79942331  0.20232208  -0.01060438  1
  Zr  Zr43  1  0.67712545  0.48936146  0.38554310  1
  Zr  Zr44  1  0.29027900  0.09694566  0.37495899  1
  Zr  Zr45  1  0.50366453  0.30859095  0.12296693  1
  Zr  Zr46  1  0.29327777  0.50771023  0.38174411  1
  Zr  Zr47  1  0.00003462  0.58957546  0.74955672  1
  Zr  Zr48  1  0.61166970  0.00838221  0.51297159  1
  Zr  Zr49  1  0.89420902  0.89894905  0.10693239  1
  Zr  Zr50  1  0.61772412  0.21047674  0.25147853  1
  Zr  Zr51  1  0.78015854  0.38448245  0.26044694  1
  Zr  Zr52  1  0.10961272  0.29061330  0.61955819  1
  Zr  Zr53  1  0.49767055  0.69763655  0.37986402  1
  Zr  Zr54  1  0.10024736  0.09912280  0.13262354  1
  Zr  Zr55  1  0.88615697  0.70740304  0.37102372  1
  Zr  Zr56  1  0.79561139  0.40336795  0.76460957  1
  Zr  Zr57  1  0.50707307  0.10298976  0.88971655  1
  Zr  Zr58  1  0.10883123  0.90772783  0.38505376  1
  Zr  Zr59  1  0.69088221  0.49029015  0.11896117  1
  Zr  Zr60  1  0.69596731  0.70171923  0.87771776  1
  Zr  Zr61  1  0.31129477  0.08740025  0.89213171  1
  Zr  Zr62  1  -0.00285671  0.80030128  0.50097793  1
  Zr  Zr63  1  0.68728347  0.71910398  0.11116843  1
  Zr  Zr64  1  0.89359914  0.70381064  0.12208320  1
  Zr  Zr65  1  0.10520127  0.90042751  0.62580514  1
  Zr  Zr66  1  0.52151946  0.89335207  0.11182805  1
  Zr  Zr67  1  0.40886568  -0.00286165  0.24506148  1
  Zr  Zr68  1  0.49428512  0.11329576  0.62251490  1
  Zr  Zr69  1  0.29888398  0.10422503  0.60825128  1
  Zr  Zr70  1  0.80341590  0.59542459  -0.00832930  1
  Zr  Zr71  1  0.70932841  0.90695234  0.39329592  1
  Zr  Zr72  1  0.20737992  0.40106603  0.74570382  1
  Zr  Zr73  1  0.60477954  0.21083237  0.74343988  1
  Zr  Zr74  1  0.22345559  -0.00832381  0.75444109  1
  Zr  Zr75  1  0.09999181  0.89274044  0.86324450  1
  Zr  Zr76  1  0.71505355  0.31122450  0.60975159  1
  Zr  Zr77  1  0.79873253  0.59183791  0.75277669  1
  Zr  Zr78  1  0.60057166  0.80985508  0.75436450  1
  Zr  Zr79  1  0.10129008  0.09435620  0.62870594  1
  Ta  Ta80  1  0.19390715  0.79857221  0.00799097  1
  Ta  Ta81  1  0.19974485  0.80112084  0.23632322  1
  Ta  Ta82  1  0.40791033  0.40750580  0.26713937  1
  Ta  Ta83  1  0.40023764  0.20520666  0.00883365  1
  Ta  Ta84  1  0.80043734  0.80096158  0.75379784  1
  Ta  Ta85  1  0.10156664  0.69595390  0.62744667  1
  Ta  Ta86  1  0.90759579  0.70569120  0.86864475  1
  Ta  Ta87  1  0.39991658  0.58613927  0.75625840  1
  Ta  Ta88  1  0.20309616  0.20075233  0.24608667  1
  Ta  Ta89  1  0.88650042  0.48801086  0.61128817  1
  Ta  Ta90  1  -0.00162796  0.40317826  0.73655880  1
  Ta  Ta91  1  0.10755435  0.49965969  0.88331736  1
  Ta  Ta92  1  0.38696942  0.80704562  0.75773445  1
  Ta  Ta93  1  0.59310980  0.59991904  0.51294052  1
  Ta  Ta94  1  0.78460574  0.81876942  0.25096284  1
  Ta  Ta95  1  0.20621608  0.79026870  0.74131673  1
  Ta  Ta96  1  0.40744922  0.21323307  0.47683863  1
  Ta  Ta97  1  0.39668746  0.59402502  0.24549999  1
  Ta  Ta98  1  0.10449680  0.10285837  0.86180651  1
  Ta  Ta99  1  0.51026813  0.10087419  0.11411910  1
  Ta  Ta100  1  0.48855170  0.90738590  0.88530636  1
  Ta  Ta101  1  0.30548868  0.10010932  0.12457984  1
  Ta  Ta102  1  0.21473743  0.20200066  0.75837755  1
  Ta  Ta103  1  0.59853959  0.79780696  0.51280902  1
  Ta  Ta104  1  0.10677005  0.31035323  0.13679813  1
  Ta  Ta105  1  0.29956662  0.90043894  0.11473513  1
  Ta  Ta106  1  0.71015006  0.90533194  0.09519221  1
  Ta  Ta107  1  0.67907346  0.50576377  0.88001311  1
  Ta  Ta108  1  0.20461423  0.59740645  0.74364905  1
  Ta  Ta109  1  0.29716797  0.70064729  0.36572414  1
  Ta  Ta110  1  0.69660127  0.69639536  0.63431342  1
  Ta  Ta111  1  0.51530036  0.89083379  0.37071878  1
  Ta  Ta112  1  0.39741319  0.20364414  0.75781120  1
  Ta  Ta113  1  0.79097901  0.60069524  0.50416477  1
  Ta  Ta114  1  0.29768080  0.30957421  0.14121068  1
  Ta  Ta115  1  0.49963481  0.29909080  0.88305548  1
  Ta  Ta116  1  0.21557958  0.78753071  0.51549237  1
  Ta  Ta117  1  0.19834007  0.39929467  0.49146876  1
  Ta  Ta118  1  -0.00188667  0.59654209  0.26669274  1
  Ta  Ta119  1  0.10226145  0.50129788  0.61049242  1
  Ti  Ti120  1  0.30519058  0.89469847  0.89533884  1
  Ti  Ti121  1  0.60862567  0.20844737  0.49851729  1
  Ti  Ti122  1  0.48987307  0.49416423  0.12504451  1
  Ti  Ti123  1  0.69739275  0.90648472  0.89000002  1
  Ti  Ti124  1  0.58527758  0.60222014  0.01110598  1
  Ti  Ti125  1  0.58837904  0.40586650  -0.00968069  1
  Ti  Ti126  1  0.29775642  0.30376622  0.36900253  1
  Ti  Ti127  1  0.70360126  0.90136556  0.62810863  1
  Ti  Ti128  1  0.89001554  0.09070495  0.10853517  1
  Ti  Ti129  1  0.30392260  0.90124075  0.61712668  1
  Ti  Ti130  1  -0.01146388  0.00750893  0.50259312  1
  Ti  Ti131  1  0.52309634  0.32174676  0.37935388  1
  Ti  Ti132  1  0.90319827  0.10579395  0.64172742  1
  Ti  Ti133  1  0.79410900  0.20267738  0.74805278  1
  Ti  Ti134  1  0.40199214  0.79629279  0.50303681  1
  Ti  Ti135  1  0.39381446  0.60870072  0.50185452  1
  Ti  Ti136  1  0.68955390  0.70759719  0.37998001  1
  Ti  Ti137  1  0.80225757  0.40355167  -0.01391029  1
  Ti  Ti138  1  0.90190200  0.89535127  0.86692898  1
  Ti  Ti139  1  0.70046316  0.09075447  0.09371704  1
  Ti  Ti140  1  0.88471949  0.49747016  0.38160463  1
  Ti  Ti141  1  -0.00049581  0.59771287  -0.01324398  1
  Ti  Ti142  1  -0.00111359  0.40039584  -0.00286695  1
  Ti  Ti143  1  0.88934840  0.91550010  0.38425598  1
  Ti  Ti144  1  0.28739399  0.48799025  0.13660439  1
  Ti  Ti145  1  0.10137479  0.69721194  0.87042877  1
  Ti  Ti146  1  0.49007843  0.31064460  0.61025875  1
  Ti  Ti147  1  0.19809251  -0.00321539  0.00369560  1
  Ti  Ti148  1  0.00162784  0.79572718  -0.00750447  1
  Ti  Ti149  1  0.30645136  0.29329194  0.60471432  1
  Ti  Ti150  1  0.80552615  0.18917931  0.50487435  1
  Ti  Ti151  1  0.89994117  0.69641212  0.63734994  1
  Ti  Ti152  1  0.09829596  0.89828193  0.12378146  1
  Ti  Ti153  1  0.69723985  0.30083708  0.10661206  1
  Ti  Ti154  1  0.40437544  0.79227587  0.00854424  1
  Ti  Ti155  1  -0.00722149  0.19717424  0.51450172  1
  Ti  Ti156  1  0.68905973  0.30117703  0.88266054  1
  Ti  Ti157  1  0.18846267  0.58934654  0.25652063  1
  Ti  Ti158  1  0.20148058  -0.00557645  0.24135138  1
  Ti  Ti159  1  0.69524155  0.50162631  0.61681325  1
  Mo  Mo160  1  -0.00065660  0.19874620  0.23493810  1
  Mo  Mo161  1  0.20315440  0.40151315  0.26315334  1
  Mo  Mo162  1  0.59502134  0.59362074  0.73501098  1
  Mo  Mo163  1  0.60415692  0.00385498  -0.00996267  1
  Mo  Mo164  1  0.80992449  0.00680412  0.52924840  1
  Mo  Mo165  1  0.49595248  0.69480910  0.12080595  1
  Mo  Mo166  1  0.09705836  0.50276890  0.39223405  1
  Mo  Mo167  1  0.49314235  0.49903957  0.60739122  1
  Mo  Mo168  1  0.19220657  0.59938580  -0.00982871  1
  Mo  Mo169  1  0.70361750  0.10764300  0.87972878  1
  Mo  Mo170  1  0.29206383  0.50087225  0.86620541  1
  Mo  Mo171  1  0.90299645  0.29559178  0.63428265  1
  Mo  Mo172  1  0.30178378  0.29267033  0.87713885  1
  Mo  Mo173  1  0.59429940  0.40039864  0.51711776  1
  Mo  Mo174  1  0.60209531  0.20853122  0.00296949  1
  Mo  Mo175  1  0.70194347  0.29307173  0.39277631  1
  Mo  Mo176  1  0.19714232  0.40076430  -0.00072216  1
  Mo  Mo177  1  0.00773395  0.20488012  0.73857794  1
  Mo  Mo178  1  0.49997922  0.50112759  0.88257034  1
  Mo  Mo179  1  0.80268479  0.00231487  -0.02678475  1
  Mo  Mo180  1  0.40024161  0.39497648  0.48267582  1
  Mo  Mo181  1  0.59548188  0.80275851  -0.02070248  1
  Mo  Mo182  1  0.60934071  0.80153461  0.25766448  1
  Mo  Mo183  1  0.71426920  0.10191979  0.39756005  1
  Mo  Mo184  1  0.79998658  -0.00313246  0.24228107  1
  Mo  Mo185  1  0.00324027  0.79088920  0.75162254  1
  Mo  Mo186  1  0.80461844  0.80374231  -0.02772604  1
  Mo  Mo187  1  0.20161254  -0.00870575  0.50083722  1
  Mo  Mo188  1  0.58980536  0.40124147  0.24523531  1
  Mo  Mo189  1  0.20651984  0.20288064  0.48367839  1
  Mo  Mo190  1  0.49180356  0.50253422  0.38975125  1
  Mo  Mo191  1  0.40193347  -0.00319323  0.75147961  1
  Mo  Mo192  1  0.40108815  -0.00164681  0.01954220  1
  Mo  Mo193  1  0.20057469  0.60470164  0.51355452  1
  Mo  Mo194  1  0.70818724  0.10712985  0.61880326  1
  Mo  Mo195  1  0.91051153  0.49607192  0.88711103  1
  Mo  Mo196  1  0.90034827  0.09415575  0.39139560  1
  Mo  Mo197  1  0.79988615  0.39833820  0.48719741  1
  Mo  Mo198  1  0.00372764  0.00100457  0.75882242  1
  Mo  Mo199  1  0.30578552  0.69913708  0.63712367  1
