# generated using pymatgen
data_HfZrTaTiMo
_symmetry_space_group_name_H-M   'P 1'
_cell_length_a   15.93363097
_cell_length_b   15.92207561
_cell_length_c   15.20755210
_cell_angle_alpha   90.02368577
_cell_angle_beta   89.98203526
_cell_angle_gamma   89.93434151
_symmetry_Int_Tables_number   1
_chemical_formula_structural   HfZrTaTiMo
_chemical_formula_sum   'Hf40 Zr40 Ta40 Ti40 Mo40'
_cell_volume   3858.09934003
_cell_formula_units_Z   40
loop_
 _symmetry_equiv_pos_site_id
 _symmetry_equiv_pos_as_xyz
  1  'x, y, z'
loop_
 _atom_site_type_symbol
 _atom_site_label
 _atom_site_symmetry_multiplicity
 _atom_site_fract_x
 _atom_site_fract_y
 _atom_site_fract_z
 _atom_site_occupancy
  Hf  Hf0  1  0.69995249  0.30238627  0.38019726  1
  Hf  Hf1  1  0.78549889  0.20088396  0.01737649  1
  Hf  Hf2  1  0.39747500  0.20359422  0.75836784  1
  Hf  Hf3  1  0.09114857  0.30631843  0.60934720  1
  Hf  Hf4  1  0.89508571  0.90472772  0.87087113  1
  Hf  Hf5  1  0.50401697  0.50649209  0.63757059  1
  Hf  Hf6  1  0.39972770  0.59881622  0.23756817  1
  Hf  Hf7  1  0.59990767  -0.00523710  0.25071890  1
  Hf  Hf8  1  0.71218015  0.10401199  0.37910126  1
  Hf  Hf9  1  0.69699745  0.69807083  0.62219967  1
  Hf  Hf10  1  0.01495091  0.59345143  0.75109389  1
  Hf  Hf11  1  0.29565293  0.09799780  0.38007654  1
  Hf  Hf12  1  0.10372998  0.90246573  0.38971823  1
  Hf  Hf13  1  0.78548478  0.40657675  0.24765890  1
  Hf  Hf14  1  0.09958058  0.70316193  0.11881473  1
  Hf  Hf15  1  0.90924512  0.48819719  0.61745455  1
  Hf  Hf16  1  0.91098089  0.69809702  0.61518226  1
  Hf  Hf17  1  0.71370290  0.48739941  0.62730215  1
  Hf  Hf18  1  0.90471781  0.70577219  0.87248858  1
  Hf  Hf19  1  0.78627300  0.60725050  -0.01091891  1
  Hf  Hf20  1  0.60619122  0.60192206  0.77104052  1
  Hf  Hf21  1  0.11319342  0.69240554  0.39162274  1
  Hf  Hf22  1  0.39538951  -0.00056543  0.77469607  1
  Hf  Hf23  1  0.60820265  0.20250662  0.24823555  1
  Hf  Hf24  1  0.60605437  0.00438031  0.00101544  1
  Hf  Hf25  1  0.09116840  0.12077191  0.11164306  1
  Hf  Hf26  1  0.00900564  0.80021270  0.74264743  1
  Hf  Hf27  1  0.60025183  0.79712561  0.25372903  1
  Hf  Hf28  1  0.00522463  0.58927427  0.26564583  1
  Hf  Hf29  1  0.90071565  0.90246706  0.38737481  1
  Hf  Hf30  1  0.59756900  0.39794514  0.50506735  1
  Hf  Hf31  1  -0.00043214  0.00406565  0.25082505  1
  Hf  Hf32  1  0.70670863  0.90174311  0.38597413  1
  Hf  Hf33  1  0.29911635  0.50356100  0.88411133  1
  Hf  Hf34  1  0.19766545  0.40009691  0.74358666  1
  Hf  Hf35  1  0.39678427  -0.00383922  -0.00694196  1
  Hf  Hf36  1  -0.00548778  0.20114207  0.74477834  1
  Hf  Hf37  1  0.50190763  0.30158615  0.13162355  1
  Hf  Hf38  1  0.19955896  0.19588977  0.73851170  1
  Hf  Hf39  1  0.30415304  0.71429705  0.12451773  1
  Zr  Zr40  1  0.49654240  0.70999292  0.63060774  1
  Zr  Zr41  1  0.58876003  0.20562579  0.50705977  1
  Zr  Zr42  1  0.20406965  0.60258578  0.74361642  1
  Zr  Zr43  1  0.59325156  -0.00004363  0.50086190  1
  Zr  Zr44  1  0.30191302  0.91605220  0.62872742  1
  Zr  Zr45  1  0.51519290  0.49701866  0.11982994  1
  Zr  Zr46  1  0.61939828  0.59174358  0.24991765  1
  Zr  Zr47  1  0.59749355  0.38355460  0.75131663  1
  Zr  Zr48  1  0.80702452  0.59981630  0.75248327  1
  Zr  Zr49  1  0.40357639  0.39596122  0.50515365  1
  Zr  Zr50  1  0.79949137  0.79871066  0.24864079  1
  Zr  Zr51  1  0.11437101  0.09141057  0.60487273  1
  Zr  Zr52  1  0.89672723  0.49924010  0.11140105  1
  Zr  Zr53  1  0.29486233  0.50775049  0.37708716  1
  Zr  Zr54  1  0.00380593  0.39689526  0.26421338  1
  Zr  Zr55  1  0.00344730  0.00248198  0.74342947  1
  Zr  Zr56  1  0.10011293  0.89556560  0.12407957  1
  Zr  Zr57  1  0.87874875  0.11105644  0.86809854  1
  Zr  Zr58  1  0.80588931  0.60064415  0.26230545  1
  Zr  Zr59  1  0.48567671  0.69818699  0.87848753  1
  Zr  Zr60  1  0.90566663  0.48918634  0.88218402  1
  Zr  Zr61  1  0.59380589  0.19760295  0.74084530  1
  Zr  Zr62  1  0.18751600  0.20639240  0.25330219  1
  Zr  Zr63  1  0.59382367  0.81149049  0.76145753  1
  Zr  Zr64  1  0.10314150  0.28448944  0.89168228  1
  Zr  Zr65  1  0.50003875  0.69468643  0.37686639  1
  Zr  Zr66  1  0.19158482  0.40654146  0.24778014  1
  Zr  Zr67  1  0.20108358  -0.00151056  0.00299486  1
  Zr  Zr68  1  0.59546457  0.00370267  0.74762317  1
  Zr  Zr69  1  0.60642296  0.80094021  -0.01145929  1
  Zr  Zr70  1  0.90344557  0.70290497  0.11344365  1
  Zr  Zr71  1  -0.00016663  0.79466471  0.25931790  1
  Zr  Zr72  1  0.70920104  0.47612563  0.87760216  1
  Zr  Zr73  1  -0.00214976  0.00768382  -0.01347568  1
  Zr  Zr74  1  0.40029775  0.20279097  -0.00618921  1
  Zr  Zr75  1  0.39768275  0.39609968  0.75322827  1
  Zr  Zr76  1  0.90689292  0.29380216  0.13058195  1
  Zr  Zr77  1  0.46497464  0.09103393  0.61142730  1
  Zr  Zr78  1  0.39780604  0.59892845  0.51027937  1
  Zr  Zr79  1  0.49370974  0.09959709  0.13073054  1
  Ta  Ta80  1  0.20502850  0.59974429  0.01004033  1
  Ta  Ta81  1  0.10451329  0.49259831  0.89144591  1
  Ta  Ta82  1  0.30128889  0.70329483  0.37196498  1
  Ta  Ta83  1  0.79938974  0.80716094  0.74108101  1
  Ta  Ta84  1  0.69679759  0.89878276  0.61925901  1
  Ta  Ta85  1  0.49300959  0.10370455  0.36928709  1
  Ta  Ta86  1  0.09410704  0.49944717  0.11110547  1
  Ta  Ta87  1  0.80260606  0.59277308  0.49132356  1
  Ta  Ta88  1  0.09494363  0.09747221  0.38671510  1
  Ta  Ta89  1  0.88796104  0.30171342  0.61300172  1
  Ta  Ta90  1  0.20556267  0.39789793  0.01697793  1
  Ta  Ta91  1  -0.00893443  0.19748173  0.49601903  1
  Ta  Ta92  1  0.20745207  0.80049376  0.75524549  1
  Ta  Ta93  1  0.19827237  0.00231746  0.25032551  1
  Ta  Ta94  1  0.30317149  0.90085459  0.13712123  1
  Ta  Ta95  1  0.80774464  0.00513786  0.51958455  1
  Ta  Ta96  1  0.50637020  0.48980577  0.36480830  1
  Ta  Ta97  1  0.89782528  0.90344607  0.11646164  1
  Ta  Ta98  1  0.21989603  0.80700939  0.49607311  1
  Ta  Ta99  1  0.10415434  0.50157681  0.60503021  1
  Ta  Ta100  1  0.50168325  0.70521901  0.11671186  1
  Ta  Ta101  1  0.10716672  0.89364299  0.61321323  1
  Ta  Ta102  1  0.49243623  0.89135957  0.12151653  1
  Ta  Ta103  1  0.30014131  0.29218894  0.61303183  1
  Ta  Ta104  1  0.30285968  0.30144863  0.36773917  1
  Ta  Ta105  1  0.79925520  0.00367771  0.72843608  1
  Ta  Ta106  1  0.19886660  0.59965317  0.23536427  1
  Ta  Ta107  1  0.79084626  0.00455022  0.01019988  1
  Ta  Ta108  1  0.89853345  0.10154879  0.12864883  1
  Ta  Ta109  1  0.39706596  0.59891545  0.00939255  1
  Ta  Ta110  1  0.39887017  -0.00348082  0.25511543  1
  Ta  Ta111  1  0.79541276  0.80826178  -0.00546175  1
  Ta  Ta112  1  0.38894710  0.60371422  0.74976983  1
  Ta  Ta113  1  0.40006602  0.40076697  0.00453133  1
  Ta  Ta114  1  0.00284681  0.39588558  0.75384133  1
  Ta  Ta115  1  0.59397248  0.80301908  0.49524808  1
  Ta  Ta116  1  0.88806451  0.29157519  0.37922004  1
  Ta  Ta117  1  0.27821758  0.11062823  0.88611768  1
  Ta  Ta118  1  0.11037119  0.70301940  0.60800532  1
  Ta  Ta119  1  0.30289460  0.29719602  0.13483184  1
  Ti  Ti120  1  0.10532454  0.90014228  0.87074377  1
  Ti  Ti121  1  0.29445435  0.30247663  0.88596266  1
  Ti  Ti122  1  0.90349987  0.70460707  0.39366610  1
  Ti  Ti123  1  0.19714294  0.00464608  0.75958250  1
  Ti  Ti124  1  0.19983549  0.20711646  0.49210510  1
  Ti  Ti125  1  0.70157148  0.89804627  0.12569142  1
  Ti  Ti126  1  0.00360221  0.80531745  -0.00964833  1
  Ti  Ti127  1  0.30730921  0.71478154  0.62115365  1
  Ti  Ti128  1  0.89430510  0.10082597  0.37689226  1
  Ti  Ti129  1  0.79945367  0.00534138  0.23918644  1
  Ti  Ti130  1  0.60684304  0.19731567  0.00540089  1
  Ti  Ti131  1  -0.00139403  0.39797890  0.47744057  1
  Ti  Ti132  1  0.20309582  0.40247745  0.49517947  1
  Ti  Ti133  1  0.00574158  0.60145015  -0.00879088  1
  Ti  Ti134  1  0.60404787  0.59497862  0.49467742  1
  Ti  Ti135  1  0.70560791  0.10907110  0.62066811  1
  Ti  Ti136  1  0.29949948  0.10360881  0.13409857  1
  Ti  Ti137  1  0.70874290  0.27911559  0.86420331  1
  Ti  Ti138  1  0.70587763  0.70235176  0.39052098  1
  Ti  Ti139  1  0.69653687  0.69834719  0.12003765  1
  Ti  Ti140  1  0.20826472  0.80301243  -0.01373151  1
  Ti  Ti141  1  0.20224270  0.80116638  0.25910720  1
  Ti  Ti142  1  -0.00075496  0.20236339  0.27047038  1
  Ti  Ti143  1  0.70681798  0.91519325  0.86616689  1
  Ti  Ti144  1  0.40500716  0.80614361  0.26154755  1
  Ti  Ti145  1  0.60167480  0.59987445  -0.00890939  1
  Ti  Ti146  1  0.39218158  0.80756102  -0.01455629  1
  Ti  Ti147  1  0.49791594  0.49287050  0.88288627  1
  Ti  Ti148  1  0.80412151  0.80318073  0.51444012  1
  Ti  Ti149  1  0.11059032  0.69742936  0.88219397  1
  Ti  Ti150  1  0.39856010  0.20838887  0.48793336  1
  Ti  Ti151  1  0.88750799  0.30363637  0.87548875  1
  Ti  Ti152  1  0.39914051  0.40135881  0.24592851  1
  Ti  Ti153  1  -0.00704895  -0.00099415  0.51248533  1
  Ti  Ti154  1  0.00258471  0.59104081  0.48903489  1
  Ti  Ti155  1  0.39278026  -0.02438767  0.47298627  1
  Ti  Ti156  1  0.00064429  0.38729849  0.00100699  1
  Ti  Ti157  1  0.50883509  0.10705203  0.88232235  1
  Ti  Ti158  1  0.61014370  0.38172599  -0.00453809  1
  Ti  Ti159  1  0.48701604  0.89206199  0.61995473  1
  Mo  Mo160  1  0.40191355  0.80319114  0.48614628  1
  Mo  Mo161  1  0.29606015  0.49774677  0.62453854  1
  Mo  Mo162  1  0.20511310  0.20527153  0.01910049  1
  Mo  Mo163  1  0.79458823  0.20190106  0.73129429  1
  Mo  Mo164  1  0.70744434  0.71433626  0.86518704  1
  Mo  Mo165  1  0.00531213  0.79832619  0.50625154  1
  Mo  Mo166  1  0.50098881  0.90013094  0.36992610  1
  Mo  Mo167  1  0.80496026  0.19572823  0.24387820  1
  Mo  Mo168  1  0.59913418  0.40021673  0.25764456  1
  Mo  Mo169  1  0.20431212  -0.00130988  0.48574582  1
  Mo  Mo170  1  0.30078857  0.50022864  0.12310199  1
  Mo  Mo171  1  0.70488298  0.29741600  0.61976260  1
  Mo  Mo172  1  0.70363767  0.09706871  0.13913314  1
  Mo  Mo173  1  0.49095347  0.29694831  0.62279392  1
  Mo  Mo174  1  0.29283251  0.90056143  0.86494964  1
  Mo  Mo175  1  0.38911299  0.80241269  0.76425467  1
  Mo  Mo176  1  0.49677584  0.90379878  0.89211072  1
  Mo  Mo177  1  0.89751442  0.49445046  0.38578692  1
  Mo  Mo178  1  0.90122526  0.89831203  0.62237861  1
  Mo  Mo179  1  0.69928584  0.09860409  0.86591521  1
  Mo  Mo180  1  0.80212195  0.39976223  0.48863107  1
  Mo  Mo181  1  0.29890762  0.89574218  0.35442401  1
  Mo  Mo182  1  0.79266698  0.39097305  0.01312460  1
  Mo  Mo183  1  0.09919023  0.10051880  0.88059024  1
  Mo  Mo184  1  0.29454632  0.70019436  0.88748308  1
  Mo  Mo185  1  0.49274906  0.30174723  0.35648181  1
  Mo  Mo186  1  -0.01139492  0.20199378  -0.01314167  1
  Mo  Mo187  1  0.20876694  0.60314755  0.51655131  1
  Mo  Mo188  1  0.10418658  0.50062746  0.39289319  1
  Mo  Mo189  1  0.69881041  0.49513071  0.10267968  1
  Mo  Mo190  1  0.81105067  0.38366147  0.74827246  1
  Mo  Mo191  1  0.50427300  0.30027413  0.89672234  1
  Mo  Mo192  1  0.90277494  0.10337098  0.62373355  1
  Mo  Mo193  1  0.09760863  0.30323064  0.11300530  1
  Mo  Mo194  1  0.69623497  0.30453831  0.13217033  1
  Mo  Mo195  1  0.69749407  0.50128942  0.39266381  1
  Mo  Mo196  1  0.09878545  0.29568194  0.39391456  1
  Mo  Mo197  1  0.79982520  0.19745583  0.51105705  1
  Mo  Mo198  1  0.29950618  0.10433253  0.60492595  1
  Mo  Mo199  1  0.39621024  0.20068539  0.26027587  1
