# generated using pymatgen
data_HfZrTaTiMo
_symmetry_space_group_name_H-M   'P 1'
_cell_length_a   15.94061491
_cell_length_b   15.92464100
_cell_length_c   15.21958731
_cell_angle_alpha   90.04531728
_cell_angle_beta   90.01018300
_cell_angle_gamma   90.12655032
_symmetry_Int_Tables_number   1
_chemical_formula_structural   HfZrTaTiMo
_chemical_formula_sum   'Hf40 Zr40 Ta40 Ti40 Mo40'
_cell_volume   3863.45977565
_cell_formula_units_Z   40
loop_
 _symmetry_equiv_pos_site_id
 _symmetry_equiv_pos_as_xyz
  1  'x, y, z'
loop_
 _atom_site_type_symbol
 _atom_site_label
 _atom_site_symmetry_multiplicity
 _atom_site_fract_x
 _atom_site_fract_y
 _atom_site_fract_z
 _atom_site_occupancy
  Hf  Hf0  1  0.09399245  0.69923541  0.88989213  1
  Hf  Hf1  1  0.19562643  0.01007884  0.51784373  1
  Hf  Hf2  1  0.29302505  0.69433036  0.87145440  1
  Hf  Hf3  1  0.09186369  0.28523483  0.38358054  1
  Hf  Hf4  1  0.10300398  0.29787983  0.61656831  1
  Hf  Hf5  1  -0.00902854  0.41526450  0.49551370  1
  Hf  Hf6  1  0.78542006  0.19252705  0.75782184  1
  Hf  Hf7  1  0.88572487  0.51690986  0.63420775  1
  Hf  Hf8  1  0.11199137  0.31182483  0.87188369  1
  Hf  Hf9  1  0.70019832  0.49292895  0.13032110  1
  Hf  Hf10  1  0.49510847  0.10941790  0.38812123  1
  Hf  Hf11  1  0.59044243  0.18855410  0.23061100  1
  Hf  Hf12  1  0.09872162  0.49604936  0.12295976  1
  Hf  Hf13  1  0.59534391  0.62244364  0.24268148  1
  Hf  Hf14  1  0.08553640  0.29535404  0.12712508  1
  Hf  Hf15  1  0.72081735  0.68739757  0.63078876  1
  Hf  Hf16  1  0.49650898  0.49867099  0.36559974  1
  Hf  Hf17  1  0.29982844  0.49190892  0.12755965  1
  Hf  Hf18  1  0.80026876  0.00114019  0.26090347  1
  Hf  Hf19  1  0.68837212  0.30699236  0.61489977  1
  Hf  Hf20  1  0.59041746  0.38106133  0.23757817  1
  Hf  Hf21  1  0.10734615  0.50757177  0.63903959  1
  Hf  Hf22  1  0.10185602  0.89829716  0.88088292  1
  Hf  Hf23  1  0.81063116  0.60405778  0.00446854  1
  Hf  Hf24  1  0.29372433  0.28903268  0.37551264  1
  Hf  Hf25  1  0.68942089  0.10421358  0.61361908  1
  Hf  Hf26  1  0.49574730  0.09775985  0.62432793  1
  Hf  Hf27  1  0.60435111  0.00063253  0.76757912  1
  Hf  Hf28  1  -0.00717555  0.40634844  -0.00839063  1
  Hf  Hf29  1  0.11112972  0.11088699  0.12112889  1
  Hf  Hf30  1  -0.00000152  0.79877885  0.73619844  1
  Hf  Hf31  1  0.39509598  0.59642891  0.49438444  1
  Hf  Hf32  1  0.80266399  0.61290009  0.24793907  1
  Hf  Hf33  1  0.90468743  0.11602271  0.11546126  1
  Hf  Hf34  1  0.80008724  0.81041264  0.25884693  1
  Hf  Hf35  1  0.49339467  0.10272425  0.88126654  1
  Hf  Hf36  1  0.30426432  0.48990798  0.64277740  1
  Hf  Hf37  1  0.20300904  0.40729513  0.49244204  1
  Hf  Hf38  1  0.68499678  0.29674930  0.38359187  1
  Hf  Hf39  1  0.68316911  0.30830731  0.88351454  1
  Zr  Zr40  1  0.68720554  0.50918796  0.87810438  1
  Zr  Zr41  1  0.40723197  0.80036604  0.25326702  1
  Zr  Zr42  1  0.29843107  0.68744954  0.63620091  1
  Zr  Zr43  1  0.41098033  0.80068342  0.75527300  1
  Zr  Zr44  1  0.29064089  0.48568416  0.87771625  1
  Zr  Zr45  1  0.00210916  0.19579508  0.74627543  1
  Zr  Zr46  1  0.48499309  0.07691690  0.10701789  1
  Zr  Zr47  1  -0.00112907  -0.00095519  0.24057408  1
  Zr  Zr48  1  0.78800748  0.41026459  0.75448916  1
  Zr  Zr49  1  0.08794229  0.50640104  0.35922110  1
  Zr  Zr50  1  0.09836717  0.90091457  0.38056037  1
  Zr  Zr51  1  0.48834273  0.50279145  0.13234004  1
  Zr  Zr52  1  0.60577067  0.60655574  0.01496964  1
  Zr  Zr53  1  0.60292259  0.19296948  0.00403994  1
  Zr  Zr54  1  -0.00003749  0.62325177  0.22503877  1
  Zr  Zr55  1  0.89569593  0.30418035  0.62134549  1
  Zr  Zr56  1  0.10625293  0.71519473  0.38221050  1
  Zr  Zr57  1  0.30255470  0.29872752  0.88004806  1
  Zr  Zr58  1  0.70966149  0.90457274  0.62771371  1
  Zr  Zr59  1  0.41971105  0.58306779  0.76273413  1
  Zr  Zr60  1  0.32392437  0.90806328  0.11261907  1
  Zr  Zr61  1  0.72068257  0.29592789  0.12325578  1
  Zr  Zr62  1  0.20421017  0.61295801  0.24238611  1
  Zr  Zr63  1  0.89669544  0.48254474  0.14080842  1
  Zr  Zr64  1  0.51306963  0.89998043  0.39378191  1
  Zr  Zr65  1  0.88194926  0.90313574  0.10241772  1
  Zr  Zr66  1  0.49429071  0.30218482  0.61738081  1
  Zr  Zr67  1  0.20806749  -0.00048661  0.24078798  1
  Zr  Zr68  1  0.89513496  0.09328699  0.62556488  1
  Zr  Zr69  1  0.51356252  0.69285908  0.88197614  1
  Zr  Zr70  1  0.81811380  0.20783383  0.26612130  1
  Zr  Zr71  1  0.80227862  -0.00390853  0.48333982  1
  Zr  Zr72  1  0.61081917  0.79934537  0.75525726  1
  Zr  Zr73  1  0.29332840  0.89093298  0.38561926  1
  Zr  Zr74  1  0.60118060  -0.01570007  0.23588389  1
  Zr  Zr75  1  0.89925321  0.30353233  0.86647920  1
  Zr  Zr76  1  0.68364181  0.09624395  0.38236223  1
  Zr  Zr77  1  0.69519377  0.49932635  0.35949789  1
  Zr  Zr78  1  0.91765759  0.70502937  0.38177881  1
  Zr  Zr79  1  0.30631088  0.90081265  0.63319073  1
  Ta  Ta80  1  0.81107210  0.79607337  0.76383606  1
  Ta  Ta81  1  0.50754735  0.69541459  0.61773029  1
  Ta  Ta82  1  0.80518444  0.79467056  0.49493807  1
  Ta  Ta83  1  0.20308623  0.19745534  0.74475686  1
  Ta  Ta84  1  0.39388781  0.00121253  0.49942134  1
  Ta  Ta85  1  0.80035306  0.40334423  -0.01053083  1
  Ta  Ta86  1  0.10677601  0.10537996  0.37485908  1
  Ta  Ta87  1  0.20750430  0.80139306  0.00841236  1
  Ta  Ta88  1  -0.00092684  -0.00640058  0.75137573  1
  Ta  Ta89  1  0.80622464  0.59624068  0.48177156  1
  Ta  Ta90  1  0.30154376  0.50020670  0.35365471  1
  Ta  Ta91  1  0.10131390  0.50732240  0.87175367  1
  Ta  Ta92  1  0.48040455  0.29654416  0.10213037  1
  Ta  Ta93  1  0.21171658  0.01007099  -0.00360056  1
  Ta  Ta94  1  0.20079159  0.59924266  0.49210767  1
  Ta  Ta95  1  0.61143950  0.79568067  0.51047253  1
  Ta  Ta96  1  0.39538793  0.40131083  0.48942673  1
  Ta  Ta97  1  0.29739828  0.89999060  0.87116213  1
  Ta  Ta98  1  0.40365658  0.00259700  0.26502813  1
  Ta  Ta99  1  0.50606394  0.49567445  0.61109220  1
  Ta  Ta100  1  0.91380910  0.89828115  0.38628769  1
  Ta  Ta101  1  0.49446966  0.71359472  0.11386818  1
  Ta  Ta102  1  0.50614700  0.90184706  0.61683993  1
  Ta  Ta103  1  0.29418799  0.10232701  0.37824870  1
  Ta  Ta104  1  0.50368064  0.70181462  0.38796827  1
  Ta  Ta105  1  0.19589900  0.38840788  0.25020098  1
  Ta  Ta106  1  0.60656111  0.59990939  0.49872718  1
  Ta  Ta107  1  0.38966942  0.19300807  0.23769810  1
  Ta  Ta108  1  0.90265987  0.09334944  0.87646550  1
  Ta  Ta109  1  0.59311919  0.20385978  0.75906227  1
  Ta  Ta110  1  0.71284455  0.08177531  0.10501494  1
  Ta  Ta111  1  0.39678990  0.60001674  -0.00294480  1
  Ta  Ta112  1  0.00542117  0.00610638  -0.00471399  1
  Ta  Ta113  1  0.19584090  0.80123558  0.22411449  1
  Ta  Ta114  1  -0.00332584  0.61309666  0.74680703  1
  Ta  Ta115  1  0.48988010  0.30404322  0.88957060  1
  Ta  Ta116  1  0.80429100  0.20291604  0.49220631  1
  Ta  Ta117  1  0.19192822  0.79620639  0.74517311  1
  Ta  Ta118  1  0.10478698  0.09891444  0.87124678  1
  Ta  Ta119  1  0.79952135  0.40730300  0.48489513  1
  Ti  Ti120  1  0.37445888  0.18279842  0.00471642  1
  Ti  Ti121  1  0.69581510  0.70852537  0.37844836  1
  Ti  Ti122  1  0.69512101  0.49734698  0.61532025  1
  Ti  Ti123  1  0.28050834  0.28872612  0.11489192  1
  Ti  Ti124  1  0.19897921  0.59962577  0.00837688  1
  Ti  Ti125  1  0.30190345  0.70204045  0.37440611  1
  Ti  Ti126  1  0.90666325  0.89680329  0.88555302  1
  Ti  Ti127  1  0.00001795  0.40844885  0.74938181  1
  Ti  Ti128  1  0.29545059  0.09615440  0.86087018  1
  Ti  Ti129  1  0.39227468  0.38105300  0.24720456  1
  Ti  Ti130  1  0.00882773  0.00042165  0.51906486  1
  Ti  Ti131  1  0.40132595  0.79570410  0.50786313  1
  Ti  Ti132  1  0.49362604  0.29551782  0.38359584  1
  Ti  Ti133  1  0.90536452  0.51525527  0.86698665  1
  Ti  Ti134  1  0.00293350  0.61078646  0.51538093  1
  Ti  Ti135  1  0.19039167  0.79704293  0.52710702  1
  Ti  Ti136  1  0.00182872  0.80612077  0.22568669  1
  Ti  Ti137  1  0.00258880  0.20271719  -0.01645417  1
  Ti  Ti138  1  0.80375140  -0.00583949  0.76668218  1
  Ti  Ti139  1  0.29930955  0.30320254  0.63112210  1
  Ti  Ti140  1  0.80424463  0.20035338  -0.01499772  1
  Ti  Ti141  1  0.19413760  -0.00274548  0.74445687  1
  Ti  Ti142  1  0.40577384  -0.00534046  0.75755839  1
  Ti  Ti143  1  0.89902188  0.89427329  0.61855733  1
  Ti  Ti144  1  0.49706539  0.47914692  0.90372261  1
  Ti  Ti145  1  -0.02373209  0.37413876  0.26322130  1
  Ti  Ti146  1  0.60559332  0.80683521  0.24104906  1
  Ti  Ti147  1  0.90700604  0.70632241  0.89086672  1
  Ti  Ti148  1  0.70894055  0.90236284  0.89005170  1
  Ti  Ti149  1  0.40458815  0.80231951  -0.01500618  1
  Ti  Ti150  1  0.58093381  0.40561113  0.75208805  1
  Ti  Ti151  1  0.60598172  0.80825849  -0.00346545  1
  Ti  Ti152  1  0.31021010  0.69757900  0.11921374  1
  Ti  Ti153  1  0.40111981  0.20510345  0.75092739  1
  Ti  Ti154  1  0.60786547  0.59653527  0.74158210  1
  Ti  Ti155  1  0.30167938  0.10396645  0.63456606  1
  Ti  Ti156  1  0.10078824  0.90264632  0.10633269  1
  Ti  Ti157  1  0.38614537  0.19977137  0.50769163  1
  Ti  Ti158  1  0.92536400  0.10757483  0.38617182  1
  Ti  Ti159  1  0.71326649  0.72429933  0.11414500  1
  Mo  Mo160  1  0.59527499  -0.00380580  0.50823303  1
  Mo  Mo161  1  0.59328172  0.40723768  0.49303526  1
  Mo  Mo162  1  0.20577145  0.19505266  0.52113600  1
  Mo  Mo163  1  0.69706433  0.90033429  0.10561872  1
  Mo  Mo164  1  0.70980832  0.70365771  0.87107419  1
  Mo  Mo165  1  0.19249124  0.60208911  0.76293385  1
  Mo  Mo166  1  0.00230100  0.19535246  0.25847923  1
  Mo  Mo167  1  0.00171968  0.80357394  0.00946101  1
  Mo  Mo168  1  0.10397972  0.70769015  0.10358588  1
  Mo  Mo169  1  0.19246095  0.39750927  0.01919993  1
  Mo  Mo170  1  0.70256572  0.10018656  0.88154689  1
  Mo  Mo171  1  0.60156421  -0.00910102  -0.00998885  1
  Mo  Mo172  1  0.39448154  -0.00402974  -0.02670037  1
  Mo  Mo173  1  0.90034172  0.29702079  0.10849192  1
  Mo  Mo174  1  0.80153293  0.39684504  0.27182129  1
  Mo  Mo175  1  0.20278926  0.20199350  0.25248379  1
  Mo  Mo176  1  0.39974858  0.61316470  0.25929163  1
  Mo  Mo177  1  0.80355309  0.00532876  -0.01916297  1
  Mo  Mo178  1  0.29985668  0.10105278  0.12895004  1
  Mo  Mo179  1  0.10258425  0.09675863  0.64567634  1
  Mo  Mo180  1  0.00461371  0.18423785  0.51152349  1
  Mo  Mo181  1  0.19896145  0.39551255  0.74040570  1
  Mo  Mo182  1  0.10236715  0.69528890  0.62077127  1
  Mo  Mo183  1  0.50412942  0.89094951  0.10595480  1
  Mo  Mo184  1  0.38954948  0.39753103  0.01275656  1
  Mo  Mo185  1  0.89996629  0.70145821  0.61432092  1
  Mo  Mo186  1  0.90258417  0.29736972  0.39899001  1
  Mo  Mo187  1  0.59197483  0.20286696  0.50659710  1
  Mo  Mo188  1  0.70470846  0.88939413  0.38510887  1
  Mo  Mo189  1  -0.00030297  0.59935578  0.00009837  1
  Mo  Mo190  1  0.89787197  0.50147137  0.36371104  1
  Mo  Mo191  1  0.19561214  0.19412415  -0.01749483  1
  Mo  Mo192  1  0.40912511  0.39105978  0.75168056  1
  Mo  Mo193  1  0.50102223  0.90048547  0.88674109  1
  Mo  Mo194  1  0.00179374  0.80730449  0.52150074  1
  Mo  Mo195  1  0.10004710  0.90065295  0.63345642  1
  Mo  Mo196  1  0.59410494  0.39690430  0.01522941  1
  Mo  Mo197  1  0.90052159  0.71010706  0.10940341  1
  Mo  Mo198  1  0.80686279  0.61207993  0.77053618  1
  Mo  Mo199  1  0.79897260  0.79957838  -0.02008523  1
