# generated using pymatgen
data_HfZrTaTiMo
_symmetry_space_group_name_H-M   'P 1'
_cell_length_a   15.93307687
_cell_length_b   15.93061790
_cell_length_c   15.20830970
_cell_angle_alpha   90.03220977
_cell_angle_beta   90.04195825
_cell_angle_gamma   89.96488177
_symmetry_Int_Tables_number   1
_chemical_formula_structural   HfZrTaTiMo
_chemical_formula_sum   'Hf40 Zr40 Ta40 Ti40 Mo40'
_cell_volume   3860.22797784
_cell_formula_units_Z   40
loop_
 _symmetry_equiv_pos_site_id
 _symmetry_equiv_pos_as_xyz
  1  'x, y, z'
loop_
 _atom_site_type_symbol
 _atom_site_label
 _atom_site_symmetry_multiplicity
 _atom_site_fract_x
 _atom_site_fract_y
 _atom_site_fract_z
 _atom_site_occupancy
  Hf  Hf0  1  0.40603745  0.00466335  0.26065680  1
  Hf  Hf1  1  0.10373770  0.49060832  0.13238622  1
  Hf  Hf2  1  0.89339074  0.50482806  0.85667858  1
  Hf  Hf3  1  0.00920970  0.00549971  -0.00369828  1
  Hf  Hf4  1  0.29190915  0.71094269  0.13166419  1
  Hf  Hf5  1  0.88424115  0.30401214  0.85097608  1
  Hf  Hf6  1  0.40317017  0.79769092  0.75585584  1
  Hf  Hf7  1  0.11170811  0.71425206  0.63123291  1
  Hf  Hf8  1  0.39436608  0.81503658  0.26216869  1
  Hf  Hf9  1  0.40091506  -0.00407213  0.48887827  1
  Hf  Hf10  1  0.00288922  0.60036774  -0.00387173  1
  Hf  Hf11  1  0.40410373  0.41740801  0.48669658  1
  Hf  Hf12  1  0.89590361  0.09655808  0.86191204  1
  Hf  Hf13  1  0.21021804  0.19816007  0.48984760  1
  Hf  Hf14  1  0.50396792  0.30350344  0.63148634  1
  Hf  Hf15  1  0.29225925  0.90646525  0.88466835  1
  Hf  Hf16  1  0.59010221  0.59652132  0.49647278  1
  Hf  Hf17  1  0.79267561  -0.00564248  -0.00249299  1
  Hf  Hf18  1  0.29266864  0.70050134  0.87723010  1
  Hf  Hf19  1  0.90003328  0.29632049  0.11480714  1
  Hf  Hf20  1  0.50868422  0.90427248  0.88541178  1
  Hf  Hf21  1  0.49427575  0.09694489  0.88922041  1
  Hf  Hf22  1  0.11248695  0.89515283  0.12358913  1
  Hf  Hf23  1  0.08434480  0.90773943  0.36968267  1
  Hf  Hf24  1  0.71442728  0.50455920  0.38349530  1
  Hf  Hf25  1  0.20230040  0.59980237  0.01021454  1
  Hf  Hf26  1  -0.00913600  0.80274773  0.24713592  1
  Hf  Hf27  1  0.89387989  0.09810594  0.63364531  1
  Hf  Hf28  1  -0.00989296  0.82049559  0.51257730  1
  Hf  Hf29  1  0.70554348  0.30030091  0.63868686  1
  Hf  Hf30  1  0.59500021  0.80562252  0.25687844  1
  Hf  Hf31  1  0.10272370  0.28957509  0.14287447  1
  Hf  Hf32  1  0.30387275  0.10202017  0.61981772  1
  Hf  Hf33  1  0.40561265  -0.00070595  0.74408188  1
  Hf  Hf34  1  0.89665797  0.29478203  0.40139982  1
  Hf  Hf35  1  0.60911951  0.18611432  0.75467164  1
  Hf  Hf36  1  0.77171340  0.78440278  -0.00830414  1
  Hf  Hf37  1  0.90172715  0.89251176  0.86623973  1
  Hf  Hf38  1  0.60177701  0.19982101  0.26245638  1
  Hf  Hf39  1  0.10376968  0.30076501  0.61439264  1
  Zr  Zr40  1  0.70052480  0.30533924  0.12416396  1
  Zr  Zr41  1  0.21336499  -0.00835647  0.26756488  1
  Zr  Zr42  1  0.49863707  0.50513354  0.63625288  1
  Zr  Zr43  1  0.29485933  0.88880229  0.62510941  1
  Zr  Zr44  1  0.80535388  0.40028697  0.25380676  1
  Zr  Zr45  1  0.21600746  0.60001397  0.49697631  1
  Zr  Zr46  1  0.20797951  0.39802444  0.00145445  1
  Zr  Zr47  1  0.40337317  0.20111977  0.74904186  1
  Zr  Zr48  1  0.50291660  0.29899749  0.12149992  1
  Zr  Zr49  1  0.18405139  0.19581263  -0.00091775  1
  Zr  Zr50  1  0.78595560  0.80656975  0.24327796  1
  Zr  Zr51  1  0.76864035  -0.00626767  0.74240155  1
  Zr  Zr52  1  0.89430902  0.70999654  0.63581789  1
  Zr  Zr53  1  0.50442169  0.70440442  0.12009715  1
  Zr  Zr54  1  -0.00094629  0.39998281  0.26362782  1
  Zr  Zr55  1  0.09794436  0.70134724  0.37325718  1
  Zr  Zr56  1  0.18308057  0.00536291  0.49992444  1
  Zr  Zr57  1  0.78893030  0.20255566  -0.01953294  1
  Zr  Zr58  1  0.00566773  0.19920493  0.74614480  1
  Zr  Zr59  1  0.30151817  0.29660819  0.87303417  1
  Zr  Zr60  1  -0.00888982  0.59044127  0.25659816  1
  Zr  Zr61  1  0.51531441  0.49895544  0.11743570  1
  Zr  Zr62  1  0.20757214  0.40113886  0.74718822  1
  Zr  Zr63  1  0.00196737  0.39075012  -0.01220436  1
  Zr  Zr64  1  0.10601194  0.50724311  0.86597462  1
  Zr  Zr65  1  0.89494855  0.69668193  0.86427755  1
  Zr  Zr66  1  0.29703899  0.09878655  0.12171743  1
  Zr  Zr67  1  0.89007702  0.69976020  0.38467333  1
  Zr  Zr68  1  0.01051954  0.17868413  0.50848024  1
  Zr  Zr69  1  0.59930420  0.40201125  0.26764053  1
  Zr  Zr70  1  0.59926751  0.39535092  0.49188782  1
  Zr  Zr71  1  0.89011569  0.68942595  0.11822244  1
  Zr  Zr72  1  0.71422182  0.09211862  0.38014538  1
  Zr  Zr73  1  0.59378415  0.80275616  0.48588331  1
  Zr  Zr74  1  0.90008603  0.89606180  0.10913377  1
  Zr  Zr75  1  0.51103817  0.70047320  0.88146106  1
  Zr  Zr76  1  0.10445794  0.49912176  0.61734864  1
  Zr  Zr77  1  0.10203434  0.29932662  0.37188265  1
  Zr  Zr78  1  0.39572247  0.20872245  0.00719024  1
  Zr  Zr79  1  0.60423477  -0.00827461  0.25193516  1
  Ta  Ta80  1  0.09479567  0.09777336  0.14167644  1
  Ta  Ta81  1  0.79498350  0.60203126  0.51973758  1
  Ta  Ta82  1  0.49439481  0.70393456  0.62280552  1
  Ta  Ta83  1  0.80519433  -0.01856183  0.51897018  1
  Ta  Ta84  1  0.29774540  0.90068696  0.10816508  1
  Ta  Ta85  1  0.20887253  0.40587257  0.48647778  1
  Ta  Ta86  1  0.29458567  0.09077425  0.87997775  1
  Ta  Ta87  1  0.78852988  0.41132655  -0.01205046  1
  Ta  Ta88  1  0.70421435  0.69796081  0.37787767  1
  Ta  Ta89  1  0.89786269  0.10535019  0.11951234  1
  Ta  Ta90  1  0.11053734  0.08554402  0.85753259  1
  Ta  Ta91  1  0.40299548  0.59759086  0.24214854  1
  Ta  Ta92  1  0.69122638  0.70473310  0.62657938  1
  Ta  Ta93  1  0.60908447  0.60244418  0.25268239  1
  Ta  Ta94  1  0.40059025  0.41006176  -0.00073549  1
  Ta  Ta95  1  0.90294976  0.49674014  0.40659123  1
  Ta  Ta96  1  0.10190002  0.70288715  0.13542193  1
  Ta  Ta97  1  0.63066484  0.60598832  -0.00068409  1
  Ta  Ta98  1  0.00368376  0.60205711  0.73699737  1
  Ta  Ta99  1  0.89094575  0.49650961  0.11261494  1
  Ta  Ta100  1  0.39676899  0.79869670  -0.00172940  1
  Ta  Ta101  1  0.60593212  -0.00215538  0.50509648  1
  Ta  Ta102  1  0.40274028  0.40788713  0.75992154  1
  Ta  Ta103  1  0.20060646  0.59279953  0.25169290  1
  Ta  Ta104  1  0.90404589  0.08410443  0.38466628  1
  Ta  Ta105  1  0.70147819  0.50559634  0.85110161  1
  Ta  Ta106  1  0.00170169  0.60211553  0.51033716  1
  Ta  Ta107  1  0.40840530  0.20828219  0.49028478  1
  Ta  Ta108  1  0.20184649  0.80528521  0.48590248  1
  Ta  Ta109  1  0.20419171  0.19489999  0.74118603  1
  Ta  Ta110  1  0.89908294  0.49544516  0.62421762  1
  Ta  Ta111  1  0.40223043  0.40390980  0.25418732  1
  Ta  Ta112  1  0.50609329  0.50544144  0.87952485  1
  Ta  Ta113  1  0.30702599  0.31217832  0.61658910  1
  Ta  Ta114  1  0.39801639  0.59590140  0.00936707  1
  Ta  Ta115  1  0.89818242  0.30584734  0.62105454  1
  Ta  Ta116  1  0.50849747  0.30897226  0.87599530  1
  Ta  Ta117  1  0.60185684  -0.00138290  0.01945464  1
  Ta  Ta118  1  0.70244650  0.10404841  0.12724097  1
  Ta  Ta119  1  0.10565360  0.89480677  0.86450213  1
  Ti  Ti120  1  0.68506611  0.08252789  0.87848592  1
  Ti  Ti121  1  0.60050090  0.60893408  0.74713014  1
  Ti  Ti122  1  0.79441170  0.18987673  0.51280385  1
  Ti  Ti123  1  0.30512247  0.50781161  0.36147784  1
  Ti  Ti124  1  0.21177244  0.59935892  0.73865780  1
  Ti  Ti125  1  0.50160310  0.89634871  0.61948451  1
  Ti  Ti126  1  0.39926933  0.60033323  0.75282407  1
  Ti  Ti127  1  0.88574560  0.90583280  0.37549840  1
  Ti  Ti128  1  0.01072882  0.79370856  -0.00534047  1
  Ti  Ti129  1  0.78241841  0.80324872  0.75422535  1
  Ti  Ti130  1  0.09125855  0.09790876  0.35768959  1
  Ti  Ti131  1  0.29931593  0.70139548  0.36524312  1
  Ti  Ti132  1  0.70064844  0.49762515  0.63536650  1
  Ti  Ti133  1  0.60195200  0.19913451  0.49820592  1
  Ti  Ti134  1  0.61068244  0.40539769  -0.01420643  1
  Ti  Ti135  1  0.50770468  0.09954142  0.61671999  1
  Ti  Ti136  1  0.30906936  0.69709984  0.62161393  1
  Ti  Ti137  1  0.30695440  0.30483661  0.36897154  1
  Ti  Ti138  1  0.29604007  0.31292789  0.14336367  1
  Ti  Ti139  1  0.60441499  0.81505629  0.74522821  1
  Ti  Ti140  1  0.21315692  0.19377735  0.26241160  1
  Ti  Ti141  1  -0.01530997  0.00236339  0.23807463  1
  Ti  Ti142  1  0.10212607  0.90193179  0.64005196  1
  Ti  Ti143  1  0.40378943  0.20247340  0.26188489  1
  Ti  Ti144  1  0.00070812  -0.00686569  0.73981391  1
  Ti  Ti145  1  0.30653950  0.50574283  0.87379566  1
  Ti  Ti146  1  0.79863769  -0.00153074  0.23702548  1
  Ti  Ti147  1  0.70985326  0.29703655  0.38774249  1
  Ti  Ti148  1  0.00014419  0.19505900  -0.01241559  1
  Ti  Ti149  1  0.39679394  0.79458478  0.48883782  1
  Ti  Ti150  1  0.10212665  0.70760784  0.85635707  1
  Ti  Ti151  1  0.50468919  0.10333646  0.38338092  1
  Ti  Ti152  1  0.49069423  0.90177270  0.11354792  1
  Ti  Ti153  1  -0.01486866  0.19367814  0.25590623  1
  Ti  Ti154  1  0.00325647  0.40192299  0.74424179  1
  Ti  Ti155  1  0.49090743  0.69056863  0.37133942  1
  Ti  Ti156  1  0.10189028  0.29549907  0.86412736  1
  Ti  Ti157  1  0.50167618  0.10267888  0.12265983  1
  Ti  Ti158  1  0.80452102  0.19425434  0.25507959  1
  Ti  Ti159  1  0.60514943  0.20208872  -0.00614652  1
  Mo  Mo160  1  0.68563779  0.89681939  0.88524669  1
  Mo  Mo161  1  0.69326340  0.09979125  0.60942365  1
  Mo  Mo162  1  0.79540379  0.59165011  -0.00658502  1
  Mo  Mo163  1  0.20313802  0.79792458  0.75480758  1
  Mo  Mo164  1  0.69311090  0.30698262  0.86408205  1
  Mo  Mo165  1  0.58915455  -0.00459160  0.73002902  1
  Mo  Mo166  1  0.69792851  0.69327947  0.14273692  1
  Mo  Mo167  1  0.19817340  0.79571677  0.26679504  1
  Mo  Mo168  1  0.59870257  0.40371933  0.76098999  1
  Mo  Mo169  1  0.40060968  -0.00018702  0.01055984  1
  Mo  Mo170  1  0.79845616  0.59433687  0.25241491  1
  Mo  Mo171  1  0.19347854  0.00174102  0.00264658  1
  Mo  Mo172  1  0.19058429  0.79657456  -0.01111479  1
  Mo  Mo173  1  0.29704532  0.89799642  0.38985034  1
  Mo  Mo174  1  0.69559364  0.88986030  0.61297857  1
  Mo  Mo175  1  0.69211257  0.89801129  0.11518813  1
  Mo  Mo176  1  0.70796384  0.89862383  0.39131120  1
  Mo  Mo177  1  0.79899897  0.40395653  0.73863065  1
  Mo  Mo178  1  0.20174696  0.00016003  0.74127224  1
  Mo  Mo179  1  0.49864009  0.50757394  0.36053210  1
  Mo  Mo180  1  0.71102182  0.50778284  0.12948724  1
  Mo  Mo181  1  0.30688515  0.10955666  0.37750338  1
  Mo  Mo182  1  0.79308517  0.79984750  0.50306594  1
  Mo  Mo183  1  0.00455135  0.40222019  0.50116613  1
  Mo  Mo184  1  0.30613680  0.49927241  0.13774756  1
  Mo  Mo185  1  0.30847343  0.50343634  0.63159561  1
  Mo  Mo186  1  0.10482886  0.09274499  0.64015596  1
  Mo  Mo187  1  -0.00764991  -0.00499707  0.51443072  1
  Mo  Mo188  1  0.79955811  0.39985585  0.51584744  1
  Mo  Mo189  1  0.89647768  0.89873763  0.64759167  1
  Mo  Mo190  1  0.69441989  0.69841414  0.84967790  1
  Mo  Mo191  1  0.49730106  0.29620201  0.37500292  1
  Mo  Mo192  1  0.59857694  0.80083388  0.01298393  1
  Mo  Mo193  1  0.20962059  0.40189974  0.26649791  1
  Mo  Mo194  1  0.00227373  0.80471737  0.74933228  1
  Mo  Mo195  1  0.49982695  0.90330576  0.38544897  1
  Mo  Mo196  1  0.10472155  0.50250460  0.38661984  1
  Mo  Mo197  1  0.40116764  0.61073138  0.49027218  1
  Mo  Mo198  1  0.79361379  0.60256707  0.72829939  1
  Mo  Mo199  1  0.79383384  0.19602765  0.74982754  1
