# generated using pymatgen
data_HfZrTaTiMo
_symmetry_space_group_name_H-M   'P 1'
_cell_length_a   15.93470318
_cell_length_b   15.92172923
_cell_length_c   15.21100031
_cell_angle_alpha   89.97980806
_cell_angle_beta   90.02043107
_cell_angle_gamma   90.01840016
_symmetry_Int_Tables_number   1
_chemical_formula_structural   HfZrTaTiMo
_chemical_formula_sum   'Hf40 Zr40 Ta40 Ti40 Mo40'
_cell_volume   3859.15223008
_cell_formula_units_Z   40
loop_
 _symmetry_equiv_pos_site_id
 _symmetry_equiv_pos_as_xyz
  1  'x, y, z'
loop_
 _atom_site_type_symbol
 _atom_site_label
 _atom_site_symmetry_multiplicity
 _atom_site_fract_x
 _atom_site_fract_y
 _atom_site_fract_z
 _atom_site_occupancy
  Hf  Hf0  1  -0.00122971  0.80267483  0.50319481  1
  Hf  Hf1  1  0.49834438  0.28928223  0.11749426  1
  Hf  Hf2  1  0.58589157  0.18779116  0.48402351  1
  Hf  Hf3  1  0.68693427  0.29362378  0.11538831  1
  Hf  Hf4  1  0.88901127  0.91037658  0.87189784  1
  Hf  Hf5  1  0.60111097  0.59648611  0.74823342  1
  Hf  Hf6  1  0.79157121  0.60082800  0.23680216  1
  Hf  Hf7  1  0.20017792  0.60411169  0.75588299  1
  Hf  Hf8  1  -0.01406211  0.01302468  0.01591164  1
  Hf  Hf9  1  0.10653266  0.70901930  0.37756114  1
  Hf  Hf10  1  0.79240018  0.79737666  0.25624246  1
  Hf  Hf11  1  0.31805269  0.71130597  0.86737363  1
  Hf  Hf12  1  0.51761616  0.91145908  0.11798060  1
  Hf  Hf13  1  0.30418319  0.50885955  0.36516802  1
  Hf  Hf14  1  -0.00226157  0.39956115  0.50719857  1
  Hf  Hf15  1  0.60003448  -0.00312454  0.49106424  1
  Hf  Hf16  1  0.31086920  0.28750943  0.86890376  1
  Hf  Hf17  1  0.68015168  0.08574546  0.12871117  1
  Hf  Hf18  1  0.89546881  0.49252708  0.37928713  1
  Hf  Hf19  1  0.09538507  0.49388890  0.87919154  1
  Hf  Hf20  1  0.50103035  0.90242058  0.63671271  1
  Hf  Hf21  1  0.39964863  0.39474824  0.00407496  1
  Hf  Hf22  1  -0.00837221  0.79905882  -0.00528267  1
  Hf  Hf23  1  0.78716508  0.18813400  0.48372813  1
  Hf  Hf24  1  0.79660800  0.39642074  0.23795568  1
  Hf  Hf25  1  0.40715986  0.60174903  0.01064498  1
  Hf  Hf26  1  0.88577476  0.09697192  0.62794195  1
  Hf  Hf27  1  0.89803658  0.10444461  0.85914729  1
  Hf  Hf28  1  0.30410724  0.49715951  0.86870860  1
  Hf  Hf29  1  0.79670280  0.39592221  0.74268984  1
  Hf  Hf30  1  0.21027646  0.19594753  0.00441127  1
  Hf  Hf31  1  -0.00112585  0.80050769  0.75329868  1
  Hf  Hf32  1  0.80532377  -0.01323835  0.24141876  1
  Hf  Hf33  1  0.48225309  0.09878663  0.86077522  1
  Hf  Hf34  1  0.40322450  0.02628219  0.49692889  1
  Hf  Hf35  1  0.10630510  0.10331252  0.61582784  1
  Hf  Hf36  1  0.81991467  0.39553046  0.01519444  1
  Hf  Hf37  1  -0.00392528  0.39491095  0.23740962  1
  Hf  Hf38  1  0.30356260  0.69847480  0.36244814  1
  Hf  Hf39  1  0.60336062  0.39696783  0.75200801  1
  Zr  Zr40  1  0.69250107  0.50019933  0.37403575  1
  Zr  Zr41  1  0.10361770  0.09898969  0.14909669  1
  Zr  Zr42  1  0.20333189  0.60706900  -0.00265735  1
  Zr  Zr43  1  0.40482943  0.79798839  0.50491851  1
  Zr  Zr44  1  -0.00318587  0.60128484  0.23888122  1
  Zr  Zr45  1  -0.00271553  0.20786261  0.01256994  1
  Zr  Zr46  1  0.59490875  0.20599369  0.75923309  1
  Zr  Zr47  1  0.29666091  0.89950800  0.37583690  1
  Zr  Zr48  1  0.69788515  0.90403791  0.63895186  1
  Zr  Zr49  1  0.70387492  0.49835188  0.88948725  1
  Zr  Zr50  1  0.10171735  0.29720925  0.87463804  1
  Zr  Zr51  1  0.41394097  0.80148394  0.24291360  1
  Zr  Zr52  1  0.50426614  0.49490584  0.36444722  1
  Zr  Zr53  1  0.49735938  0.28988118  0.61362958  1
  Zr  Zr54  1  0.10282335  0.90624510  0.12296353  1
  Zr  Zr55  1  0.49477327  0.90343275  0.87216210  1
  Zr  Zr56  1  0.10178219  0.70647147  0.12417554  1
  Zr  Zr57  1  0.79552402  0.19769720  0.25269673  1
  Zr  Zr58  1  0.50662880  0.69035117  0.37474109  1
  Zr  Zr59  1  0.10308992  0.70525157  0.62411505  1
  Zr  Zr60  1  0.30487778  0.10944078  0.14861782  1
  Zr  Zr61  1  0.30534517  0.91930193  0.86545844  1
  Zr  Zr62  1  0.70069959  0.70596620  0.63094014  1
  Zr  Zr63  1  0.00756669  -0.00092830  0.73706987  1
  Zr  Zr64  1  0.10389636  0.91550723  0.88579433  1
  Zr  Zr65  1  0.09911805  0.09677427  0.36831047  1
  Zr  Zr66  1  0.00020749  0.39522676  0.73465742  1
  Zr  Zr67  1  0.10200974  0.50325138  0.63048374  1
  Zr  Zr68  1  0.40424192  0.41068991  0.50994193  1
  Zr  Zr69  1  0.79360835  0.61169511  0.00880706  1
  Zr  Zr70  1  0.89961106  0.69645936  0.37584768  1
  Zr  Zr71  1  0.30133012  0.30800770  0.38574560  1
  Zr  Zr72  1  0.09959835  0.29924020  0.38413476  1
  Zr  Zr73  1  0.79254819  0.59599793  0.50824573  1
  Zr  Zr74  1  0.19788152  0.81048425  0.75584088  1
  Zr  Zr75  1  0.40303577  0.39515164  0.23775111  1
  Zr  Zr76  1  0.10712610  0.50228936  0.37631507  1
  Zr  Zr77  1  0.21681020  0.60627517  0.50976068  1
  Zr  Zr78  1  0.80702462  0.18421690  0.01355131  1
  Zr  Zr79  1  0.39964201  0.80537819  0.01127599  1
  Ta  Ta80  1  0.90127662  0.30213365  0.87042941  1
  Ta  Ta81  1  0.89875669  0.69811842  0.63639209  1
  Ta  Ta82  1  -0.00775705  0.81905300  0.25028686  1
  Ta  Ta83  1  0.59149711  0.78864768  0.76731276  1
  Ta  Ta84  1  0.20227717  -0.00040454  0.49439011  1
  Ta  Ta85  1  0.79392352  0.80195842  0.49103547  1
  Ta  Ta86  1  0.89883652  0.68841159  0.86463093  1
  Ta  Ta87  1  0.29616307  0.91009926  0.13440925  1
  Ta  Ta88  1  0.68791231  0.09792984  0.63819385  1
  Ta  Ta89  1  0.58790513  0.18642851  -0.01449341  1
  Ta  Ta90  1  0.41027602  0.39389483  0.75157813  1
  Ta  Ta91  1  0.70095811  0.08894271  0.86929882  1
  Ta  Ta92  1  -0.00312901  -0.00036315  0.50042077  1
  Ta  Ta93  1  0.89140289  0.29254300  0.61087045  1
  Ta  Ta94  1  -0.00298742  0.60091831  0.50801250  1
  Ta  Ta95  1  0.68268942  0.49269289  0.11252358  1
  Ta  Ta96  1  0.40593171  0.00137773  0.25604117  1
  Ta  Ta97  1  0.31073815  0.50294655  0.64535358  1
  Ta  Ta98  1  0.20765665  0.39112680  0.73921669  1
  Ta  Ta99  1  0.50178579  0.49932835  0.88140633  1
  Ta  Ta100  1  0.29822441  0.90950349  0.62497572  1
  Ta  Ta101  1  0.29741802  0.70867861  0.13592790  1
  Ta  Ta102  1  0.20037501  0.40165593  0.23331479  1
  Ta  Ta103  1  0.89104565  0.89547695  0.62274464  1
  Ta  Ta104  1  0.89479647  0.29829059  0.38351824  1
  Ta  Ta105  1  -0.00152872  0.20575075  0.73696041  1
  Ta  Ta106  1  0.50318692  0.10302136  0.13876833  1
  Ta  Ta107  1  0.20516841  0.39392378  0.01173985  1
  Ta  Ta108  1  0.09795777  0.49679348  0.11289752  1
  Ta  Ta109  1  0.39913922  0.01766496  0.01442121  1
  Ta  Ta110  1  0.70147175  0.29407807  0.60976875  1
  Ta  Ta111  1  0.70460902  0.29326531  0.89180124  1
  Ta  Ta112  1  0.59247597  0.59471919  0.52233330  1
  Ta  Ta113  1  0.60937659  0.78790689  -0.01820722  1
  Ta  Ta114  1  0.79475774  -0.00221729  0.49440821  1
  Ta  Ta115  1  -0.01130843  0.59578066  0.00600300  1
  Ta  Ta116  1  0.90631905  0.49781306  0.87405528  1
  Ta  Ta117  1  0.79568376  0.79757559  0.76379005  1
  Ta  Ta118  1  0.60137405  0.60174274  0.22845314  1
  Ta  Ta119  1  0.90163208  0.90486202  0.38344087  1
  Ti  Ti120  1  0.79844899  0.59433410  0.74917903  1
  Ti  Ti121  1  0.20736961  0.01034450  0.00307698  1
  Ti  Ti122  1  0.60556249  0.79454202  0.49175339  1
  Ti  Ti123  1  0.50644924  0.90099716  0.37075614  1
  Ti  Ti124  1  0.59342310  0.21182176  0.26789350  1
  Ti  Ti125  1  0.89496032  0.71245346  0.12494871  1
  Ti  Ti126  1  0.69747762  0.88801505  0.11214331  1
  Ti  Ti127  1  0.60262760  0.40892672  0.51731995  1
  Ti  Ti128  1  0.22258305  0.18689819  0.49477876  1
  Ti  Ti129  1  0.30848147  0.71222829  0.63587537  1
  Ti  Ti130  1  0.79534823  0.79827127  -0.01136632  1
  Ti  Ti131  1  0.29638389  0.09862620  0.85428853  1
  Ti  Ti132  1  0.20539502  0.21371029  0.25717683  1
  Ti  Ti133  1  0.89549717  0.50196865  0.62711854  1
  Ti  Ti134  1  0.40566494  0.20313046  0.27815873  1
  Ti  Ti135  1  0.68991639  0.08264751  0.35531424  1
  Ti  Ti136  1  0.19330167  0.81152224  0.25218425  1
  Ti  Ti137  1  0.10405766  0.10287617  0.86259962  1
  Ti  Ti138  1  0.69202276  0.31424854  0.38357319  1
  Ti  Ti139  1  0.10389128  0.29963483  0.12479548  1
  Ti  Ti140  1  0.79354120  0.20643519  0.74940392  1
  Ti  Ti141  1  0.69548703  0.90767533  0.87148347  1
  Ti  Ti142  1  0.29752641  0.50271471  0.12456626  1
  Ti  Ti143  1  0.20566440  0.80449583  -0.00401306  1
  Ti  Ti144  1  0.51635753  0.70512885  0.11657734  1
  Ti  Ti145  1  0.09183877  0.69425500  0.87770348  1
  Ti  Ti146  1  -0.01129605  0.20175833  0.24577183  1
  Ti  Ti147  1  0.10679124  0.29292832  0.61266114  1
  Ti  Ti148  1  0.41009566  0.59962922  0.22526320  1
  Ti  Ti149  1  0.90236192  0.09423083  0.36762592  1
  Ti  Ti150  1  0.19844020  0.59877456  0.23823487  1
  Ti  Ti151  1  0.10887359  0.90185844  0.61196552  1
  Ti  Ti152  1  0.79642425  -0.00486636  0.01342821  1
  Ti  Ti153  1  -0.00768694  0.19461882  0.50052064  1
  Ti  Ti154  1  0.20756905  0.40661435  0.51651828  1
  Ti  Ti155  1  0.20113011  0.19931041  0.74058948  1
  Ti  Ti156  1  0.40979500  0.60133231  0.52133782  1
  Ti  Ti157  1  0.61137238  0.79635781  0.25684862  1
  Ti  Ti158  1  0.30318886  0.29279363  0.62262798  1
  Ti  Ti159  1  0.41716487  0.61012429  0.74564867  1
  Mo  Mo160  1  0.09619991  0.90022116  0.38285449  1
  Mo  Mo161  1  0.70196207  0.49391491  0.62533550  1
  Mo  Mo162  1  0.50846793  0.30429259  0.38321301  1
  Mo  Mo163  1  0.59531821  0.59993262  0.00460183  1
  Mo  Mo164  1  0.50236060  0.70368618  0.61909154  1
  Mo  Mo165  1  0.29850184  0.10313530  0.36294985  1
  Mo  Mo166  1  0.49940664  0.29945896  0.88597152  1
  Mo  Mo167  1  0.39958892  0.19042092  0.00267846  1
  Mo  Mo168  1  0.50298995  0.69317870  0.88418056  1
  Mo  Mo169  1  0.59969765  -0.00089115  0.76234793  1
  Mo  Mo170  1  0.60263576  -0.00036353  -0.01476793  1
  Mo  Mo171  1  0.00348759  0.40032265  0.00884160  1
  Mo  Mo172  1  0.20372630  0.80696049  0.50723526  1
  Mo  Mo173  1  0.39353133  0.20348938  0.73564845  1
  Mo  Mo174  1  0.50312909  0.09668899  0.35294402  1
  Mo  Mo175  1  0.30055477  0.10663470  0.63168072  1
  Mo  Mo176  1  0.39826346  0.19882128  0.49209584  1
  Mo  Mo177  1  0.20175341  -0.00358250  0.26864143  1
  Mo  Mo178  1  0.59749896  0.39236193  -0.01507059  1
  Mo  Mo179  1  0.70030071  0.89498449  0.38081286  1
  Mo  Mo180  1  0.79643905  0.39349334  0.50875629  1
  Mo  Mo181  1  0.39653782  0.00680880  0.72865480  1
  Mo  Mo182  1  0.69460960  0.70796429  0.12087213  1
  Mo  Mo183  1  0.49920147  0.49955130  0.64368700  1
  Mo  Mo184  1  0.40386692  0.79847484  0.73790922  1
  Mo  Mo185  1  0.89190122  0.89232041  0.11118583  1
  Mo  Mo186  1  0.69110362  0.69693727  0.38301320  1
  Mo  Mo187  1  0.29750380  0.29805093  0.13077060  1
  Mo  Mo188  1  0.60178986  -0.01828750  0.25896257  1
  Mo  Mo189  1  0.90290896  0.29554299  0.13639869  1
  Mo  Mo190  1  0.89938176  0.50317047  0.12214732  1
  Mo  Mo191  1  0.19967636  0.00968399  0.73184164  1
  Mo  Mo192  1  0.50059559  0.09740966  0.63911760  1
  Mo  Mo193  1  0.60180396  0.39522457  0.24627697  1
  Mo  Mo194  1  0.89697618  0.09307830  0.14466368  1
  Mo  Mo195  1  -0.00788473  0.59888693  0.75121290  1
  Mo  Mo196  1  0.79647168  -0.00025926  0.74217425  1
  Mo  Mo197  1  0.70353883  0.69829275  0.86449090  1
  Mo  Mo198  1  0.50527620  0.49681443  0.11920921  1
  Mo  Mo199  1  -0.00586938  -0.00374366  0.25367254  1
