# generated using pymatgen
data_HfZrTaTiMo
_symmetry_space_group_name_H-M   'P 1'
_cell_length_a   15.92979064
_cell_length_b   15.93337046
_cell_length_c   15.21264652
_cell_angle_alpha   90.00161026
_cell_angle_beta   89.87530524
_cell_angle_gamma   89.92131078
_symmetry_Int_Tables_number   1
_chemical_formula_structural   HfZrTaTiMo
_chemical_formula_sum   'Hf40 Zr40 Ta40 Ti40 Mo40'
_cell_volume   3861.18897884
_cell_formula_units_Z   40
loop_
 _symmetry_equiv_pos_site_id
 _symmetry_equiv_pos_as_xyz
  1  'x, y, z'
loop_
 _atom_site_type_symbol
 _atom_site_label
 _atom_site_symmetry_multiplicity
 _atom_site_fract_x
 _atom_site_fract_y
 _atom_site_fract_z
 _atom_site_occupancy
  Hf  Hf0  1  0.19056770  0.00620919  0.24675028  1
  Hf  Hf1  1  0.11321847  0.08676700  0.86577617  1
  Hf  Hf2  1  0.40093932  0.40061980  -0.00761872  1
  Hf  Hf3  1  0.39393175  0.20051600  0.26351033  1
  Hf  Hf4  1  0.51348372  0.91296770  0.87123792  1
  Hf  Hf5  1  0.20653515  0.80545530  0.49070700  1
  Hf  Hf6  1  0.79604722  0.20568219  -0.01145208  1
  Hf  Hf7  1  0.00409919  0.20122015  0.51506965  1
  Hf  Hf8  1  0.69620860  0.90230278  0.37871144  1
  Hf  Hf9  1  0.59351615  0.19130903  0.25809749  1
  Hf  Hf10  1  0.41324082  0.20130000  0.77575764  1
  Hf  Hf11  1  -0.00069422  0.20431459  -0.01040325  1
  Hf  Hf12  1  0.59590131  0.60848915  0.24412867  1
  Hf  Hf13  1  0.61302788  0.80180872  -0.00639281  1
  Hf  Hf14  1  0.90071396  0.90302122  0.37789786  1
  Hf  Hf15  1  0.90121727  0.90021052  0.63047360  1
  Hf  Hf16  1  0.30617175  0.10085994  0.11813443  1
  Hf  Hf17  1  0.69525591  0.07557496  0.88424091  1
  Hf  Hf18  1  0.69588031  0.29870325  0.12647037  1
  Hf  Hf19  1  0.60256172  0.19413278  0.49466928  1
  Hf  Hf20  1  0.20837686  -0.00259723  0.51152791  1
  Hf  Hf21  1  0.11160373  0.29157159  0.37200146  1
  Hf  Hf22  1  0.89242657  0.50714099  0.86980251  1
  Hf  Hf23  1  0.01162025  0.39852987  0.50990927  1
  Hf  Hf24  1  0.00324616  0.60368684  -0.01043845  1
  Hf  Hf25  1  0.90278070  0.50445909  0.63042230  1
  Hf  Hf26  1  0.61710655  -0.00738852  0.73031188  1
  Hf  Hf27  1  0.50355677  0.89165001  0.13360888  1
  Hf  Hf28  1  0.60244908  0.40810699  0.50878751  1
  Hf  Hf29  1  0.50228856  0.09761769  0.10860293  1
  Hf  Hf30  1  0.18296577  0.80506043  0.25342235  1
  Hf  Hf31  1  0.79556085  0.79553637  0.50765204  1
  Hf  Hf32  1  -0.00201975  0.80061814  -0.01921486  1
  Hf  Hf33  1  0.40532922  0.79800127  -0.00605753  1
  Hf  Hf34  1  0.30030078  0.70545047  0.62019354  1
  Hf  Hf35  1  0.78568174  0.61698188  0.73178662  1
  Hf  Hf36  1  -0.00117637  -0.01282038  -0.01090751  1
  Hf  Hf37  1  0.89953644  0.09423587  0.11516918  1
  Hf  Hf38  1  0.79710085  0.40315099  -0.00620990  1
  Hf  Hf39  1  0.79773539  0.60116260  0.25575898  1
  Zr  Zr40  1  0.10071231  0.10229564  0.63719815  1
  Zr  Zr41  1  0.69613006  0.31453917  0.36542276  1
  Zr  Zr42  1  0.29844249  0.69996344  0.36174493  1
  Zr  Zr43  1  0.90357549  0.09384711  0.38566423  1
  Zr  Zr44  1  0.10604154  0.89387642  0.63542785  1
  Zr  Zr45  1  0.09997250  0.50287836  0.13095197  1
  Zr  Zr46  1  0.50049297  0.10154793  0.62203594  1
  Zr  Zr47  1  0.29065480  0.90719954  0.85931682  1
  Zr  Zr48  1  0.40825447  -0.00498641  0.48442052  1
  Zr  Zr49  1  0.10357817  0.29648902  0.86828220  1
  Zr  Zr50  1  0.89148722  0.09806542  0.86472073  1
  Zr  Zr51  1  0.49147331  0.49839466  0.62629425  1
  Zr  Zr52  1  0.89963757  0.49469530  0.37515241  1
  Zr  Zr53  1  0.69409397  0.51324895  0.87277998  1
  Zr  Zr54  1  0.39977556  0.60599461  0.75813107  1
  Zr  Zr55  1  0.19892128  0.40668701  -0.01063966  1
  Zr  Zr56  1  0.79416279  0.40437266  0.50778330  1
  Zr  Zr57  1  0.49602687  0.70199622  0.60884413  1
  Zr  Zr58  1  0.70843544  0.09460476  0.38400086  1
  Zr  Zr59  1  0.21705684  0.20962842  0.74525096  1
  Zr  Zr60  1  0.11401510  0.49486847  0.35872717  1
  Zr  Zr61  1  0.30294905  0.89913402  0.13278632  1
  Zr  Zr62  1  0.70115482  0.28720554  0.63867814  1
  Zr  Zr63  1  0.51260774  0.49234883  0.36445399  1
  Zr  Zr64  1  0.10311103  0.69336585  0.61932648  1
  Zr  Zr65  1  0.50421311  0.50401257  0.86959175  1
  Zr  Zr66  1  0.29992226  0.70353078  0.87789219  1
  Zr  Zr67  1  0.00441282  0.61057540  0.76084688  1
  Zr  Zr68  1  0.49290284  0.29925537  0.12865446  1
  Zr  Zr69  1  0.29139508  0.10932830  0.38061941  1
  Zr  Zr70  1  0.00588450  0.19088931  0.24406124  1
  Zr  Zr71  1  0.90588020  0.71068341  0.13014397  1
  Zr  Zr72  1  0.49227539  0.29944649  0.62319696  1
  Zr  Zr73  1  -0.00280924  0.39039695  0.24439334  1
  Zr  Zr74  1  0.80317050  0.19734333  0.24392594  1
  Zr  Zr75  1  0.89686125  0.29376615  0.63793672  1
  Zr  Zr76  1  0.29446435  0.70363489  0.12903309  1
  Zr  Zr77  1  0.40609819  0.60329879  0.24574346  1
  Zr  Zr78  1  0.29574283  0.50375726  0.63333265  1
  Zr  Zr79  1  0.60759902  0.78896064  0.74873030  1
  Ta  Ta80  1  0.20351588  0.19554607  -0.00126795  1
  Ta  Ta81  1  0.20281682  0.39737605  0.50845160  1
  Ta  Ta82  1  0.30498996  0.09634694  0.87985409  1
  Ta  Ta83  1  0.69883157  0.70786167  0.12982801  1
  Ta  Ta84  1  0.29598016  0.49646532  0.13856654  1
  Ta  Ta85  1  0.90076794  0.70279405  0.37902819  1
  Ta  Ta86  1  0.79905645  0.80163219  0.25527158  1
  Ta  Ta87  1  0.79122526  0.59850805  0.50125681  1
  Ta  Ta88  1  0.89686578  0.29296475  0.38516125  1
  Ta  Ta89  1  -0.00138889  0.60686805  0.25450857  1
  Ta  Ta90  1  0.40143055  0.59476543  0.01218414  1
  Ta  Ta91  1  0.40335329  -0.00176152  -0.01028350  1
  Ta  Ta92  1  0.78563184  0.80511450  0.73666029  1
  Ta  Ta93  1  0.60116978  0.00036929  0.24833474  1
  Ta  Ta94  1  0.38722454  0.40330772  0.48187394  1
  Ta  Ta95  1  0.09970115  0.09663414  0.38823281  1
  Ta  Ta96  1  0.20568351  0.20763689  0.51865295  1
  Ta  Ta97  1  0.88408663  0.90107537  0.85685929  1
  Ta  Ta98  1  0.49352627  0.29765978  0.38097985  1
  Ta  Ta99  1  0.00055545  -0.00458963  0.75291841  1
  Ta  Ta100  1  0.59749623  0.40336936  0.00659279  1
  Ta  Ta101  1  0.29756497  0.29927180  0.11580297  1
  Ta  Ta102  1  0.39754944  0.59552895  0.47992715  1
  Ta  Ta103  1  0.48831494  0.90121092  0.63060010  1
  Ta  Ta104  1  0.90077538  0.30612010  0.11589325  1
  Ta  Ta105  1  0.20368032  0.59053838  0.48553692  1
  Ta  Ta106  1  0.69228955  0.70180160  0.37821383  1
  Ta  Ta107  1  0.00086256  0.59838211  0.49321733  1
  Ta  Ta108  1  0.10034381  0.09649493  0.11155322  1
  Ta  Ta109  1  0.00702358  0.40326677  0.75683967  1
  Ta  Ta110  1  0.09488851  0.69872044  0.37454127  1
  Ta  Ta111  1  0.59352841  0.60097536  0.02120111  1
  Ta  Ta112  1  0.89706267  0.50243128  0.12031526  1
  Ta  Ta113  1  0.69749898  0.49932226  0.13051613  1
  Ta  Ta114  1  0.59338620  0.20422967  -0.01737907  1
  Ta  Ta115  1  0.41248319  0.00540941  0.26164083  1
  Ta  Ta116  1  0.19726422  -0.00920009  0.00560069  1
  Ta  Ta117  1  -0.00520171  0.40208693  -0.01240023  1
  Ta  Ta118  1  0.38753002  0.39242134  0.77181015  1
  Ta  Ta119  1  0.20062436  0.60052244  -0.00654752  1
  Ti  Ti120  1  0.79699839  -0.01872685  0.01053426  1
  Ti  Ti121  1  0.51139187  0.69344014  0.88178046  1
  Ti  Ti122  1  0.08267256  0.89315420  0.12736015  1
  Ti  Ti123  1  0.09883511  0.70043458  0.12952756  1
  Ti  Ti124  1  0.30981450  0.30409312  0.61955368  1
  Ti  Ti125  1  0.80138774  -0.00364254  0.23954449  1
  Ti  Ti126  1  0.31462160  0.09166862  0.63582338  1
  Ti  Ti127  1  0.59680372  0.39963374  0.74716308  1
  Ti  Ti128  1  0.09221288  0.90826541  0.38053366  1
  Ti  Ti129  1  0.90626365  0.70189213  0.61877515  1
  Ti  Ti130  1  0.10539597  0.50204212  0.63119613  1
  Ti  Ti131  1  0.69605434  0.09519488  0.11361258  1
  Ti  Ti132  1  0.40333650  0.80388302  0.48200356  1
  Ti  Ti133  1  0.60456088  0.19139179  0.76393745  1
  Ti  Ti134  1  0.60336780  0.60420558  0.73311654  1
  Ti  Ti135  1  0.59052023  0.80995160  0.49742198  1
  Ti  Ti136  1  0.80251565  0.80551401  0.00393487  1
  Ti  Ti137  1  -0.00046605  0.79769018  0.76477625  1
  Ti  Ti138  1  0.19541134  0.79483871  0.75353152  1
  Ti  Ti139  1  0.10077591  0.29876508  0.11609909  1
  Ti  Ti140  1  0.70063781  0.89669049  0.13718906  1
  Ti  Ti141  1  0.20269099  0.40427259  0.75780513  1
  Ti  Ti142  1  -0.00074210  -0.00594982  0.24392590  1
  Ti  Ti143  1  0.60675409  0.59717766  0.49641223  1
  Ti  Ti144  1  0.88499108  0.10504556  0.63983878  1
  Ti  Ti145  1  0.19920868  0.20336887  0.23653779  1
  Ti  Ti146  1  0.79634667  0.40084944  0.75306419  1
  Ti  Ti147  1  0.69566703  0.30416771  0.86718648  1
  Ti  Ti148  1  0.78967479  0.00424672  0.52397223  1
  Ti  Ti149  1  0.40493954  0.80314034  0.75470286  1
  Ti  Ti150  1  0.39033437  0.39629275  0.25773732  1
  Ti  Ti151  1  0.00296292  0.79821557  0.49568152  1
  Ti  Ti152  1  0.79150521  0.61002695  0.00779360  1
  Ti  Ti153  1  -0.00294577  0.20440394  0.75435473  1
  Ti  Ti154  1  0.00166383  0.00108364  0.51530538  1
  Ti  Ti155  1  0.19471512  0.59497554  0.77304414  1
  Ti  Ti156  1  0.18601469  0.80393490  -0.00346977  1
  Ti  Ti157  1  0.30558319  0.90015537  0.35496290  1
  Ti  Ti158  1  0.79944091  0.40292441  0.24562327  1
  Ti  Ti159  1  0.87799178  0.70689347  0.87133939  1
  Mo  Mo160  1  0.21172146  0.00059473  0.73418569  1
  Mo  Mo161  1  0.59934445  -0.00709763  0.50975408  1
  Mo  Mo162  1  0.60425413  0.79763269  0.25566450  1
  Mo  Mo163  1  0.70599301  0.10350294  0.62418366  1
  Mo  Mo164  1  0.69664384  0.50114000  0.63837901  1
  Mo  Mo165  1  0.29918517  0.49444102  0.36005490  1
  Mo  Mo166  1  0.69236935  0.89723051  0.60549252  1
  Mo  Mo167  1  -0.00217354  0.80373405  0.26473485  1
  Mo  Mo168  1  0.19420623  0.60094435  0.24889975  1
  Mo  Mo169  1  0.79881572  -0.00224446  0.73262900  1
  Mo  Mo170  1  0.59549297  0.40148688  0.23460323  1
  Mo  Mo171  1  0.69158649  0.69901049  0.59980370  1
  Mo  Mo172  1  0.60656217  -0.00412471  0.01948805  1
  Mo  Mo173  1  0.70150862  0.50654414  0.35929841  1
  Mo  Mo174  1  0.31097679  0.89622841  0.64028475  1
  Mo  Mo175  1  0.10653973  0.70608244  0.87992081  1
  Mo  Mo176  1  0.39963051  0.19929788  -0.01262691  1
  Mo  Mo177  1  0.49990526  0.70355460  0.11257650  1
  Mo  Mo178  1  0.70481696  0.69807895  0.89169086  1
  Mo  Mo179  1  0.50635391  0.09560213  0.88440619  1
  Mo  Mo180  1  0.39423091  0.20555226  0.49252552  1
  Mo  Mo181  1  0.89638848  0.90014643  0.13719541  1
  Mo  Mo182  1  0.50669447  0.89572519  0.36001549  1
  Mo  Mo183  1  0.09818447  0.89772178  0.85918078  1
  Mo  Mo184  1  0.40786605  0.00238670  0.75899632  1
  Mo  Mo185  1  0.29835215  0.50267979  0.87456942  1
  Mo  Mo186  1  0.49612536  0.49497148  0.13221599  1
  Mo  Mo187  1  0.41251527  0.80238574  0.26273441  1
  Mo  Mo188  1  0.30361600  0.29639717  0.89290202  1
  Mo  Mo189  1  0.10888614  0.31002143  0.64009617  1
  Mo  Mo190  1  0.09931589  0.50237637  0.87266914  1
  Mo  Mo191  1  0.71298659  0.89420079  0.87739779  1
  Mo  Mo192  1  0.79092996  0.19854911  0.77008087  1
  Mo  Mo193  1  0.50377271  0.70266723  0.39119646  1
  Mo  Mo194  1  0.51188422  0.30474564  0.87446642  1
  Mo  Mo195  1  0.89584854  0.30665722  0.86386191  1
  Mo  Mo196  1  0.29399664  0.30261456  0.38300878  1
  Mo  Mo197  1  0.80456387  0.19841065  0.49726252  1
  Mo  Mo198  1  0.50397928  0.09608923  0.38230490  1
  Mo  Mo199  1  0.20716016  0.38621728  0.23336251  1
