# generated using pymatgen
data_HfZrTaTiMo
_symmetry_space_group_name_H-M   'P 1'
_cell_length_a   15.93953800
_cell_length_b   15.92621480
_cell_length_c   15.20091201
_cell_angle_alpha   89.88953323
_cell_angle_beta   89.99337101
_cell_angle_gamma   89.92491485
_symmetry_Int_Tables_number   1
_chemical_formula_structural   HfZrTaTiMo
_chemical_formula_sum   'Hf40 Zr40 Ta40 Ti40 Mo40'
_cell_volume   3858.83989890
_cell_formula_units_Z   40
loop_
 _symmetry_equiv_pos_site_id
 _symmetry_equiv_pos_as_xyz
  1  'x, y, z'
loop_
 _atom_site_type_symbol
 _atom_site_label
 _atom_site_symmetry_multiplicity
 _atom_site_fract_x
 _atom_site_fract_y
 _atom_site_fract_z
 _atom_site_occupancy
  Hf  Hf0  1  0.01562247  0.79387694  -0.00348306  1
  Hf  Hf1  1  0.80424142  0.60489134  0.01480226  1
  Hf  Hf2  1  0.71893325  0.48794457  0.37752007  1
  Hf  Hf3  1  0.39310164  0.59097857  0.75758707  1
  Hf  Hf4  1  0.70708513  0.89387571  0.88408558  1
  Hf  Hf5  1  0.10712819  0.88017757  0.85258885  1
  Hf  Hf6  1  0.10371328  0.91500865  0.37591631  1
  Hf  Hf7  1  0.18837409  0.20486250  0.22626455  1
  Hf  Hf8  1  0.39652836  0.20291103  0.00561057  1
  Hf  Hf9  1  0.39180279  0.19919614  0.75401593  1
  Hf  Hf10  1  0.00831572  0.41518666  0.76009808  1
  Hf  Hf11  1  0.39588599  0.40218659  0.23306138  1
  Hf  Hf12  1  -0.00464127  0.00293181  0.24401565  1
  Hf  Hf13  1  0.59970263  0.19706788  0.48968218  1
  Hf  Hf14  1  0.39674566  0.59755304  0.24630037  1
  Hf  Hf15  1  0.09821024  0.50602033  0.61296423  1
  Hf  Hf16  1  0.90127386  0.30644620  0.35771275  1
  Hf  Hf17  1  0.39491154  0.00698017  0.75493777  1
  Hf  Hf18  1  0.59855793  -0.00069250  0.75701387  1
  Hf  Hf19  1  0.49956811  0.09270098  0.13235345  1
  Hf  Hf20  1  0.49345769  0.70220357  0.87504097  1
  Hf  Hf21  1  0.10459864  0.69677604  0.13893867  1
  Hf  Hf22  1  0.71735334  0.08032819  0.12285863  1
  Hf  Hf23  1  0.19493435  0.19264149  0.51827836  1
  Hf  Hf24  1  0.49991567  0.90287145  0.61779937  1
  Hf  Hf25  1  0.90030561  0.89143099  0.86925791  1
  Hf  Hf26  1  -0.00171607  0.38372829  0.50732438  1
  Hf  Hf27  1  0.28730141  0.29695385  0.36488779  1
  Hf  Hf28  1  0.59988472  0.40518665  0.76587600  1
  Hf  Hf29  1  0.70890288  0.29651645  0.63661819  1
  Hf  Hf30  1  0.59942275  0.60112089  0.25579439  1
  Hf  Hf31  1  0.60496758  0.38759165  0.48889418  1
  Hf  Hf32  1  0.80435534  0.60611090  0.26044920  1
  Hf  Hf33  1  0.81342604  0.20921379  0.50459439  1
  Hf  Hf34  1  0.28864950  0.50401307  0.11151459  1
  Hf  Hf35  1  0.59774392  0.39928253  0.24505703  1
  Hf  Hf36  1  0.60942569  0.19945343  0.00668607  1
  Hf  Hf37  1  0.29919024  0.49208299  0.38095090  1
  Hf  Hf38  1  0.79399863  0.01079197  0.75783967  1
  Hf  Hf39  1  0.39064872  0.19637142  0.51290315  1
  Zr  Zr40  1  0.49905757  0.68619380  0.60756159  1
  Zr  Zr41  1  0.37982677  0.79059638  0.49401947  1
  Zr  Zr42  1  0.71354565  0.70103874  0.87867157  1
  Zr  Zr43  1  0.91287288  0.50813810  0.89622931  1
  Zr  Zr44  1  0.27936430  0.70669782  0.87030518  1
  Zr  Zr45  1  0.60492698  0.59324935  0.75595547  1
  Zr  Zr46  1  0.38860481  0.39914106  0.75387917  1
  Zr  Zr47  1  0.39688025  -0.00714928  0.00260794  1
  Zr  Zr48  1  0.28453525  0.09616322  0.36416058  1
  Zr  Zr49  1  0.81258274  0.60458472  0.74282362  1
  Zr  Zr50  1  0.39438861  0.79779281  0.73231415  1
  Zr  Zr51  1  0.81468335  0.80901624  0.50900499  1
  Zr  Zr52  1  0.61009974  0.79537369  0.73581705  1
  Zr  Zr53  1  0.90705212  0.70738840  0.12997337  1
  Zr  Zr54  1  0.59686937  0.79748996  0.01262486  1
  Zr  Zr55  1  0.48834806  0.89787448  0.36778973  1
  Zr  Zr56  1  0.70897740  0.50093058  0.60360537  1
  Zr  Zr57  1  0.19932275  0.81455884  0.50230328  1
  Zr  Zr58  1  0.60951851  0.79697269  0.48857556  1
  Zr  Zr59  1  0.59940765  -0.00596782  -0.00055348  1
  Zr  Zr60  1  0.20744759  0.61129119  0.48796942  1
  Zr  Zr61  1  0.00320529  0.59143772  0.26194179  1
  Zr  Zr62  1  0.50445062  0.29675822  0.63410583  1
  Zr  Zr63  1  -0.00041107  0.00626058  0.50735753  1
  Zr  Zr64  1  0.61212521  -0.01533217  0.25108722  1
  Zr  Zr65  1  0.60496622  0.39806723  0.00393424  1
  Zr  Zr66  1  0.90970056  0.09997934  0.10953474  1
  Zr  Zr67  1  0.59705290  0.00462827  0.49031366  1
  Zr  Zr68  1  0.10143445  0.48338998  0.11800707  1
  Zr  Zr69  1  0.19925108  -0.01224966  -0.00836744  1
  Zr  Zr70  1  0.71020707  0.10634975  0.36479514  1
  Zr  Zr71  1  0.70875867  0.49661442  0.13385330  1
  Zr  Zr72  1  0.49888163  0.50013142  0.60937942  1
  Zr  Zr73  1  0.79990343  0.81813500  0.25737994  1
  Zr  Zr74  1  0.80830102  0.40793134  0.75406273  1
  Zr  Zr75  1  0.37551652  -0.00016263  0.50044924  1
  Zr  Zr76  1  0.48807573  0.29618170  0.36621454  1
  Zr  Zr77  1  0.59343915  0.59817092  0.01182781  1
  Zr  Zr78  1  0.60672775  0.18868246  0.76880332  1
  Zr  Zr79  1  0.09103739  0.10049700  0.65389967  1
  Ta  Ta80  1  0.71400564  0.29644285  0.87507706  1
  Ta  Ta81  1  0.09610820  0.70588983  0.37519624  1
  Ta  Ta82  1  0.10417098  0.30293168  0.65147881  1
  Ta  Ta83  1  0.91220215  0.70038008  0.87975730  1
  Ta  Ta84  1  0.80570120  0.20543025  0.22812470  1
  Ta  Ta85  1  0.90562555  0.10851289  0.36392663  1
  Ta  Ta86  1  0.38513447  -0.00361449  0.24166598  1
  Ta  Ta87  1  0.49372438  0.49856132  0.38823786  1
  Ta  Ta88  1  0.49169985  0.70433148  0.13778055  1
  Ta  Ta89  1  0.49242997  0.89164785  0.87136882  1
  Ta  Ta90  1  0.70804900  0.91043205  0.61983725  1
  Ta  Ta91  1  0.50061805  0.09870747  0.62713093  1
  Ta  Ta92  1  0.29154773  0.49660032  0.62129206  1
  Ta  Ta93  1  0.88926425  0.90832345  0.10376025  1
  Ta  Ta94  1  0.39447577  0.60643743  0.00584801  1
  Ta  Ta95  1  0.80766724  0.20587130  0.00239847  1
  Ta  Ta96  1  0.80953811  0.38804468  0.00959629  1
  Ta  Ta97  1  0.39125831  0.20129940  0.22718450  1
  Ta  Ta98  1  0.60232658  0.20353025  0.23605426  1
  Ta  Ta99  1  0.09883185  0.10390240  0.09633992  1
  Ta  Ta100  1  0.09481059  0.11045190  0.37191693  1
  Ta  Ta101  1  0.19805326  0.80479561  0.25546480  1
  Ta  Ta102  1  0.39114850  0.79910835  0.00903596  1
  Ta  Ta103  1  0.49504015  0.88894645  0.14037331  1
  Ta  Ta104  1  0.49643293  0.30138818  0.88593136  1
  Ta  Ta105  1  0.70220051  0.10109292  0.61981246  1
  Ta  Ta106  1  0.81182118  0.01074946  0.50313532  1
  Ta  Ta107  1  0.29904061  0.89029489  0.86713205  1
  Ta  Ta108  1  0.48848811  0.10337523  0.35409175  1
  Ta  Ta109  1  0.10249188  0.30065431  0.88039135  1
  Ta  Ta110  1  0.90464166  0.11072740  0.87254708  1
  Ta  Ta111  1  0.38920263  0.39094372  0.51049768  1
  Ta  Ta112  1  0.49116347  0.69371545  0.37393299  1
  Ta  Ta113  1  0.00498335  -0.00127087  -0.02267308  1
  Ta  Ta114  1  0.10312747  0.48470864  0.37880759  1
  Ta  Ta115  1  0.09328877  0.89989047  0.12373687  1
  Ta  Ta116  1  0.91219733  0.48850857  0.12699033  1
  Ta  Ta117  1  0.28003574  0.31243102  0.10795525  1
  Ta  Ta118  1  0.90632675  0.70587760  0.38556223  1
  Ta  Ta119  1  0.09741263  0.69764553  0.62771319  1
  Ti  Ti120  1  0.70244148  0.71226064  0.13220188  1
  Ti  Ti121  1  0.90572543  0.49376745  0.38523061  1
  Ti  Ti122  1  0.00100682  0.19955843  0.50727965  1
  Ti  Ti123  1  -0.00678017  0.78552938  0.73760904  1
  Ti  Ti124  1  0.49683846  0.09962722  0.88465685  1
  Ti  Ti125  1  0.20018006  0.00922778  0.76461254  1
  Ti  Ti126  1  0.28897107  0.68596073  0.63489155  1
  Ti  Ti127  1  0.18437915  0.58727152  0.75833734  1
  Ti  Ti128  1  0.38627847  0.79747125  0.25486204  1
  Ti  Ti129  1  0.28946966  0.10781330  0.88703308  1
  Ti  Ti130  1  0.09723585  0.90386289  0.63917890  1
  Ti  Ti131  1  0.80515499  0.79498829  0.72980886  1
  Ti  Ti132  1  0.20250248  0.59881449  0.26239839  1
  Ti  Ti133  1  0.09811956  0.29663632  0.37079217  1
  Ti  Ti134  1  0.29679359  0.30776496  0.88802133  1
  Ti  Ti135  1  0.48674554  0.49426430  0.89567287  1
  Ti  Ti136  1  0.20442014  0.20668620  0.76003784  1
  Ti  Ti137  1  0.89989515  0.10978422  0.64845964  1
  Ti  Ti138  1  0.29208293  0.70282690  0.12495202  1
  Ti  Ti139  1  0.90965619  0.29173629  0.65143188  1
  Ti  Ti140  1  0.18167922  0.61255277  -0.01029336  1
  Ti  Ti141  1  0.49604530  0.30622060  0.11578192  1
  Ti  Ti142  1  0.19154099  0.00269461  0.23293940  1
  Ti  Ti143  1  0.28955829  0.49964095  0.88962754  1
  Ti  Ti144  1  0.70934035  0.49941251  0.88905531  1
  Ti  Ti145  1  0.90817678  0.91543818  0.64305586  1
  Ti  Ti146  1  0.71255743  0.30043075  0.35791872  1
  Ti  Ti147  1  -0.00299551  0.81165145  0.25689592  1
  Ti  Ti148  1  0.71641747  0.90794265  0.38912504  1
  Ti  Ti149  1  0.60555619  0.79444583  0.26138159  1
  Ti  Ti150  1  0.29196562  0.89242173  0.12813717  1
  Ti  Ti151  1  0.00416670  0.20771435  0.23095957  1
  Ti  Ti152  1  0.91312264  0.68276548  0.60254632  1
  Ti  Ti153  1  0.00365556  0.80673249  0.50539298  1
  Ti  Ti154  1  0.28195977  0.91361525  0.63925111  1
  Ti  Ti155  1  0.71053843  0.69242342  0.60604755  1
  Ti  Ti156  1  0.29152532  0.09992493  0.11555476  1
  Ti  Ti157  1  0.19981522  0.38453220  0.51075020  1
  Ti  Ti158  1  0.60913283  0.60299873  0.47623563  1
  Ti  Ti159  1  0.90224818  0.50392651  0.60334690  1
  Mo  Mo160  1  0.00603192  0.60041234  0.48471261  1
  Mo  Mo161  1  0.81168842  0.39407620  0.51277048  1
  Mo  Mo162  1  -0.00249359  -0.00080612  0.75986339  1
  Mo  Mo163  1  0.80843698  0.60322649  0.48466772  1
  Mo  Mo164  1  0.09287932  0.29910594  0.10109029  1
  Mo  Mo165  1  -0.00003379  0.39362166  -0.01112977  1
  Mo  Mo166  1  0.19497464  0.39649727  0.25371897  1
  Mo  Mo167  1  0.49400799  0.50570552  0.11483163  1
  Mo  Mo168  1  0.19174430  0.00630653  0.51285964  1
  Mo  Mo169  1  0.80323739  0.19945942  0.75444024  1
  Mo  Mo170  1  0.39713742  0.40404157  0.00275692  1
  Mo  Mo171  1  0.00404349  0.60085224  0.01120656  1
  Mo  Mo172  1  0.19617110  0.79739246  0.72557119  1
  Mo  Mo173  1  0.20022776  0.20026850  -0.00329125  1
  Mo  Mo174  1  0.80620107  0.00247671  -0.02145794  1
  Mo  Mo175  1  0.20252055  0.79735244  0.01488582  1
  Mo  Mo176  1  -0.00033984  0.60308581  0.74168915  1
  Mo  Mo177  1  0.20074889  0.40385618  0.76198784  1
  Mo  Mo178  1  0.90632495  0.90848762  0.38309605  1
  Mo  Mo179  1  0.19660345  0.40285576  -0.01995406  1
  Mo  Mo180  1  0.80990100  0.39901752  0.23434497  1
  Mo  Mo181  1  0.80521503  0.80004192  0.00922910  1
  Mo  Mo182  1  0.70428188  0.29516071  0.12867081  1
  Mo  Mo183  1  0.09104087  0.69314403  0.85376012  1
  Mo  Mo184  1  0.00156813  0.20400809  -0.01290758  1
  Mo  Mo185  1  0.29547574  0.70063553  0.35802805  1
  Mo  Mo186  1  0.28925082  0.30256792  0.63474951  1
  Mo  Mo187  1  0.28961373  0.90528106  0.35553729  1
  Mo  Mo188  1  0.39580701  0.59430090  0.49386525  1
  Mo  Mo189  1  0.81234614  0.00179623  0.26451093  1
  Mo  Mo190  1  0.70756152  0.10224634  0.89425549  1
  Mo  Mo191  1  0.90240165  0.30200746  0.87222873  1
  Mo  Mo192  1  0.70702851  0.89342792  0.11704363  1
  Mo  Mo193  1  0.00135936  0.20757777  0.76945641  1
  Mo  Mo194  1  0.10234649  0.10135654  0.87467956  1
  Mo  Mo195  1  0.70299434  0.70239082  0.37707388  1
  Mo  Mo196  1  0.10327822  0.50682163  0.88739274  1
  Mo  Mo197  1  0.90993721  0.30456238  0.12906963  1
  Mo  Mo198  1  0.29305982  0.09919800  0.64066721  1
  Mo  Mo199  1  0.00924603  0.39352779  0.25960920  1
