# generated using pymatgen
data_HfZrTaTiMo
_symmetry_space_group_name_H-M   'P 1'
_cell_length_a   15.93629410
_cell_length_b   15.92862094
_cell_length_c   15.20044046
_cell_angle_alpha   90.03045507
_cell_angle_beta   89.94637460
_cell_angle_gamma   89.98561348
_symmetry_Int_Tables_number   1
_chemical_formula_structural   HfZrTaTiMo
_chemical_formula_sum   'Hf40 Zr40 Ta40 Ti40 Mo40'
_cell_volume   3858.52590754
_cell_formula_units_Z   40
loop_
 _symmetry_equiv_pos_site_id
 _symmetry_equiv_pos_as_xyz
  1  'x, y, z'
loop_
 _atom_site_type_symbol
 _atom_site_label
 _atom_site_symmetry_multiplicity
 _atom_site_fract_x
 _atom_site_fract_y
 _atom_site_fract_z
 _atom_site_occupancy
  Hf  Hf0  1  0.20322548  0.00135137  -0.01067674  1
  Hf  Hf1  1  0.39386312  0.79297292  0.23505057  1
  Hf  Hf2  1  -0.00239709  0.20552329  0.25168696  1
  Hf  Hf3  1  0.79581704  0.60241706  -0.01891630  1
  Hf  Hf4  1  0.69832668  0.69724915  0.12355916  1
  Hf  Hf5  1  0.40085706  0.19080395  0.02179636  1
  Hf  Hf6  1  0.10433946  0.50774893  0.37505327  1
  Hf  Hf7  1  0.40005446  0.39201088  0.22937471  1
  Hf  Hf8  1  0.29825701  0.28790272  0.86696592  1
  Hf  Hf9  1  0.89257453  0.29822115  0.63816724  1
  Hf  Hf10  1  0.51729004  0.49154074  0.11712956  1
  Hf  Hf11  1  0.89218535  0.71869815  0.62512731  1
  Hf  Hf12  1  0.71414228  0.89231611  0.62281876  1
  Hf  Hf13  1  0.38288965  0.58905578  0.22502665  1
  Hf  Hf14  1  -0.00566311  -0.00219299  0.25569627  1
  Hf  Hf15  1  0.49737849  0.10229529  0.37026283  1
  Hf  Hf16  1  0.20406420  0.39529508  0.52317590  1
  Hf  Hf17  1  0.20582356  0.79808527  0.76409829  1
  Hf  Hf18  1  0.69487951  0.91099551  0.88327473  1
  Hf  Hf19  1  0.50731215  0.69598003  0.11942125  1
  Hf  Hf20  1  0.80465922  0.80588071  0.25303059  1
  Hf  Hf21  1  0.59832374  -0.01775193  0.48950030  1
  Hf  Hf22  1  0.79953472  0.41309631  0.23557714  1
  Hf  Hf23  1  0.19637155  0.00492867  0.48558328  1
  Hf  Hf24  1  0.62155098  0.78608727  0.48520930  1
  Hf  Hf25  1  0.89153406  0.09908313  0.62108470  1
  Hf  Hf26  1  0.59805607  0.19925720  0.00199677  1
  Hf  Hf27  1  0.10782584  0.90394734  0.12863524  1
  Hf  Hf28  1  0.29785527  0.49429857  0.37159784  1
  Hf  Hf29  1  0.79602948  0.20089429  -0.00042980  1
  Hf  Hf30  1  0.10025137  0.88791679  0.37245492  1
  Hf  Hf31  1  0.30815666  0.10188079  0.37235228  1
  Hf  Hf32  1  0.80523196  0.21337974  0.24716423  1
  Hf  Hf33  1  -0.00513068  -0.00209350  0.75643785  1
  Hf  Hf34  1  0.20159255  -0.00506332  0.75554446  1
  Hf  Hf35  1  -0.00770610  0.79913004  0.24220505  1
  Hf  Hf36  1  0.91010790  0.71121118  0.88088698  1
  Hf  Hf37  1  0.40472218  0.40023133  0.50883503  1
  Hf  Hf38  1  0.79113698  0.61096421  0.75815684  1
  Hf  Hf39  1  0.60831544  0.18807406  0.74793590  1
  Zr  Zr40  1  0.60109229  0.79571065  0.75976608  1
  Zr  Zr41  1  0.51449125  0.30634196  0.63289949  1
  Zr  Zr42  1  0.40491561  0.60505229  0.76601963  1
  Zr  Zr43  1  0.08830724  0.50073965  0.64689270  1
  Zr  Zr44  1  -0.00846308  0.40596692  0.22964398  1
  Zr  Zr45  1  0.49611881  0.69017281  0.35878620  1
  Zr  Zr46  1  0.10573817  0.31542923  0.36617046  1
  Zr  Zr47  1  0.49224217  0.09891698  0.60330922  1
  Zr  Zr48  1  0.80470837  0.60474879  0.25299381  1
  Zr  Zr49  1  0.78357155  0.61129270  0.50695388  1
  Zr  Zr50  1  0.00607842  0.20333060  0.49213704  1
  Zr  Zr51  1  0.51522193  0.69284598  0.63066172  1
  Zr  Zr52  1  0.70692703  0.09770360  0.61273036  1
  Zr  Zr53  1  -0.00385225  -0.00201456  0.48877894  1
  Zr  Zr54  1  0.19439052  0.39242394  -0.00264454  1
  Zr  Zr55  1  0.20577763  0.59399420  0.52444501  1
  Zr  Zr56  1  0.49310348  0.28820958  0.86381856  1
  Zr  Zr57  1  0.40304692  0.38875013  0.01086042  1
  Zr  Zr58  1  0.80012541  0.00988173  0.00192045  1
  Zr  Zr59  1  0.41222353  -0.01099965  0.73875070  1
  Zr  Zr60  1  0.29722622  0.49521289  0.88042091  1
  Zr  Zr61  1  0.29534639  0.69266165  0.37927628  1
  Zr  Zr62  1  0.09927625  0.09692377  0.62754430  1
  Zr  Zr63  1  0.89985549  0.29825963  0.86427422  1
  Zr  Zr64  1  0.41649541  0.80209159  0.50505908  1
  Zr  Zr65  1  -0.00161617  0.20266083  0.00511009  1
  Zr  Zr66  1  0.39933892  -0.00350612  0.01791280  1
  Zr  Zr67  1  0.09907408  0.69712840  0.10295177  1
  Zr  Zr68  1  0.49697605  0.90125804  0.89298570  1
  Zr  Zr69  1  0.31488723  0.10181324  0.86398552  1
  Zr  Zr70  1  0.30095947  0.89992065  0.61187278  1
  Zr  Zr71  1  0.69559811  0.10303993  0.14900680  1
  Zr  Zr72  1  0.59751094  0.58964229  0.48687454  1
  Zr  Zr73  1  0.09587810  0.70768172  0.62893752  1
  Zr  Zr74  1  0.60733179  0.21351632  0.49336141  1
  Zr  Zr75  1  0.89751723  0.50182651  0.39160623  1
  Zr  Zr76  1  -0.00380476  0.39982139  0.51725332  1
  Zr  Zr77  1  0.68144735  0.49588935  0.64365766  1
  Zr  Zr78  1  -0.00062493  0.00874143  -0.00060069  1
  Zr  Zr79  1  0.00019705  0.60363747  0.24770575  1
  Ta  Ta80  1  0.69651945  0.30366380  0.86601813  1
  Ta  Ta81  1  0.69753647  0.50051561  0.10480968  1
  Ta  Ta82  1  0.69831858  0.31108768  0.35911076  1
  Ta  Ta83  1  0.20724886  0.80280585  -0.01530606  1
  Ta  Ta84  1  0.39765940  0.40150900  0.74633865  1
  Ta  Ta85  1  0.19723858  0.39652103  0.74614778  1
  Ta  Ta86  1  0.79862084  0.21001133  0.48662919  1
  Ta  Ta87  1  0.78334515  0.39660463  0.51235201  1
  Ta  Ta88  1  0.30475959  0.10215685  0.61102960  1
  Ta  Ta89  1  0.20471366  0.41115513  0.22873453  1
  Ta  Ta90  1  0.19834935  0.20181358  0.25852229  1
  Ta  Ta91  1  0.29077169  0.09174490  0.14631520  1
  Ta  Ta92  1  0.79959280  0.80917822  0.00510269  1
  Ta  Ta93  1  0.90639123  0.71314908  0.39627702  1
  Ta  Ta94  1  0.10015485  0.30047501  0.12743479  1
  Ta  Ta95  1  0.90180466  0.70169667  0.10452694  1
  Ta  Ta96  1  0.50849467  0.89572538  0.13136829  1
  Ta  Ta97  1  0.40021355  0.79741478  0.76233563  1
  Ta  Ta98  1  0.59816467  0.00708748  0.01824043  1
  Ta  Ta99  1  0.19752302  0.19324123  0.00823140  1
  Ta  Ta100  1  0.30702926  0.29872422  0.37129261  1
  Ta  Ta101  1  0.19907652  0.78581563  0.24851566  1
  Ta  Ta102  1  -0.00090711  0.40300607  -0.00334876  1
  Ta  Ta103  1  0.40021704  0.58889995  0.51314751  1
  Ta  Ta104  1  0.40035289  0.60060412  -0.00268392  1
  Ta  Ta105  1  0.30937863  0.29025557  0.63035801  1
  Ta  Ta106  1  0.19887056  0.19894722  0.73808513  1
  Ta  Ta107  1  0.79961937  0.39746902  -0.00161950  1
  Ta  Ta108  1  0.68329548  0.31265882  0.12920320  1
  Ta  Ta109  1  0.89142416  0.10181314  0.37397440  1
  Ta  Ta110  1  0.19957846  0.60359211  0.76543757  1
  Ta  Ta111  1  0.49465812  0.49173106  0.36084559  1
  Ta  Ta112  1  0.90512204  0.49672080  0.86768241  1
  Ta  Ta113  1  0.30194309  0.89768913  0.36835529  1
  Ta  Ta114  1  0.09772455  0.69743283  0.38568293  1
  Ta  Ta115  1  0.10673014  0.10081813  0.13997081  1
  Ta  Ta116  1  0.10850212  0.51142868  0.10714486  1
  Ta  Ta117  1  0.49713799  0.29791183  0.36017061  1
  Ta  Ta118  1  0.20166714  0.20465489  0.49711008  1
  Ta  Ta119  1  0.79710446  0.00834626  0.76489535  1
  Ti  Ti120  1  0.29160038  0.28707203  0.13253190  1
  Ti  Ti121  1  0.09469561  0.89583034  0.61831619  1
  Ti  Ti122  1  0.60180597  -0.00614489  0.73825349  1
  Ti  Ti123  1  0.80330177  -0.00810617  0.25811408  1
  Ti  Ti124  1  -0.00407342  0.60317263  0.51138450  1
  Ti  Ti125  1  0.70133779  0.10074525  0.37068414  1
  Ti  Ti126  1  0.49506565  0.89614339  0.36149672  1
  Ti  Ti127  1  0.09581195  0.89514484  0.87967533  1
  Ti  Ti128  1  0.60854051  0.79847925  0.25826524  1
  Ti  Ti129  1  0.60249079  -0.00839483  0.25620969  1
  Ti  Ti130  1  0.10136331  0.11005370  0.87000698  1
  Ti  Ti131  1  0.00025238  0.80910167  0.75193421  1
  Ti  Ti132  1  0.20133346  0.79607403  0.49970359  1
  Ti  Ti133  1  0.09862907  0.30175225  0.86451477  1
  Ti  Ti134  1  0.50126150  0.10291194  0.15176516  1
  Ti  Ti135  1  0.60399517  0.79973480  -0.00050410  1
  Ti  Ti136  1  0.00115209  0.60621597  0.76370427  1
  Ti  Ti137  1  0.60352160  0.60302151  0.78127892  1
  Ti  Ti138  1  0.89553727  0.31120578  0.38139306  1
  Ti  Ti139  1  0.89898334  0.09888360  0.13677897  1
  Ti  Ti140  1  0.61317866  0.58588729  0.25837655  1
  Ti  Ti141  1  0.69838211  0.90155565  0.12892499  1
  Ti  Ti142  1  0.79167714  0.40317598  0.75338161  1
  Ti  Ti143  1  0.30665228  0.69814948  0.63175403  1
  Ti  Ti144  1  0.90001149  0.90611843  0.88360725  1
  Ti  Ti145  1  0.89596369  0.90400616  0.61202277  1
  Ti  Ti146  1  0.39396248  0.79595381  0.00230264  1
  Ti  Ti147  1  0.50723947  0.09186419  0.87293744  1
  Ti  Ti148  1  0.60086157  0.60214752  -0.02007240  1
  Ti  Ti149  1  0.39870375  -0.00762935  0.24664018  1
  Ti  Ti150  1  0.29265925  0.89692248  0.13318343  1
  Ti  Ti151  1  0.89393759  0.50283952  0.63894507  1
  Ti  Ti152  1  0.00224725  0.19939056  0.74875123  1
  Ti  Ti153  1  0.60116991  0.40413828  0.48561287  1
  Ti  Ti154  1  0.50644532  0.48775520  0.88207061  1
  Ti  Ti155  1  0.50004232  0.50016721  0.64044011  1
  Ti  Ti156  1  0.79967682  0.80796705  0.76675103  1
  Ti  Ti157  1  0.28293864  0.68661540  0.10668735  1
  Ti  Ti158  1  0.90415872  0.51175787  0.09973529  1
  Ti  Ti159  1  -0.00034714  0.81110983  0.00465611  1
  Mo  Mo160  1  0.70128664  0.71040516  0.88652843  1
  Mo  Mo161  1  0.79630001  0.00240824  0.47941372  1
  Mo  Mo162  1  0.70439969  0.70429529  0.64382219  1
  Mo  Mo163  1  0.09351474  0.49957441  0.86945472  1
  Mo  Mo164  1  0.20047228  -0.00514148  0.26164686  1
  Mo  Mo165  1  0.89607615  0.90137363  0.38664994  1
  Mo  Mo166  1  0.70482464  0.69855142  0.35454127  1
  Mo  Mo167  1  0.39733900  0.19861909  0.23975725  1
  Mo  Mo168  1  -0.00230176  0.40017080  0.75507695  1
  Mo  Mo169  1  0.40100208  -0.00535594  0.48349003  1
  Mo  Mo170  1  0.50808639  0.89467625  0.62198659  1
  Mo  Mo171  1  0.50003072  0.70126965  0.89621184  1
  Mo  Mo172  1  0.69860254  0.49460189  0.37898456  1
  Mo  Mo173  1  0.09636653  0.70576451  0.87731995  1
  Mo  Mo174  1  0.69921172  0.90426138  0.36173740  1
  Mo  Mo175  1  0.70730760  0.30312273  0.64118750  1
  Mo  Mo176  1  0.30327042  0.89768464  0.87706980  1
  Mo  Mo177  1  0.10284901  0.29507990  0.63833616  1
  Mo  Mo178  1  0.29314171  0.50303169  0.10699651  1
  Mo  Mo179  1  0.19515161  0.60154231  0.24551229  1
  Mo  Mo180  1  -0.00078790  0.59569998  -0.01705344  1
  Mo  Mo181  1  0.69091575  0.09888864  0.87383942  1
  Mo  Mo182  1  0.10134046  0.10325778  0.36103955  1
  Mo  Mo183  1  0.80120116  0.80829764  0.48573294  1
  Mo  Mo184  1  0.60550914  0.39632529  -0.01467282  1
  Mo  Mo185  1  0.69960585  0.49538201  0.87921323  1
  Mo  Mo186  1  0.79817392  0.19403078  0.76311217  1
  Mo  Mo187  1  0.30417310  0.49905487  0.64635428  1
  Mo  Mo188  1  0.59714050  0.40457410  0.76814409  1
  Mo  Mo189  1  0.89985914  0.10301746  0.86084435  1
  Mo  Mo190  1  0.89837237  0.90121062  0.11593008  1
  Mo  Mo191  1  0.30322976  0.70093178  0.88613449  1
  Mo  Mo192  1  0.89583155  0.30730964  0.11008838  1
  Mo  Mo193  1  0.50812301  0.29043031  0.13884230  1
  Mo  Mo194  1  0.19652103  0.60315534  -0.02689746  1
  Mo  Mo195  1  0.00289420  0.80121139  0.50675808  1
  Mo  Mo196  1  0.60146612  0.20377444  0.25889149  1
  Mo  Mo197  1  0.40087157  0.19424034  0.73637444  1
  Mo  Mo198  1  0.60199591  0.40628152  0.25769539  1
  Mo  Mo199  1  0.39624382  0.20778233  0.49730937  1
