# generated using pymatgen
data_HfZrTaTiMo
_symmetry_space_group_name_H-M   'P 1'
_cell_length_a   15.92243090
_cell_length_b   15.93682802
_cell_length_c   15.23539752
_cell_angle_alpha   90.02515601
_cell_angle_beta   90.01112665
_cell_angle_gamma   90.03564228
_symmetry_Int_Tables_number   1
_chemical_formula_structural   HfZrTaTiMo
_chemical_formula_sum   'Hf40 Zr40 Ta40 Ti40 Mo40'
_cell_volume   3866.02728922
_cell_formula_units_Z   40
loop_
 _symmetry_equiv_pos_site_id
 _symmetry_equiv_pos_as_xyz
  1  'x, y, z'
loop_
 _atom_site_type_symbol
 _atom_site_label
 _atom_site_symmetry_multiplicity
 _atom_site_fract_x
 _atom_site_fract_y
 _atom_site_fract_z
 _atom_site_occupancy
  Hf  Hf0  1  0.88883686  0.10262954  0.61904494  1
  Hf  Hf1  1  0.70147189  0.69184482  0.36218112  1
  Hf  Hf2  1  0.60870794  0.20271315  -0.00146917  1
  Hf  Hf3  1  0.10575268  0.29778869  0.38020131  1
  Hf  Hf4  1  0.49618605  0.30171984  0.87548168  1
  Hf  Hf5  1  0.32078130  0.29248052  0.62200540  1
  Hf  Hf6  1  0.38722116  0.40389479  -0.00313506  1
  Hf  Hf7  1  0.10444769  0.10952795  0.87797730  1
  Hf  Hf8  1  0.41705562  0.79256247  -0.00166759  1
  Hf  Hf9  1  0.60235662  0.39989955  0.00548807  1
  Hf  Hf10  1  -0.00018582  0.59770951  0.74725370  1
  Hf  Hf11  1  0.20874219  0.58593136  0.00918513  1
  Hf  Hf12  1  0.51026824  0.90965383  0.63020239  1
  Hf  Hf13  1  0.60305427  0.57122619  0.47925762  1
  Hf  Hf14  1  0.40575423  0.00190655  0.76331002  1
  Hf  Hf15  1  0.88884838  0.49831820  0.62625802  1
  Hf  Hf16  1  0.30259239  0.49480563  0.36612363  1
  Hf  Hf17  1  0.40458626  0.00364206  -0.01463767  1
  Hf  Hf18  1  0.49804410  0.49905060  0.13608025  1
  Hf  Hf19  1  0.10798697  0.47915626  0.86381762  1
  Hf  Hf20  1  -0.00565620  0.18614006  0.25671603  1
  Hf  Hf21  1  0.89116805  0.91046458  0.11877785  1
  Hf  Hf22  1  0.09470771  0.68754827  0.37113479  1
  Hf  Hf23  1  0.69472046  0.09942267  0.62918807  1
  Hf  Hf24  1  0.40071668  0.59369756  0.49781146  1
  Hf  Hf25  1  0.09697165  0.88295013  0.87827635  1
  Hf  Hf26  1  0.89233153  0.90183772  0.61688294  1
  Hf  Hf27  1  0.09319688  0.08834605  0.62444021  1
  Hf  Hf28  1  0.39472891  0.01527462  0.51001436  1
  Hf  Hf29  1  0.79852196  0.60376617  0.00648202  1
  Hf  Hf30  1  0.30340195  0.89213854  0.63297543  1
  Hf  Hf31  1  0.69600705  0.49879650  0.64144564  1
  Hf  Hf32  1  0.29498504  0.70040450  0.36991938  1
  Hf  Hf33  1  0.09679048  0.49814402  0.37839572  1
  Hf  Hf34  1  -0.00715195  0.18869432  0.48768728  1
  Hf  Hf35  1  -0.00717589  0.38754375  0.74030847  1
  Hf  Hf36  1  -0.01427256  0.00168500  -0.02399256  1
  Hf  Hf37  1  0.20248313  -0.00275791  0.75423221  1
  Hf  Hf38  1  0.21372027  0.39927420  0.50273169  1
  Hf  Hf39  1  0.90377374  0.49694051  0.88598344  1
  Zr  Zr40  1  0.30280194  0.89948673  0.11231939  1
  Zr  Zr41  1  0.89589472  0.10029289  0.11381969  1
  Zr  Zr42  1  0.21212322  0.78174303  0.75053063  1
  Zr  Zr43  1  0.79153572  0.00020709  0.77124958  1
  Zr  Zr44  1  -0.00006500  0.39519119  0.24222301  1
  Zr  Zr45  1  0.50109033  0.70178065  0.63548007  1
  Zr  Zr46  1  0.60466686  0.80526281  0.49918802  1
  Zr  Zr47  1  0.70109346  0.69663650  0.62526587  1
  Zr  Zr48  1  0.79575869  0.81343797  0.25306609  1
  Zr  Zr49  1  0.61620112  0.00147256  0.25116992  1
  Zr  Zr50  1  0.89019768  0.30369852  0.37544487  1
  Zr  Zr51  1  0.01481811  0.60194213  0.00628483  1
  Zr  Zr52  1  0.50318774  0.50031416  0.64216863  1
  Zr  Zr53  1  0.59638320  0.80839985  0.23894790  1
  Zr  Zr54  1  0.50110073  0.69897638  0.36325689  1
  Zr  Zr55  1  0.39786231  0.80293783  0.49773503  1
  Zr  Zr56  1  0.10323121  0.91269244  0.38670670  1
  Zr  Zr57  1  0.21378102  0.18509422  0.50284748  1
  Zr  Zr58  1  -0.01238845  0.20006564  0.75770526  1
  Zr  Zr59  1  0.50474446  0.11103674  0.37246966  1
  Zr  Zr60  1  0.08566123  0.89518236  0.11374360  1
  Zr  Zr61  1  0.49932129  0.12072465  0.62863345  1
  Zr  Zr62  1  0.19759636  0.19653067  0.24522363  1
  Zr  Zr63  1  0.79505944  0.80267239  0.00170829  1
  Zr  Zr64  1  0.19986150  0.80147509  0.24453823  1
  Zr  Zr65  1  -0.00809282  0.79476281  0.49189449  1
  Zr  Zr66  1  0.19564614  0.77949806  0.00194620  1
  Zr  Zr67  1  0.77630302  0.40618751  0.48879353  1
  Zr  Zr68  1  -0.00886936  0.80585382  0.26400910  1
  Zr  Zr69  1  -0.01202968  -0.00553952  0.76268477  1
  Zr  Zr70  1  0.10138657  0.69818798  0.62365355  1
  Zr  Zr71  1  0.30105133  0.09183539  0.36597086  1
  Zr  Zr72  1  0.69618812  0.50836689  0.87963055  1
  Zr  Zr73  1  0.09519357  0.29778546  0.61402554  1
  Zr  Zr74  1  0.49396171  0.51529457  0.87041406  1
  Zr  Zr75  1  0.20784657  0.19648530  0.01559263  1
  Zr  Zr76  1  0.39796551  0.20219642  0.00177430  1
  Zr  Zr77  1  0.50520244  0.09818660  0.12716598  1
  Zr  Zr78  1  0.18463665  0.38599142  0.01782997  1
  Zr  Zr79  1  0.50764635  0.70751461  0.85852480  1
  Ta  Ta80  1  0.30002649  0.49769985  0.63466759  1
  Ta  Ta81  1  0.80074503  0.80439194  0.75825645  1
  Ta  Ta82  1  0.60447041  0.39424622  0.76575243  1
  Ta  Ta83  1  0.69847430  0.50567003  0.13198743  1
  Ta  Ta84  1  0.49435633  0.91106263  0.37613598  1
  Ta  Ta85  1  0.89977489  0.50985098  0.36488859  1
  Ta  Ta86  1  0.09270203  0.08993681  0.12093342  1
  Ta  Ta87  1  0.29491041  0.50087238  0.85542497  1
  Ta  Ta88  1  0.70004175  0.29831623  0.63968121  1
  Ta  Ta89  1  0.80320624  0.60287978  0.48632012  1
  Ta  Ta90  1  0.80288387  0.60852023  0.76416311  1
  Ta  Ta91  1  0.10366399  0.49706145  0.62393815  1
  Ta  Ta92  1  0.89260152  0.69919193  0.62756739  1
  Ta  Ta93  1  0.39969715  -0.00704423  0.24114911  1
  Ta  Ta94  1  0.91145333  0.70455658  0.12705845  1
  Ta  Ta95  1  0.59368449  0.61930103  0.01893070  1
  Ta  Ta96  1  0.68893209  0.30198353  0.35269529  1
  Ta  Ta97  1  0.61544327  0.81864827  0.74691872  1
  Ta  Ta98  1  0.50415371  0.30179941  0.14108551  1
  Ta  Ta99  1  0.01317554  0.21486271  0.00378636  1
  Ta  Ta100  1  0.79350560  0.19703936  0.24505659  1
  Ta  Ta101  1  0.09536629  0.89776668  0.62170069  1
  Ta  Ta102  1  0.19628243  0.59611591  0.23691555  1
  Ta  Ta103  1  0.30718212  0.69427014  0.12941015  1
  Ta  Ta104  1  0.31033224  0.30443624  0.14502725  1
  Ta  Ta105  1  -0.00851494  0.59444841  0.50510895  1
  Ta  Ta106  1  0.40097181  0.60069277  0.24919094  1
  Ta  Ta107  1  0.42247089  0.39920690  0.49050973  1
  Ta  Ta108  1  0.80042994  0.79951019  0.48769713  1
  Ta  Ta109  1  0.28207171  0.30752343  0.86124969  1
  Ta  Ta110  1  0.90734574  0.70698279  0.87875836  1
  Ta  Ta111  1  0.79324976  0.39571324  0.01290130  1
  Ta  Ta112  1  0.60323202  0.22099800  0.49807845  1
  Ta  Ta113  1  0.50557280  0.30374658  0.35534228  1
  Ta  Ta114  1  0.90298828  0.30571372  0.89773606  1
  Ta  Ta115  1  0.39966710  0.39753338  0.75319048  1
  Ta  Ta116  1  0.79765914  0.40046244  0.23794398  1
  Ta  Ta117  1  0.20141899  0.20035110  0.74047169  1
  Ta  Ta118  1  0.19544302  0.00115633  0.23832809  1
  Ta  Ta119  1  0.89802200  0.29816369  0.11806595  1
  Ti  Ti120  1  0.38021007  0.61636999  0.73930666  1
  Ti  Ti121  1  0.60755126  0.19894342  0.76998414  1
  Ti  Ti122  1  0.69884140  0.70385454  0.13334137  1
  Ti  Ti123  1  0.20402353  0.00134070  -0.00176625  1
  Ti  Ti124  1  0.30158894  0.90242565  0.37367235  1
  Ti  Ti125  1  0.80862190  0.60232304  0.24441499  1
  Ti  Ti126  1  0.39992424  0.19862275  0.76126675  1
  Ti  Ti127  1  0.09504066  0.49691141  0.13401539  1
  Ti  Ti128  1  0.60380493  0.00770309  0.49696718  1
  Ti  Ti129  1  0.79169551  0.20728298  0.49775805  1
  Ti  Ti130  1  0.69977047  0.90677529  0.38501989  1
  Ti  Ti131  1  0.20240324  0.79802737  0.50368394  1
  Ti  Ti132  1  0.40134769  0.59950569  0.01032671  1
  Ti  Ti133  1  0.79478740  0.20215686  -0.00735261  1
  Ti  Ti134  1  0.70737768  0.09084814  0.11612339  1
  Ti  Ti135  1  0.69177051  0.89584419  0.89118908  1
  Ti  Ti136  1  0.30679922  0.88583814  0.87508086  1
  Ti  Ti137  1  0.60196759  0.00458984  -0.01541366  1
  Ti  Ti138  1  -0.01371221  0.40022383  0.50425794  1
  Ti  Ti139  1  0.90165000  0.50162792  0.12319741  1
  Ti  Ti140  1  0.59953286  0.00615527  0.77019855  1
  Ti  Ti141  1  0.19979930  0.39567541  0.24888858  1
  Ti  Ti142  1  0.31562270  0.29427459  0.37289039  1
  Ti  Ti143  1  0.30413931  0.49366194  0.14061760  1
  Ti  Ti144  1  0.20327766  0.60001922  0.50849427  1
  Ti  Ti145  1  0.70123744  0.11153673  0.37688539  1
  Ti  Ti146  1  0.80192442  0.39066163  0.76082649  1
  Ti  Ti147  1  0.40056926  0.19318251  0.24304752  1
  Ti  Ti148  1  0.79837895  0.00323661  0.48950489  1
  Ti  Ti149  1  0.69543283  0.70402273  0.87538889  1
  Ti  Ti150  1  0.79938194  0.20690229  0.76597944  1
  Ti  Ti151  1  0.81221460  0.00753830  0.26668219  1
  Ti  Ti152  1  0.29806716  0.10767702  0.87044391  1
  Ti  Ti153  1  0.20293263  -0.00259093  0.51148853  1
  Ti  Ti154  1  -0.00663420  0.79844458  0.74786513  1
  Ti  Ti155  1  0.10320615  0.68821509  0.86632478  1
  Ti  Ti156  1  0.30536164  0.68948334  0.88122542  1
  Ti  Ti157  1  0.51313553  0.90304221  0.11107330  1
  Ti  Ti158  1  0.40266496  0.80631126  0.24300869  1
  Ti  Ti159  1  0.51123612  0.30558233  0.63157270  1
  Mo  Mo160  1  0.41174767  0.21419961  0.49031291  1
  Mo  Mo161  1  0.30030028  0.69323186  0.61048884  1
  Mo  Mo162  1  0.61216147  0.60554564  0.75452271  1
  Mo  Mo163  1  0.49655095  0.70064940  0.13492260  1
  Mo  Mo164  1  0.29882913  0.09391442  0.13112250  1
  Mo  Mo165  1  0.50453197  0.49283361  0.35463310  1
  Mo  Mo166  1  0.70235094  0.90684094  0.61402774  1
  Mo  Mo167  1  0.09731384  0.08957222  0.37173016  1
  Mo  Mo168  1  -0.00229816  0.59854135  0.23735972  1
  Mo  Mo169  1  0.89451030  0.11565771  0.88983138  1
  Mo  Mo170  1  0.89324538  0.90746613  0.38757833  1
  Mo  Mo171  1  0.09897012  0.69345922  0.13840955  1
  Mo  Mo172  1  0.59745475  0.39271253  0.49392169  1
  Mo  Mo173  1  0.20237771  0.39335142  0.73016739  1
  Mo  Mo174  1  0.60390445  0.60051715  0.24021513  1
  Mo  Mo175  1  0.60430286  0.40166507  0.24030018  1
  Mo  Mo176  1  0.78902659  0.00742494  -0.01632720  1
  Mo  Mo177  1  0.50267608  0.10575157  0.87186825  1
  Mo  Mo178  1  0.39975440  0.39729288  0.26021209  1
  Mo  Mo179  1  0.70635370  0.30349723  0.86856903  1
  Mo  Mo180  1  0.51050107  0.90070916  0.87386280  1
  Mo  Mo181  1  -0.00160526  0.00535962  0.26394248  1
  Mo  Mo182  1  -0.00597458  -0.00036561  0.49445533  1
  Mo  Mo183  1  0.10069172  0.29876191  0.86424554  1
  Mo  Mo184  1  -0.00324113  0.79416864  -0.00335938  1
  Mo  Mo185  1  0.30083547  0.09999202  0.64069077  1
  Mo  Mo186  1  0.89459137  0.88848375  0.87808617  1
  Mo  Mo187  1  0.60998916  0.19878781  0.23655368  1
  Mo  Mo188  1  0.60368411  0.80155415  0.01151671  1
  Mo  Mo189  1  0.88021945  0.29857221  0.61450046  1
  Mo  Mo190  1  0.20149978  0.59349329  0.74677874  1
  Mo  Mo191  1  -0.00347902  0.39792959  0.01523533  1
  Mo  Mo192  1  0.88702999  0.09932569  0.38221851  1
  Mo  Mo193  1  0.69741885  0.91450164  0.10807163  1
  Mo  Mo194  1  0.70335172  0.29610512  0.13268960  1
  Mo  Mo195  1  0.89669309  0.69268323  0.37007660  1
  Mo  Mo196  1  0.69956239  0.10420602  0.87713893  1
  Mo  Mo197  1  0.09863715  0.29499015  0.14334630  1
  Mo  Mo198  1  0.40381567  0.80216096  0.76133251  1
  Mo  Mo199  1  0.70364256  0.49793518  0.34524000  1
