# generated using pymatgen
data_HfZrTaTiMo
_symmetry_space_group_name_H-M   'P 1'
_cell_length_a   15.93488741
_cell_length_b   15.94317803
_cell_length_c   15.17216226
_cell_angle_alpha   90.04313146
_cell_angle_beta   89.92477124
_cell_angle_gamma   90.05648327
_symmetry_Int_Tables_number   1
_chemical_formula_structural   HfZrTaTiMo
_chemical_formula_sum   'Hf40 Zr40 Ta40 Ti40 Mo40'
_cell_volume   3854.52321215
_cell_formula_units_Z   40
loop_
 _symmetry_equiv_pos_site_id
 _symmetry_equiv_pos_as_xyz
  1  'x, y, z'
loop_
 _atom_site_type_symbol
 _atom_site_label
 _atom_site_symmetry_multiplicity
 _atom_site_fract_x
 _atom_site_fract_y
 _atom_site_fract_z
 _atom_site_occupancy
  Hf  Hf0  1  0.49475228  0.67793862  0.63818232  1
  Hf  Hf1  1  0.59677531  0.39367590  0.23852982  1
  Hf  Hf2  1  0.20426979  0.40407254  0.50508599  1
  Hf  Hf3  1  0.10180662  0.89466715  0.37331155  1
  Hf  Hf4  1  0.40432478  0.59278345  0.00495493  1
  Hf  Hf5  1  0.20641878  0.59616081  0.50556726  1
  Hf  Hf6  1  0.49599382  0.70181701  0.36147629  1
  Hf  Hf7  1  0.69382220  0.09571777  0.86902660  1
  Hf  Hf8  1  0.20382118  0.60200541  0.74768475  1
  Hf  Hf9  1  0.59124623  0.00175612  0.01206423  1
  Hf  Hf10  1  0.91187491  0.10715709  0.12821648  1
  Hf  Hf11  1  0.10926369  0.29243381  0.61690293  1
  Hf  Hf12  1  0.20134548  0.00185086  0.00474820  1
  Hf  Hf13  1  0.68604410  0.50839490  0.63042103  1
  Hf  Hf14  1  0.58357654  0.19428794  -0.00329760  1
  Hf  Hf15  1  0.50090854  0.10211942  0.63117723  1
  Hf  Hf16  1  0.10491503  0.11224228  0.13582812  1
  Hf  Hf17  1  -0.01006696  0.79978905  0.76023456  1
  Hf  Hf18  1  0.68800581  0.10264983  0.38706818  1
  Hf  Hf19  1  0.90620572  0.90195197  0.13540141  1
  Hf  Hf20  1  0.70156200  0.09820279  0.61814885  1
  Hf  Hf21  1  0.79397370  0.21160961  0.23610423  1
  Hf  Hf22  1  0.30918696  0.49927023  0.37175669  1
  Hf  Hf23  1  0.39563324  0.00126939  0.50090911  1
  Hf  Hf24  1  0.11033523  0.09127992  0.62590257  1
  Hf  Hf25  1  0.20898760  0.21242125  0.75857946  1
  Hf  Hf26  1  0.79952618  0.78585674  0.25446981  1
  Hf  Hf27  1  0.10039212  0.69469527  0.37358765  1
  Hf  Hf28  1  0.40638648  0.79753542  0.51477840  1
  Hf  Hf29  1  0.10733761  0.89143601  0.88929911  1
  Hf  Hf30  1  0.79816761  0.61402180  0.75543671  1
  Hf  Hf31  1  0.48993023  0.70375807  0.87136091  1
  Hf  Hf32  1  0.01000752  0.40231385  0.49157631  1
  Hf  Hf33  1  0.09331260  0.49073746  0.12825618  1
  Hf  Hf34  1  0.79001363  0.20620786  0.01467679  1
  Hf  Hf35  1  0.89772491  0.49818259  0.35091640  1
  Hf  Hf36  1  0.30684575  0.08996842  0.87623723  1
  Hf  Hf37  1  0.59558725  0.41472678  0.48408310  1
  Hf  Hf38  1  0.79957642  -0.00203546  0.00730040  1
  Hf  Hf39  1  0.89920855  0.10044163  0.87922059  1
  Zr  Zr40  1  0.40307665  0.20220917  0.75979321  1
  Zr  Zr41  1  0.30987304  0.11614817  0.11290345  1
  Zr  Zr42  1  0.79741208  0.01237894  0.25292475  1
  Zr  Zr43  1  0.80698598  -0.01653902  0.75402412  1
  Zr  Zr44  1  0.28305719  0.89975541  0.61903167  1
  Zr  Zr45  1  0.47720991  0.28908697  0.11991948  1
  Zr  Zr46  1  0.00179956  0.58936318  0.49808162  1
  Zr  Zr47  1  0.00261257  -0.01107216  0.75976430  1
  Zr  Zr48  1  0.79015321  0.40070921  0.74956314  1
  Zr  Zr49  1  0.68856618  0.90012823  0.14300490  1
  Zr  Zr50  1  0.79715206  0.40776385  0.49712374  1
  Zr  Zr51  1  0.39614062  0.39524493  0.75610313  1
  Zr  Zr52  1  0.69805001  0.69985376  0.88983364  1
  Zr  Zr53  1  0.50813824  0.30755376  0.61689869  1
  Zr  Zr54  1  0.90443875  0.09333750  0.61587742  1
  Zr  Zr55  1  0.59506967  0.59707160  0.01103151  1
  Zr  Zr56  1  0.01126509  0.40565725  0.74101931  1
  Zr  Zr57  1  0.90376595  0.31383354  0.87934036  1
  Zr  Zr58  1  0.00555246  0.20322555  0.75356039  1
  Zr  Zr59  1  0.60725150  0.79470613  0.73301422  1
  Zr  Zr60  1  0.10101198  0.71172983  0.60778651  1
  Zr  Zr61  1  0.09192861  0.89996876  0.60479272  1
  Zr  Zr62  1  0.89456989  0.70789627  0.61079099  1
  Zr  Zr63  1  0.59730351  0.21510539  0.76500987  1
  Zr  Zr64  1  0.58798630  -0.01469173  0.51310245  1
  Zr  Zr65  1  0.79876366  0.20676854  0.74440492  1
  Zr  Zr66  1  0.80549683  0.40451793  0.01488200  1
  Zr  Zr67  1  0.69934331  0.30088617  0.37394942  1
  Zr  Zr68  1  0.69217280  0.89825380  0.37291514  1
  Zr  Zr69  1  0.89605135  0.50600288  0.62755647  1
  Zr  Zr70  1  0.50199608  0.89275166  0.35398759  1
  Zr  Zr71  1  0.70740236  0.50195028  0.14146924  1
  Zr  Zr72  1  0.69677837  0.89272484  0.87950600  1
  Zr  Zr73  1  0.10293632  0.90003018  0.13029022  1
  Zr  Zr74  1  0.20108745  0.59415191  0.24921975  1
  Zr  Zr75  1  0.49651009  0.29369389  0.37375321  1
  Zr  Zr76  1  0.21027489  0.01322823  0.25700117  1
  Zr  Zr77  1  0.01162179  0.21392937  -0.00734650  1
  Zr  Zr78  1  0.29512045  0.70089341  0.11093499  1
  Zr  Zr79  1  0.19832334  0.79725478  0.75433379  1
  Ta  Ta80  1  0.00130725  0.00900475  0.47690759  1
  Ta  Ta81  1  0.59266554  0.40257676  0.00811610  1
  Ta  Ta82  1  0.58659133  0.80327715  0.01584868  1
  Ta  Ta83  1  0.40364517  0.00400326  0.24636896  1
  Ta  Ta84  1  -0.00433596  0.59519337  0.00791672  1
  Ta  Ta85  1  0.00616474  0.19900190  0.48578782  1
  Ta  Ta86  1  0.30876548  0.88961716  0.88897019  1
  Ta  Ta87  1  0.49498648  0.89701177  0.86727494  1
  Ta  Ta88  1  0.00127962  0.00069652  -0.00420780  1
  Ta  Ta89  1  0.90322115  0.29767421  0.60985329  1
  Ta  Ta90  1  0.10257849  0.69346826  0.89860661  1
  Ta  Ta91  1  0.30452438  0.30677567  0.89959873  1
  Ta  Ta92  1  0.39355324  0.19838137  0.50268179  1
  Ta  Ta93  1  0.90286110  0.51023432  0.87655046  1
  Ta  Ta94  1  0.90156151  0.30091452  0.37148186  1
  Ta  Ta95  1  0.90208504  0.70300915  0.89093835  1
  Ta  Ta96  1  0.30233020  0.29993437  0.37776835  1
  Ta  Ta97  1  0.31478292  0.50755408  0.63211488  1
  Ta  Ta98  1  0.20504027  0.79713553  0.24833481  1
  Ta  Ta99  1  0.80786381  0.60387021  0.01329361  1
  Ta  Ta100  1  0.30951956  0.89717810  0.12108048  1
  Ta  Ta101  1  0.90005883  0.89844412  0.59358062  1
  Ta  Ta102  1  0.29548911  0.70124161  0.89340532  1
  Ta  Ta103  1  0.71362996  0.89380558  0.61077355  1
  Ta  Ta104  1  0.28805185  0.30159882  0.11728860  1
  Ta  Ta105  1  0.78316502  0.60213749  0.47701972  1
  Ta  Ta106  1  0.20288429  0.01021288  0.47817395  1
  Ta  Ta107  1  0.10469614  0.30119770  0.13863460  1
  Ta  Ta108  1  0.00634499  0.60743481  0.75573883  1
  Ta  Ta109  1  0.09646391  0.69733180  0.11892859  1
  Ta  Ta110  1  0.80341299  0.20201224  0.49906885  1
  Ta  Ta111  1  0.39714129  -0.01202613  0.74343779  1
  Ta  Ta112  1  0.30542150  0.89381269  0.36974021  1
  Ta  Ta113  1  0.09866236  0.49994361  0.88048001  1
  Ta  Ta114  1  0.79464649  0.79295363  0.48126178  1
  Ta  Ta115  1  0.80111192  0.79738504  0.01679795  1
  Ta  Ta116  1  0.30593741  0.70416555  0.37644771  1
  Ta  Ta117  1  -0.00093141  0.79039583  0.25064555  1
  Ta  Ta118  1  0.59868047  0.18823469  0.22990266  1
  Ta  Ta119  1  0.59719407  0.60131726  0.48562432  1
  Ti  Ti120  1  0.50061935  0.49803148  0.64182345  1
  Ti  Ti121  1  0.39824264  0.59552928  0.23476699  1
  Ti  Ti122  1  0.41321432  -0.00006169  0.00295361  1
  Ti  Ti123  1  0.29276406  0.49118665  0.11684523  1
  Ti  Ti124  1  0.80393176  0.80110847  0.74846705  1
  Ti  Ti125  1  0.69181648  0.31221862  0.88780843  1
  Ti  Ti126  1  0.40774628  0.59331120  0.49779969  1
  Ti  Ti127  1  0.50094516  0.49551000  0.86805658  1
  Ti  Ti128  1  0.69793390  0.69859527  0.12993536  1
  Ti  Ti129  1  0.29547340  0.50308005  0.88100292  1
  Ti  Ti130  1  0.70242675  0.49994160  0.88387332  1
  Ti  Ti131  1  0.60068932  0.78688760  0.51299868  1
  Ti  Ti132  1  0.10739438  0.09511032  0.86769776  1
  Ti  Ti133  1  0.39390946  0.40057507  0.23836873  1
  Ti  Ti134  1  -0.00538210  0.79861532  0.00938085  1
  Ti  Ti135  1  0.89446393  0.10702070  0.37640115  1
  Ti  Ti136  1  0.19568234  0.20498410  -0.01303134  1
  Ti  Ti137  1  0.39852029  0.40236193  0.50663399  1
  Ti  Ti138  1  0.49678985  0.50172285  0.35626410  1
  Ti  Ti139  1  0.69470057  0.30118671  0.61343404  1
  Ti  Ti140  1  0.00568294  0.20359596  0.26633442  1
  Ti  Ti141  1  0.91910513  0.31828963  0.14088750  1
  Ti  Ti142  1  0.18773052  0.39707653  -0.00392767  1
  Ti  Ti143  1  0.90317984  0.69209142  0.36965368  1
  Ti  Ti144  1  0.40389120  0.40639781  0.00447416  1
  Ti  Ti145  1  0.38789121  0.79123362  0.74003659  1
  Ti  Ti146  1  0.90593503  0.50564200  0.14444152  1
  Ti  Ti147  1  0.20639540  0.40240059  0.74590064  1
  Ti  Ti148  1  0.60415883  0.60329566  0.25436916  1
  Ti  Ti149  1  0.49529752  0.70823738  0.13685611  1
  Ti  Ti150  1  0.00244239  0.00718866  0.26514675  1
  Ti  Ti151  1  0.50143497  0.10090302  0.37482209  1
  Ti  Ti152  1  0.20324491  0.39650941  0.25599881  1
  Ti  Ti153  1  0.29367126  0.10158303  0.63140857  1
  Ti  Ti154  1  0.89939073  0.89976921  0.37657092  1
  Ti  Ti155  1  0.59767825  -0.01134238  0.74120167  1
  Ti  Ti156  1  0.60200369  0.59584481  0.76407470  1
  Ti  Ti157  1  0.10755504  0.30050413  0.36792939  1
  Ti  Ti158  1  0.20627892  0.19451368  0.48554784  1
  Ti  Ti159  1  0.38983743  0.19419721  0.26231503  1
  Mo  Mo160  1  -0.00097919  0.60611613  0.23769239  1
  Mo  Mo161  1  0.49242953  0.50088367  0.13947395  1
  Mo  Mo162  1  0.49298144  0.09710552  0.13581174  1
  Mo  Mo163  1  0.90156114  0.89007267  0.89886108  1
  Mo  Mo164  1  0.90119715  0.69801985  0.12237036  1
  Mo  Mo165  1  0.30973122  0.10229787  0.37577028  1
  Mo  Mo166  1  0.20030237  0.79910665  0.00791128  1
  Mo  Mo167  1  0.10043156  0.10685562  0.36740813  1
  Mo  Mo168  1  0.80500595  0.39510022  0.24080300  1
  Mo  Mo169  1  0.20736931  0.80045912  0.47878601  1
  Mo  Mo170  1  0.69725569  0.10205191  0.11960373  1
  Mo  Mo171  1  0.68986806  0.70120500  0.37341789  1
  Mo  Mo172  1  0.39407130  0.59639917  0.76891521  1
  Mo  Mo173  1  0.00871193  0.39602607  0.26367104  1
  Mo  Mo174  1  0.79820904  0.60445932  0.25190718  1
  Mo  Mo175  1  0.59615007  0.79079256  0.23460518  1
  Mo  Mo176  1  0.00298991  0.40706758  -0.00041034  1
  Mo  Mo177  1  0.80453820  -0.00168029  0.48653252  1
  Mo  Mo178  1  0.20710772  0.21353424  0.26032695  1
  Mo  Mo179  1  0.49918569  0.89147826  0.64163984  1
  Mo  Mo180  1  0.39927431  0.19648315  -0.01757340  1
  Mo  Mo181  1  0.68857410  0.30076572  0.11523550  1
  Mo  Mo182  1  0.69991184  0.69533658  0.60790932  1
  Mo  Mo183  1  0.19814299  0.58971780  -0.00347195  1
  Mo  Mo184  1  0.20733356  0.00072752  0.76364004  1
  Mo  Mo185  1  0.49111843  0.89763908  0.13372017  1
  Mo  Mo186  1  0.30187525  0.29991221  0.60550074  1
  Mo  Mo187  1  0.10959809  0.50176988  0.64426857  1
  Mo  Mo188  1  0.59086997  0.00847871  0.24206590  1
  Mo  Mo189  1  0.10425159  0.49500982  0.35670255  1
  Mo  Mo190  1  0.30672091  0.69348909  0.61062790  1
  Mo  Mo191  1  0.39204205  0.79765885  0.23924599  1
  Mo  Mo192  1  0.49996189  0.07699433  0.85722051  1
  Mo  Mo193  1  0.60146639  0.40798477  0.77153846  1
  Mo  Mo194  1  0.11366760  0.31012256  0.87179143  1
  Mo  Mo195  1  -0.00828119  0.80196142  0.47171515  1
  Mo  Mo196  1  0.59693688  0.19941734  0.50420154  1
  Mo  Mo197  1  0.40665449  0.80369369  0.00527685  1
  Mo  Mo198  1  0.49533425  0.31403483  0.89495563  1
  Mo  Mo199  1  0.69543904  0.50565907  0.35623444  1
