# generated using pymatgen
data_HfZrTaTiMo
_symmetry_space_group_name_H-M   'P 1'
_cell_length_a   15.93121602
_cell_length_b   15.93182652
_cell_length_c   15.20219009
_cell_angle_alpha   89.99094084
_cell_angle_beta   90.03917824
_cell_angle_gamma   90.02819241
_symmetry_Int_Tables_number   1
_chemical_formula_structural   HfZrTaTiMo
_chemical_formula_sum   'Hf40 Zr40 Ta40 Ti40 Mo40'
_cell_volume   3858.51768020
_cell_formula_units_Z   40
loop_
 _symmetry_equiv_pos_site_id
 _symmetry_equiv_pos_as_xyz
  1  'x, y, z'
loop_
 _atom_site_type_symbol
 _atom_site_label
 _atom_site_symmetry_multiplicity
 _atom_site_fract_x
 _atom_site_fract_y
 _atom_site_fract_z
 _atom_site_occupancy
  Hf  Hf0  1  0.09613216  0.69555720  0.36378420  1
  Hf  Hf1  1  0.61329684  0.81044826  0.26166892  1
  Hf  Hf2  1  0.28817066  0.70667880  0.88383641  1
  Hf  Hf3  1  0.79935217  0.59735929  -0.00310590  1
  Hf  Hf4  1  0.79054832  0.40338847  0.75927123  1
  Hf  Hf5  1  0.80912218  0.19849706  0.49899338  1
  Hf  Hf6  1  0.29141631  0.09323693  0.88234510  1
  Hf  Hf7  1  0.30315858  0.09730414  0.13675834  1
  Hf  Hf8  1  0.49489823  0.29947604  0.86061693  1
  Hf  Hf9  1  0.40272180  0.39376328  0.00583612  1
  Hf  Hf10  1  0.19735229  0.59801778  0.50041081  1
  Hf  Hf11  1  0.40633977  0.80017170  -0.00138707  1
  Hf  Hf12  1  0.79143298  0.20111961  0.25545911  1
  Hf  Hf13  1  0.00578970  0.80559117  0.23337570  1
  Hf  Hf14  1  -0.00102643  0.00575319  0.50865081  1
  Hf  Hf15  1  0.69347536  0.69782949  0.12938390  1
  Hf  Hf16  1  0.60845704  0.39796667  0.25169122  1
  Hf  Hf17  1  0.70246569  0.30613078  0.38820586  1
  Hf  Hf18  1  0.90378721  0.70202378  0.87417696  1
  Hf  Hf19  1  0.40192062  0.59916887  -0.00466240  1
  Hf  Hf20  1  0.50460411  0.10059595  0.86544141  1
  Hf  Hf21  1  0.80631423  0.80551355  0.24696745  1
  Hf  Hf22  1  0.49162212  0.30672987  0.37943523  1
  Hf  Hf23  1  0.59785464  0.80348704  0.00142523  1
  Hf  Hf24  1  0.79693473  0.77919601  0.48239402  1
  Hf  Hf25  1  0.50975755  0.89857557  0.60813244  1
  Hf  Hf26  1  0.59911494  0.59692883  -0.00647399  1
  Hf  Hf27  1  0.19681930  0.40479836  0.49667760  1
  Hf  Hf28  1  0.09376068  0.30291713  0.37075959  1
  Hf  Hf29  1  -0.00290583  0.40390532  0.50567089  1
  Hf  Hf30  1  0.70647669  0.68621870  0.63865255  1
  Hf  Hf31  1  0.10307415  0.10492180  0.89168736  1
  Hf  Hf32  1  0.18496882  0.38461595  0.75331261  1
  Hf  Hf33  1  0.29983585  0.69339418  0.36924538  1
  Hf  Hf34  1  0.90670933  0.10093587  0.37052874  1
  Hf  Hf35  1  0.39443468  0.59719519  0.75567288  1
  Hf  Hf36  1  0.90102527  0.29999305  0.63502622  1
  Hf  Hf37  1  0.19528361  -0.00729128  0.24857416  1
  Hf  Hf38  1  0.50762464  0.48937690  0.86632159  1
  Hf  Hf39  1  0.79804283  0.59276706  0.23916512  1
  Zr  Zr40  1  0.60969376  -0.00184078  0.74141352  1
  Zr  Zr41  1  0.80406392  0.81559470  0.00822732  1
  Zr  Zr42  1  0.89186063  0.90011079  0.62649111  1
  Zr  Zr43  1  0.70672666  0.50235702  0.38196230  1
  Zr  Zr44  1  0.29054114  0.29528629  0.61353266  1
  Zr  Zr45  1  0.10060143  0.69916929  0.88308938  1
  Zr  Zr46  1  0.89359721  0.30548256  0.11531263  1
  Zr  Zr47  1  -0.00366544  0.40980727  0.76992865  1
  Zr  Zr48  1  0.59307721  0.19523729  0.01282983  1
  Zr  Zr49  1  0.89842563  0.70035243  0.64888829  1
  Zr  Zr50  1  0.20281894  0.58871187  0.24350160  1
  Zr  Zr51  1  0.09183799  0.50605865  0.63666364  1
  Zr  Zr52  1  0.49960702  0.09092378  0.15115489  1
  Zr  Zr53  1  0.12544915  0.90262211  0.88925200  1
  Zr  Zr54  1  0.03054558  0.20621175  0.74628535  1
  Zr  Zr55  1  0.39314440  0.80086353  0.25259307  1
  Zr  Zr56  1  -0.00699235  -0.01010042  0.00974427  1
  Zr  Zr57  1  0.09275355  0.69716654  0.64077437  1
  Zr  Zr58  1  0.40917462  0.78224458  0.49158636  1
  Zr  Zr59  1  0.60126884  0.61253506  0.48869195  1
  Zr  Zr60  1  0.77538034  -0.00215471  0.25627517  1
  Zr  Zr61  1  0.49950682  0.50153452  0.13831547  1
  Zr  Zr62  1  0.88763152  0.51769755  0.63187726  1
  Zr  Zr63  1  0.30299468  0.90641831  0.59658156  1
  Zr  Zr64  1  0.90509631  0.49569116  0.35891901  1
  Zr  Zr65  1  0.89920869  0.29191824  0.88778385  1
  Zr  Zr66  1  0.19526475  0.01221812  0.73023621  1
  Zr  Zr67  1  0.39971954  0.19992775  0.00919287  1
  Zr  Zr68  1  0.50826254  0.69851266  0.63702982  1
  Zr  Zr69  1  0.00185001  0.20049370  0.23739743  1
  Zr  Zr70  1  0.70936426  0.09515084  0.61737973  1
  Zr  Zr71  1  0.39724952  0.00198304  0.73964627  1
  Zr  Zr72  1  0.29236176  0.29128136  0.86968622  1
  Zr  Zr73  1  0.87811727  0.09891146  0.11013059  1
  Zr  Zr74  1  0.68870534  0.30925905  0.89008397  1
  Zr  Zr75  1  0.10003696  0.89872138  0.38388927  1
  Zr  Zr76  1  0.40878938  -0.00649593  -0.00676151  1
  Zr  Zr77  1  0.60637565  0.00492419  0.48127032  1
  Zr  Zr78  1  0.39540876  0.80914203  0.75406339  1
  Zr  Zr79  1  0.60031145  0.20298462  0.73378185  1
  Ta  Ta80  1  0.49891953  0.69705724  0.14193102  1
  Ta  Ta81  1  0.50258655  0.90216009  0.14434860  1
  Ta  Ta82  1  0.29214694  0.49327755  0.88026431  1
  Ta  Ta83  1  0.29996086  0.30481856  0.13986893  1
  Ta  Ta84  1  0.19704549  0.20909820  0.02272327  1
  Ta  Ta85  1  0.90542331  0.10204817  0.63940312  1
  Ta  Ta86  1  0.89771303  0.30912045  0.36744486  1
  Ta  Ta87  1  0.20379302  0.80900496  0.73763657  1
  Ta  Ta88  1  0.60804159  0.80480782  0.75621164  1
  Ta  Ta89  1  0.60827076  -0.00365347  0.01191952  1
  Ta  Ta90  1  0.10482123  0.69279656  0.11082620  1
  Ta  Ta91  1  0.69906481  0.70189083  0.86910148  1
  Ta  Ta92  1  0.60645787  0.18986303  0.26486719  1
  Ta  Ta93  1  0.00795781  0.81494364  0.75662656  1
  Ta  Ta94  1  0.39126902  0.19191870  0.72857977  1
  Ta  Ta95  1  0.49780344  0.90668988  0.37042434  1
  Ta  Ta96  1  0.10383550  0.10116537  0.37658197  1
  Ta  Ta97  1  0.09831245  0.89958425  0.61591377  1
  Ta  Ta98  1  0.19664194  0.79350229  0.50638373  1
  Ta  Ta99  1  -0.00607285  -0.00503844  0.23748767  1
  Ta  Ta100  1  0.70083157  0.30338035  0.61482324  1
  Ta  Ta101  1  0.59368723  0.40618917  0.51093883  1
  Ta  Ta102  1  0.10042055  0.49779514  0.11081166  1
  Ta  Ta103  1  0.50646427  0.69943063  0.86171168  1
  Ta  Ta104  1  0.29864497  0.10122120  0.37682998  1
  Ta  Ta105  1  0.70032490  0.29625253  0.11778498  1
  Ta  Ta106  1  -0.00400084  0.79270812  0.49963605  1
  Ta  Ta107  1  0.58844008  0.19850273  0.49775002  1
  Ta  Ta108  1  0.91022628  0.69315785  0.12036381  1
  Ta  Ta109  1  0.30083197  0.69529203  0.12093010  1
  Ta  Ta110  1  0.10089956  0.09684330  0.12544681  1
  Ta  Ta111  1  0.29905177  0.90490464  0.38560056  1
  Ta  Ta112  1  0.19936571  0.20254192  0.25079202  1
  Ta  Ta113  1  0.49977242  0.50448538  0.63066892  1
  Ta  Ta114  1  -0.00982818  0.60642303  0.49277206  1
  Ta  Ta115  1  0.60551821  0.40836188  0.72852828  1
  Ta  Ta116  1  0.90539688  0.49763404  0.11445916  1
  Ta  Ta117  1  0.29983119  0.90015046  0.11747336  1
  Ta  Ta118  1  0.79826442  0.19681419  0.75763058  1
  Ta  Ta119  1  0.80469737  0.00313086  0.76132274  1
  Ti  Ti120  1  0.49297983  0.29996353  0.61636188  1
  Ti  Ti121  1  0.19804444  0.59592233  0.75758705  1
  Ti  Ti122  1  0.29447785  0.49747331  0.11325239  1
  Ti  Ti123  1  0.39841231  0.59241689  0.50555355  1
  Ti  Ti124  1  0.10410876  0.50359293  0.89419705  1
  Ti  Ti125  1  0.09285256  0.50366688  0.36432315  1
  Ti  Ti126  1  0.00661966  0.20374568  0.50751157  1
  Ti  Ti127  1  0.19916682  0.80040146  0.23853578  1
  Ti  Ti128  1  0.80290370  -0.00314957  0.49051901  1
  Ti  Ti129  1  0.70470254  0.10158333  0.88531858  1
  Ti  Ti130  1  0.00951929  0.39592961  -0.00307003  1
  Ti  Ti131  1  0.29792715  0.30012886  0.37758424  1
  Ti  Ti132  1  0.90384026  0.89845256  0.37571086  1
  Ti  Ti133  1  0.00509870  0.00300160  0.74522192  1
  Ti  Ti134  1  0.50745505  0.90148610  0.86804961  1
  Ti  Ti135  1  0.39902393  0.40905531  0.50456807  1
  Ti  Ti136  1  0.39481404  0.39746999  0.74091643  1
  Ti  Ti137  1  0.70203421  0.90666190  0.88036304  1
  Ti  Ti138  1  0.38982679  0.40552396  0.25201427  1
  Ti  Ti139  1  0.80092365  0.40869405  0.51263245  1
  Ti  Ti140  1  0.49338777  0.50496396  0.36921202  1
  Ti  Ti141  1  0.00455696  0.20248902  0.00991977  1
  Ti  Ti142  1  0.39802014  0.19996496  0.26488436  1
  Ti  Ti143  1  0.90485740  0.90566921  0.87051299  1
  Ti  Ti144  1  0.29754583  0.69617999  0.62808165  1
  Ti  Ti145  1  0.29747098  0.50078921  0.63286480  1
  Ti  Ti146  1  0.79622951  0.81197588  0.75919037  1
  Ti  Ti147  1  0.50354678  0.69032338  0.35354109  1
  Ti  Ti148  1  0.49839639  0.29825614  0.14507092  1
  Ti  Ti149  1  0.90619349  0.69044435  0.35626548  1
  Ti  Ti150  1  0.00452321  0.40205743  0.23471363  1
  Ti  Ti151  1  0.70202313  0.88662947  0.60970840  1
  Ti  Ti152  1  0.41096362  0.02111790  0.49065408  1
  Ti  Ti153  1  0.79106559  0.58373447  0.77851592  1
  Ti  Ti154  1  0.90168585  0.09964518  0.87456720  1
  Ti  Ti155  1  0.19715235  0.39800478  0.24622990  1
  Ti  Ti156  1  0.30620933  0.49758289  0.37231134  1
  Ti  Ti157  1  0.00236219  0.80330475  0.00918577  1
  Ti  Ti158  1  0.70045067  0.48693656  0.11468413  1
  Ti  Ti159  1  0.29043758  0.10913736  0.59466498  1
  Mo  Mo160  1  0.29835503  0.90014049  0.88860643  1
  Mo  Mo161  1  0.79565891  0.00109802  -0.01885164  1
  Mo  Mo162  1  0.79586086  0.19667042  -0.01403743  1
  Mo  Mo163  1  0.59994442  0.00149563  0.25869027  1
  Mo  Mo164  1  0.69526127  0.10212142  0.11616475  1
  Mo  Mo165  1  0.19957936  0.00310568  0.49614423  1
  Mo  Mo166  1  0.10396628  0.29854437  0.90113404  1
  Mo  Mo167  1  0.70212273  0.10731091  0.38930630  1
  Mo  Mo168  1  0.20270546  0.00479150  0.02062515  1
  Mo  Mo169  1  0.39898854  0.20308106  0.49649423  1
  Mo  Mo170  1  0.69801811  0.90617910  0.11736511  1
  Mo  Mo171  1  0.70455303  0.89658187  0.39175318  1
  Mo  Mo172  1  0.80910730  0.60050303  0.48496335  1
  Mo  Mo173  1  0.89779450  0.89915486  0.12795553  1
  Mo  Mo174  1  0.10522026  0.10511925  0.60331101  1
  Mo  Mo175  1  0.60052625  0.59954020  0.25617289  1
  Mo  Mo176  1  0.59208359  0.39613754  0.02274772  1
  Mo  Mo177  1  0.69731379  0.50225569  0.61312081  1
  Mo  Mo178  1  0.79571153  0.40282101  0.00152677  1
  Mo  Mo179  1  0.10042844  0.29829750  0.60768616  1
  Mo  Mo180  1  0.20537556  0.59374120  0.00518619  1
  Mo  Mo181  1  0.39660650  0.59361284  0.24298539  1
  Mo  Mo182  1  0.20372732  0.80029920  0.01932465  1
  Mo  Mo183  1  0.39392913  -0.00417555  0.26789339  1
  Mo  Mo184  1  0.60450969  0.79906185  0.47767322  1
  Mo  Mo185  1  0.10415810  0.89734474  0.11861464  1
  Mo  Mo186  1  -0.00176025  0.60035813  0.78026617  1
  Mo  Mo187  1  0.10278191  0.30412117  0.12708289  1
  Mo  Mo188  1  0.19711787  0.20367458  0.47290660  1
  Mo  Mo189  1  0.20173704  0.39645347  0.00383350  1
  Mo  Mo190  1  0.80163681  0.39569673  0.23086840  1
  Mo  Mo191  1  0.49542295  0.10554266  0.36742790  1
  Mo  Mo192  1  0.00326647  0.59696985  0.22885972  1
  Mo  Mo193  1  0.90146442  0.49825422  0.89620370  1
  Mo  Mo194  1  0.69633553  0.49548892  0.89138193  1
  Mo  Mo195  1  0.70426742  0.69524781  0.35595790  1
  Mo  Mo196  1  0.49301860  0.10557703  0.61582155  1
  Mo  Mo197  1  0.20479034  0.19451299  0.74528699  1
  Mo  Mo198  1  0.60646644  0.59582774  0.76152991  1
  Mo  Mo199  1  0.00097630  0.59476688  0.00063940  1
