# generated using pymatgen
data_HfZrTaTiMo
_symmetry_space_group_name_H-M   'P 1'
_cell_length_a   15.92514366
_cell_length_b   15.94016802
_cell_length_c   15.17410902
_cell_angle_alpha   89.96825970
_cell_angle_beta   90.10309221
_cell_angle_gamma   90.11392729
_symmetry_Int_Tables_number   1
_chemical_formula_structural   HfZrTaTiMo
_chemical_formula_sum   'Hf40 Zr40 Ta40 Ti40 Mo40'
_cell_volume   3851.92503472
_cell_formula_units_Z   40
loop_
 _symmetry_equiv_pos_site_id
 _symmetry_equiv_pos_as_xyz
  1  'x, y, z'
loop_
 _atom_site_type_symbol
 _atom_site_label
 _atom_site_symmetry_multiplicity
 _atom_site_fract_x
 _atom_site_fract_y
 _atom_site_fract_z
 _atom_site_occupancy
  Hf  Hf0  1  0.51515961  0.89747453  0.88144504  1
  Hf  Hf1  1  0.80606465  0.40456722  0.00620510  1
  Hf  Hf2  1  -0.00576944  0.38887526  0.27111598  1
  Hf  Hf3  1  0.58946331  0.61279194  0.50170950  1
  Hf  Hf4  1  0.27448753  0.70671855  0.87523878  1
  Hf  Hf5  1  0.29139226  0.90046639  0.10572774  1
  Hf  Hf6  1  0.69217485  0.50319347  0.38118203  1
  Hf  Hf7  1  0.50228049  0.49854304  0.88056164  1
  Hf  Hf8  1  0.11304694  0.08376479  0.87352931  1
  Hf  Hf9  1  0.41565469  0.19401143  0.75286546  1
  Hf  Hf10  1  0.29713672  0.29976593  0.64184536  1
  Hf  Hf11  1  0.08253755  0.68915343  0.85909594  1
  Hf  Hf12  1  0.30946690  0.30698075  0.12785168  1
  Hf  Hf13  1  0.39689739  0.79627611  -0.00783473  1
  Hf  Hf14  1  0.31505805  0.09699951  0.37170290  1
  Hf  Hf15  1  0.10365134  0.69893237  0.37202574  1
  Hf  Hf16  1  0.88707040  0.48784686  0.39492742  1
  Hf  Hf17  1  0.50377313  0.89962707  0.63323260  1
  Hf  Hf18  1  0.61414421  0.20089448  -0.00619119  1
  Hf  Hf19  1  0.69746253  0.49123903  0.61339057  1
  Hf  Hf20  1  0.39460703  0.60509899  0.75479244  1
  Hf  Hf21  1  0.28238415  0.90920190  0.88143023  1
  Hf  Hf22  1  0.49028630  0.49343062  0.62417394  1
  Hf  Hf23  1  0.38990337  0.38818594  0.49068903  1
  Hf  Hf24  1  0.00005880  0.00166273  0.25061365  1
  Hf  Hf25  1  0.09995916  0.50114321  0.38965984  1
  Hf  Hf26  1  0.40541275  0.00060685  0.75734873  1
  Hf  Hf27  1  0.20774453  0.19902261  0.50546708  1
  Hf  Hf28  1  0.09583894  0.49463318  0.61881027  1
  Hf  Hf29  1  0.59643113  0.80249655  0.24341125  1
  Hf  Hf30  1  0.29893720  0.70649236  0.36409910  1
  Hf  Hf31  1  0.38135335  0.59563828  -0.00503384  1
  Hf  Hf32  1  0.89610339  0.71463601  0.63069055  1
  Hf  Hf33  1  0.09234023  0.70651093  0.62694355  1
  Hf  Hf34  1  0.90535043  0.31089075  0.86539919  1
  Hf  Hf35  1  0.59630398  0.60541494  0.74033970  1
  Hf  Hf36  1  0.21321237  0.79844126  0.50739840  1
  Hf  Hf37  1  0.61102291  0.20046595  0.74962065  1
  Hf  Hf38  1  0.90225217  0.49583357  0.61976555  1
  Hf  Hf39  1  0.88999960  0.08551080  0.88613766  1
  Zr  Zr40  1  0.70543850  0.30187512  0.37852691  1
  Zr  Zr41  1  -0.00413434  0.18812126  0.75383783  1
  Zr  Zr42  1  0.19759236  0.20210092  0.00416319  1
  Zr  Zr43  1  0.49630326  0.29199647  0.11848174  1
  Zr  Zr44  1  0.09173194  0.69697262  0.14454267  1
  Zr  Zr45  1  0.60253391  0.18803715  0.23484769  1
  Zr  Zr46  1  0.61641020  0.01234914  0.73963175  1
  Zr  Zr47  1  0.09896915  0.09839384  0.61953814  1
  Zr  Zr48  1  0.09850141  0.49258307  0.85491458  1
  Zr  Zr49  1  0.20630306  0.40359335  0.26137815  1
  Zr  Zr50  1  0.79278139  0.19158585  0.74309885  1
  Zr  Zr51  1  0.11103076  0.10454963  0.37242689  1
  Zr  Zr52  1  0.79945838  0.00669799  0.24966660  1
  Zr  Zr53  1  0.39082850  0.62562483  0.51870425  1
  Zr  Zr54  1  0.88938495  0.88014953  0.13489243  1
  Zr  Zr55  1  0.20768946  0.00046049  0.24011801  1
  Zr  Zr56  1  0.50288801  0.08623351  0.38876569  1
  Zr  Zr57  1  0.60029615  0.40445039  0.24566049  1
  Zr  Zr58  1  0.29573194  0.30150257  0.86599904  1
  Zr  Zr59  1  0.91243235  0.51001467  0.86096038  1
  Zr  Zr60  1  0.00181885  -0.00430075  0.01509000  1
  Zr  Zr61  1  0.70715438  0.91557062  0.88680530  1
  Zr  Zr62  1  0.20060085  0.40841282  0.00804803  1
  Zr  Zr63  1  0.39480435  0.59809406  0.24140215  1
  Zr  Zr64  1  0.70003546  0.71324585  0.87933649  1
  Zr  Zr65  1  0.69653360  0.09964718  0.38296203  1
  Zr  Zr66  1  0.59916873  0.80045196  0.49268356  1
  Zr  Zr67  1  -0.00534859  0.80721950  0.48614622  1
  Zr  Zr68  1  0.00010202  -0.02237749  0.74609307  1
  Zr  Zr69  1  0.78898025  0.62200079  0.49632346  1
  Zr  Zr70  1  0.00525885  0.20689190  -0.00837600  1
  Zr  Zr71  1  0.70310364  0.50240689  0.87383357  1
  Zr  Zr72  1  0.58668315  0.39369946  0.49283159  1
  Zr  Zr73  1  0.48356657  0.48701190  0.10297507  1
  Zr  Zr74  1  -0.01241491  0.77491285  0.00235882  1
  Zr  Zr75  1  0.49205780  0.26834201  0.37567280  1
  Zr  Zr76  1  0.79182241  0.60630739  0.73795913  1
  Zr  Zr77  1  0.81653985  0.61098432  0.00954450  1
  Zr  Zr78  1  0.40427896  0.40896864  0.27458938  1
  Zr  Zr79  1  0.59517523  0.59917592  0.23902744  1
  Ta  Ta80  1  0.60268166  0.38773125  0.75032966  1
  Ta  Ta81  1  0.79472475  0.59873070  0.25472917  1
  Ta  Ta82  1  0.71452463  0.29882749  0.12962282  1
  Ta  Ta83  1  0.90437282  0.29896814  0.61477158  1
  Ta  Ta84  1  0.09817103  0.29677662  0.14557310  1
  Ta  Ta85  1  0.80118416  0.81887058  0.75153047  1
  Ta  Ta86  1  0.49292156  0.70531284  0.36519601  1
  Ta  Ta87  1  0.11182153  0.90088677  0.37542153  1
  Ta  Ta88  1  0.39955235  0.00725293  -0.00255000  1
  Ta  Ta89  1  0.61362367  0.39818715  0.00325006  1
  Ta  Ta90  1  0.39771298  0.81035727  0.24080931  1
  Ta  Ta91  1  0.90587569  0.50243408  0.13785996  1
  Ta  Ta92  1  0.29881110  0.10028849  0.87173323  1
  Ta  Ta93  1  0.79375522  0.80608776  0.48233675  1
  Ta  Ta94  1  0.39912945  0.79995874  0.76743478  1
  Ta  Ta95  1  0.09096374  0.50038251  0.14084133  1
  Ta  Ta96  1  0.50879089  0.70048581  0.88261704  1
  Ta  Ta97  1  0.40929368  0.00239404  0.22902097  1
  Ta  Ta98  1  0.28830802  0.70365251  0.12229266  1
  Ta  Ta99  1  0.81582871  0.20399116  0.26239573  1
  Ta  Ta100  1  0.29306819  0.49750353  0.62043562  1
  Ta  Ta101  1  0.90032970  0.11403788  0.12160383  1
  Ta  Ta102  1  0.60828371  0.60197302  0.01793929  1
  Ta  Ta103  1  0.90523690  0.29857021  0.12912566  1
  Ta  Ta104  1  0.00518940  0.40370386  0.01108614  1
  Ta  Ta105  1  0.90208543  0.09484110  0.60566187  1
  Ta  Ta106  1  0.21146391  -0.00979826  0.50484820  1
  Ta  Ta107  1  0.19533127  0.38774125  0.49464724  1
  Ta  Ta108  1  0.10178292  0.88527689  0.89170350  1
  Ta  Ta109  1  0.49982680  0.90125847  0.10886412  1
  Ta  Ta110  1  0.59857245  -0.00310943  0.22874550  1
  Ta  Ta111  1  -0.00684535  0.60682431  0.49651937  1
  Ta  Ta112  1  0.29286143  0.51599609  0.40200546  1
  Ta  Ta113  1  0.51183650  0.09474991  0.88905786  1
  Ta  Ta114  1  0.09678129  0.30042752  0.63440310  1
  Ta  Ta115  1  0.20174768  0.60310117  0.73201112  1
  Ta  Ta116  1  0.80329945  0.19838283  0.50005511  1
  Ta  Ta117  1  0.71749578  0.71351498  0.13085071  1
  Ta  Ta118  1  0.69312493  0.90440268  0.36680808  1
  Ta  Ta119  1  0.79129532  0.38673855  0.73853847  1
  Ti  Ti120  1  0.90269911  0.90249338  0.61449408  1
  Ti  Ti121  1  0.39724568  -0.00520765  0.51208439  1
  Ti  Ti122  1  0.49305625  0.90569302  0.36882674  1
  Ti  Ti123  1  -0.01099558  0.59490996  0.27391096  1
  Ti  Ti124  1  0.30646905  0.89348958  0.63697887  1
  Ti  Ti125  1  0.10047595  0.10712259  0.13075887  1
  Ti  Ti126  1  0.90105815  0.89152058  0.88569695  1
  Ti  Ti127  1  0.29575384  0.27955003  0.36119256  1
  Ti  Ti128  1  0.70974008  0.10355234  0.11859117  1
  Ti  Ti129  1  0.40235912  0.19914295  -0.01080048  1
  Ti  Ti130  1  0.20522654  0.59198854  0.24412180  1
  Ti  Ti131  1  0.49455082  0.70252495  0.11509072  1
  Ti  Ti132  1  0.49685542  0.71836363  0.64110424  1
  Ti  Ti133  1  0.30578335  0.10744418  0.11891309  1
  Ti  Ti134  1  0.70947540  0.89591166  0.61918169  1
  Ti  Ti135  1  0.79642758  -0.00494849  0.01983643  1
  Ti  Ti136  1  0.61265345  0.80245196  0.01747311  1
  Ti  Ti137  1  0.18175237  0.59924282  0.00783460  1
  Ti  Ti138  1  0.50019869  0.29112395  0.61992432  1
  Ti  Ti139  1  0.19873520  -0.00412257  0.73251895  1
  Ti  Ti140  1  0.10553488  0.30330729  0.84851031  1
  Ti  Ti141  1  0.20375962  0.80939249  0.25173760  1
  Ti  Ti142  1  0.80104065  0.40234180  0.24459462  1
  Ti  Ti143  1  0.09891547  0.88785394  0.12263297  1
  Ti  Ti144  1  0.39970355  0.81158934  0.49452626  1
  Ti  Ti145  1  0.89981121  0.70413378  0.85345759  1
  Ti  Ti146  1  0.29058267  0.49555879  0.86301738  1
  Ti  Ti147  1  0.50444593  0.30519911  0.88325904  1
  Ti  Ti148  1  0.00268342  0.20833327  0.48494368  1
  Ti  Ti149  1  -0.00272284  0.19760628  0.26602854  1
  Ti  Ti150  1  0.30673224  0.09923459  0.63182791  1
  Ti  Ti151  1  0.90316452  0.69895096  0.15607860  1
  Ti  Ti152  1  0.18637919  0.81341500  0.73949219  1
  Ti  Ti153  1  0.40489675  0.40019367  0.75528739  1
  Ti  Ti154  1  0.80504500  -0.00356918  0.49109935  1
  Ti  Ti155  1  0.60596428  -0.00237805  0.51205765  1
  Ti  Ti156  1  0.00244533  0.00074496  0.48667780  1
  Ti  Ti157  1  0.80408854  0.00482151  0.73727498  1
  Ti  Ti158  1  0.80204273  0.20763540  -0.00758242  1
  Ti  Ti159  1  0.89884399  0.89877694  0.36421357  1
  Mo  Mo160  1  0.70002977  0.89892974  0.12737347  1
  Mo  Mo161  1  0.69919914  0.29573046  0.61316279  1
  Mo  Mo162  1  0.79752402  0.79776098  0.27208761  1
  Mo  Mo163  1  -0.00317641  0.60269116  0.72635231  1
  Mo  Mo164  1  0.60469445  0.00351538  0.01783322  1
  Mo  Mo165  1  0.49796266  0.09719723  0.10492905  1
  Mo  Mo166  1  0.70788810  0.50221821  0.12488978  1
  Mo  Mo167  1  0.28769319  0.50517861  0.11620742  1
  Mo  Mo168  1  0.19588698  0.00330246  0.01273521  1
  Mo  Mo169  1  0.20252910  0.19919361  0.23669602  1
  Mo  Mo170  1  0.10671884  0.29455099  0.36895523  1
  Mo  Mo171  1  0.20201420  0.19042924  0.74577617  1
  Mo  Mo172  1  0.60295850  0.19204936  0.52438061  1
  Mo  Mo173  1  0.39833278  0.19092181  0.52208580  1
  Mo  Mo174  1  -0.00399746  0.80913010  0.75363686  1
  Mo  Mo175  1  0.31167505  0.90419802  0.37204611  1
  Mo  Mo176  1  0.19815602  0.60194599  0.51496938  1
  Mo  Mo177  1  0.90422942  0.09787661  0.38906229  1
  Mo  Mo178  1  0.90065199  0.29588810  0.38809182  1
  Mo  Mo179  1  0.48583953  0.52041544  0.39392683  1
  Mo  Mo180  1  0.80276062  0.79893652  -0.00984235  1
  Mo  Mo181  1  0.69414779  0.70494540  0.35543765  1
  Mo  Mo182  1  0.79669850  0.39108964  0.51428341  1
  Mo  Mo183  1  -0.00491682  0.39308152  0.73519326  1
  Mo  Mo184  1  0.18832372  0.79224869  0.00474658  1
  Mo  Mo185  1  0.60346009  0.80426254  0.74580062  1
  Mo  Mo186  1  0.50006414  0.09886963  0.61323749  1
  Mo  Mo187  1  0.69472832  0.72219813  0.63715753  1
  Mo  Mo188  1  0.39971375  0.39721051  -0.02248117  1
  Mo  Mo189  1  0.70422267  0.30674723  0.87883621  1
  Mo  Mo190  1  0.10300924  0.90409866  0.60476238  1
  Mo  Mo191  1  0.70892747  0.09171811  0.60465638  1
  Mo  Mo192  1  0.89744468  0.69917241  0.36693732  1
  Mo  Mo193  1  0.20137897  0.40245301  0.73818592  1
  Mo  Mo194  1  0.29956549  0.71287564  0.64882416  1
  Mo  Mo195  1  0.00144953  0.58594270  0.01441379  1
  Mo  Mo196  1  0.00389507  0.80560732  0.26541222  1
  Mo  Mo197  1  0.70889445  0.10075726  0.89314588  1
  Mo  Mo198  1  0.00218162  0.38792093  0.49665778  1
  Mo  Mo199  1  0.39680014  0.18624014  0.23559681  1
