# generated using pymatgen
data_HfZrTaTiMo
_symmetry_space_group_name_H-M   'P 1'
_cell_length_a   15.93485951
_cell_length_b   15.92519908
_cell_length_c   15.20765084
_cell_angle_alpha   90.03748911
_cell_angle_beta   89.95832976
_cell_angle_gamma   89.96291431
_symmetry_Int_Tables_number   1
_chemical_formula_structural   HfZrTaTiMo
_chemical_formula_sum   'Hf40 Zr40 Ta40 Ti40 Mo40'
_cell_volume   3859.17917840
_cell_formula_units_Z   40
loop_
 _symmetry_equiv_pos_site_id
 _symmetry_equiv_pos_as_xyz
  1  'x, y, z'
loop_
 _atom_site_type_symbol
 _atom_site_label
 _atom_site_symmetry_multiplicity
 _atom_site_fract_x
 _atom_site_fract_y
 _atom_site_fract_z
 _atom_site_occupancy
  Hf  Hf0  1  0.19083001  0.60424848  0.00722824  1
  Hf  Hf1  1  0.39469990  0.59971176  0.23633805  1
  Hf  Hf2  1  0.59370076  0.39264431  0.24863564  1
  Hf  Hf3  1  0.49119725  0.49042992  0.37701919  1
  Hf  Hf4  1  0.80331304  0.40034460  0.49042262  1
  Hf  Hf5  1  0.10197655  0.30089629  0.38361129  1
  Hf  Hf6  1  0.59195089  0.00642970  0.24230161  1
  Hf  Hf7  1  0.89215688  0.70038606  0.13576955  1
  Hf  Hf8  1  0.59241227  0.59903878  0.24885511  1
  Hf  Hf9  1  0.92904532  0.30948076  0.60864727  1
  Hf  Hf10  1  0.80579957  0.39077977  -0.00507604  1
  Hf  Hf11  1  0.10830463  0.51015565  0.38943079  1
  Hf  Hf12  1  0.69504199  0.70266178  0.61233863  1
  Hf  Hf13  1  0.81748481  -0.02078959  0.50464674  1
  Hf  Hf14  1  0.20414476  -0.00319231  -0.00005158  1
  Hf  Hf15  1  0.50907430  0.29531949  0.88120074  1
  Hf  Hf16  1  0.90647574  0.10705592  0.62119569  1
  Hf  Hf17  1  0.09390254  0.30578897  0.11758636  1
  Hf  Hf18  1  0.29391172  0.90070349  0.36959391  1
  Hf  Hf19  1  0.19028183  0.59736959  0.74360871  1
  Hf  Hf20  1  0.70312973  0.49854214  0.62093159  1
  Hf  Hf21  1  0.49687761  0.70239723  0.88770963  1
  Hf  Hf22  1  0.20382963  0.60080654  0.23257674  1
  Hf  Hf23  1  0.09303916  0.90310686  0.61799897  1
  Hf  Hf24  1  0.81348060  0.39286055  0.74375976  1
  Hf  Hf25  1  0.40893543  0.01020233  0.50630217  1
  Hf  Hf26  1  0.59296914  0.19438054  0.49689213  1
  Hf  Hf27  1  0.68755778  0.89067888  0.61026831  1
  Hf  Hf28  1  0.11013640  0.09794846  0.38370799  1
  Hf  Hf29  1  0.00310960  -0.00442081  0.24393450  1
  Hf  Hf30  1  0.40427044  -0.01169665  0.01249105  1
  Hf  Hf31  1  -0.03389747  0.81107580  0.49621708  1
  Hf  Hf32  1  0.40327696  0.80634822  0.50315739  1
  Hf  Hf33  1  0.20839116  0.20568868  0.23226280  1
  Hf  Hf34  1  0.19587984  0.19891409  0.75812531  1
  Hf  Hf35  1  0.20004441  0.39448405  0.51878258  1
  Hf  Hf36  1  0.49372851  0.90661305  0.36305440  1
  Hf  Hf37  1  0.30860175  0.09505980  0.64305547  1
  Hf  Hf38  1  0.89776571  0.49613786  0.14031059  1
  Hf  Hf39  1  0.60931106  0.59863764  0.00574427  1
  Zr  Zr40  1  0.88891320  0.69825482  0.63712041  1
  Zr  Zr41  1  0.40749936  0.19860633  0.22419685  1
  Zr  Zr42  1  0.90795649  0.50844475  0.37198811  1
  Zr  Zr43  1  0.70802834  0.89382593  0.13849951  1
  Zr  Zr44  1  0.29949553  0.49578583  0.87638138  1
  Zr  Zr45  1  0.91149660  0.09873397  0.38678441  1
  Zr  Zr46  1  0.29079719  0.69526385  0.39351129  1
  Zr  Zr47  1  0.29853509  0.89703943  0.63271848  1
  Zr  Zr48  1  0.49373015  0.49772816  0.87445589  1
  Zr  Zr49  1  0.59321150  0.59718428  0.49199456  1
  Zr  Zr50  1  0.08451880  0.69400051  0.87187550  1
  Zr  Zr51  1  0.80208027  0.59536375  -0.00087132  1
  Zr  Zr52  1  0.09156392  0.10743764  0.11145633  1
  Zr  Zr53  1  0.41409017  0.19481462  0.75692550  1
  Zr  Zr54  1  0.61620858  0.39544658  -0.00189933  1
  Zr  Zr55  1  0.40509241  0.79921822  0.75106479  1
  Zr  Zr56  1  0.30212849  0.50152774  0.38987184  1
  Zr  Zr57  1  -0.00743354  0.79214287  0.00587917  1
  Zr  Zr58  1  0.10286309  0.30222108  0.89582850  1
  Zr  Zr59  1  0.31221301  0.30508281  0.64216632  1
  Zr  Zr60  1  0.49726919  0.49749039  0.63199785  1
  Zr  Zr61  1  0.88987597  0.69041429  0.85963648  1
  Zr  Zr62  1  0.79420935  0.00866535  -0.00489762  1
  Zr  Zr63  1  0.88406210  0.12547205  0.85456591  1
  Zr  Zr64  1  0.60410905  -0.00336004  0.00902527  1
  Zr  Zr65  1  0.51378987  0.30348844  0.62992068  1
  Zr  Zr66  1  0.30222354  0.69826760  0.87790335  1
  Zr  Zr67  1  0.60091725  0.60830383  0.75261945  1
  Zr  Zr68  1  0.18461939  0.79295044  0.24262206  1
  Zr  Zr69  1  0.18632884  0.39663100  0.74834027  1
  Zr  Zr70  1  0.31108144  0.10162556  0.36958884  1
  Zr  Zr71  1  0.20581690  -0.00240921  0.22842557  1
  Zr  Zr72  1  0.30752019  0.30440260  0.37355999  1
  Zr  Zr73  1  0.78702051  0.00176355  0.74656490  1
  Zr  Zr74  1  -0.01254954  0.00510447  -0.00331488  1
  Zr  Zr75  1  0.89246938  0.89512402  0.86832718  1
  Zr  Zr76  1  0.09415462  0.70008283  0.61316006  1
  Zr  Zr77  1  0.01465601  0.61611592  0.24412351  1
  Zr  Zr78  1  0.19465876  0.00075444  0.76189517  1
  Zr  Zr79  1  0.70104320  0.09389889  0.38021256  1
  Ta  Ta80  1  0.09621943  0.89801555  0.87571881  1
  Ta  Ta81  1  0.59682744  0.19810453  0.24855419  1
  Ta  Ta82  1  0.61179930  0.39118301  0.76034978  1
  Ta  Ta83  1  0.07893330  0.49059837  0.61488621  1
  Ta  Ta84  1  0.40776901  0.19564373  0.50963257  1
  Ta  Ta85  1  0.49795868  0.49490714  0.11582264  1
  Ta  Ta86  1  0.20558378  0.00189926  0.50784149  1
  Ta  Ta87  1  -0.00055418  0.20340982  0.25742497  1
  Ta  Ta88  1  0.61577611  0.18693813  0.74696467  1
  Ta  Ta89  1  0.50783856  0.09308506  0.87980178  1
  Ta  Ta90  1  0.30888667  0.09948181  0.88177286  1
  Ta  Ta91  1  0.80473555  0.79850491  0.27017668  1
  Ta  Ta92  1  -0.02399512  0.21024656  -0.00106503  1
  Ta  Ta93  1  0.69752354  0.69938859  0.37393423  1
  Ta  Ta94  1  0.69570563  0.89508055  0.38036970  1
  Ta  Ta95  1  0.09324823  0.49695977  0.11292464  1
  Ta  Ta96  1  0.79880154  0.39456294  0.26342139  1
  Ta  Ta97  1  0.09666209  0.10982406  0.61539282  1
  Ta  Ta98  1  0.40633788  0.19457909  0.00487640  1
  Ta  Ta99  1  0.80287126  0.20615659  0.49808066  1
  Ta  Ta100  1  0.71839823  0.28103789  0.86289798  1
  Ta  Ta101  1  0.29844477  0.69604290  0.62028039  1
  Ta  Ta102  1  -0.01212448  0.40487087  -0.00670992  1
  Ta  Ta103  1  0.50015296  0.70694976  0.62014596  1
  Ta  Ta104  1  0.49952442  0.70642639  0.11675012  1
  Ta  Ta105  1  0.59415104  0.79579861  0.25452577  1
  Ta  Ta106  1  0.71072802  0.50018265  0.86123592  1
  Ta  Ta107  1  0.30834253  0.30390464  0.88745229  1
  Ta  Ta108  1  0.00014962  0.00577614  0.74953117  1
  Ta  Ta109  1  0.30381865  0.71248956  0.10824713  1
  Ta  Ta110  1  0.70789212  0.29432369  0.13841696  1
  Ta  Ta111  1  0.70150016  0.69921365  0.14039650  1
  Ta  Ta112  1  0.20568199  0.40690218  0.23134896  1
  Ta  Ta113  1  0.09688918  0.90139370  0.39250746  1
  Ta  Ta114  1  0.30573822  0.50488337  0.63001647  1
  Ta  Ta115  1  0.69973292  0.09713186  0.61167189  1
  Ta  Ta116  1  0.19404569  0.79911605  0.75732045  1
  Ta  Ta117  1  0.09476337  0.70395384  0.40204539  1
  Ta  Ta118  1  0.89801534  0.29859659  0.14248583  1
  Ta  Ta119  1  0.69899332  0.50034675  0.37232999  1
  Ti  Ti120  1  0.20308951  0.80629551  -0.00519741  1
  Ti  Ti121  1  0.90821602  0.50408136  0.86001306  1
  Ti  Ti122  1  0.61395761  0.19154253  0.00444227  1
  Ti  Ti123  1  0.50706330  0.30034758  0.10916144  1
  Ti  Ti124  1  0.39666815  0.80191184  0.23882553  1
  Ti  Ti125  1  0.69396349  0.30020835  0.37690980  1
  Ti  Ti126  1  0.79578090  0.20160921  0.00766843  1
  Ti  Ti127  1  0.89254361  0.10901887  0.13683722  1
  Ti  Ti128  1  0.40631594  0.39273320  0.50638315  1
  Ti  Ti129  1  0.90229858  0.50722386  0.62087625  1
  Ti  Ti130  1  0.80230358  0.20313976  0.26868677  1
  Ti  Ti131  1  0.21110942  0.19894297  0.00429741  1
  Ti  Ti132  1  -0.00144053  0.80486055  0.25886130  1
  Ti  Ti133  1  0.00610562  0.39844980  0.25891224  1
  Ti  Ti134  1  0.70468627  0.49717613  0.14070544  1
  Ti  Ti135  1  0.49065988  0.69977131  0.37932741  1
  Ti  Ti136  1  0.08860175  0.50213756  0.88299755  1
  Ti  Ti137  1  0.80903997  0.61292306  0.48459815  1
  Ti  Ti138  1  -0.00306306  0.80737963  0.74507539  1
  Ti  Ti139  1  0.69564726  0.70679688  0.87269112  1
  Ti  Ti140  1  0.58965590  0.00125010  0.49703871  1
  Ti  Ti141  1  0.21253136  0.19867352  0.51257451  1
  Ti  Ti142  1  0.50577440  0.89530255  0.87442415  1
  Ti  Ti143  1  0.09300813  0.10380612  0.88473828  1
  Ti  Ti144  1  0.78855297  0.80121635  -0.00186366  1
  Ti  Ti145  1  0.80559631  -0.00287856  0.26012280  1
  Ti  Ti146  1  0.70825233  0.10740047  0.14064597  1
  Ti  Ti147  1  0.00676789  0.21640013  0.75408129  1
  Ti  Ti148  1  0.70420700  0.29847509  0.61851590  1
  Ti  Ti149  1  0.40192318  0.00459192  0.22103893  1
  Ti  Ti150  1  0.89421548  0.89828844  0.13134526  1
  Ti  Ti151  1  0.50361724  0.90424813  0.63484463  1
  Ti  Ti152  1  0.59984737  -0.00408673  0.75545220  1
  Ti  Ti153  1  0.30694797  0.89839226  0.87212045  1
  Ti  Ti154  1  0.09526736  0.89156732  0.11238374  1
  Ti  Ti155  1  0.78062256  0.80501553  0.75166317  1
  Ti  Ti156  1  0.39177647  0.39817340  0.22557430  1
  Ti  Ti157  1  0.49591723  0.29406896  0.37583472  1
  Ti  Ti158  1  0.39753308  0.59599782  0.01386702  1
  Ti  Ti159  1  0.60058326  0.80421478  0.00960676  1
  Mo  Mo160  1  0.79187105  0.79667953  0.48531804  1
  Mo  Mo161  1  0.29931326  0.30696943  0.10478137  1
  Mo  Mo162  1  0.40078251  0.60165172  0.51358318  1
  Mo  Mo163  1  0.51086937  0.10504635  0.10827115  1
  Mo  Mo164  1  0.79870449  0.20537070  0.71751054  1
  Mo  Mo165  1  -0.00805803  0.59015895  0.01052618  1
  Mo  Mo166  1  0.09866057  0.70496313  0.11034707  1
  Mo  Mo167  1  0.79222848  0.59907804  0.25821270  1
  Mo  Mo168  1  0.00315599  0.40300904  0.76349060  1
  Mo  Mo169  1  0.40547490  0.40036904  0.76559768  1
  Mo  Mo170  1  -0.00287450  0.58854349  0.73501930  1
  Mo  Mo171  1  0.19946923  0.80496137  0.49805908  1
  Mo  Mo172  1  -0.00759850  0.60355513  0.50687875  1
  Mo  Mo173  1  0.00727116  0.20215933  0.48671528  1
  Mo  Mo174  1  -0.00028245  0.40397288  0.48075827  1
  Mo  Mo175  1  0.49656733  0.10615405  0.36850577  1
  Mo  Mo176  1  0.90069712  0.70161251  0.36672727  1
  Mo  Mo177  1  0.29892283  0.89403892  0.12916128  1
  Mo  Mo178  1  0.19669038  0.59735902  0.52090158  1
  Mo  Mo179  1  0.51286228  0.08787483  0.64161284  1
  Mo  Mo180  1  0.40313637  0.80342324  0.00191684  1
  Mo  Mo181  1  0.89452939  0.89972984  0.64723011  1
  Mo  Mo182  1  0.58971659  0.80158541  0.47816774  1
  Mo  Mo183  1  0.89976776  0.29917067  0.36890688  1
  Mo  Mo184  1  0.00587396  0.00108531  0.51098461  1
  Mo  Mo185  1  0.39800806  0.60330575  0.73464785  1
  Mo  Mo186  1  0.30014199  0.49978112  0.10993007  1
  Mo  Mo187  1  0.10150256  0.29180067  0.61476543  1
  Mo  Mo188  1  0.69499636  0.10215527  0.86999026  1
  Mo  Mo189  1  0.60099559  0.80645594  0.75828226  1
  Mo  Mo190  1  0.30311589  0.10124856  0.10550060  1
  Mo  Mo191  1  0.68891922  0.89032804  0.87503669  1
  Mo  Mo192  1  0.40190708  0.39519128  0.00649550  1
  Mo  Mo193  1  0.19795844  0.40335443  0.00685788  1
  Mo  Mo194  1  0.40935500  -0.00333342  0.77139881  1
  Mo  Mo195  1  0.79480449  0.59571200  0.75157471  1
  Mo  Mo196  1  0.49952024  0.88968131  0.13875254  1
  Mo  Mo197  1  0.60375633  0.39251672  0.48313610  1
  Mo  Mo198  1  0.90271345  0.90384255  0.35877797  1
  Mo  Mo199  1  0.90223533  0.30472152  0.86499934  1
