# generated using pymatgen
data_HfZrTaTiMo
_symmetry_space_group_name_H-M   'P 1'
_cell_length_a   15.93194354
_cell_length_b   15.92225547
_cell_length_c   15.21223408
_cell_angle_alpha   89.96219080
_cell_angle_beta   90.00622798
_cell_angle_gamma   89.90082576
_symmetry_Int_Tables_number   1
_chemical_formula_structural   HfZrTaTiMo
_chemical_formula_sum   'Hf40 Zr40 Ta40 Ti40 Mo40'
_cell_volume   3858.91842680
_cell_formula_units_Z   40
loop_
 _symmetry_equiv_pos_site_id
 _symmetry_equiv_pos_as_xyz
  1  'x, y, z'
loop_
 _atom_site_type_symbol
 _atom_site_label
 _atom_site_symmetry_multiplicity
 _atom_site_fract_x
 _atom_site_fract_y
 _atom_site_fract_z
 _atom_site_occupancy
  Hf  Hf0  1  0.68584848  0.09553983  0.11894042  1
  Hf  Hf1  1  0.28414902  0.30580183  0.87852126  1
  Hf  Hf2  1  0.19728086  0.20386476  0.25666454  1
  Hf  Hf3  1  0.38602436  0.61361954  0.73697605  1
  Hf  Hf4  1  0.29327797  0.10189817  0.86017983  1
  Hf  Hf5  1  0.90128037  0.89737707  0.37281652  1
  Hf  Hf6  1  0.20144052  0.59039407  0.24808936  1
  Hf  Hf7  1  0.39283418  0.59582132  0.26027115  1
  Hf  Hf8  1  -0.00063991  0.60045858  0.51512575  1
  Hf  Hf9  1  0.59750068  0.59711760  0.49380370  1
  Hf  Hf10  1  0.59488070  0.00432300  0.75492612  1
  Hf  Hf11  1  0.49824772  0.50289493  0.13346484  1
  Hf  Hf12  1  0.00641098  0.58971075  0.24751889  1
  Hf  Hf13  1  0.50362007  0.31933682  0.59389834  1
  Hf  Hf14  1  0.70280743  0.92017304  0.38263667  1
  Hf  Hf15  1  0.69381325  0.90421100  0.88602035  1
  Hf  Hf16  1  0.00188941  0.80020007  0.23767730  1
  Hf  Hf17  1  0.79862792  0.19959136  0.25687185  1
  Hf  Hf18  1  0.10019252  0.49682005  0.84788190  1
  Hf  Hf19  1  0.38320192  0.39457759  0.25842230  1
  Hf  Hf20  1  0.08083970  0.29259727  0.10454711  1
  Hf  Hf21  1  0.80041617  0.59734861  0.75076580  1
  Hf  Hf22  1  0.01496669  0.58214393  0.00414587  1
  Hf  Hf23  1  0.39932608  0.02175164  0.01484992  1
  Hf  Hf24  1  0.79925893  0.38187151  0.75420574  1
  Hf  Hf25  1  0.91737244  0.90047668  0.88001081  1
  Hf  Hf26  1  0.40032293  0.80281111  0.24921998  1
  Hf  Hf27  1  0.80548263  0.59540573  0.24210398  1
  Hf  Hf28  1  0.69312277  0.50406825  0.87350099  1
  Hf  Hf29  1  0.22443636  0.79315094  0.75561363  1
  Hf  Hf30  1  -0.00040075  0.20487630  0.26281480  1
  Hf  Hf31  1  0.50144899  0.90632832  0.37680195  1
  Hf  Hf32  1  0.58212836  0.40233153  0.75747639  1
  Hf  Hf33  1  0.31509906  0.88393677  0.61304543  1
  Hf  Hf34  1  0.79682998  -0.00908300  0.23098070  1
  Hf  Hf35  1  0.70371238  0.49295954  0.12347519  1
  Hf  Hf36  1  0.68533976  0.48615330  0.62272281  1
  Hf  Hf37  1  0.11288313  0.89628633  0.36683440  1
  Hf  Hf38  1  0.60578907  0.79807525  0.49034627  1
  Hf  Hf39  1  0.39302815  0.21587933  0.73558139  1
  Zr  Zr40  1  0.21233023  0.80080634  -0.01367045  1
  Zr  Zr41  1  0.09991960  0.69945434  0.37590676  1
  Zr  Zr42  1  0.90862658  0.11549989  0.11568352  1
  Zr  Zr43  1  0.51116612  0.09552615  0.37506178  1
  Zr  Zr44  1  0.11677763  0.68686453  0.87109360  1
  Zr  Zr45  1  0.38949647  0.40648606  0.00805987  1
  Zr  Zr46  1  0.59611174  0.21141395  0.75025292  1
  Zr  Zr47  1  0.57755542  0.19113699  0.00110735  1
  Zr  Zr48  1  0.10531208  0.69040889  0.64682476  1
  Zr  Zr49  1  0.68989660  0.70084798  0.63744628  1
  Zr  Zr50  1  0.69709683  0.29479372  0.88534880  1
  Zr  Zr51  1  0.89994211  0.49619248  0.38944323  1
  Zr  Zr52  1  0.58345224  0.80073878  0.76674637  1
  Zr  Zr53  1  0.39113015  0.41575639  0.73936410  1
  Zr  Zr54  1  0.71228296  0.11118285  0.63387253  1
  Zr  Zr55  1  0.18390126  0.41495304  0.00986392  1
  Zr  Zr56  1  0.02340985  0.01818558  -0.00756525  1
  Zr  Zr57  1  0.80386306  0.00335643  -0.00425800  1
  Zr  Zr58  1  0.80120834  0.79897311  0.76286279  1
  Zr  Zr59  1  0.09715352  0.09446217  0.38550431  1
  Zr  Zr60  1  -0.00054322  0.39689222  0.25941031  1
  Zr  Zr61  1  0.61236805  0.81135006  0.24051679  1
  Zr  Zr62  1  0.90605313  0.69852818  0.11229677  1
  Zr  Zr63  1  0.29801600  0.90016295  0.12977903  1
  Zr  Zr64  1  0.48242946  0.72140241  0.61552263  1
  Zr  Zr65  1  0.59284465  0.40050625  -0.00051382  1
  Zr  Zr66  1  0.90870689  0.48135463  0.63377073  1
  Zr  Zr67  1  0.39869093  0.59374173  0.49465277  1
  Zr  Zr68  1  -0.00210975  -0.00222194  0.52025742  1
  Zr  Zr69  1  0.80055530  0.60472421  0.51369480  1
  Zr  Zr70  1  0.39762534  -0.00767873  0.74235693  1
  Zr  Zr71  1  0.00545094  0.00124751  0.23302661  1
  Zr  Zr72  1  0.69740697  0.90851581  0.62962021  1
  Zr  Zr73  1  0.00320135  0.80152784  0.51876584  1
  Zr  Zr74  1  0.19133474  0.39775787  0.24834898  1
  Zr  Zr75  1  0.50076496  0.10563451  0.61062536  1
  Zr  Zr76  1  0.81227105  0.79967907  0.51578714  1
  Zr  Zr77  1  0.91764901  0.69433543  0.87692040  1
  Zr  Zr78  1  0.60105805  0.60161750  0.25611098  1
  Zr  Zr79  1  0.49785841  0.29126383  0.13857336  1
  Ta  Ta80  1  0.18708431  0.18434959  -0.00450190  1
  Ta  Ta81  1  0.10979559  0.70309961  0.11934067  1
  Ta  Ta82  1  0.19717161  -0.00653427  0.51920631  1
  Ta  Ta83  1  0.29371784  0.28648407  0.11174963  1
  Ta  Ta84  1  0.89522487  0.30221509  0.10659171  1
  Ta  Ta85  1  0.39432812  0.00133687  0.49601640  1
  Ta  Ta86  1  0.90284357  0.27471572  0.62222868  1
  Ta  Ta87  1  0.80230616  0.19172570  0.49201319  1
  Ta  Ta88  1  0.90358480  0.90686538  0.65055022  1
  Ta  Ta89  1  0.11379522  0.90764443  0.86531681  1
  Ta  Ta90  1  0.50120087  0.29897089  0.37476567  1
  Ta  Ta91  1  0.57901612  0.59734661  0.74945568  1
  Ta  Ta92  1  0.79892750  0.79570886  -0.00182531  1
  Ta  Ta93  1  0.89829996  0.70293368  0.36646457  1
  Ta  Ta94  1  0.49815483  0.70403338  0.12393479  1
  Ta  Ta95  1  0.29146603  0.71013171  0.38173593  1
  Ta  Ta96  1  0.69997505  0.69858621  0.11533979  1
  Ta  Ta97  1  0.80346893  0.39191282  0.25026778  1
  Ta  Ta98  1  0.19618853  0.19960932  0.50283691  1
  Ta  Ta99  1  0.48856845  0.10842686  0.86822185  1
  Ta  Ta100  1  0.80066880  0.59415803  -0.00464848  1
  Ta  Ta101  1  0.40537070  0.80545789  0.00149930  1
  Ta  Ta102  1  0.48373265  0.51393919  0.88427958  1
  Ta  Ta103  1  0.29374915  0.09218142  0.38445996  1
  Ta  Ta104  1  0.59658227  0.80140909  0.00500321  1
  Ta  Ta105  1  0.89394682  0.09076539  0.37582302  1
  Ta  Ta106  1  0.70398606  0.49386279  0.37588827  1
  Ta  Ta107  1  0.39799976  0.00798927  0.24855415  1
  Ta  Ta108  1  0.80871902  0.01113736  0.76483176  1
  Ta  Ta109  1  0.71360077  0.70364801  0.36714504  1
  Ta  Ta110  1  0.70690460  0.29551813  0.12054448  1
  Ta  Ta111  1  0.28821373  0.51973037  0.87773641  1
  Ta  Ta112  1  0.19836349  0.59257254  0.51112415  1
  Ta  Ta113  1  0.90293621  0.29613437  0.39648102  1
  Ta  Ta114  1  0.59496097  0.60370858  0.00271837  1
  Ta  Ta115  1  0.80647627  0.40140107  -0.00896082  1
  Ta  Ta116  1  0.38836758  0.19668695  0.26144301  1
  Ta  Ta117  1  0.09478517  0.10953340  0.63025736  1
  Ta  Ta118  1  0.61394435  0.20022408  0.48609597  1
  Ta  Ta119  1  0.29544698  0.10524672  0.61708294  1
  Ti  Ti120  1  0.90942479  0.89410373  0.10133713  1
  Ti  Ti121  1  0.60867350  0.39171245  0.25467784  1
  Ti  Ti122  1  0.20328370  0.00767237  0.23818544  1
  Ti  Ti123  1  0.08923578  0.29973281  0.61015048  1
  Ti  Ti124  1  0.70366312  0.30304440  0.37691382  1
  Ti  Ti125  1  0.49362522  0.69515069  0.89066979  1
  Ti  Ti126  1  0.19530571  0.79954403  0.51366772  1
  Ti  Ti127  1  0.47927080  0.30081208  0.88474281  1
  Ti  Ti128  1  0.69152496  0.69570562  0.88255019  1
  Ti  Ti129  1  0.79825395  0.39098840  0.50466739  1
  Ti  Ti130  1  0.18881136  0.21264356  0.73836467  1
  Ti  Ti131  1  0.10720045  0.89570488  0.11617671  1
  Ti  Ti132  1  0.80466223  0.19772992  -0.01127093  1
  Ti  Ti133  1  0.28434897  0.48554686  0.39382608  1
  Ti  Ti134  1  0.80180413  0.80111092  0.23150998  1
  Ti  Ti135  1  0.00792405  0.37760233  0.75086666  1
  Ti  Ti136  1  0.90941450  0.29273844  0.87911030  1
  Ti  Ti137  1  0.20581097  0.00631566  0.00108765  1
  Ti  Ti138  1  0.80550838  0.00579351  0.51474868  1
  Ti  Ti139  1  0.49399792  0.91492625  0.89373838  1
  Ti  Ti140  1  0.29758077  0.30824767  0.59949663  1
  Ti  Ti141  1  0.01118034  0.80497378  0.74909066  1
  Ti  Ti142  1  0.70160867  0.29705265  0.61749808  1
  Ti  Ti143  1  0.60589715  0.19561398  0.25864794  1
  Ti  Ti144  1  0.20178978  -0.00533135  0.73527160  1
  Ti  Ti145  1  0.50477934  0.48486976  0.37710267  1
  Ti  Ti146  1  0.29877610  0.70110955  0.12940509  1
  Ti  Ti147  1  0.49973326  0.70462146  0.36972041  1
  Ti  Ti148  1  0.39953637  0.80566523  0.78107840  1
  Ti  Ti149  1  0.38977304  0.60595129  0.01338907  1
  Ti  Ti150  1  0.50354721  0.90555345  0.60577126  1
  Ti  Ti151  1  0.00755535  0.01093469  0.75270971  1
  Ti  Ti152  1  0.51450640  0.91809102  0.12286588  1
  Ti  Ti153  1  0.69502443  0.10284428  0.87754068  1
  Ti  Ti154  1  0.10115792  0.31021105  0.40005286  1
  Ti  Ti155  1  0.90655632  0.49273307  0.86655294  1
  Ti  Ti156  1  0.29558331  0.89987599  0.37536953  1
  Ti  Ti157  1  0.39426394  0.20278733  0.48609932  1
  Ti  Ti158  1  0.20180339  0.40088841  0.72651170  1
  Ti  Ti159  1  0.90618061  0.48429048  0.11629622  1
  Mo  Mo160  1  0.39812536  0.39843313  0.48209215  1
  Mo  Mo161  1  0.10542858  0.90106412  0.64704982  1
  Mo  Mo162  1  0.29551322  0.29367505  0.38993398  1
  Mo  Mo163  1  0.30513767  0.90723254  0.88416994  1
  Mo  Mo164  1  0.00464461  0.20007671  -0.02454367  1
  Mo  Mo165  1  0.59018091  0.00341136  -0.00759727  1
  Mo  Mo166  1  0.49491420  0.10238136  0.14848227  1
  Mo  Mo167  1  0.10155066  0.49517419  0.40191566  1
  Mo  Mo168  1  0.39812348  0.80442935  0.47208528  1
  Mo  Mo169  1  0.19560506  0.39914713  0.50973491  1
  Mo  Mo170  1  0.38462802  0.20173522  -0.00375142  1
  Mo  Mo171  1  0.50093616  0.50473532  0.61523211  1
  Mo  Mo172  1  0.30040148  0.49504303  0.60983230  1
  Mo  Mo173  1  0.01231633  0.80619822  0.00077469  1
  Mo  Mo174  1  0.20834055  0.59865261  0.02010138  1
  Mo  Mo175  1  0.90271592  0.10110658  0.64040868  1
  Mo  Mo176  1  0.09268535  0.49785771  0.12775380  1
  Mo  Mo177  1  0.29740930  0.70129068  0.59920316  1
  Mo  Mo178  1  0.29500435  0.10631411  0.13408237  1
  Mo  Mo179  1  0.20228498  0.79886017  0.24563517  1
  Mo  Mo180  1  -0.00210487  0.59249009  0.74223538  1
  Mo  Mo181  1  0.10136976  0.48720464  0.62961387  1
  Mo  Mo182  1  0.60656569  0.39701266  0.47989100  1
  Mo  Mo183  1  0.60035865  0.00303845  0.23904127  1
  Mo  Mo184  1  -0.00104345  0.39380914  0.50626215  1
  Mo  Mo185  1  0.10979478  0.10233155  0.84710219  1
  Mo  Mo186  1  0.60310264  0.00495312  0.51396379  1
  Mo  Mo187  1  0.29927175  0.50027250  0.12534975  1
  Mo  Mo188  1  0.31423029  0.69337990  0.88913044  1
  Mo  Mo189  1  0.10893825  0.10342766  0.13020908  1
  Mo  Mo190  1  0.90525727  0.70227548  0.65261520  1
  Mo  Mo191  1  -0.00187087  0.19468645  0.49441165  1
  Mo  Mo192  1  0.80647848  0.19816127  0.76490884  1
  Mo  Mo193  1  0.21308773  0.58639325  0.72936942  1
  Mo  Mo194  1  0.10126862  0.29856712  0.87446251  1
  Mo  Mo195  1  0.70727862  0.09877760  0.37606312  1
  Mo  Mo196  1  0.90526904  0.10652072  0.86702315  1
  Mo  Mo197  1  0.70126322  0.89514378  0.10560307  1
  Mo  Mo198  1  0.00512555  0.20101613  0.75892755  1
  Mo  Mo199  1  -0.00839560  0.39880839  -0.02026097  1
