# generated using pymatgen
data_HfZrTaTiMo
_symmetry_space_group_name_H-M   'P 1'
_cell_length_a   16.46023066
_cell_length_b   16.48490622
_cell_length_c   14.14291158
_cell_angle_alpha   89.92869095
_cell_angle_beta   89.64443589
_cell_angle_gamma   89.91147550
_symmetry_Int_Tables_number   1
_chemical_formula_structural   HfZrTaTiMo
_chemical_formula_sum   'Hf40 Zr40 Ta40 Ti40 Mo40'
_cell_volume   3837.53201435
_cell_formula_units_Z   40
loop_
 _symmetry_equiv_pos_site_id
 _symmetry_equiv_pos_as_xyz
  1  'x, y, z'
loop_
 _atom_site_type_symbol
 _atom_site_label
 _atom_site_symmetry_multiplicity
 _atom_site_fract_x
 _atom_site_fract_y
 _atom_site_fract_z
 _atom_site_occupancy
  Hf  Hf0  1  0.19793368  0.80473564  -0.01115392  1
  Hf  Hf1  1  0.70848240  0.09479950  0.13581691  1
  Hf  Hf2  1  0.60472788  0.59353821  0.50948122  1
  Hf  Hf3  1  0.09961235  0.69208910  0.86706843  1
  Hf  Hf4  1  -0.00272089  0.40150647  0.75809473  1
  Hf  Hf5  1  0.89422343  0.90216749  0.14421023  1
  Hf  Hf6  1  0.40296301  0.19671139  0.74778652  1
  Hf  Hf7  1  0.39996729  0.59132058  0.50020591  1
  Hf  Hf8  1  0.69485514  0.50323116  0.36421949  1
  Hf  Hf9  1  0.29822316  0.68643724  0.87181067  1
  Hf  Hf10  1  0.30033372  0.90205330  0.10666368  1
  Hf  Hf11  1  0.49152557  0.69650352  0.12091175  1
  Hf  Hf12  1  0.70114810  0.69083678  0.87578050  1
  Hf  Hf13  1  0.69293731  0.09845239  0.62200124  1
  Hf  Hf14  1  0.10102238  0.09445051  0.40035719  1
  Hf  Hf15  1  0.01144155  0.21627301  0.26213878  1
  Hf  Hf16  1  0.42645925  0.59179932  0.75953923  1
  Hf  Hf17  1  0.30141959  0.09815836  0.39049512  1
  Hf  Hf18  1  0.30238690  0.49511918  0.12582334  1
  Hf  Hf19  1  0.09146717  0.69411117  0.63030637  1
  Hf  Hf20  1  0.59580360  0.79278327  0.75674389  1
  Hf  Hf21  1  0.49998059  0.89783377  0.88002754  1
  Hf  Hf22  1  0.19028967  0.59533402  0.49986954  1
  Hf  Hf23  1  0.00340421  0.79870569  0.50075798  1
  Hf  Hf24  1  0.70081917  0.09716579  0.38184822  1
  Hf  Hf25  1  0.49821555  0.70243521  0.62124421  1
  Hf  Hf26  1  0.81198169  0.21121608  0.26606059  1
  Hf  Hf27  1  0.90323083  0.09076305  0.38357025  1
  Hf  Hf28  1  -0.00188364  0.59710363  0.00571836  1
  Hf  Hf29  1  0.49799332  0.69661883  0.36789077  1
  Hf  Hf30  1  0.71265013  0.90431429  0.36214936  1
  Hf  Hf31  1  0.60565619  0.39574108  -0.00977499  1
  Hf  Hf32  1  0.09556368  0.70270123  0.13889553  1
  Hf  Hf33  1  0.49676741  0.10472367  0.39062841  1
  Hf  Hf34  1  0.01182463  0.00504581  0.24529580  1
  Hf  Hf35  1  0.59030994  0.20270101  0.25576126  1
  Hf  Hf36  1  0.30543605  0.29529553  0.11862789  1
  Hf  Hf37  1  0.29828785  0.49261142  0.37194471  1
  Hf  Hf38  1  0.70582059  0.70005854  0.36058693  1
  Hf  Hf39  1  0.70396586  0.50436508  0.12635064  1
  Zr  Zr40  1  0.80220673  0.00156660  0.76010043  1
  Zr  Zr41  1  0.80345817  0.00070130  -0.01037073  1
  Zr  Zr42  1  0.39710030  -0.00146094  0.24962126  1
  Zr  Zr43  1  0.20215566  0.21145169  0.50138433  1
  Zr  Zr44  1  0.89900062  0.70267904  0.14458633  1
  Zr  Zr45  1  0.19662549  0.80665710  0.74962421  1
  Zr  Zr46  1  0.90729962  0.10763661  0.12460640  1
  Zr  Zr47  1  0.90737504  0.50681562  0.61747558  1
  Zr  Zr48  1  0.79695209  0.40841125  0.49752152  1
  Zr  Zr49  1  0.68320058  0.30350804  0.63247796  1
  Zr  Zr50  1  0.19896044  0.20016040  0.25120156  1
  Zr  Zr51  1  0.29281427  0.49606813  0.63250650  1
  Zr  Zr52  1  -0.00511640  0.80840582  -0.01135818  1
  Zr  Zr53  1  0.60155112  0.80469142  0.49718686  1
  Zr  Zr54  1  0.59809726  0.80119165  0.23732117  1
  Zr  Zr55  1  0.60239219  0.19356363  -0.01459386  1
  Zr  Zr56  1  0.29049896  0.29601510  0.86765390  1
  Zr  Zr57  1  0.79409303  0.40159751  0.75817246  1
  Zr  Zr58  1  0.41205069  0.39709862  0.73984643  1
  Zr  Zr59  1  0.89635753  0.69486606  0.86197335  1
  Zr  Zr60  1  0.39524047  -0.00202058  0.75391959  1
  Zr  Zr61  1  0.20331585  0.00192353  0.24497094  1
  Zr  Zr62  1  0.40238544  -0.01207233  0.50421078  1
  Zr  Zr63  1  0.20137369  0.80977676  0.25749001  1
  Zr  Zr64  1  0.58985221  -0.00120676  0.24483700  1
  Zr  Zr65  1  0.39841531  0.00968246  -0.01136912  1
  Zr  Zr66  1  0.40984584  0.39644895  -0.01733681  1
  Zr  Zr67  1  0.91157900  0.89799930  0.63401139  1
  Zr  Zr68  1  0.70540573  0.29936268  0.13101910  1
  Zr  Zr69  1  0.90383975  0.89737544  0.37244155  1
  Zr  Zr70  1  0.80316777  0.20922945  0.50123585  1
  Zr  Zr71  1  0.79585528  0.79909310  0.00159275  1
  Zr  Zr72  1  0.18740222  0.38475540  0.25424736  1
  Zr  Zr73  1  0.91245430  0.09597744  0.62188686  1
  Zr  Zr74  1  0.80337186  0.20628595  -0.01875768  1
  Zr  Zr75  1  0.20148799  0.80131372  0.49834365  1
  Zr  Zr76  1  0.29412726  0.49953358  0.87338060  1
  Zr  Zr77  1  0.10683789  0.10251755  0.87160458  1
  Zr  Zr78  1  0.59042900  0.39604369  0.25139549  1
  Zr  Zr79  1  0.79874367  0.20261688  0.75960470  1
  Ta  Ta80  1  0.00366656  0.20487951  0.74627699  1
  Ta  Ta81  1  0.89425163  0.50615274  0.88462590  1
  Ta  Ta82  1  0.09230225  0.49652138  0.13237875  1
  Ta  Ta83  1  0.39685378  0.59580309  0.24992543  1
  Ta  Ta84  1  0.70444195  0.69889929  0.63013564  1
  Ta  Ta85  1  0.59705342  0.00305923  0.75600316  1
  Ta  Ta86  1  0.89903568  0.49618956  0.12665324  1
  Ta  Ta87  1  0.10217669  0.30161198  0.87033027  1
  Ta  Ta88  1  0.80307563  0.60653640  0.49694861  1
  Ta  Ta89  1  0.49601317  0.50001865  0.12484947  1
  Ta  Ta90  1  0.10527590  0.49986335  0.87083142  1
  Ta  Ta91  1  0.80010581  0.80115015  0.74929245  1
  Ta  Ta92  1  0.19502675  0.59519151  0.01305992  1
  Ta  Ta93  1  0.69820814  0.89762289  0.63255607  1
  Ta  Ta94  1  0.30101532  0.89465772  0.62410501  1
  Ta  Ta95  1  0.10288495  0.31008359  0.63085917  1
  Ta  Ta96  1  0.00166341  -0.00255619  -0.00665402  1
  Ta  Ta97  1  0.39637260  0.79792353  0.75702045  1
  Ta  Ta98  1  0.49261745  0.29490335  0.12195955  1
  Ta  Ta99  1  0.90645826  0.30518981  0.62467868  1
  Ta  Ta100  1  0.80069869  0.79535565  0.50608279  1
  Ta  Ta101  1  0.69292972  0.30489157  0.38059590  1
  Ta  Ta102  1  0.00532862  0.21071264  0.50617712  1
  Ta  Ta103  1  0.29785979  0.09808534  0.62097854  1
  Ta  Ta104  1  0.80468724  0.39745351  -0.00796452  1
  Ta  Ta105  1  0.30223297  0.69613015  0.63019648  1
  Ta  Ta106  1  0.60132457  0.00210449  -0.00483093  1
  Ta  Ta107  1  0.09094497  0.69427606  0.36585645  1
  Ta  Ta108  1  0.18817152  0.39853487  0.00471633  1
  Ta  Ta109  1  0.69733702  0.89755595  0.87311957  1
  Ta  Ta110  1  0.39581606  0.79421384  -0.01366764  1
  Ta  Ta111  1  0.49578432  0.89634793  0.11089330  1
  Ta  Ta112  1  0.59633456  0.42917153  0.74630228  1
  Ta  Ta113  1  0.30218950  0.69884158  0.37225846  1
  Ta  Ta114  1  -0.00132856  0.39933264  -0.00427470  1
  Ta  Ta115  1  0.81247137  0.39814105  0.26064084  1
  Ta  Ta116  1  0.50267527  0.10432596  0.62398822  1
  Ta  Ta117  1  0.29938825  0.69632446  0.12494311  1
  Ta  Ta118  1  0.59318667  0.59902383  -0.00270068  1
  Ta  Ta119  1  0.90022825  0.69842336  0.62713790  1
  Ti  Ti120  1  0.00081275  0.59094487  0.75028871  1
  Ti  Ti121  1  0.40182011  0.38906844  0.26053345  1
  Ti  Ti122  1  0.70259288  0.50847069  0.88251205  1
  Ti  Ti123  1  0.49718300  0.49790262  0.37011254  1
  Ti  Ti124  1  0.09813629  0.90125252  0.11907764  1
  Ti  Ti125  1  0.49012933  0.88939658  0.37535976  1
  Ti  Ti126  1  0.09154539  0.50446022  0.36729986  1
  Ti  Ti127  1  0.80841446  0.59464951  0.25318234  1
  Ti  Ti128  1  0.58878041  0.21249490  0.50206945  1
  Ti  Ti129  1  0.39201429  0.80260116  0.24790318  1
  Ti  Ti130  1  0.58577988  0.40297460  0.50432725  1
  Ti  Ti131  1  0.00795053  0.40441464  0.49820220  1
  Ti  Ti132  1  0.39776275  0.20737548  0.26408061  1
  Ti  Ti133  1  0.19553803  0.40111975  0.49930407  1
  Ti  Ti134  1  0.51934657  0.29592805  0.85144051  1
  Ti  Ti135  1  0.20011869  0.59771609  0.24931753  1
  Ti  Ti136  1  0.10218206  0.90761808  0.38770582  1
  Ti  Ti137  1  0.70228199  0.90134212  0.12681250  1
  Ti  Ti138  1  0.91019124  0.50741888  0.37363240  1
  Ti  Ti139  1  0.09389552  0.90971874  0.86188365  1
  Ti  Ti140  1  -0.00210447  0.39499349  0.25431247  1
  Ti  Ti141  1  0.30479815  0.30370020  0.61849901  1
  Ti  Ti142  1  0.59740872  -0.00882788  0.50423866  1
  Ti  Ti143  1  0.19881710  0.20055669  0.73495583  1
  Ti  Ti144  1  0.00180057  0.20932959  -0.00924882  1
  Ti  Ti145  1  0.28744944  0.09748804  0.87491035  1
  Ti  Ti146  1  0.80035315  -0.00972894  0.51148365  1
  Ti  Ti147  1  0.60014108  0.79664115  0.00162566  1
  Ti  Ti148  1  0.19618686  0.20467273  0.00338805  1
  Ti  Ti149  1  0.40746260  0.19779981  -0.02014638  1
  Ti  Ti150  1  0.10401487  0.10147254  0.10664623  1
  Ti  Ti151  1  0.49941527  0.89564831  0.63021119  1
  Ti  Ti152  1  0.70014590  0.69076366  0.12950436  1
  Ti  Ti153  1  0.79093560  0.59107473  0.73525270  1
  Ti  Ti154  1  0.49179606  0.10615787  0.12165339  1
  Ti  Ti155  1  0.29993087  0.10517086  0.11399925  1
  Ti  Ti156  1  0.19807574  -0.00076336  0.73838126  1
  Ti  Ti157  1  0.90532752  0.70012508  0.36969062  1
  Ti  Ti158  1  0.91655471  0.09752008  0.86913162  1
  Ti  Ti159  1  0.90606784  0.30557900  0.11960458  1
  Mo  Mo160  1  0.50023109  0.69966985  0.88631677  1
  Mo  Mo161  1  0.00687783  0.80696606  0.26443567  1
  Mo  Mo162  1  0.50265851  0.10117966  0.86663958  1
  Mo  Mo163  1  0.69632941  0.30796836  0.86482173  1
  Mo  Mo164  1  0.60703124  0.59817758  0.75221494  1
  Mo  Mo165  1  0.50668917  0.50354621  0.89101627  1
  Mo  Mo166  1  0.30448478  0.89143562  0.38726897  1
  Mo  Mo167  1  0.69435529  0.09537670  0.86885073  1
  Mo  Mo168  1  -0.00275735  0.80207527  0.75053949  1
  Mo  Mo169  1  0.49389278  0.30157769  0.38681670  1
  Mo  Mo170  1  0.40060265  0.20459352  0.51458092  1
  Mo  Mo171  1  0.29522703  0.90119762  0.86812696  1
  Mo  Mo172  1  0.70020669  0.50483470  0.61843471  1
  Mo  Mo173  1  0.09235796  0.29836133  0.10459682  1
  Mo  Mo174  1  0.01072410  -0.00061406  0.51298799  1
  Mo  Mo175  1  0.10528047  0.10579103  0.63231276  1
  Mo  Mo176  1  -0.00320491  0.60095019  0.48743297  1
  Mo  Mo177  1  0.80110195  0.00509404  0.24727230  1
  Mo  Mo178  1  0.39544000  0.79399056  0.50577703  1
  Mo  Mo179  1  0.59083965  0.59624681  0.23802331  1
  Mo  Mo180  1  0.79773556  0.79445642  0.25063704  1
  Mo  Mo181  1  0.20257282  -0.00474803  0.51703159  1
  Mo  Mo182  1  0.09852865  0.31056459  0.39559549  1
  Mo  Mo183  1  0.09893458  0.49738224  0.63087552  1
  Mo  Mo184  1  0.49956760  0.30133101  0.62157119  1
  Mo  Mo185  1  0.00960366  0.00378946  0.75350857  1
  Mo  Mo186  1  0.79677587  0.59404046  0.01320874  1
  Mo  Mo187  1  0.30547923  0.30319445  0.38329900  1
  Mo  Mo188  1  0.90525648  0.90016729  0.86543523  1
  Mo  Mo189  1  0.19293392  0.59557337  0.73938840  1
  Mo  Mo190  1  0.19498798  0.39510686  0.74815466  1
  Mo  Mo191  1  0.90663934  0.31262891  0.38964838  1
  Mo  Mo192  1  0.10200090  0.90953489  0.62677399  1
  Mo  Mo193  1  0.40156170  0.39404241  0.49501184  1
  Mo  Mo194  1  -0.00103781  0.59111420  0.25317304  1
  Mo  Mo195  1  0.39591595  0.59951735  0.00838728  1
  Mo  Mo196  1  0.59760979  0.19277512  0.74747934  1
  Mo  Mo197  1  0.50091172  0.49862395  0.60826735  1
  Mo  Mo198  1  0.90654110  0.30241718  0.87467962  1
  Mo  Mo199  1  0.19456848  0.00280708  -0.00143713  1
