# generated using pymatgen
data_HfZrTaTiMo
_symmetry_space_group_name_H-M   'P 1'
_cell_length_a   15.92722113
_cell_length_b   15.93721605
_cell_length_c   15.22292328
_cell_angle_alpha   90.02540725
_cell_angle_beta   89.97427770
_cell_angle_gamma   89.94302556
_symmetry_Int_Tables_number   1
_chemical_formula_structural   HfZrTaTiMo
_chemical_formula_sum   'Hf40 Zr40 Ta40 Ti40 Mo40'
_cell_volume   3864.11664043
_cell_formula_units_Z   40
loop_
 _symmetry_equiv_pos_site_id
 _symmetry_equiv_pos_as_xyz
  1  'x, y, z'
loop_
 _atom_site_type_symbol
 _atom_site_label
 _atom_site_symmetry_multiplicity
 _atom_site_fract_x
 _atom_site_fract_y
 _atom_site_fract_z
 _atom_site_occupancy
  Hf  Hf0  1  0.19648809  0.19769762  -0.00729979  1
  Hf  Hf1  1  0.89353642  0.90073587  0.62600878  1
  Hf  Hf2  1  0.20921532  0.17915743  0.76410208  1
  Hf  Hf3  1  0.29579691  0.09418520  0.11846353  1
  Hf  Hf4  1  0.19090563  0.39524583  0.50404022  1
  Hf  Hf5  1  0.51019062  0.10317808  0.88491189  1
  Hf  Hf6  1  0.39203651  0.02036159  0.76783623  1
  Hf  Hf7  1  0.88513422  0.88260811  0.85511745  1
  Hf  Hf8  1  0.20126305  -0.01451459  0.49167164  1
  Hf  Hf9  1  0.00186775  0.20412374  0.49458453  1
  Hf  Hf10  1  0.00141895  0.59364292  0.49326141  1
  Hf  Hf11  1  0.59932704  0.20113247  0.48806359  1
  Hf  Hf12  1  0.30208979  0.30495764  0.86726172  1
  Hf  Hf13  1  0.49860274  0.30386848  0.62835889  1
  Hf  Hf14  1  0.69677000  0.90127829  0.63307738  1
  Hf  Hf15  1  -0.01312158  0.78021820  -0.00535486  1
  Hf  Hf16  1  0.81108510  0.40346098  0.01343948  1
  Hf  Hf17  1  0.40499882  0.61934477  0.75282663  1
  Hf  Hf18  1  0.80497121  0.02474467  0.75010398  1
  Hf  Hf19  1  0.09951141  0.49565883  0.13909566  1
  Hf  Hf20  1  -0.01033734  0.60236489  0.27185269  1
  Hf  Hf21  1  0.81957101  0.61033440  0.00275587  1
  Hf  Hf22  1  0.39977896  0.40784763  -0.00517039  1
  Hf  Hf23  1  0.79301631  0.40980445  0.25598846  1
  Hf  Hf24  1  0.50413477  0.10100524  0.62517158  1
  Hf  Hf25  1  0.29947318  0.90316025  0.63494265  1
  Hf  Hf26  1  0.61019183  0.20119405  0.24307144  1
  Hf  Hf27  1  0.39954991  -0.01260868  0.25893130  1
  Hf  Hf28  1  0.39722554  0.78907343  0.25286779  1
  Hf  Hf29  1  0.79210270  0.00004981  0.24709778  1
  Hf  Hf30  1  0.60891579  0.39921304  0.01061000  1
  Hf  Hf31  1  0.29308262  0.89363270  0.11455433  1
  Hf  Hf32  1  0.89070480  0.10430959  0.37636454  1
  Hf  Hf33  1  0.51079723  0.51515267  0.88187382  1
  Hf  Hf34  1  -0.02032751  0.17332389  0.74468419  1
  Hf  Hf35  1  0.89321343  0.69766165  0.60727175  1
  Hf  Hf36  1  0.71154504  0.10438406  0.60216082  1
  Hf  Hf37  1  0.27930137  0.91113065  0.87472047  1
  Hf  Hf38  1  0.19836460  0.78130739  0.74895174  1
  Hf  Hf39  1  0.41578347  0.81314697  -0.00794567  1
  Zr  Zr40  1  0.29995762  0.51817443  0.11379492  1
  Zr  Zr41  1  0.09962760  0.08922418  0.12864654  1
  Zr  Zr42  1  0.40032820  0.20349961  0.25088088  1
  Zr  Zr43  1  0.20654202  0.79785739  0.26758440  1
  Zr  Zr44  1  0.39623736  0.81432974  0.49366207  1
  Zr  Zr45  1  0.58710033  -0.02789853  0.01065665  1
  Zr  Zr46  1  -0.00394020  0.19900228  0.00914031  1
  Zr  Zr47  1  -0.00311814  0.77372716  0.74947335  1
  Zr  Zr48  1  0.28426227  0.52066392  0.87484870  1
  Zr  Zr49  1  0.89686563  0.29820520  0.87710150  1
  Zr  Zr50  1  0.79877066  -0.01126613  0.01021598  1
  Zr  Zr51  1  0.59705355  0.59171027  0.25655042  1
  Zr  Zr52  1  0.29510569  0.31028628  0.12291421  1
  Zr  Zr53  1  0.08542506  0.30526241  0.86675766  1
  Zr  Zr54  1  0.71720697  0.71367773  0.87167515  1
  Zr  Zr55  1  0.10048826  0.06314629  0.87169763  1
  Zr  Zr56  1  0.50186367  0.69904813  0.12083037  1
  Zr  Zr57  1  0.30321679  0.29467672  0.64074412  1
  Zr  Zr58  1  0.10395270  0.69583335  0.13344512  1
  Zr  Zr59  1  0.30282239  0.50611480  0.63449889  1
  Zr  Zr60  1  0.50607729  0.90872539  0.64085407  1
  Zr  Zr61  1  0.50463195  0.29861385  0.87352497  1
  Zr  Zr62  1  0.61362531  0.60815654  0.74302482  1
  Zr  Zr63  1  0.89107934  0.29195164  0.61540309  1
  Zr  Zr64  1  -0.00446170  -0.02548717  0.00290033  1
  Zr  Zr65  1  0.17951870  0.41875616  0.74682416  1
  Zr  Zr66  1  0.51000079  0.31851400  0.36410227  1
  Zr  Zr67  1  0.61434825  0.19929385  0.74372530  1
  Zr  Zr68  1  0.29321476  0.30345572  0.36753416  1
  Zr  Zr69  1  0.81683166  0.59789564  0.74734995  1
  Zr  Zr70  1  -0.00556058  -0.00151218  0.49862441  1
  Zr  Zr71  1  0.61141638  0.40774908  0.74817379  1
  Zr  Zr72  1  0.92537225  0.49573271  0.87449655  1
  Zr  Zr73  1  0.49712498  0.10091526  0.11826742  1
  Zr  Zr74  1  0.39439983  0.40241137  0.49829774  1
  Zr  Zr75  1  0.50404806  0.69736909  0.39123527  1
  Zr  Zr76  1  0.29209670  0.10206688  0.37317963  1
  Zr  Zr77  1  0.68328504  0.90009850  0.85640305  1
  Zr  Zr78  1  0.09986357  0.09013819  0.62877007  1
  Zr  Zr79  1  0.30540316  0.10245332  0.61057664  1
  Ta  Ta80  1  -0.00407013  -0.00462734  0.25419898  1
  Ta  Ta81  1  0.09525484  0.89158138  0.13893104  1
  Ta  Ta82  1  0.41230716  -0.00055085  0.48238333  1
  Ta  Ta83  1  0.70110224  0.69823644  0.37725469  1
  Ta  Ta84  1  0.19882182  0.59456736  0.50448505  1
  Ta  Ta85  1  0.50099789  0.31034431  0.12991899  1
  Ta  Ta86  1  0.10403659  0.67079979  0.87867885  1
  Ta  Ta87  1  0.80395622  0.79006646  0.25929587  1
  Ta  Ta88  1  0.49333641  0.51050529  0.39285241  1
  Ta  Ta89  1  0.70828048  0.50166645  0.60389739  1
  Ta  Ta90  1  0.79589583  0.40065652  0.74721423  1
  Ta  Ta91  1  0.90597231  0.30708254  0.14073032  1
  Ta  Ta92  1  0.70850106  0.69693682  0.13804503  1
  Ta  Ta93  1  0.89597832  0.89856170  0.37195572  1
  Ta  Ta94  1  0.09520207  0.89329651  0.63804556  1
  Ta  Ta95  1  0.09635007  0.29192366  0.63576202  1
  Ta  Ta96  1  0.21596127  0.59986450  0.26351741  1
  Ta  Ta97  1  -0.00203295  0.19805841  0.24911349  1
  Ta  Ta98  1  0.09857732  0.10159671  0.36557418  1
  Ta  Ta99  1  0.90305687  0.50571349  0.14359810  1
  Ta  Ta100  1  0.70391287  0.30232833  0.37549876  1
  Ta  Ta101  1  0.70490249  0.30871708  0.60166572  1
  Ta  Ta102  1  0.60054476  -0.00371713  0.25522648  1
  Ta  Ta103  1  0.50829724  0.51137177  0.61296829  1
  Ta  Ta104  1  0.79752499  0.20192182  0.24456747  1
  Ta  Ta105  1  0.40344445  0.20029682  0.48523503  1
  Ta  Ta106  1  0.00354206  0.79932350  0.49049125  1
  Ta  Ta107  1  0.50645262  0.70919612  0.61371978  1
  Ta  Ta108  1  0.18042729  0.80217657  -0.01048921  1
  Ta  Ta109  1  -0.00315029  0.79470117  0.26708595  1
  Ta  Ta110  1  0.50176952  0.50671287  0.11712839  1
  Ta  Ta111  1  0.70018912  0.10811532  0.89677272  1
  Ta  Ta112  1  0.70434007  0.29753758  0.88927888  1
  Ta  Ta113  1  0.40240979  0.42728878  0.25124208  1
  Ta  Ta114  1  0.79486887  0.20638687  0.02453510  1
  Ta  Ta115  1  0.71151152  0.49947159  0.88670738  1
  Ta  Ta116  1  0.10424259  0.49358650  0.37146779  1
  Ta  Ta117  1  0.30716947  0.68644004  0.39538934  1
  Ta  Ta118  1  0.70300106  0.50913937  0.12527749  1
  Ta  Ta119  1  0.60091999  0.80296229  0.25374727  1
  Ti  Ti120  1  0.78338207  -0.00686864  0.48050924  1
  Ti  Ti121  1  0.19463226  0.79684641  0.50199051  1
  Ti  Ti122  1  0.09590031  0.90012459  0.36951499  1
  Ti  Ti123  1  0.19460108  0.20127205  0.24224128  1
  Ti  Ti124  1  0.19386184  0.20323451  0.49834602  1
  Ti  Ti125  1  0.80424016  0.59346776  0.47453198  1
  Ti  Ti126  1  -0.00795114  0.40122274  0.72898351  1
  Ti  Ti127  1  0.30432284  0.70191338  0.61604306  1
  Ti  Ti128  1  0.89853992  0.09721519  0.12900164  1
  Ti  Ti129  1  0.40244977  0.61611817  -0.00990548  1
  Ti  Ti130  1  0.40935537  0.41383139  0.75645451  1
  Ti  Ti131  1  0.19944345  -0.00727813  0.25630135  1
  Ti  Ti132  1  0.02494522  0.58588384  0.72735266  1
  Ti  Ti133  1  0.68355777  0.49305580  0.38735579  1
  Ti  Ti134  1  0.80555280  0.40088753  0.48331049  1
  Ti  Ti135  1  0.00586380  0.59063343  0.01134633  1
  Ti  Ti136  1  0.00026821  0.39712066  0.49347542  1
  Ti  Ti137  1  0.61450646  0.61122350  0.00089977  1
  Ti  Ti138  1  0.52543667  0.72280464  0.87678030  1
  Ti  Ti139  1  0.10655282  0.69640926  0.38231202  1
  Ti  Ti140  1  0.39992758  0.20527261  -0.00112392  1
  Ti  Ti141  1  0.60492419  0.82201442  0.48551983  1
  Ti  Ti142  1  0.09603414  0.30067225  0.35878115  1
  Ti  Ti143  1  0.90164642  0.88512247  0.14315479  1
  Ti  Ti144  1  0.29341216  0.70587652  0.88832766  1
  Ti  Ti145  1  0.09599504  0.30627397  0.13147680  1
  Ti  Ti146  1  0.79476791  0.20791508  0.75307709  1
  Ti  Ti147  1  0.50675208  0.09835682  0.37092806  1
  Ti  Ti148  1  0.90345865  0.30469471  0.36303139  1
  Ti  Ti149  1  0.18269598  0.40874671  -0.00690148  1
  Ti  Ti150  1  0.69376415  0.09792951  0.11329735  1
  Ti  Ti151  1  0.20604391  0.40666173  0.25529291  1
  Ti  Ti152  1  0.89182877  0.09814103  0.89513593  1
  Ti  Ti153  1  0.89621423  0.49344115  0.61112336  1
  Ti  Ti154  1  0.79745617  0.80409877  0.48566535  1
  Ti  Ti155  1  0.80113914  0.79687234  0.01770586  1
  Ti  Ti156  1  0.69797799  0.70319452  0.60311769  1
  Ti  Ti157  1  0.40592412  0.80296377  0.76336662  1
  Ti  Ti158  1  0.69671725  0.88847458  0.13523763  1
  Ti  Ti159  1  0.39600399  -0.00130083  -0.00858053  1
  Mo  Mo160  1  0.10329783  0.69931860  0.60408585  1
  Mo  Mo161  1  0.50245252  0.90095327  0.36538783  1
  Mo  Mo162  1  0.09181321  0.49315898  0.60269746  1
  Mo  Mo163  1  0.60265458  0.40435306  0.50737818  1
  Mo  Mo164  1  0.40369314  0.20553122  0.76548225  1
  Mo  Mo165  1  0.61249135  0.79461225  0.02105732  1
  Mo  Mo166  1  -0.00840515  -0.01234411  0.74602223  1
  Mo  Mo167  1  0.00186867  0.39704068  0.25787853  1
  Mo  Mo168  1  0.30018304  0.10073918  0.89975956  1
  Mo  Mo169  1  0.19425060  0.60895800  0.72892383  1
  Mo  Mo170  1  0.79508954  0.59932922  0.26521898  1
  Mo  Mo171  1  0.70110616  0.89630192  0.36420753  1
  Mo  Mo172  1  0.89071042  0.09572070  0.60121795  1
  Mo  Mo173  1  0.09305610  0.88244994  0.85883607  1
  Mo  Mo174  1  0.89866207  0.49270513  0.37721330  1
  Mo  Mo175  1  0.19251170  -0.01307180  0.01373353  1
  Mo  Mo176  1  0.59878011  0.00009800  0.47652299  1
  Mo  Mo177  1  0.50080217  0.89729390  0.14307855  1
  Mo  Mo178  1  0.29893647  0.70428974  0.10516614  1
  Mo  Mo179  1  0.79326840  0.78606754  0.72670116  1
  Mo  Mo180  1  0.60496380  0.01131169  0.76127396  1
  Mo  Mo181  1  0.60790900  0.60440751  0.50215466  1
  Mo  Mo182  1  0.29568675  0.89478493  0.38101512  1
  Mo  Mo183  1  0.69681646  0.09983828  0.37493047  1
  Mo  Mo184  1  0.59434420  0.79264413  0.73357466  1
  Mo  Mo185  1  0.00279518  0.40161246  0.02714393  1
  Mo  Mo186  1  0.40067736  0.60514504  0.51988562  1
  Mo  Mo187  1  0.09697699  0.50041889  0.88452551  1
  Mo  Mo188  1  0.59787301  0.40720409  0.23755641  1
  Mo  Mo189  1  0.90860190  0.68897096  0.87041634  1
  Mo  Mo190  1  0.30006309  0.50527361  0.37906943  1
  Mo  Mo191  1  0.70380542  0.30522958  0.13545715  1
  Mo  Mo192  1  0.60465899  0.20471609  0.01742064  1
  Mo  Mo193  1  0.19761199  -0.01005520  0.73804538  1
  Mo  Mo194  1  0.79989694  0.20708070  0.47487502  1
  Mo  Mo195  1  0.19630674  0.60993617  0.01318204  1
  Mo  Mo196  1  0.39631401  0.60046694  0.25214273  1
  Mo  Mo197  1  0.89925445  0.70011641  0.14189960  1
  Mo  Mo198  1  0.89559707  0.70315436  0.38990571  1
  Mo  Mo199  1  0.49641215  0.90031312  0.85879666  1
