# generated using pymatgen
data_HfZrTaTiMo
_symmetry_space_group_name_H-M   'P 1'
_cell_length_a   15.92724031
_cell_length_b   15.92285110
_cell_length_c   15.21749240
_cell_angle_alpha   89.97993072
_cell_angle_beta   90.00144560
_cell_angle_gamma   90.07764857
_symmetry_Int_Tables_number   1
_chemical_formula_structural   HfZrTaTiMo
_chemical_formula_sum   'Hf40 Zr40 Ta40 Ti40 Mo40'
_cell_volume   3859.25996729
_cell_formula_units_Z   40
loop_
 _symmetry_equiv_pos_site_id
 _symmetry_equiv_pos_as_xyz
  1  'x, y, z'
loop_
 _atom_site_type_symbol
 _atom_site_label
 _atom_site_symmetry_multiplicity
 _atom_site_fract_x
 _atom_site_fract_y
 _atom_site_fract_z
 _atom_site_occupancy
  Hf  Hf0  1  0.58896078  0.19587299  0.02386646  1
  Hf  Hf1  1  0.69906150  0.49864985  0.90189570  1
  Hf  Hf2  1  0.90375192  0.09687688  0.86782559  1
  Hf  Hf3  1  0.61000940  0.01367803  0.73652542  1
  Hf  Hf4  1  0.00325403  0.39318187  0.01102060  1
  Hf  Hf5  1  0.68726760  0.88712793  0.38820191  1
  Hf  Hf6  1  0.69375597  0.69498180  0.60718429  1
  Hf  Hf7  1  0.69717579  0.49113142  0.61450421  1
  Hf  Hf8  1  0.49914074  0.49865891  0.89863262  1
  Hf  Hf9  1  0.89290091  0.10289787  0.62209150  1
  Hf  Hf10  1  0.90828234  0.49429292  0.62734227  1
  Hf  Hf11  1  0.49225728  0.30216967  0.88346970  1
  Hf  Hf12  1  0.79735180  0.79480905  0.75556797  1
  Hf  Hf13  1  0.59927839  0.79126128  0.74443757  1
  Hf  Hf14  1  0.79329263  0.39488008  0.47562890  1
  Hf  Hf15  1  0.10572305  0.71713454  0.12998649  1
  Hf  Hf16  1  0.01888247  0.00125286  -0.01655427  1
  Hf  Hf17  1  -0.00192138  0.80760543  0.27406228  1
  Hf  Hf18  1  0.91763550  0.89181482  0.11822522  1
  Hf  Hf19  1  0.89495668  0.49609487  0.88500969  1
  Hf  Hf20  1  0.50001413  0.89936955  0.61460917  1
  Hf  Hf21  1  0.80020290  0.38949567  0.24764353  1
  Hf  Hf22  1  0.30838457  0.69267329  0.61580518  1
  Hf  Hf23  1  0.00297359  -0.00164782  0.27126678  1
  Hf  Hf24  1  0.79879302  -0.00425536  0.75415590  1
  Hf  Hf25  1  0.40485370  0.60053027  0.75477688  1
  Hf  Hf26  1  0.19973949  0.60678569  -0.00397075  1
  Hf  Hf27  1  0.39025182  0.19956088  0.01379999  1
  Hf  Hf28  1  0.60618213  0.00476455  0.25311993  1
  Hf  Hf29  1  0.29570761  0.09608940  0.84761298  1
  Hf  Hf30  1  0.80133822  0.59355689  0.47680891  1
  Hf  Hf31  1  0.81283431  0.79837808  0.49253076  1
  Hf  Hf32  1  0.79333791  0.39343809  0.74936068  1
  Hf  Hf33  1  0.00035778  0.40208934  0.47634372  1
  Hf  Hf34  1  0.19469748  0.18739148  -0.00415577  1
  Hf  Hf35  1  0.49628319  0.50807917  0.61146282  1
  Hf  Hf36  1  0.49887808  0.90554115  0.87350601  1
  Hf  Hf37  1  0.20611547  0.20636388  0.50266488  1
  Hf  Hf38  1  0.01536135  0.80260550  -0.03291280  1
  Hf  Hf39  1  0.10476422  0.09960471  0.14509967  1
  Zr  Zr40  1  0.00348906  0.60349771  0.00258109  1
  Zr  Zr41  1  0.20726231  0.81908227  -0.02271003  1
  Zr  Zr42  1  0.49916315  0.90062599  0.11280956  1
  Zr  Zr43  1  0.49541022  0.31045373  0.61257433  1
  Zr  Zr44  1  0.50409263  0.11683747  0.62467809  1
  Zr  Zr45  1  0.48954857  0.10329625  0.36790084  1
  Zr  Zr46  1  0.10297216  0.32006556  0.62264592  1
  Zr  Zr47  1  0.20345982  0.79403667  0.74547531  1
  Zr  Zr48  1  0.60166050  0.59787503  0.75341336  1
  Zr  Zr49  1  0.89386334  0.09996314  0.38983178  1
  Zr  Zr50  1  0.50387190  0.69904387  0.89846888  1
  Zr  Zr51  1  0.89295750  0.30118760  0.88067461  1
  Zr  Zr52  1  0.10786230  0.50436363  0.35136605  1
  Zr  Zr53  1  0.28325268  0.31169737  0.87930746  1
  Zr  Zr54  1  -0.00721551  0.21274048  0.74069145  1
  Zr  Zr55  1  0.80671564  0.77609559  0.25124039  1
  Zr  Zr56  1  0.59591262  0.40187130  0.46958958  1
  Zr  Zr57  1  0.39606650  0.80566386  0.25166201  1
  Zr  Zr58  1  0.91046846  0.09527701  0.12617209  1
  Zr  Zr59  1  0.89651561  0.68594398  0.86638749  1
  Zr  Zr60  1  0.90388628  0.68577818  0.63358204  1
  Zr  Zr61  1  0.12617588  0.91177454  0.13452268  1
  Zr  Zr62  1  0.80263567  -0.01826673  0.25946688  1
  Zr  Zr63  1  0.10260540  0.29299662  0.13347755  1
  Zr  Zr64  1  0.77216424  0.19664049  0.74865590  1
  Zr  Zr65  1  0.29126156  0.49206596  0.61597257  1
  Zr  Zr66  1  0.37637848  -0.00104244  0.00636059  1
  Zr  Zr67  1  0.59695928  0.39388293  0.75408955  1
  Zr  Zr68  1  0.11124156  0.10491279  0.37984707  1
  Zr  Zr69  1  0.50159804  0.72424861  0.38585848  1
  Zr  Zr70  1  -0.00747681  0.61757415  0.24639118  1
  Zr  Zr71  1  0.80222520  0.19728661  0.01570859  1
  Zr  Zr72  1  0.60632198  0.79547165  0.24060962  1
  Zr  Zr73  1  0.39676867  0.59748504  0.47512959  1
  Zr  Zr74  1  0.00233384  -0.00838919  0.50943002  1
  Zr  Zr75  1  0.00814841  0.79454250  0.50759640  1
  Zr  Zr76  1  0.69192190  0.89787433  0.88595163  1
  Zr  Zr77  1  0.49645367  0.10073281  0.86996427  1
  Zr  Zr78  1  0.79033104  0.18408432  0.24932022  1
  Zr  Zr79  1  0.81157575  0.79061422  -0.00111654  1
  Ta  Ta80  1  0.00047767  0.20950991  0.49794729  1
  Ta  Ta81  1  0.80735358  -0.00533116  -0.00669562  1
  Ta  Ta82  1  0.10372118  0.10634086  0.84643904  1
  Ta  Ta83  1  0.10493793  0.68584552  0.63047488  1
  Ta  Ta84  1  -0.00661076  0.21334277  0.27079179  1
  Ta  Ta85  1  0.21027139  0.00224539  0.51408489  1
  Ta  Ta86  1  0.30372384  0.49678074  0.89046176  1
  Ta  Ta87  1  0.88918056  0.30310962  0.61022122  1
  Ta  Ta88  1  0.49137100  0.09667341  0.14013668  1
  Ta  Ta89  1  0.70685098  0.90185155  0.11409739  1
  Ta  Ta90  1  0.10762637  0.50159619  0.13296971  1
  Ta  Ta91  1  0.79554757  0.39724979  0.02771817  1
  Ta  Ta92  1  0.30133403  0.71121329  0.11856470  1
  Ta  Ta93  1  0.20506450  0.58987025  0.76152590  1
  Ta  Ta94  1  0.31017041  0.90869713  0.84502928  1
  Ta  Ta95  1  0.20564796  0.80142525  0.51208896  1
  Ta  Ta96  1  0.28705057  0.08696594  0.14744808  1
  Ta  Ta97  1  0.48879061  0.30049494  0.35332121  1
  Ta  Ta98  1  -0.00466335  0.39456081  0.24744197  1
  Ta  Ta99  1  0.89680621  0.50318299  0.35219000  1
  Ta  Ta100  1  0.89834845  0.50394618  0.13198926  1
  Ta  Ta101  1  0.39647057  0.21195570  0.74182296  1
  Ta  Ta102  1  0.70286559  0.89957651  0.61597957  1
  Ta  Ta103  1  0.68811157  0.28867043  0.61071135  1
  Ta  Ta104  1  0.69069682  0.09957418  0.89509129  1
  Ta  Ta105  1  0.39395415  0.40011604  0.02888990  1
  Ta  Ta106  1  0.59183989  0.39847188  0.03031100  1
  Ta  Ta107  1  0.00723691  0.80313340  0.75128449  1
  Ta  Ta108  1  0.39265862  0.40655039  0.75379005  1
  Ta  Ta109  1  0.11778890  0.90206544  0.38858212  1
  Ta  Ta110  1  0.40745558  0.79461466  0.74070723  1
  Ta  Ta111  1  0.10274508  0.10017100  0.63103373  1
  Ta  Ta112  1  0.60310739  0.59813056  0.47102803  1
  Ta  Ta113  1  0.68804480  0.30014982  0.90002302  1
  Ta  Ta114  1  0.11500883  0.47970538  0.88285974  1
  Ta  Ta115  1  0.69148183  0.29361759  0.13568857  1
  Ta  Ta116  1  0.50025613  0.69224872  0.12322573  1
  Ta  Ta117  1  0.60073310  0.00552774  0.49685748  1
  Ta  Ta118  1  0.00419492  0.59796107  0.48681239  1
  Ta  Ta119  1  0.19523793  0.60078036  0.48689891  1
  Ti  Ti120  1  0.39385840  0.80321035  -0.00122776  1
  Ti  Ti121  1  0.39359059  0.39855728  0.47577037  1
  Ti  Ti122  1  0.31427997  0.89536166  0.40085895  1
  Ti  Ti123  1  0.20176872  0.40293604  0.47792567  1
  Ti  Ti124  1  0.29751224  0.29714205  0.36134083  1
  Ti  Ti125  1  0.00759814  0.40016248  0.76064182  1
  Ti  Ti126  1  0.79568202  -0.00326870  0.50042430  1
  Ti  Ti127  1  0.39320825  0.20663334  0.49721874  1
  Ti  Ti128  1  0.10253274  0.50318740  0.62445200  1
  Ti  Ti129  1  0.60593955  0.79375492  0.01265768  1
  Ti  Ti130  1  0.90435005  0.89914306  0.63829880  1
  Ti  Ti131  1  0.11306219  0.92438148  0.84014804  1
  Ti  Ti132  1  0.49914385  0.50233532  0.34656939  1
  Ti  Ti133  1  0.49233349  0.50431409  0.14144517  1
  Ti  Ti134  1  0.30229405  0.49834365  0.35357060  1
  Ti  Ti135  1  0.01446677  0.59080956  0.76271922  1
  Ti  Ti136  1  0.00475223  0.20008935  -0.00804771  1
  Ti  Ti137  1  0.78760897  0.19985808  0.49201574  1
  Ti  Ti138  1  0.39266808  0.20310908  0.23971863  1
  Ti  Ti139  1  0.59276587  0.39648854  0.24203234  1
  Ti  Ti140  1  0.11080286  0.70700715  0.37735190  1
  Ti  Ti141  1  0.68685706  0.28694118  0.35648688  1
  Ti  Ti142  1  0.39324617  -0.01263698  0.25489843  1
  Ti  Ti143  1  0.78943920  0.59052558  0.74893648  1
  Ti  Ti144  1  0.39513663  0.61336021  0.25172608  1
  Ti  Ti145  1  0.19972254  0.21452262  0.73901845  1
  Ti  Ti146  1  0.39668365  0.01136973  0.50902342  1
  Ti  Ti147  1  0.21473607  0.80849851  0.26570325  1
  Ti  Ti148  1  0.39547389  0.59972898  0.01374685  1
  Ti  Ti149  1  0.59778365  0.19837073  0.47978842  1
  Ti  Ti150  1  0.69486822  0.50998924  0.13944540  1
  Ti  Ti151  1  0.20108880  0.39323891  0.24807782  1
  Ti  Ti152  1  0.30509712  0.90815503  0.63315117  1
  Ti  Ti153  1  0.29211223  0.29790781  0.13315808  1
  Ti  Ti154  1  0.30102802  0.09848101  0.36865136  1
  Ti  Ti155  1  0.21160681  0.61905682  0.25263634  1
  Ti  Ti156  1  0.69753330  0.68317101  0.89895556  1
  Ti  Ti157  1  0.30731440  0.70051753  0.87608886  1
  Ti  Ti158  1  0.30159351  0.31084864  0.62377725  1
  Ti  Ti159  1  0.29459359  0.50513794  0.13434733  1
  Mo  Mo160  1  0.90658148  0.69366054  0.38683658  1
  Mo  Mo161  1  0.70009642  0.10246415  0.60294065  1
  Mo  Mo162  1  0.59383463  0.19618927  0.24523559  1
  Mo  Mo163  1  0.10681206  0.68856378  0.85469765  1
  Mo  Mo164  1  0.48988212  0.30057699  0.14158373  1
  Mo  Mo165  1  0.40416449  0.00228377  0.73312652  1
  Mo  Mo166  1  0.59730471  0.59305026  0.02785054  1
  Mo  Mo167  1  0.90152657  0.29803292  0.12618082  1
  Mo  Mo168  1  0.59625422  0.60215968  0.25162909  1
  Mo  Mo169  1  0.59980724  0.00137102  0.01397042  1
  Mo  Mo170  1  0.49297961  0.91148462  0.39490930  1
  Mo  Mo171  1  0.20399960  0.40509682  0.02380687  1
  Mo  Mo172  1  0.90974022  0.90169879  0.86085562  1
  Mo  Mo173  1  0.50061449  0.69902499  0.60774633  1
  Mo  Mo174  1  0.89641575  0.29840642  0.38429692  1
  Mo  Mo175  1  0.39662297  0.80566965  0.51570297  1
  Mo  Mo176  1  0.29688823  0.89907014  0.12696674  1
  Mo  Mo177  1  0.69361692  0.50101565  0.34362088  1
  Mo  Mo178  1  0.70006975  0.69337507  0.11390909  1
  Mo  Mo179  1  0.20564198  0.19991861  0.26127856  1
  Mo  Mo180  1  0.29325082  0.70616328  0.38323532  1
  Mo  Mo181  1  0.79369702  0.59902589  0.24750722  1
  Mo  Mo182  1  0.20374674  0.00489508  0.72402986  1
  Mo  Mo183  1  0.10519291  0.30303560  0.36999019  1
  Mo  Mo184  1  0.90231431  0.89808919  0.38546526  1
  Mo  Mo185  1  0.39055481  0.40406876  0.24596642  1
  Mo  Mo186  1  0.30305892  0.11201500  0.62908786  1
  Mo  Mo187  1  0.10666634  0.89665320  0.62462053  1
  Mo  Mo188  1  0.09967838  0.29913323  0.87363471  1
  Mo  Mo189  1  0.69920932  0.69589492  0.38030289  1
  Mo  Mo190  1  0.00095371  -0.00084450  0.73954474  1
  Mo  Mo191  1  0.20107569  0.40600875  0.74942552  1
  Mo  Mo192  1  0.69562221  0.09770273  0.38942001  1
  Mo  Mo193  1  0.79935727  0.59419003  0.02554322  1
  Mo  Mo194  1  0.60169304  0.79963866  0.51220043  1
  Mo  Mo195  1  0.69716669  0.08649926  0.11193098  1
  Mo  Mo196  1  0.90603077  0.69962675  0.11188387  1
  Mo  Mo197  1  0.60207117  0.20793279  0.75988403  1
  Mo  Mo198  1  0.21512242  -0.00784319  0.27995322  1
  Mo  Mo199  1  0.19873288  0.00699521  -0.01814858  1
