# generated using pymatgen
data_HfZrTaTiMo
_symmetry_space_group_name_H-M   'P 1'
_cell_length_a   16.46532946
_cell_length_b   16.40218665
_cell_length_c   14.21420144
_cell_angle_alpha   89.94405297
_cell_angle_beta   90.22278993
_cell_angle_gamma   90.02980848
_symmetry_Int_Tables_number   1
_chemical_formula_structural   HfZrTaTiMo
_chemical_formula_sum   'Hf40 Zr40 Ta40 Ti40 Mo40'
_cell_volume   3838.76116493
_cell_formula_units_Z   40
loop_
 _symmetry_equiv_pos_site_id
 _symmetry_equiv_pos_as_xyz
  1  'x, y, z'
loop_
 _atom_site_type_symbol
 _atom_site_label
 _atom_site_symmetry_multiplicity
 _atom_site_fract_x
 _atom_site_fract_y
 _atom_site_fract_z
 _atom_site_occupancy
  Hf  Hf0  1  0.90253626  0.49926366  0.37753531  1
  Hf  Hf1  1  0.11368298  0.09858246  0.62428832  1
  Hf  Hf2  1  0.49880794  0.49667363  0.12156082  1
  Hf  Hf3  1  0.79966216  0.60206569  0.24654309  1
  Hf  Hf4  1  0.40804034  0.00102915  0.74967426  1
  Hf  Hf5  1  0.59795134  0.60597826  0.74812988  1
  Hf  Hf6  1  0.10777287  0.30124263  0.86072436  1
  Hf  Hf7  1  0.69929742  0.09741564  0.87082958  1
  Hf  Hf8  1  0.39379865  0.60465462  0.50768102  1
  Hf  Hf9  1  0.19112669  0.00010935  0.23263960  1
  Hf  Hf10  1  0.59896330  0.39797893  0.50912477  1
  Hf  Hf11  1  0.01012411  0.61378827  0.24310964  1
  Hf  Hf12  1  0.79421358  0.80195641  -0.00552771  1
  Hf  Hf13  1  0.19373773  0.60416013  0.00400444  1
  Hf  Hf14  1  0.10871013  0.10010216  0.86954683  1
  Hf  Hf15  1  0.39233199  0.60154403  -0.01013350  1
  Hf  Hf16  1  0.10552121  0.71455145  0.63377349  1
  Hf  Hf17  1  0.49816681  0.29418769  0.63087638  1
  Hf  Hf18  1  0.70105669  0.09493648  0.63162984  1
  Hf  Hf19  1  0.91022303  0.09717824  0.36424790  1
  Hf  Hf20  1  0.49535158  0.09490220  0.37325288  1
  Hf  Hf21  1  0.80447646  -0.00871196  0.50424454  1
  Hf  Hf22  1  0.20743469  0.20241418  0.00317373  1
  Hf  Hf23  1  0.80494630  0.60715088  0.51609169  1
  Hf  Hf24  1  0.39438749  0.79936364  0.25326897  1
  Hf  Hf25  1  0.30089309  0.49765126  0.13376265  1
  Hf  Hf26  1  0.71136989  0.29574505  0.37881699  1
  Hf  Hf27  1  0.49222137  0.28928486  0.87232551  1
  Hf  Hf28  1  0.59352328  0.60404035  0.25152685  1
  Hf  Hf29  1  0.60105868  0.19672943  0.49943980  1
  Hf  Hf30  1  0.80039311  0.00205648  -0.00460007  1
  Hf  Hf31  1  0.01652221  0.79887539  0.01118078  1
  Hf  Hf32  1  0.49294344  0.30767576  0.12771410  1
  Hf  Hf33  1  0.79524886  0.59667773  0.76186216  1
  Hf  Hf34  1  0.10480269  0.50110368  0.37234567  1
  Hf  Hf35  1  -0.00486050  0.19907172  0.73178099  1
  Hf  Hf36  1  0.59497755  0.19196719  0.00164981  1
  Hf  Hf37  1  0.10293976  0.70624022  0.87020600  1
  Hf  Hf38  1  0.28386873  0.88956581  0.39022239  1
  Hf  Hf39  1  0.90416627  0.50891571  0.10206123  1
  Zr  Zr40  1  0.39483106  0.40121611  0.76080544  1
  Zr  Zr41  1  0.71584904  0.10306737  0.37052077  1
  Zr  Zr42  1  0.68992471  0.70675648  0.11986866  1
  Zr  Zr43  1  0.00238714  0.39203342  0.51195837  1
  Zr  Zr44  1  0.30467677  0.11330142  0.85848642  1
  Zr  Zr45  1  0.39696614  -0.01020662  0.24916340  1
  Zr  Zr46  1  0.70117503  0.49919748  0.37820105  1
  Zr  Zr47  1  0.60004979  0.19859893  0.24922841  1
  Zr  Zr48  1  0.90678637  0.10619533  0.12210423  1
  Zr  Zr49  1  0.79994571  0.40729697  -0.02034112  1
  Zr  Zr50  1  0.69801389  0.29392821  0.86674156  1
  Zr  Zr51  1  0.80481207  0.39706628  0.23594390  1
  Zr  Zr52  1  0.80250761  0.39408567  0.51561968  1
  Zr  Zr53  1  0.09389401  0.91187249  0.38321206  1
  Zr  Zr54  1  0.90484504  0.90636137  0.13497609  1
  Zr  Zr55  1  0.69641837  0.30410982  0.11354262  1
  Zr  Zr56  1  0.59774934  0.60826339  0.51437288  1
  Zr  Zr57  1  0.28848970  0.09357347  0.38104520  1
  Zr  Zr58  1  0.29370074  0.29318292  0.64338516  1
  Zr  Zr59  1  0.19078899  0.79944732  0.22510059  1
  Zr  Zr60  1  0.90084624  0.89278558  0.64325021  1
  Zr  Zr61  1  -0.00649168  0.00687687  0.51483909  1
  Zr  Zr62  1  0.50368435  0.89558317  0.10988039  1
  Zr  Zr63  1  0.89822754  0.70314123  0.11999550  1
  Zr  Zr64  1  0.40267075  0.79023852  0.75026277  1
  Zr  Zr65  1  0.60460368  0.79546382  0.74286415  1
  Zr  Zr66  1  0.11258263  0.71112799  0.38094293  1
  Zr  Zr67  1  0.49271346  0.49415422  0.37011052  1
  Zr  Zr68  1  0.21072620  0.60488729  0.50830522  1
  Zr  Zr69  1  0.60660723  -0.01901646  0.48826167  1
  Zr  Zr70  1  0.70490090  0.70975333  0.38222901  1
  Zr  Zr71  1  -0.00171827  0.60722914  0.50455570  1
  Zr  Zr72  1  -0.00410057  0.59986240  0.75460989  1
  Zr  Zr73  1  0.90835147  0.89264485  0.87389266  1
  Zr  Zr74  1  0.50817416  0.50002718  0.88524424  1
  Zr  Zr75  1  0.39032221  0.40146278  0.50370579  1
  Zr  Zr76  1  -0.00393428  0.39592999  0.24184489  1
  Zr  Zr77  1  0.58939882  0.80958936  0.26909956  1
  Zr  Zr78  1  0.28685188  0.89884176  0.63012720  1
  Zr  Zr79  1  0.09123843  0.29820196  0.10903335  1
  Ta  Ta80  1  0.39261369  0.79047152  0.50651881  1
  Ta  Ta81  1  0.10013014  0.29549439  0.37670821  1
  Ta  Ta82  1  0.90680626  0.28660708  0.38605951  1
  Ta  Ta83  1  0.20380630  0.40219892  -0.00505708  1
  Ta  Ta84  1  0.39800102  -0.00544463  0.50434470  1
  Ta  Ta85  1  0.20106246  0.40050895  0.49956678  1
  Ta  Ta86  1  0.19995869  0.20696238  0.49695193  1
  Ta  Ta87  1  0.30022491  0.70143803  0.12025052  1
  Ta  Ta88  1  0.39303532  0.19769322  0.24898834  1
  Ta  Ta89  1  0.69858196  0.90226786  0.12715951  1
  Ta  Ta90  1  0.01013287  0.00174297  -0.00404828  1
  Ta  Ta91  1  0.90834260  0.29869877  0.86976790  1
  Ta  Ta92  1  0.49735953  0.09432736  0.12627984  1
  Ta  Ta93  1  0.11364073  0.90261592  0.87150728  1
  Ta  Ta94  1  0.90483392  0.49299930  0.63966865  1
  Ta  Ta95  1  0.50191996  0.89341278  0.61647890  1
  Ta  Ta96  1  0.19465116  0.39590302  0.24618563  1
  Ta  Ta97  1  0.09933193  0.49789807  0.87033946  1
  Ta  Ta98  1  0.19710092  0.20113798  0.24609455  1
  Ta  Ta99  1  0.00373500  0.00063048  0.75436078  1
  Ta  Ta100  1  0.60253888  -0.00338667  0.25256767  1
  Ta  Ta101  1  0.10664120  0.49391908  0.63948555  1
  Ta  Ta102  1  -0.00892252  0.80573534  0.50032692  1
  Ta  Ta103  1  0.70238713  0.09439151  0.12828818  1
  Ta  Ta104  1  0.70121305  0.29157826  0.63818753  1
  Ta  Ta105  1  0.39993177  0.00427297  -0.00845428  1
  Ta  Ta106  1  0.50274479  0.90094760  0.87806339  1
  Ta  Ta107  1  0.79205140  0.78825446  0.75881504  1
  Ta  Ta108  1  0.39687627  0.60986636  0.25339478  1
  Ta  Ta109  1  0.49094173  0.29869637  0.37016659  1
  Ta  Ta110  1  0.49367625  0.50321222  0.63879323  1
  Ta  Ta111  1  0.49644612  0.70081202  0.11085526  1
  Ta  Ta112  1  0.39528942  0.19709101  0.49764951  1
  Ta  Ta113  1  0.09697058  0.10760632  0.37733851  1
  Ta  Ta114  1  0.60588568  0.40248458  0.75157836  1
  Ta  Ta115  1  0.29391952  0.50189304  0.36009596  1
  Ta  Ta116  1  0.29683700  0.30205359  0.36627958  1
  Ta  Ta117  1  0.30144963  0.30289326  0.13033522  1
  Ta  Ta118  1  0.39465192  0.80177590  -0.00969697  1
  Ta  Ta119  1  0.69006199  0.50688453  0.10003780  1
  Ti  Ti120  1  0.81087530  0.21016210  0.23371074  1
  Ti  Ti121  1  0.09877349  0.50246876  0.11892578  1
  Ti  Ti122  1  0.29306137  0.90557246  0.87409135  1
  Ti  Ti123  1  0.71995932  0.89089437  0.36296759  1
  Ti  Ti124  1  0.20647325  0.60318286  0.75058150  1
  Ti  Ti125  1  0.80295769  -0.00371695  0.24984528  1
  Ti  Ti126  1  0.29737218  0.50133398  0.64076008  1
  Ti  Ti127  1  0.29075500  0.49961620  0.86793612  1
  Ti  Ti128  1  0.90280674  0.70790981  0.63970888  1
  Ti  Ti129  1  0.90567780  0.10238645  0.87426068  1
  Ti  Ti130  1  0.70111954  0.49683228  0.63347616  1
  Ti  Ti131  1  0.29345349  0.70669935  0.87112652  1
  Ti  Ti132  1  0.58708892  0.18521693  0.75114182  1
  Ti  Ti133  1  0.00006453  0.40249837  -0.01492826  1
  Ti  Ti134  1  0.80352252  0.39905162  0.75324992  1
  Ti  Ti135  1  0.59957133  0.00097841  -0.00024311  1
  Ti  Ti136  1  0.69152986  0.68843530  0.89507822  1
  Ti  Ti137  1  0.69231690  0.89957039  0.87496007  1
  Ti  Ti138  1  0.29285837  0.90141902  0.10051870  1
  Ti  Ti139  1  0.00415807  0.80988899  0.24970590  1
  Ti  Ti140  1  0.59621121  -0.00467941  0.74785347  1
  Ti  Ti141  1  0.82210959  0.19385092  0.52436078  1
  Ti  Ti142  1  0.09671480  0.10092830  0.11513914  1
  Ti  Ti143  1  0.49572828  0.70733675  0.38927619  1
  Ti  Ti144  1  0.79177994  0.80398655  0.52119621  1
  Ti  Ti145  1  0.10531715  0.30245717  0.62949078  1
  Ti  Ti146  1  0.10273071  0.89905545  0.63562362  1
  Ti  Ti147  1  0.30229013  0.09758304  0.12234838  1
  Ti  Ti148  1  0.40001274  0.19613288  0.00681428  1
  Ti  Ti149  1  0.38894347  0.39482084  -0.00870296  1
  Ti  Ti150  1  0.49719596  0.09459961  0.61644803  1
  Ti  Ti151  1  0.60402640  0.40025189  0.25243583  1
  Ti  Ti152  1  0.80021280  -0.00495094  0.75394629  1
  Ti  Ti153  1  0.29774484  0.09956003  0.62640130  1
  Ti  Ti154  1  0.50383397  0.70300224  0.88740701  1
  Ti  Ti155  1  0.90363131  0.69271288  0.88798898  1
  Ti  Ti156  1  0.89378537  0.72220677  0.36953433  1
  Ti  Ti157  1  0.80774325  0.20217698  -0.00121312  1
  Ti  Ti158  1  0.80763979  0.19679222  0.74690483  1
  Ti  Ti159  1  0.00246923  0.20453075  0.24251809  1
  Mo  Mo160  1  0.20588639  0.00344877  -0.00043303  1
  Mo  Mo161  1  0.89638873  0.09457340  0.64138288  1
  Mo  Mo162  1  0.50160490  0.09217028  0.88482962  1
  Mo  Mo163  1  0.69908272  0.50036004  0.87096095  1
  Mo  Mo164  1  0.59715700  0.39784805  -0.01088098  1
  Mo  Mo165  1  0.49686019  0.69979217  0.61799957  1
  Mo  Mo166  1  0.20232759  0.59744417  0.23919984  1
  Mo  Mo167  1  0.19831485  0.00396468  0.50769144  1
  Mo  Mo168  1  0.59802768  0.80249190  0.50639156  1
  Mo  Mo169  1  0.00014456  0.80167072  0.75902484  1
  Mo  Mo170  1  0.39525460  0.60167323  0.75517478  1
  Mo  Mo171  1  0.20201164  -0.00061099  0.75108507  1
  Mo  Mo172  1  0.10225000  0.69827567  0.11938790  1
  Mo  Mo173  1  0.80070520  0.80504905  0.24103818  1
  Mo  Mo174  1  0.19653965  0.80040152  0.51406515  1
  Mo  Mo175  1  0.30117741  0.30050939  0.88426967  1
  Mo  Mo176  1  0.70069348  0.89906571  0.64456507  1
  Mo  Mo177  1  0.19865440  0.40610202  0.75518464  1
  Mo  Mo178  1  0.20047176  0.20193015  0.74534193  1
  Mo  Mo179  1  0.48666732  0.89664676  0.39396381  1
  Mo  Mo180  1  0.90377102  0.29762982  0.09753262  1
  Mo  Mo181  1  0.00347375  0.59679589  -0.00745478  1
  Mo  Mo182  1  0.30026128  0.69899325  0.36041134  1
  Mo  Mo183  1  0.79665441  0.60257811  -0.01162568  1
  Mo  Mo184  1  -0.00166935  0.19688953  -0.01805465  1
  Mo  Mo185  1  0.89879197  0.89461712  0.36933898  1
  Mo  Mo186  1  0.20211750  0.80281320  0.75816981  1
  Mo  Mo187  1  0.30064393  0.69703447  0.64676802  1
  Mo  Mo188  1  0.59703647  0.80376629  -0.01386783  1
  Mo  Mo189  1  0.89523942  0.29814957  0.63512211  1
  Mo  Mo190  1  0.40704826  0.19035458  0.73521222  1
  Mo  Mo191  1  -0.00093597  0.39859234  0.74902024  1
  Mo  Mo192  1  0.70716993  0.70196584  0.62421959  1
  Mo  Mo193  1  0.00404144  0.20252263  0.50432195  1
  Mo  Mo194  1  0.20945323  0.80292502  -0.00682616  1
  Mo  Mo195  1  0.10258702  0.91012854  0.10858171  1
  Mo  Mo196  1  0.39465078  0.39811986  0.25569633  1
  Mo  Mo197  1  0.00685665  0.00758653  0.24073937  1
  Mo  Mo198  1  0.59437700  0.60234591  0.00010348  1
  Mo  Mo199  1  0.90497678  0.49583165  0.86989476  1
