# generated using pymatgen
data_HfZrTaTiMo
_symmetry_space_group_name_H-M   'P 1'
_cell_length_a   15.93320128
_cell_length_b   15.91808979
_cell_length_c   15.18637126
_cell_angle_alpha   90.01333235
_cell_angle_beta   90.03271128
_cell_angle_gamma   89.94080746
_symmetry_Int_Tables_number   1
_chemical_formula_structural   HfZrTaTiMo
_chemical_formula_sum   'Hf40 Zr40 Ta40 Ti40 Mo40'
_cell_volume   3851.65776342
_cell_formula_units_Z   40
loop_
 _symmetry_equiv_pos_site_id
 _symmetry_equiv_pos_as_xyz
  1  'x, y, z'
loop_
 _atom_site_type_symbol
 _atom_site_label
 _atom_site_symmetry_multiplicity
 _atom_site_fract_x
 _atom_site_fract_y
 _atom_site_fract_z
 _atom_site_occupancy
  Hf  Hf0  1  0.60381971  -0.00756824  0.48800054  1
  Hf  Hf1  1  0.00492486  0.60783095  0.50516380  1
  Hf  Hf2  1  0.38654950  0.41075705  0.76124501  1
  Hf  Hf3  1  0.20766892  0.79796510  0.25550260  1
  Hf  Hf4  1  0.80903533  0.81947948  -0.00572802  1
  Hf  Hf5  1  0.38457953  0.19570285  0.74777841  1
  Hf  Hf6  1  0.51016820  0.30457430  0.10996016  1
  Hf  Hf7  1  0.50701471  0.70027071  0.62139239  1
  Hf  Hf8  1  0.60938650  0.40102164  0.25535058  1
  Hf  Hf9  1  0.09620545  0.89502237  0.38731558  1
  Hf  Hf10  1  0.91121306  0.51346826  0.88943767  1
  Hf  Hf11  1  0.29994273  0.09754523  0.12123671  1
  Hf  Hf12  1  0.50312284  0.88932310  0.61545256  1
  Hf  Hf13  1  0.90540662  0.70416200  0.12760588  1
  Hf  Hf14  1  -0.00280579  0.21084343  0.51075263  1
  Hf  Hf15  1  0.71272919  0.70510914  0.60685343  1
  Hf  Hf16  1  0.49688666  0.29835980  0.37895181  1
  Hf  Hf17  1  0.30118460  0.31194263  0.37364570  1
  Hf  Hf18  1  0.18013900  0.00220104  -0.00395410  1
  Hf  Hf19  1  -0.00733889  0.18628874  -0.01624423  1
  Hf  Hf20  1  0.19548519  0.40616754  0.23771135  1
  Hf  Hf21  1  0.49103023  0.49862675  0.38234700  1
  Hf  Hf22  1  0.60122384  0.59131596  0.23790442  1
  Hf  Hf23  1  0.19920241  0.00946617  0.74850578  1
  Hf  Hf24  1  0.80049147  0.20493772  0.50555095  1
  Hf  Hf25  1  0.61670771  0.79896551  0.75638548  1
  Hf  Hf26  1  0.40672240  0.00171339  0.00333417  1
  Hf  Hf27  1  0.78809211  0.01988962  0.01943703  1
  Hf  Hf28  1  0.19947886  -0.00199181  0.25752207  1
  Hf  Hf29  1  0.30129714  0.30083607  0.10932207  1
  Hf  Hf30  1  0.70851735  0.51059017  0.61852405  1
  Hf  Hf31  1  0.60803647  0.80997018  0.00868403  1
  Hf  Hf32  1  0.09900922  0.88953261  0.61742122  1
  Hf  Hf33  1  0.78890679  -0.00223829  0.27869431  1
  Hf  Hf34  1  0.89900194  0.49393580  0.11356941  1
  Hf  Hf35  1  0.50665716  0.10018235  0.86133533  1
  Hf  Hf36  1  0.10117611  0.49793654  0.37040273  1
  Hf  Hf37  1  0.89590984  0.29690379  0.86266805  1
  Hf  Hf38  1  0.29538338  0.50815997  0.10812656  1
  Hf  Hf39  1  0.08043604  0.10894293  0.14428415  1
  Zr  Zr40  1  0.79193108  0.59610634  0.24645902  1
  Zr  Zr41  1  0.38864544  0.21252063  0.51796923  1
  Zr  Zr42  1  0.88668308  0.10752961  0.15164097  1
  Zr  Zr43  1  0.49760110  0.69784095  0.37037432  1
  Zr  Zr44  1  0.49591233  0.10179408  0.37627194  1
  Zr  Zr45  1  0.09118924  0.89135540  0.13622233  1
  Zr  Zr46  1  0.49976585  0.50817603  0.63722177  1
  Zr  Zr47  1  0.19971256  0.40174219  0.51124188  1
  Zr  Zr48  1  0.00312700  0.79432398  -0.01028111  1
  Zr  Zr49  1  0.40708956  0.40603487  0.23250165  1
  Zr  Zr50  1  0.79489702  0.39889955  0.26310202  1
  Zr  Zr51  1  0.60067423  0.39864068  0.50274547  1
  Zr  Zr52  1  0.78300411  0.20803026  0.72151212  1
  Zr  Zr53  1  0.48838422  0.09057010  0.61598375  1
  Zr  Zr54  1  0.30225867  0.69786557  0.62228411  1
  Zr  Zr55  1  0.30031013  0.89944546  0.61115040  1
  Zr  Zr56  1  0.51353889  0.50051047  0.88666903  1
  Zr  Zr57  1  0.19524989  0.20768903  0.25011778  1
  Zr  Zr58  1  0.08770943  0.89843931  0.85780576  1
  Zr  Zr59  1  0.40143226  0.79712720  0.76493625  1
  Zr  Zr60  1  0.88157628  0.08795868  0.85484285  1
  Zr  Zr61  1  0.61307179  0.18807683  0.00583437  1
  Zr  Zr62  1  -0.02020331  -0.00809936  -0.00282025  1
  Zr  Zr63  1  0.89923437  0.87791403  0.60900282  1
  Zr  Zr64  1  0.90551161  0.50150993  0.37786800  1
  Zr  Zr65  1  0.39206541  -0.00356523  0.75433144  1
  Zr  Zr66  1  0.39883393  0.60313055  0.23138968  1
  Zr  Zr67  1  0.81378392  0.61723338  0.75984902  1
  Zr  Zr68  1  0.51475717  0.69723360  0.88507055  1
  Zr  Zr69  1  0.71878172  0.29188946  0.11460853  1
  Zr  Zr70  1  0.09626153  0.70092674  0.63928417  1
  Zr  Zr71  1  0.29856626  0.10338353  0.38511268  1
  Zr  Zr72  1  0.20803852  0.78815665  0.77523400  1
  Zr  Zr73  1  0.61874415  0.39225668  0.75681104  1
  Zr  Zr74  1  0.10403374  0.29615129  0.85236096  1
  Zr  Zr75  1  0.91690205  0.29488097  0.13516232  1
  Zr  Zr76  1  0.18440932  0.20374751  0.00080182  1
  Zr  Zr77  1  0.71193682  0.92506966  0.86249489  1
  Zr  Zr78  1  0.60141042  0.00025676  0.01321754  1
  Zr  Zr79  1  0.40394858  0.80583844  0.00130356  1
  Ta  Ta80  1  0.21284632  0.58763283  0.76876967  1
  Ta  Ta81  1  0.09451859  0.10381294  0.38842329  1
  Ta  Ta82  1  0.60464511  0.60077594  0.49025297  1
  Ta  Ta83  1  0.89944583  0.51349683  0.62074059  1
  Ta  Ta84  1  0.89526360  0.89591051  0.15574046  1
  Ta  Ta85  1  0.51185959  0.90689918  0.86505669  1
  Ta  Ta86  1  0.70904693  0.50639344  0.89164149  1
  Ta  Ta87  1  0.61070343  0.00473060  0.72551722  1
  Ta  Ta88  1  0.29631158  0.69057490  0.37269029  1
  Ta  Ta89  1  0.70229108  0.90053946  0.15151378  1
  Ta  Ta90  1  0.10149819  0.30161626  0.64090986  1
  Ta  Ta91  1  0.60330965  0.20345299  0.51801768  1
  Ta  Ta92  1  -0.00410648  -0.00033014  0.27128382  1
  Ta  Ta93  1  0.10631726  0.69239493  0.13072095  1
  Ta  Ta94  1  0.90116195  0.10170992  0.38686677  1
  Ta  Ta95  1  0.29916570  0.50652558  0.37464591  1
  Ta  Ta96  1  0.20115657  0.59754668  0.50157128  1
  Ta  Ta97  1  0.40163567  0.20299747  0.24125255  1
  Ta  Ta98  1  0.60722525  0.79536801  0.25531834  1
  Ta  Ta99  1  0.39312082  -0.00665012  0.25749184  1
  Ta  Ta100  1  0.50246987  0.09680706  0.14608159  1
  Ta  Ta101  1  0.39223722  0.60271654  0.76971864  1
  Ta  Ta102  1  0.80418849  0.39821170  0.50219431  1
  Ta  Ta103  1  0.49977392  0.30134812  0.64479132  1
  Ta  Ta104  1  0.50744227  0.29233238  0.86996235  1
  Ta  Ta105  1  -0.00743287  0.19044552  0.73208817  1
  Ta  Ta106  1  0.00080296  0.40167452  0.52083318  1
  Ta  Ta107  1  0.50256076  0.90129790  0.15027675  1
  Ta  Ta108  1  0.00627093  0.59312066  0.23943768  1
  Ta  Ta109  1  0.39803194  0.80032220  0.48113789  1
  Ta  Ta110  1  0.10267067  0.09937339  0.61730842  1
  Ta  Ta111  1  0.60732847  0.20315285  0.25351004  1
  Ta  Ta112  1  0.19332646  0.60563713  -0.01444942  1
  Ta  Ta113  1  0.28993360  0.10685534  0.88638117  1
  Ta  Ta114  1  0.70314064  0.89266258  0.60233675  1
  Ta  Ta115  1  0.09791598  0.49546716  0.87121932  1
  Ta  Ta116  1  -0.00781644  -0.00155598  0.72910817  1
  Ta  Ta117  1  0.80376816  0.40932510  0.74873888  1
  Ta  Ta118  1  -0.00573122  0.40871088  0.74030586  1
  Ta  Ta119  1  0.29336991  0.70441727  0.11570830  1
  Ti  Ti120  1  0.69523723  0.49367236  0.09641697  1
  Ti  Ti121  1  0.80046912  0.00265319  0.70889406  1
  Ti  Ti122  1  -0.00820849  -0.00017085  0.50358286  1
  Ti  Ti123  1  0.40641284  0.19605130  -0.00405588  1
  Ti  Ti124  1  0.70951054  0.70666238  0.12277370  1
  Ti  Ti125  1  0.91139711  0.30691726  0.37149963  1
  Ti  Ti126  1  0.39511689  0.59770676  0.50522478  1
  Ti  Ti127  1  0.09278275  0.30507174  0.37277136  1
  Ti  Ti128  1  0.29865665  0.90546859  0.88803029  1
  Ti  Ti129  1  0.07886566  0.67839020  0.86718545  1
  Ti  Ti130  1  0.19647501  0.40190582  -0.00983315  1
  Ti  Ti131  1  0.20429866  0.00124197  0.49959804  1
  Ti  Ti132  1  0.01077722  0.38798942  -0.00200125  1
  Ti  Ti133  1  0.29805058  0.89860260  0.11957436  1
  Ti  Ti134  1  0.70288549  0.69564324  0.37532673  1
  Ti  Ti135  1  0.10915572  0.50274959  0.64380762  1
  Ti  Ti136  1  0.80246775  0.80194494  0.75803632  1
  Ti  Ti137  1  0.19963930  0.78660773  0.48880560  1
  Ti  Ti138  1  0.28574520  0.30725261  0.64505392  1
  Ti  Ti139  1  0.69517053  0.10601031  0.38525211  1
  Ti  Ti140  1  0.29822125  0.29787856  0.87700244  1
  Ti  Ti141  1  0.50139632  0.89755761  0.36631219  1
  Ti  Ti142  1  0.80319389  0.79403017  0.47536753  1
  Ti  Ti143  1  0.71118413  0.69282813  0.89980740  1
  Ti  Ti144  1  0.09679801  0.49900865  0.11381453  1
  Ti  Ti145  1  0.40203777  0.60357627  -0.00251510  1
  Ti  Ti146  1  0.90797365  0.70087711  0.36315825  1
  Ti  Ti147  1  0.90185688  0.89177466  0.37652404  1
  Ti  Ti148  1  0.61439865  0.60525620  0.75433330  1
  Ti  Ti149  1  0.19673212  0.79659592  -0.00708858  1
  Ti  Ti150  1  0.40497025  0.40012535  -0.01122895  1
  Ti  Ti151  1  0.39534218  0.80215569  0.25148259  1
  Ti  Ti152  1  0.69601404  0.11544618  0.85598910  1
  Ti  Ti153  1  0.39156506  0.40829168  0.52345144  1
  Ti  Ti154  1  0.79387086  0.20662557  0.27818852  1
  Ti  Ti155  1  0.19614328  0.20627977  0.50981012  1
  Ti  Ti156  1  0.50341325  0.70403413  0.12268412  1
  Ti  Ti157  1  0.09963080  0.69310718  0.36059766  1
  Ti  Ti158  1  -0.02349086  0.78125260  0.75836366  1
  Ti  Ti159  1  0.80196660  0.38958910  -0.01457327  1
  Mo  Mo160  1  0.00651456  0.39956459  0.24056970  1
  Mo  Mo161  1  0.89501818  0.90164843  0.84768954  1
  Mo  Mo162  1  0.20046029  0.59976118  0.24652132  1
  Mo  Mo163  1  0.90034537  0.31258444  0.63492561  1
  Mo  Mo164  1  0.19850367  0.19566334  0.74400938  1
  Mo  Mo165  1  -0.00135550  0.20207801  0.27988192  1
  Mo  Mo166  1  0.89621055  0.69992982  0.60652603  1
  Mo  Mo167  1  0.69922660  0.29626051  0.38842570  1
  Mo  Mo168  1  0.69754090  0.09324729  0.60670034  1
  Mo  Mo169  1  0.70487644  0.29778271  0.88189862  1
  Mo  Mo170  1  0.80158846  -0.00412312  0.49113009  1
  Mo  Mo171  1  0.60801842  0.39453447  -0.01647323  1
  Mo  Mo172  1  0.79927828  0.79480293  0.26207437  1
  Mo  Mo173  1  0.60072563  0.79496465  0.47977957  1
  Mo  Mo174  1  0.59652773  -0.00033084  0.26475971  1
  Mo  Mo175  1  0.29978956  0.49711364  0.89707269  1
  Mo  Mo176  1  0.69864426  0.88592928  0.37790211  1
  Mo  Mo177  1  0.09558301  0.30816694  0.12243553  1
  Mo  Mo178  1  0.00148368  0.79491276  0.26244900  1
  Mo  Mo179  1  0.89869603  0.70003965  0.89181029  1
  Mo  Mo180  1  0.60518576  0.60467167  0.02029515  1
  Mo  Mo181  1  0.20118410  0.40308550  0.75573523  1
  Mo  Mo182  1  0.50728770  0.50091112  0.10065489  1
  Mo  Mo183  1  0.80315589  0.60128539  0.48188475  1
  Mo  Mo184  1  0.80190655  0.19834291  -0.01057403  1
  Mo  Mo185  1  0.00843546  0.59600629  0.01585748  1
  Mo  Mo186  1  0.69986230  0.50292894  0.39046114  1
  Mo  Mo187  1  0.80154992  0.60615878  0.00910293  1
  Mo  Mo188  1  0.69934918  0.30962318  0.61377193  1
  Mo  Mo189  1  0.29768669  0.50727627  0.62399291  1
  Mo  Mo190  1  0.00168392  0.59732536  0.73925386  1
  Mo  Mo191  1  0.90090428  0.09407461  0.60858647  1
  Mo  Mo192  1  0.69674944  0.09999900  0.15784840  1
  Mo  Mo193  1  0.30021556  0.89461895  0.38268982  1
  Mo  Mo194  1  0.09099050  0.09828529  0.84760854  1
  Mo  Mo195  1  0.00213320  0.79185329  0.48114098  1
  Mo  Mo196  1  0.28779250  0.10174503  0.60747637  1
  Mo  Mo197  1  0.39593804  -0.01154700  0.48099217  1
  Mo  Mo198  1  0.59484763  0.19830858  0.73498580  1
  Mo  Mo199  1  0.30229422  0.69739963  0.89646970  1
