# generated using pymatgen
data_HfZrTaTiMo
_symmetry_space_group_name_H-M   'P 1'
_cell_length_a   15.95277326
_cell_length_b   15.94288598
_cell_length_c   15.15285241
_cell_angle_alpha   89.95586880
_cell_angle_beta   90.01524581
_cell_angle_gamma   89.88076021
_symmetry_Int_Tables_number   1
_chemical_formula_structural   HfZrTaTiMo
_chemical_formula_sum   'Hf40 Zr40 Ta40 Ti40 Mo40'
_cell_volume   3853.86449985
_cell_formula_units_Z   40
loop_
 _symmetry_equiv_pos_site_id
 _symmetry_equiv_pos_as_xyz
  1  'x, y, z'
loop_
 _atom_site_type_symbol
 _atom_site_label
 _atom_site_symmetry_multiplicity
 _atom_site_fract_x
 _atom_site_fract_y
 _atom_site_fract_z
 _atom_site_occupancy
  Hf  Hf0  1  0.90265558  0.50157805  0.86338857  1
  Hf  Hf1  1  0.69008092  0.90831095  0.13571349  1
  Hf  Hf2  1  -0.00119172  0.19426698  0.24579288  1
  Hf  Hf3  1  0.29793800  0.30708010  0.11638178  1
  Hf  Hf4  1  0.89876076  0.69478444  0.88465517  1
  Hf  Hf5  1  0.38418856  -0.00076589  0.51099101  1
  Hf  Hf6  1  0.50286652  0.69741498  0.88027858  1
  Hf  Hf7  1  0.11013313  0.30397406  0.64261734  1
  Hf  Hf8  1  -0.00335970  0.00084297  -0.00747349  1
  Hf  Hf9  1  0.29610389  0.89527420  0.11405037  1
  Hf  Hf10  1  0.29871449  0.31246031  0.63253275  1
  Hf  Hf11  1  0.40637025  0.19692657  0.23852757  1
  Hf  Hf12  1  0.71309083  0.49108006  0.14528602  1
  Hf  Hf13  1  0.30595237  0.29691586  0.38206832  1
  Hf  Hf14  1  0.29485314  0.50099138  0.63515285  1
  Hf  Hf15  1  0.70300826  0.29365538  0.12369426  1
  Hf  Hf16  1  0.39657453  0.19777041  0.74555600  1
  Hf  Hf17  1  0.29701373  0.50552374  0.13073067  1
  Hf  Hf18  1  0.40280008  0.60591158  0.24828327  1
  Hf  Hf19  1  0.10876249  0.31362971  0.36506889  1
  Hf  Hf20  1  0.01317143  0.40479291  0.50622555  1
  Hf  Hf21  1  0.60405160  0.18806831  0.25629463  1
  Hf  Hf22  1  0.20239341  0.19710989  0.49940466  1
  Hf  Hf23  1  0.39664104  0.59866530  -0.00406065  1
  Hf  Hf24  1  0.70041588  0.30533777  0.60814995  1
  Hf  Hf25  1  0.90800667  0.08668017  0.39151622  1
  Hf  Hf26  1  0.79890543  0.19845247  0.73498346  1
  Hf  Hf27  1  0.79295689  0.00854102  0.25405356  1
  Hf  Hf28  1  0.01062819  0.80669068  0.50157291  1
  Hf  Hf29  1  -0.00371434  0.79765294  0.75939708  1
  Hf  Hf30  1  0.00460639  0.21073168  0.00882238  1
  Hf  Hf31  1  0.50276755  0.88806168  0.87059465  1
  Hf  Hf32  1  0.90376553  0.90767714  0.61572072  1
  Hf  Hf33  1  0.10233144  0.89882337  0.11803596  1
  Hf  Hf34  1  0.00672778  0.60674385  0.50982227  1
  Hf  Hf35  1  0.60541925  0.60347211  0.74873602  1
  Hf  Hf36  1  0.40025274  0.59915737  0.49033822  1
  Hf  Hf37  1  0.90183378  0.70341200  0.12721769  1
  Hf  Hf38  1  0.50699041  0.49481561  0.12624754  1
  Hf  Hf39  1  0.60969105  0.19507720  -0.01044171  1
  Zr  Zr40  1  0.49170718  0.88717219  0.63157946  1
  Zr  Zr41  1  0.38664907  -0.00498233  0.75723332  1
  Zr  Zr42  1  0.11264831  0.50071956  0.13793523  1
  Zr  Zr43  1  0.88713329  0.30652114  0.14046261  1
  Zr  Zr44  1  0.70729157  0.70434604  0.87688056  1
  Zr  Zr45  1  0.79696494  0.79836454  0.73464672  1
  Zr  Zr46  1  0.40020574  -0.00333019  0.24834364  1
  Zr  Zr47  1  0.90098529  0.50398124  0.36979094  1
  Zr  Zr48  1  0.80454837  0.59465578  0.02003342  1
  Zr  Zr49  1  0.50019214  0.09656683  0.87134507  1
  Zr  Zr50  1  0.18204544  0.00323949  0.49782288  1
  Zr  Zr51  1  0.89767596  0.89973279  0.37278438  1
  Zr  Zr52  1  0.49590809  0.49706574  0.61724286  1
  Zr  Zr53  1  0.60778513  0.79693043  0.00928858  1
  Zr  Zr54  1  0.89277752  0.11247357  0.87905288  1
  Zr  Zr55  1  0.41044544  0.80324024  0.25049754  1
  Zr  Zr56  1  0.09584106  0.10132896  0.65479775  1
  Zr  Zr57  1  0.50074106  0.69774003  0.62500062  1
  Zr  Zr58  1  0.49165321  0.09931548  0.39044172  1
  Zr  Zr59  1  0.60574674  0.18735850  0.73466583  1
  Zr  Zr60  1  0.39948403  -0.00221558  -0.00834456  1
  Zr  Zr61  1  0.19986223  0.20191094  0.24010720  1
  Zr  Zr62  1  0.01160711  0.19547578  0.49957445  1
  Zr  Zr63  1  0.40664045  0.39216566  0.25579785  1
  Zr  Zr64  1  0.49946708  0.30213890  0.87009851  1
  Zr  Zr65  1  0.30159757  0.69653850  0.62433701  1
  Zr  Zr66  1  0.78641739  -0.00203808  0.75350869  1
  Zr  Zr67  1  0.51234779  0.08901617  0.11639293  1
  Zr  Zr68  1  0.60407200  0.38393712  0.26624901  1
  Zr  Zr69  1  0.09531196  0.91575607  0.35320371  1
  Zr  Zr70  1  -0.00021647  0.40415784  0.00652235  1
  Zr  Zr71  1  0.29628149  0.69896081  0.37691551  1
  Zr  Zr72  1  0.89614302  0.30482474  0.37877293  1
  Zr  Zr73  1  0.70802714  0.50411910  0.87173575  1
  Zr  Zr74  1  0.11773119  0.70556035  0.63338819  1
  Zr  Zr75  1  0.90011374  0.69826404  0.36618699  1
  Zr  Zr76  1  0.59966518  0.40204623  0.75104806  1
  Zr  Zr77  1  0.19776121  0.40332621  -0.01639600  1
  Zr  Zr78  1  0.70202641  0.50491841  0.60192066  1
  Zr  Zr79  1  0.28311481  0.88821475  0.63834974  1
  Ta  Ta80  1  0.59048761  -0.00050572  0.51307447  1
  Ta  Ta81  1  0.80436211  0.39613177  -0.00499263  1
  Ta  Ta82  1  0.80898280  0.60696970  0.72604928  1
  Ta  Ta83  1  0.49660190  0.30078228  0.61531914  1
  Ta  Ta84  1  0.20141882  0.79825836  0.24764398  1
  Ta  Ta85  1  0.89506569  0.90347886  0.12091892  1
  Ta  Ta86  1  0.01158633  0.59945838  0.00493101  1
  Ta  Ta87  1  0.00533512  0.79827416  -0.00506068  1
  Ta  Ta88  1  0.79810820  0.19623471  0.50393114  1
  Ta  Ta89  1  0.70876343  0.50450502  0.37918081  1
  Ta  Ta90  1  0.10040907  0.69960027  0.36254012  1
  Ta  Ta91  1  0.29373453  0.09688908  0.11101720  1
  Ta  Ta92  1  0.90209280  0.30507408  0.86275579  1
  Ta  Ta93  1  0.50383162  0.50376994  0.37402168  1
  Ta  Ta94  1  0.60685692  0.40345963  -0.00646910  1
  Ta  Ta95  1  0.28982078  0.49667562  0.37042157  1
  Ta  Ta96  1  0.10063774  0.90674796  0.64805628  1
  Ta  Ta97  1  0.90061547  0.49787524  0.61704891  1
  Ta  Ta98  1  0.69451366  0.89607730  0.38264744  1
  Ta  Ta99  1  0.90115404  0.09611870  0.62045918  1
  Ta  Ta100  1  0.28864357  0.09511170  0.36412214  1
  Ta  Ta101  1  -0.00790304  -0.00320578  0.76805802  1
  Ta  Ta102  1  0.09852198  0.50531169  0.86065435  1
  Ta  Ta103  1  0.19469075  0.00295931  -0.01964043  1
  Ta  Ta104  1  0.40294953  0.40547006  -0.01568399  1
  Ta  Ta105  1  0.00073110  0.60440014  0.73962766  1
  Ta  Ta106  1  0.10554819  0.09547290  0.11957234  1
  Ta  Ta107  1  0.70388581  0.69802554  0.37414540  1
  Ta  Ta108  1  0.10771687  0.50938821  0.36564740  1
  Ta  Ta109  1  0.71358851  0.29572710  0.87340762  1
  Ta  Ta110  1  0.60345821  -0.00347009  0.73914783  1
  Ta  Ta111  1  0.59938004  0.39782220  0.48471341  1
  Ta  Ta112  1  0.11352032  0.50312591  0.63678963  1
  Ta  Ta113  1  0.78994921  0.80070412  0.24588827  1
  Ta  Ta114  1  0.69609193  0.09416996  0.39675522  1
  Ta  Ta115  1  0.50282585  0.29845431  0.10557215  1
  Ta  Ta116  1  0.60425122  0.60657890  0.25322153  1
  Ta  Ta117  1  0.19731181  0.80511962  0.48533705  1
  Ta  Ta118  1  0.19589375  0.20238074  -0.00919727  1
  Ta  Ta119  1  0.80016587  0.79452401  0.49985426  1
  Ti  Ti120  1  0.20851403  0.60879158  0.77562172  1
  Ti  Ti121  1  0.39727749  0.80581012  0.48865800  1
  Ti  Ti122  1  0.70021877  0.90055180  0.60550545  1
  Ti  Ti123  1  0.51036474  0.70523485  0.37556684  1
  Ti  Ti124  1  0.39888293  0.40160505  0.49274073  1
  Ti  Ti125  1  0.50626545  0.70364260  0.12487434  1
  Ti  Ti126  1  0.09343266  0.30005801  0.85464032  1
  Ti  Ti127  1  -0.00556117  0.00755096  0.22978003  1
  Ti  Ti128  1  0.19218032  0.79941502  0.78362488  1
  Ti  Ti129  1  0.00054916  0.80243421  0.23868872  1
  Ti  Ti130  1  0.69743697  0.69678162  0.60160983  1
  Ti  Ti131  1  0.11176907  0.69978588  0.12062658  1
  Ti  Ti132  1  0.88777545  0.10438703  0.11599203  1
  Ti  Ti133  1  0.29528865  0.90426540  0.36710894  1
  Ti  Ti134  1  0.29208120  0.70319347  0.10969404  1
  Ti  Ti135  1  0.00235094  0.60144387  0.23634343  1
  Ti  Ti136  1  0.79165989  0.19865447  0.27159159  1
  Ti  Ti137  1  0.50126594  0.28678087  0.39756126  1
  Ti  Ti138  1  0.60769499  0.59755287  0.01208913  1
  Ti  Ti139  1  0.00198853  0.40193367  0.24078590  1
  Ti  Ti140  1  0.09903727  0.10847317  0.86538788  1
  Ti  Ti141  1  0.38522192  0.78342497  0.76703648  1
  Ti  Ti142  1  0.79415871  0.80521340  0.01449732  1
  Ti  Ti143  1  0.90315315  0.30139144  0.62139392  1
  Ti  Ti144  1  0.58950994  -0.01317997  0.27373226  1
  Ti  Ti145  1  0.70767356  0.10164249  0.11612045  1
  Ti  Ti146  1  0.80151537  0.40234541  0.74076046  1
  Ti  Ti147  1  0.50098881  0.89556453  0.11642733  1
  Ti  Ti148  1  -0.00271013  0.40520983  0.73948641  1
  Ti  Ti149  1  0.39317777  0.20189049  -0.00637812  1
  Ti  Ti150  1  0.40207888  0.58919901  0.76971712  1
  Ti  Ti151  1  0.29697139  0.30353687  0.86366881  1
  Ti  Ti152  1  0.79137339  0.00059266  -0.00718718  1
  Ti  Ti153  1  0.61327404  0.80454705  0.74496133  1
  Ti  Ti154  1  0.88865652  0.89306297  0.88583969  1
  Ti  Ti155  1  0.59609137  0.80095841  0.49302542  1
  Ti  Ti156  1  0.61332264  -0.00566809  -0.02047186  1
  Ti  Ti157  1  0.39570286  0.18775589  0.52266955  1
  Ti  Ti158  1  0.29542595  0.88587516  0.89181880  1
  Ti  Ti159  1  0.27928840  0.09740251  0.64921923  1
  Mo  Mo160  1  0.09714259  0.69537802  0.88024226  1
  Mo  Mo161  1  0.19405144  0.59776380  0.48947838  1
  Mo  Mo162  1  0.80471934  0.39849501  0.49486624  1
  Mo  Mo163  1  0.70199421  0.90029533  0.87610702  1
  Mo  Mo164  1  0.19513356  0.79619697  -0.00433774  1
  Mo  Mo165  1  0.80411440  0.20454757  -0.00420789  1
  Mo  Mo166  1  0.69885568  0.29182042  0.39091166  1
  Mo  Mo167  1  0.19430529  -0.00494493  0.77902049  1
  Mo  Mo168  1  0.20142167  0.20266524  0.77055326  1
  Mo  Mo169  1  0.59943277  0.80192589  0.25894721  1
  Mo  Mo170  1  0.79993152  0.60230229  0.24455474  1
  Mo  Mo171  1  0.20152915  0.61029783  0.25264326  1
  Mo  Mo172  1  0.19627206  0.60450974  -0.01541625  1
  Mo  Mo173  1  0.90299873  0.70085926  0.61530351  1
  Mo  Mo174  1  0.60042197  0.60358396  0.47717884  1
  Mo  Mo175  1  0.29928120  0.70089207  0.88632899  1
  Mo  Mo176  1  -0.00669169  0.20455117  0.74767441  1
  Mo  Mo177  1  0.09403807  0.90015498  0.87650998  1
  Mo  Mo178  1  0.79350385  -0.00398801  0.50147971  1
  Mo  Mo179  1  0.50627538  0.50317883  0.88764256  1
  Mo  Mo180  1  0.20330148  0.40139774  0.25330644  1
  Mo  Mo181  1  0.59380251  0.19791879  0.50863778  1
  Mo  Mo182  1  0.49883016  0.89656587  0.39484510  1
  Mo  Mo183  1  0.40009034  0.40450553  0.76324701  1
  Mo  Mo184  1  0.69933016  0.09340628  0.60627137  1
  Mo  Mo185  1  0.40251164  0.79411349  0.00686694  1
  Mo  Mo186  1  0.00396923  0.00052179  0.51418134  1
  Mo  Mo187  1  0.80339515  0.60555546  0.50714766  1
  Mo  Mo188  1  0.10216058  0.29796340  0.13088060  1
  Mo  Mo189  1  0.70116103  0.09878514  0.87995922  1
  Mo  Mo190  1  0.49294948  0.09594189  0.62604322  1
  Mo  Mo191  1  0.30231849  0.49919692  0.86571894  1
  Mo  Mo192  1  0.09958710  0.09994154  0.35303088  1
  Mo  Mo193  1  0.90518294  0.50134109  0.14189232  1
  Mo  Mo194  1  0.69754267  0.70017930  0.14460841  1
  Mo  Mo195  1  0.20320631  0.40869025  0.49537165  1
  Mo  Mo196  1  0.20111896  0.00159115  0.23993297  1
  Mo  Mo197  1  0.79813787  0.39705091  0.27268584  1
  Mo  Mo198  1  0.29323380  0.10921402  0.88236884  1
  Mo  Mo199  1  0.19893184  0.40546927  0.76606433  1
