# generated using pymatgen
data_HfZrTaTiMo
_symmetry_space_group_name_H-M   'P 1'
_cell_length_a   15.92169877
_cell_length_b   15.92971317
_cell_length_c   15.22083401
_cell_angle_alpha   89.95308931
_cell_angle_beta   89.98266201
_cell_angle_gamma   90.07786222
_symmetry_Int_Tables_number   1
_chemical_formula_structural   HfZrTaTiMo
_chemical_formula_sum   'Hf40 Zr40 Ta40 Ti40 Mo40'
_cell_volume   3860.42609100
_cell_formula_units_Z   40
loop_
 _symmetry_equiv_pos_site_id
 _symmetry_equiv_pos_as_xyz
  1  'x, y, z'
loop_
 _atom_site_type_symbol
 _atom_site_label
 _atom_site_symmetry_multiplicity
 _atom_site_fract_x
 _atom_site_fract_y
 _atom_site_fract_z
 _atom_site_occupancy
  Hf  Hf0  1  -0.00082672  0.01066636  0.23912682  1
  Hf  Hf1  1  0.49370668  0.29243495  0.38289457  1
  Hf  Hf2  1  0.79514915  0.19782354  0.49010462  1
  Hf  Hf3  1  0.59982864  0.80622536  0.25141032  1
  Hf  Hf4  1  -0.01135561  0.80216784  0.75423779  1
  Hf  Hf5  1  0.28994266  0.89276541  0.62289912  1
  Hf  Hf6  1  0.38550044  0.79119261  0.74924848  1
  Hf  Hf7  1  0.50045266  0.49749069  0.62691151  1
  Hf  Hf8  1  0.09385010  0.29784962  0.36625560  1
  Hf  Hf9  1  0.09874643  0.49055851  0.36617285  1
  Hf  Hf10  1  0.78536601  0.78929744  0.75921063  1
  Hf  Hf11  1  0.08770172  0.29358389  0.11358523  1
  Hf  Hf12  1  0.21069612  0.61758757  0.76624212  1
  Hf  Hf13  1  0.90945447  0.49021442  0.62674281  1
  Hf  Hf14  1  0.90107388  0.48961978  0.12021658  1
  Hf  Hf15  1  0.80182376  0.80683454  0.25106546  1
  Hf  Hf16  1  0.30183042  0.50518470  0.12439766  1
  Hf  Hf17  1  0.59616006  -0.00984298  -0.00617068  1
  Hf  Hf18  1  0.30179764  0.09285644  0.10597285  1
  Hf  Hf19  1  0.10919700  0.90566236  0.10929075  1
  Hf  Hf20  1  0.49478124  0.69628086  0.62079282  1
  Hf  Hf21  1  0.88571389  0.09777105  0.63493681  1
  Hf  Hf22  1  0.80502910  0.59301237  0.48434411  1
  Hf  Hf23  1  0.20590707  0.00952144  0.74948597  1
  Hf  Hf24  1  0.41296036  0.01246693  0.50993054  1
  Hf  Hf25  1  0.69903177  0.08126207  0.37508265  1
  Hf  Hf26  1  0.62492729  0.61337726  0.74231134  1
  Hf  Hf27  1  0.39649738  0.19936725  0.75611960  1
  Hf  Hf28  1  0.29829450  0.50832780  0.62729458  1
  Hf  Hf29  1  0.08358661  0.92203542  0.39038448  1
  Hf  Hf30  1  0.70165923  0.28497052  0.63837220  1
  Hf  Hf31  1  0.29820649  0.30691198  0.62201818  1
  Hf  Hf32  1  -0.00526238  0.59748603  0.76460776  1
  Hf  Hf33  1  0.21024924  0.79845716  -0.02367478  1
  Hf  Hf34  1  0.19435582  0.60454992  -0.01013172  1
  Hf  Hf35  1  0.69320558  0.49571514  0.37125440  1
  Hf  Hf36  1  -0.00397808  0.81529648  0.25725721  1
  Hf  Hf37  1  -0.00342752  0.80291200  0.51293795  1
  Hf  Hf38  1  0.19754659  0.21011876  0.76050396  1
  Hf  Hf39  1  0.51378646  0.71241267  0.86708887  1
  Zr  Zr40  1  0.78921246  0.80260994  -0.01460891  1
  Zr  Zr41  1  0.69483134  0.29991734  0.87202621  1
  Zr  Zr42  1  0.51470425  0.49595477  0.87134995  1
  Zr  Zr43  1  0.71231386  0.49861863  0.62177657  1
  Zr  Zr44  1  0.59473446  0.18758178  0.49785468  1
  Zr  Zr45  1  0.08972985  0.49907782  0.12460217  1
  Zr  Zr46  1  0.89957758  0.69922554  0.11864659  1
  Zr  Zr47  1  0.39231344  0.81455841  0.26492963  1
  Zr  Zr48  1  0.00920921  0.59705722  0.49496775  1
  Zr  Zr49  1  0.20325391  0.61539876  0.27202481  1
  Zr  Zr50  1  0.11362420  0.70635939  0.63456928  1
  Zr  Zr51  1  0.00182420  0.20060245  0.50328550  1
  Zr  Zr52  1  0.80797392  -0.00360688  0.24280324  1
  Zr  Zr53  1  -0.00591836  0.60808534  0.26598055  1
  Zr  Zr54  1  0.10236771  0.10011473  0.10065594  1
  Zr  Zr55  1  0.80008746  0.59737944  0.25796202  1
  Zr  Zr56  1  0.10437075  0.90807002  0.86652936  1
  Zr  Zr57  1  0.40551176  0.61370475  -0.00357577  1
  Zr  Zr58  1  0.60199844  0.19829185  0.25806057  1
  Zr  Zr59  1  0.30062038  0.71811653  0.12906642  1
  Zr  Zr60  1  0.50085221  0.29171889  0.11401936  1
  Zr  Zr61  1  0.81413407  0.19869597  0.25850143  1
  Zr  Zr62  1  0.70463997  0.29766871  0.10867597  1
  Zr  Zr63  1  0.69201280  0.69168066  0.12641434  1
  Zr  Zr64  1  -0.00254928  0.79072818  -0.02242431  1
  Zr  Zr65  1  0.20320549  0.39155594  0.23740006  1
  Zr  Zr66  1  0.29833725  0.29605160  0.38570011  1
  Zr  Zr67  1  0.30637793  0.49483951  0.87450923  1
  Zr  Zr68  1  0.40223229  0.60141066  0.26278352  1
  Zr  Zr69  1  0.88160325  0.69202868  0.62700279  1
  Zr  Zr70  1  0.20770724  0.00240489  0.25871007  1
  Zr  Zr71  1  0.70328492  0.09766718  0.11981692  1
  Zr  Zr72  1  0.40651421  0.40156846  0.00605593  1
  Zr  Zr73  1  0.49024664  0.09453506  0.12113375  1
  Zr  Zr74  1  0.40324263  0.39382060  0.24595517  1
  Zr  Zr75  1  0.40126126  0.80368397  0.49684597  1
  Zr  Zr76  1  0.90359220  0.29383752  0.64795208  1
  Zr  Zr77  1  0.09968720  0.70728120  0.13031148  1
  Zr  Zr78  1  0.19280649  0.01353291  0.50697464  1
  Zr  Zr79  1  0.81028736  0.40806618  0.76970068  1
  Ta  Ta80  1  0.09081731  0.11043276  0.64427157  1
  Ta  Ta81  1  0.39700895  0.59871908  0.48782924  1
  Ta  Ta82  1  0.80369425  0.38581087  0.48659124  1
  Ta  Ta83  1  0.90375368  0.10730724  0.09514887  1
  Ta  Ta84  1  0.88806553  0.90966331  0.40477191  1
  Ta  Ta85  1  0.19041210  0.40502303  0.50653807  1
  Ta  Ta86  1  0.19664329  0.79649610  0.48354217  1
  Ta  Ta87  1  0.60239141  -0.00499553  0.52307472  1
  Ta  Ta88  1  0.41006643  0.81307052  -0.00824839  1
  Ta  Ta89  1  0.79983872  0.38733324  0.25635689  1
  Ta  Ta90  1  0.20333262  0.60442643  0.49057710  1
  Ta  Ta91  1  0.50034979  0.70342973  0.13383669  1
  Ta  Ta92  1  0.80524530  0.40055041  -0.01072355  1
  Ta  Ta93  1  0.89770793  0.10291680  0.86547311  1
  Ta  Ta94  1  0.50119346  0.29757463  0.87378077  1
  Ta  Ta95  1  0.80064704  0.59802156  -0.01472892  1
  Ta  Ta96  1  0.19764057  0.39546868  0.00025131  1
  Ta  Ta97  1  0.49852931  0.29682342  0.62622726  1
  Ta  Ta98  1  0.70187463  0.49491390  0.12107424  1
  Ta  Ta99  1  0.19271294  0.20408485  0.50740688  1
  Ta  Ta100  1  0.50831904  0.09204369  0.86004966  1
  Ta  Ta101  1  0.51063354  0.10436444  0.64610639  1
  Ta  Ta102  1  0.40293488  0.40330755  0.50196136  1
  Ta  Ta103  1  0.19875429  0.19050611  0.25017654  1
  Ta  Ta104  1  0.60402517  0.39209356  0.50070443  1
  Ta  Ta105  1  0.70024400  0.89766506  0.39041871  1
  Ta  Ta106  1  0.79488305  0.00005846  -0.02091150  1
  Ta  Ta107  1  0.29825801  0.28054903  0.10902523  1
  Ta  Ta108  1  0.91484595  0.08738192  0.39297174  1
  Ta  Ta109  1  0.40552198  -0.00549650  0.74492234  1
  Ta  Ta110  1  0.59993573  0.80317870  0.50970228  1
  Ta  Ta111  1  -0.00942434  -0.00166008  0.74914000  1
  Ta  Ta112  1  0.59875696  0.59860498  0.49913338  1
  Ta  Ta113  1  0.50849458  0.69957342  0.37570234  1
  Ta  Ta114  1  0.51840906  0.50938167  0.13120540  1
  Ta  Ta115  1  0.90193718  0.90910935  0.10137864  1
  Ta  Ta116  1  0.59813770  0.18936426  -0.01800245  1
  Ta  Ta117  1  0.60428063  0.39662221  0.24942354  1
  Ta  Ta118  1  0.69596546  0.70435862  0.38347708  1
  Ta  Ta119  1  0.09781029  0.49155738  0.87733877  1
  Ti  Ti120  1  0.09442941  0.30851020  0.63906498  1
  Ti  Ti121  1  0.50380936  0.49611203  0.37572174  1
  Ti  Ti122  1  0.19515981  0.80888281  0.27474660  1
  Ti  Ti123  1  0.90743442  0.47782295  0.36733344  1
  Ti  Ti124  1  0.40742034  -0.00671565  -0.02230285  1
  Ti  Ti125  1  0.59181408  0.80390520  0.00829769  1
  Ti  Ti126  1  0.30747022  0.10922332  0.38770688  1
  Ti  Ti127  1  0.09374040  0.10636191  0.87153592  1
  Ti  Ti128  1  0.48627142  0.90272418  0.13281838  1
  Ti  Ti129  1  0.60016285  0.39735229  0.74100049  1
  Ti  Ti130  1  0.10291212  0.49675606  0.63716808  1
  Ti  Ti131  1  0.29978804  0.49179986  0.38011338  1
  Ti  Ti132  1  0.40097568  0.39781143  0.75062368  1
  Ti  Ti133  1  0.30518558  0.90410326  0.86634227  1
  Ti  Ti134  1  0.69863441  0.50172460  0.88127627  1
  Ti  Ti135  1  -0.00336013  0.59842423  -0.01714959  1
  Ti  Ti136  1  0.59338006  -0.00292654  0.24618191  1
  Ti  Ti137  1  0.30200513  0.10957147  0.62325543  1
  Ti  Ti138  1  0.30462096  0.09730904  0.88327785  1
  Ti  Ti139  1  -0.00244165  0.19487534  0.25144744  1
  Ti  Ti140  1  0.67848112  0.89733934  0.86456979  1
  Ti  Ti141  1  0.09700363  0.90632248  0.63114925  1
  Ti  Ti142  1  0.40308413  0.60220580  0.75600247  1
  Ti  Ti143  1  0.80077567  0.19657906  -0.02170989  1
  Ti  Ti144  1  0.39217765  0.18816052  0.25117476  1
  Ti  Ti145  1  0.60333682  0.60235651  -0.00289131  1
  Ti  Ti146  1  0.59841822  0.81011776  0.72559356  1
  Ti  Ti147  1  -0.00616762  0.00059622  -0.02094710  1
  Ti  Ti148  1  0.00046345  0.39286962  0.50054869  1
  Ti  Ti149  1  0.70099183  0.90213191  0.12092127  1
  Ti  Ti150  1  0.50890582  0.91414486  0.37885842  1
  Ti  Ti151  1  0.79405240  -0.00896278  0.75993339  1
  Ti  Ti152  1  0.90244626  0.29505068  0.10725558  1
  Ti  Ti153  1  0.89598411  0.71539995  0.38487183  1
  Ti  Ti154  1  0.71610264  0.89974715  0.61725378  1
  Ti  Ti155  1  0.30490775  0.30090033  0.88679786  1
  Ti  Ti156  1  0.30212529  0.91476007  0.38827550  1
  Ti  Ti157  1  0.19809320  0.20079075  -0.01793275  1
  Ti  Ti158  1  0.30289501  0.91040657  0.11423653  1
  Ti  Ti159  1  0.19773816  0.39996650  0.76113208  1
  Mo  Mo160  1  0.79441598  0.00211832  0.51094992  1
  Mo  Mo161  1  0.50017768  0.90095410  0.63272635  1
  Mo  Mo162  1  0.69873340  0.09437399  0.64305320  1
  Mo  Mo163  1  -0.00408936  0.19933718  -0.02055283  1
  Mo  Mo164  1  0.69038220  0.69987509  0.89029735  1
  Mo  Mo165  1  0.09528605  0.71191307  0.37765479  1
  Mo  Mo166  1  0.69933793  0.09458468  0.86357139  1
  Mo  Mo167  1  0.59725322  0.60002886  0.26072126  1
  Mo  Mo168  1  0.20794061  0.00064560  -0.02088612  1
  Mo  Mo169  1  0.10186211  0.10793111  0.37439199  1
  Mo  Mo170  1  0.30267985  0.70635109  0.38412002  1
  Mo  Mo171  1  0.10324995  0.30226778  0.88435649  1
  Mo  Mo172  1  0.29878109  0.69577795  0.60428721  1
  Mo  Mo173  1  0.60785563  -0.00827531  0.73828446  1
  Mo  Mo174  1  0.50061789  0.89973395  0.85628282  1
  Mo  Mo175  1  -0.00433862  0.00208853  0.53144013  1
  Mo  Mo176  1  0.40193314  0.19429631  -0.02351549  1
  Mo  Mo177  1  0.60684704  0.40328671  0.00939774  1
  Mo  Mo178  1  0.89471745  0.90280984  0.62664867  1
  Mo  Mo179  1  0.09939099  0.69755891  0.86629958  1
  Mo  Mo180  1  0.40155358  0.00580006  0.26577454  1
  Mo  Mo181  1  0.39875321  0.19948323  0.51870258  1
  Mo  Mo182  1  0.59769070  0.19825182  0.75822606  1
  Mo  Mo183  1  0.69781792  0.70109081  0.60422516  1
  Mo  Mo184  1  0.31119742  0.70393064  0.88383605  1
  Mo  Mo185  1  0.69625888  0.29973135  0.37593125  1
  Mo  Mo186  1  0.19912674  0.80697242  0.75523304  1
  Mo  Mo187  1  0.80117933  0.60051870  0.77146647  1
  Mo  Mo188  1  0.49486485  0.09169908  0.36838089  1
  Mo  Mo189  1  0.79735470  0.19361852  0.76683555  1
  Mo  Mo190  1  0.90405528  0.49727826  0.88858312  1
  Mo  Mo191  1  0.00190042  0.20036591  0.76303953  1
  Mo  Mo192  1  -0.01587238  0.38123351  0.24621185  1
  Mo  Mo193  1  0.79467236  0.79876526  0.50055919  1
  Mo  Mo194  1  0.89246799  0.69638630  0.87184815  1
  Mo  Mo195  1  0.90658851  0.29638325  0.87689106  1
  Mo  Mo196  1  0.01299418  0.39754593  0.76453170  1
  Mo  Mo197  1  0.90291072  0.29538857  0.37328775  1
  Mo  Mo198  1  -0.00214646  0.39572716  -0.01334860  1
  Mo  Mo199  1  0.89273829  0.90570467  0.87404922  1
