# generated using pymatgen
data_HfZrTaTiMo
_symmetry_space_group_name_H-M   'P 1'
_cell_length_a   15.93543758
_cell_length_b   15.92477179
_cell_length_c   15.21279317
_cell_angle_alpha   89.95549132
_cell_angle_beta   89.97335332
_cell_angle_gamma   90.00159483
_symmetry_Int_Tables_number   1
_chemical_formula_structural   HfZrTaTiMo
_chemical_formula_sum   'Hf40 Zr40 Ta40 Ti40 Mo40'
_cell_volume   3860.52166077
_cell_formula_units_Z   40
loop_
 _symmetry_equiv_pos_site_id
 _symmetry_equiv_pos_as_xyz
  1  'x, y, z'
loop_
 _atom_site_type_symbol
 _atom_site_label
 _atom_site_symmetry_multiplicity
 _atom_site_fract_x
 _atom_site_fract_y
 _atom_site_fract_z
 _atom_site_occupancy
  Hf  Hf0  1  0.79923061  0.00985486  0.01204056  1
  Hf  Hf1  1  0.41843119  0.58611509  0.00561003  1
  Hf  Hf2  1  0.20394322  0.59123031  0.51957572  1
  Hf  Hf3  1  0.60402128  0.20242010  0.50657420  1
  Hf  Hf4  1  -0.00382132  0.58333968  0.51022398  1
  Hf  Hf5  1  0.00332258  0.79882965  0.25990574  1
  Hf  Hf6  1  0.49651490  0.90685823  0.61921243  1
  Hf  Hf7  1  0.48768082  0.69767441  0.38217146  1
  Hf  Hf8  1  0.60700636  0.40609262  0.75602985  1
  Hf  Hf9  1  0.38832952  0.00475947  0.26769190  1
  Hf  Hf10  1  -0.00590787  0.80591360  0.48882402  1
  Hf  Hf11  1  -0.00684834  0.38486934  0.00146384  1
  Hf  Hf12  1  0.39993674  0.59875933  0.75138302  1
  Hf  Hf13  1  0.69650399  0.50468463  0.12912412  1
  Hf  Hf14  1  0.89125418  0.48967904  0.12451028  1
  Hf  Hf15  1  0.50408240  0.70360476  0.87695870  1
  Hf  Hf16  1  0.00636565  0.59687524  0.00100477  1
  Hf  Hf17  1  0.00343294  0.39662642  0.51030351  1
  Hf  Hf18  1  0.90098988  0.90854299  0.13863494  1
  Hf  Hf19  1  0.10504759  0.29306833  0.86448210  1
  Hf  Hf20  1  0.20715704  -0.00331619  0.74099213  1
  Hf  Hf21  1  0.70703110  0.10296940  0.36851683  1
  Hf  Hf22  1  0.88768646  0.69371457  0.13028040  1
  Hf  Hf23  1  0.29640459  0.10280434  0.11333937  1
  Hf  Hf24  1  -0.01304840  -0.00172036  0.74230955  1
  Hf  Hf25  1  0.49782361  0.29690981  0.37226337  1
  Hf  Hf26  1  0.68962480  0.91039657  0.15058081  1
  Hf  Hf27  1  0.88506540  0.90852203  0.87314557  1
  Hf  Hf28  1  0.10691474  0.28537219  0.12112828  1
  Hf  Hf29  1  0.18645835  -0.00380819  -0.01634221  1
  Hf  Hf30  1  0.40192751  0.59703304  0.23253054  1
  Hf  Hf31  1  0.29335157  0.69804266  0.88163736  1
  Hf  Hf32  1  0.40297219  0.79936750  0.01121367  1
  Hf  Hf33  1  0.20366667  0.18520942  0.26780798  1
  Hf  Hf34  1  0.01217598  0.00636370  0.27964071  1
  Hf  Hf35  1  0.69090593  0.70188329  0.61575898  1
  Hf  Hf36  1  0.58213732  0.01346879  0.27102758  1
  Hf  Hf37  1  0.79925020  0.80702850  0.73590993  1
  Hf  Hf38  1  0.10228152  0.09003465  0.12736475  1
  Hf  Hf39  1  0.78792711  0.80765796  0.00718928  1
  Zr  Zr40  1  0.00362302  0.80113555  0.00724475  1
  Zr  Zr41  1  0.41689970  -0.00929306  -0.00186666  1
  Zr  Zr42  1  0.10559181  0.49303425  0.36464919  1
  Zr  Zr43  1  0.59980529  0.20292979  0.74774660  1
  Zr  Zr44  1  0.81085702  0.40017263  0.49841390  1
  Zr  Zr45  1  0.09618680  0.10603765  0.62608475  1
  Zr  Zr46  1  0.60420857  0.39836217  0.50304531  1
  Zr  Zr47  1  -0.00109864  0.18635030  -0.01374976  1
  Zr  Zr48  1  0.60084285  0.59802943  0.75033212  1
  Zr  Zr49  1  0.30644402  0.10571558  0.87933738  1
  Zr  Zr50  1  0.69035180  0.90854882  0.62694769  1
  Zr  Zr51  1  0.50810946  0.10011436  0.11904583  1
  Zr  Zr52  1  0.78141907  0.78617240  0.25640784  1
  Zr  Zr53  1  -0.00327974  0.20469701  0.48629707  1
  Zr  Zr54  1  0.30908248  0.50304977  0.37070865  1
  Zr  Zr55  1  0.40124193  0.39579092  0.50752969  1
  Zr  Zr56  1  0.00542457  0.60174663  0.24141302  1
  Zr  Zr57  1  0.28969266  0.90811268  0.12616749  1
  Zr  Zr58  1  0.71100983  0.09468825  0.86122822  1
  Zr  Zr59  1  0.39810369  0.79636475  0.25049576  1
  Zr  Zr60  1  0.10287974  0.89636735  0.61558725  1
  Zr  Zr61  1  -0.00587764  0.79662705  0.73376517  1
  Zr  Zr62  1  0.78502826  0.59982308  -0.00898293  1
  Zr  Zr63  1  0.00061786  0.58539353  0.74010342  1
  Zr  Zr64  1  0.59612228  0.81492022  0.00244729  1
  Zr  Zr65  1  0.10727625  0.69243517  0.38914085  1
  Zr  Zr66  1  0.30091964  0.89523399  0.86808213  1
  Zr  Zr67  1  0.20963409  0.20761348  0.50779077  1
  Zr  Zr68  1  0.88732319  0.69080246  0.60693759  1
  Zr  Zr69  1  0.81352490  0.20750316  0.00195295  1
  Zr  Zr70  1  0.79655093  0.59339096  0.75609616  1
  Zr  Zr71  1  0.20296289  0.39553693  0.51272618  1
  Zr  Zr72  1  0.87804370  0.91382348  0.36623507  1
  Zr  Zr73  1  0.19940639  0.79704564  0.26387995  1
  Zr  Zr74  1  0.28776856  0.69417455  0.11108214  1
  Zr  Zr75  1  0.30545133  0.29531578  0.11694422  1
  Zr  Zr76  1  0.90155694  0.70246989  0.87560060  1
  Zr  Zr77  1  0.30477028  0.29750832  0.87587639  1
  Zr  Zr78  1  0.59302065  0.59195493  0.49779472  1
  Zr  Zr79  1  0.39426937  0.79810247  0.73910475  1
  Ta  Ta80  1  0.50329804  0.29883444  0.87869838  1
  Ta  Ta81  1  0.69267784  0.71265050  0.86936337  1
  Ta  Ta82  1  0.29841224  0.49710925  0.87624516  1
  Ta  Ta83  1  0.59906377  0.61490720  0.24243780  1
  Ta  Ta84  1  0.80423885  0.20920611  0.25055203  1
  Ta  Ta85  1  0.70812785  0.30848461  0.88168216  1
  Ta  Ta86  1  0.30577332  0.49305694  0.64244202  1
  Ta  Ta87  1  0.30007443  0.89669524  0.60840066  1
  Ta  Ta88  1  0.59567719  0.41663151  -0.00783930  1
  Ta  Ta89  1  0.79167877  0.80547532  0.49218163  1
  Ta  Ta90  1  0.49822057  0.49715685  0.63416872  1
  Ta  Ta91  1  0.90573467  0.10132682  0.14498089  1
  Ta  Ta92  1  0.10576657  0.49462711  0.12387156  1
  Ta  Ta93  1  0.19773844  0.40130192  -0.00262707  1
  Ta  Ta94  1  -0.00801708  0.00806057  0.49508342  1
  Ta  Ta95  1  0.80215200  0.40199187  0.75366819  1
  Ta  Ta96  1  0.20168184  0.59945148  0.74522372  1
  Ta  Ta97  1  0.79917426  0.01128242  0.50970812  1
  Ta  Ta98  1  0.19998818  0.00271881  0.49084072  1
  Ta  Ta99  1  0.09778150  0.29989192  0.64975469  1
  Ta  Ta100  1  0.40941700  0.19584828  0.24817864  1
  Ta  Ta101  1  0.50374963  0.10280261  0.86898502  1
  Ta  Ta102  1  0.60774839  0.20540370  -0.00541135  1
  Ta  Ta103  1  0.30762227  0.30086245  0.36292772  1
  Ta  Ta104  1  -0.00372661  -0.00062401  -0.01152415  1
  Ta  Ta105  1  0.20641576  0.39704975  0.23868775  1
  Ta  Ta106  1  0.00004080  0.20078327  0.26634115  1
  Ta  Ta107  1  0.59653990  0.80574285  0.48724442  1
  Ta  Ta108  1  0.10569879  0.70115213  0.86307774  1
  Ta  Ta109  1  0.00092197  0.38974664  0.24130703  1
  Ta  Ta110  1  0.59380194  0.01058570  0.49359124  1
  Ta  Ta111  1  0.89820428  0.49906059  0.36036534  1
  Ta  Ta112  1  0.80637936  0.20424096  0.49377046  1
  Ta  Ta113  1  0.09815751  0.90218582  0.13207010  1
  Ta  Ta114  1  0.70261441  0.50334788  0.36217660  1
  Ta  Ta115  1  0.09678519  0.89037809  0.85929962  1
  Ta  Ta116  1  0.89778786  0.48523945  0.88129941  1
  Ta  Ta117  1  0.71492814  0.29711150  0.63271597  1
  Ta  Ta118  1  0.90527153  0.29425849  0.64511496  1
  Ta  Ta119  1  0.70317927  0.30873694  0.11627075  1
  Ti  Ti120  1  0.31486459  0.10757270  0.39521673  1
  Ti  Ti121  1  0.49801233  0.30124509  0.63684478  1
  Ti  Ti122  1  0.59903884  0.40038986  0.24568981  1
  Ti  Ti123  1  0.40400758  0.19653627  0.52448388  1
  Ti  Ti124  1  0.88800041  0.68681368  0.37846811  1
  Ti  Ti125  1  0.51049172  0.30529413  0.11720238  1
  Ti  Ti126  1  0.60643795  0.00444342  -0.00719531  1
  Ti  Ti127  1  0.41349801  0.20289145  0.00182960  1
  Ti  Ti128  1  0.69510297  0.69357465  0.38392181  1
  Ti  Ti129  1  0.80114699  0.39382628  0.25285546  1
  Ti  Ti130  1  0.20178720  0.40350660  0.75000617  1
  Ti  Ti131  1  0.40174757  0.02064450  0.73079289  1
  Ti  Ti132  1  0.10013912  0.09921092  0.85725052  1
  Ti  Ti133  1  0.22121299  0.19428535  0.73481295  1
  Ti  Ti134  1  0.10042748  0.49500374  0.86991132  1
  Ti  Ti135  1  0.18569120  0.79929508  0.00325071  1
  Ti  Ti136  1  0.39509106  0.59967691  0.51622845  1
  Ti  Ti137  1  0.50711066  0.90864251  0.85003349  1
  Ti  Ti138  1  0.20320119  0.59950607  0.24277396  1
  Ti  Ti139  1  0.48856695  0.90138587  0.38913892  1
  Ti  Ti140  1  0.89005332  0.11012345  0.63641404  1
  Ti  Ti141  1  0.71163515  0.50197716  0.61391976  1
  Ti  Ti142  1  0.50302885  0.49759604  0.36213852  1
  Ti  Ti143  1  0.10821786  0.30367708  0.36764437  1
  Ti  Ti144  1  0.40487986  0.39670060  0.75868642  1
  Ti  Ti145  1  0.29727268  0.49296851  0.11447601  1
  Ti  Ti146  1  0.70052227  0.10937121  0.13413377  1
  Ti  Ti147  1  0.10879215  0.70250208  0.62613217  1
  Ti  Ti148  1  0.19178367  0.59349686  -0.00482042  1
  Ti  Ti149  1  0.19894508  -0.00660331  0.28152223  1
  Ti  Ti150  1  0.68939703  0.90558459  0.85190462  1
  Ti  Ti151  1  0.30255851  0.88429690  0.40018995  1
  Ti  Ti152  1  0.40843966  0.40245648  -0.00111484  1
  Ti  Ti153  1  0.49916321  0.70628508  0.61896838  1
  Ti  Ti154  1  0.50295266  0.89743321  0.14556345  1
  Ti  Ti155  1  0.40483509  0.39726943  0.23618798  1
  Ti  Ti156  1  0.70197492  0.10366600  0.63194612  1
  Ti  Ti157  1  0.70246145  0.30461206  0.37108342  1
  Ti  Ti158  1  0.60195283  0.21093922  0.24652499  1
  Ti  Ti159  1  0.69043638  0.90468288  0.37211367  1
  Mo  Mo160  1  0.59158831  0.80265558  0.27366071  1
  Mo  Mo161  1  0.10335457  0.49119024  0.64356024  1
  Mo  Mo162  1  0.30587569  0.09368861  0.61295253  1
  Mo  Mo163  1  0.10568923  0.10456370  0.39071417  1
  Mo  Mo164  1  0.30756621  0.30072692  0.64649677  1
  Mo  Mo165  1  0.19835659  0.79293997  0.73874514  1
  Mo  Mo166  1  0.29840125  0.69789379  0.61916194  1
  Mo  Mo167  1  0.79684738  0.39743557  -0.00638804  1
  Mo  Mo168  1  0.89293295  0.90780741  0.60190159  1
  Mo  Mo169  1  0.90193171  0.09654821  0.86037676  1
  Mo  Mo170  1  0.10417890  0.90156321  0.39074531  1
  Mo  Mo171  1  0.20366119  0.79446997  0.50057270  1
  Mo  Mo172  1  0.19946636  0.19668259  -0.01289227  1
  Mo  Mo173  1  0.79750597  0.00390424  0.72809280  1
  Mo  Mo174  1  0.50525602  0.49083319  0.13807845  1
  Mo  Mo175  1  0.49686058  0.49366602  0.86691833  1
  Mo  Mo176  1  0.79661179  0.59587562  0.48206455  1
  Mo  Mo177  1  0.30258620  0.69466632  0.39567931  1
  Mo  Mo178  1  0.40517250  0.20227006  0.73985961  1
  Mo  Mo179  1  0.89975820  0.30750629  0.36076760  1
  Mo  Mo180  1  0.90138185  0.29547043  0.14000705  1
  Mo  Mo181  1  0.39831331  0.00314472  0.49555373  1
  Mo  Mo182  1  -0.00205409  0.19444858  0.76009858  1
  Mo  Mo183  1  0.90017501  0.29800203  0.85634717  1
  Mo  Mo184  1  0.89477721  0.48788515  0.63050453  1
  Mo  Mo185  1  0.79251811  0.01250811  0.23993097  1
  Mo  Mo186  1  0.50450215  0.09958405  0.61892807  1
  Mo  Mo187  1  0.59592164  0.80107569  0.74994194  1
  Mo  Mo188  1  0.10210272  0.69770560  0.12227464  1
  Mo  Mo189  1  0.39988015  0.79457202  0.50889415  1
  Mo  Mo190  1  0.00004754  0.39688635  0.75490743  1
  Mo  Mo191  1  0.49618321  0.11037924  0.38891492  1
  Mo  Mo192  1  0.80178986  0.20401981  0.75514422  1
  Mo  Mo193  1  0.59782079  0.60773686  0.01005715  1
  Mo  Mo194  1  0.79424684  0.59705400  0.26066508  1
  Mo  Mo195  1  0.59221983  0.00641942  0.74607968  1
  Mo  Mo196  1  0.50899362  0.70061206  0.12402338  1
  Mo  Mo197  1  0.68741390  0.70416036  0.12505216  1
  Mo  Mo198  1  0.69695687  0.50151816  0.88620932  1
  Mo  Mo199  1  0.89455199  0.10684116  0.37127754  1
