# generated using pymatgen
data_HfZrTaTiMo
_symmetry_space_group_name_H-M   'P 1'
_cell_length_a   15.93102964
_cell_length_b   15.93255537
_cell_length_c   15.21524723
_cell_angle_alpha   89.98730779
_cell_angle_beta   89.98854915
_cell_angle_gamma   89.90097574
_symmetry_Int_Tables_number   1
_chemical_formula_structural   HfZrTaTiMo
_chemical_formula_sum   'Hf40 Zr40 Ta40 Ti40 Mo40'
_cell_volume   3861.95872378
_cell_formula_units_Z   40
loop_
 _symmetry_equiv_pos_site_id
 _symmetry_equiv_pos_as_xyz
  1  'x, y, z'
loop_
 _atom_site_type_symbol
 _atom_site_label
 _atom_site_symmetry_multiplicity
 _atom_site_fract_x
 _atom_site_fract_y
 _atom_site_fract_z
 _atom_site_occupancy
  Hf  Hf0  1  0.08920732  0.70605306  0.61857661  1
  Hf  Hf1  1  0.39769813  0.60505716  0.73737378  1
  Hf  Hf2  1  0.20649152  0.40386488  0.50491170  1
  Hf  Hf3  1  0.31146161  0.28671908  0.86588596  1
  Hf  Hf4  1  0.89952153  0.49212632  0.36449852  1
  Hf  Hf5  1  0.89248335  0.90598307  0.37160133  1
  Hf  Hf6  1  0.29389093  0.09733231  0.13944522  1
  Hf  Hf7  1  0.49705194  0.70390181  0.88195629  1
  Hf  Hf8  1  0.10596775  0.09559734  0.89984303  1
  Hf  Hf9  1  0.30367376  0.49740800  0.35309727  1
  Hf  Hf10  1  0.39949417  -0.00882500  0.00666767  1
  Hf  Hf11  1  -0.00350496  0.80489179  0.00772657  1
  Hf  Hf12  1  0.09927351  0.49729544  0.35261995  1
  Hf  Hf13  1  0.10682837  0.70032862  0.88868297  1
  Hf  Hf14  1  0.51588342  0.10943410  0.37586074  1
  Hf  Hf15  1  0.19833454  0.80594040  0.74909070  1
  Hf  Hf16  1  0.38815484  -0.00060782  0.74524419  1
  Hf  Hf17  1  0.40166316  0.58503229  0.52255918  1
  Hf  Hf18  1  0.50592283  0.90079195  0.59912784  1
  Hf  Hf19  1  0.59118547  -0.00380243  0.75671867  1
  Hf  Hf20  1  0.60380412  0.79980954  0.25474871  1
  Hf  Hf21  1  0.39906096  0.40572902  0.74262267  1
  Hf  Hf22  1  0.09160739  0.50256826  0.63496722  1
  Hf  Hf23  1  0.28860687  0.90854064  0.60496472  1
  Hf  Hf24  1  0.19961830  0.80809801  0.02590984  1
  Hf  Hf25  1  0.50313270  0.09542386  0.13639322  1
  Hf  Hf26  1  0.30090706  0.50967450  0.88310313  1
  Hf  Hf27  1  0.39144566  0.20740482  0.01553222  1
  Hf  Hf28  1  0.80915406  0.20029174  0.24032950  1
  Hf  Hf29  1  0.39682159  0.20365629  0.48189453  1
  Hf  Hf30  1  -0.01685150  0.02161854  0.48480775  1
  Hf  Hf31  1  0.21097858  0.39009443  0.00627397  1
  Hf  Hf32  1  0.28814816  0.70626161  0.61286547  1
  Hf  Hf33  1  0.19479318  0.01122666  0.47299515  1
  Hf  Hf34  1  0.60842532  0.39891887  0.23928413  1
  Hf  Hf35  1  0.90578744  0.50052904  0.12272521  1
  Hf  Hf36  1  0.09457307  0.10839063  0.61306620  1
  Hf  Hf37  1  0.49386250  0.28464957  0.64057009  1
  Hf  Hf38  1  0.91411794  0.28575985  0.38455074  1
  Hf  Hf39  1  0.70153757  0.10058255  0.11377977  1
  Zr  Zr40  1  0.29345833  0.89918951  0.88232333  1
  Zr  Zr41  1  0.70811346  0.70838765  0.11488627  1
  Zr  Zr42  1  0.59867564  0.59950010  0.23007310  1
  Zr  Zr43  1  0.59661213  0.60124521  0.00558912  1
  Zr  Zr44  1  0.39927977  0.79265733  0.02232878  1
  Zr  Zr45  1  0.69871278  0.49966168  0.37777709  1
  Zr  Zr46  1  0.80320712  0.80518736  -0.00382618  1
  Zr  Zr47  1  0.40552843  0.80365980  0.74040561  1
  Zr  Zr48  1  0.50926096  0.29848652  0.12857178  1
  Zr  Zr49  1  0.19186810  0.39962278  0.75729268  1
  Zr  Zr50  1  0.59405795  0.19899909  -0.01738216  1
  Zr  Zr51  1  0.29783602  0.69430633  0.36303550  1
  Zr  Zr52  1  0.69308766  0.89390794  0.87219382  1
  Zr  Zr53  1  0.91643541  0.29539549  0.62766268  1
  Zr  Zr54  1  0.89834961  0.91196105  0.61980948  1
  Zr  Zr55  1  0.90060983  0.51065995  0.64262764  1
  Zr  Zr56  1  0.80714541  0.17167444  0.50940146  1
  Zr  Zr57  1  0.00440668  0.37446382  0.23311334  1
  Zr  Zr58  1  0.50157009  0.49596417  0.37031954  1
  Zr  Zr59  1  0.80474844  0.19621768  0.75163802  1
  Zr  Zr60  1  0.50789912  0.69163735  0.38570451  1
  Zr  Zr61  1  0.70335645  0.70039174  0.62219587  1
  Zr  Zr62  1  0.80044518  0.60569408  0.25259012  1
  Zr  Zr63  1  0.19277850  0.59571992  0.49577220  1
  Zr  Zr64  1  0.69981134  0.29310719  0.38191758  1
  Zr  Zr65  1  0.59876398  0.39880105  0.52475347  1
  Zr  Zr66  1  0.59701379  0.59722274  0.73940319  1
  Zr  Zr67  1  0.19382823  0.19323566  0.75353152  1
  Zr  Zr68  1  0.79721210  0.39682743  0.52072339  1
  Zr  Zr69  1  0.48045367  0.10839977  0.86599233  1
  Zr  Zr70  1  0.39744482  0.80216078  0.48655669  1
  Zr  Zr71  1  0.40047883  0.39551243  0.50260678  1
  Zr  Zr72  1  0.90690694  0.10797663  0.89063061  1
  Zr  Zr73  1  0.70229647  0.50054262  0.87144457  1
  Zr  Zr74  1  0.09344257  0.12449988  0.35815555  1
  Zr  Zr75  1  0.80466620  0.79901769  0.75598158  1
  Zr  Zr76  1  0.00404245  0.81381373  0.75947530  1
  Zr  Zr77  1  -0.00360067  -0.01052506  0.02289451  1
  Zr  Zr78  1  0.08961120  0.69586379  0.13502187  1
  Zr  Zr79  1  0.70171292  0.90265572  0.61946607  1
  Ta  Ta80  1  0.09220268  0.69773970  0.35902443  1
  Ta  Ta81  1  0.29355451  0.29064136  0.62750862  1
  Ta  Ta82  1  0.09402588  0.29095035  0.89735051  1
  Ta  Ta83  1  0.49733374  0.09644922  0.61728201  1
  Ta  Ta84  1  0.20155589  0.59716009  0.23303853  1
  Ta  Ta85  1  0.40516473  0.79821827  0.25137702  1
  Ta  Ta86  1  0.71052764  0.48963172  0.10657368  1
  Ta  Ta87  1  0.19832865  0.60277324  0.75095838  1
  Ta  Ta88  1  0.30764744  0.49557069  0.12673717  1
  Ta  Ta89  1  0.81065150  0.59517148  -0.01077881  1
  Ta  Ta90  1  0.59260064  -0.00731975  -0.00637263  1
  Ta  Ta91  1  0.29861008  0.10485122  0.61161743  1
  Ta  Ta92  1  0.90336210  0.70109834  0.62068982  1
  Ta  Ta93  1  0.70321591  0.29721117  0.87449725  1
  Ta  Ta94  1  -0.00774884  0.00623745  0.24460744  1
  Ta  Ta95  1  0.49754809  0.49663784  0.87543133  1
  Ta  Ta96  1  0.18997122  -0.00009489  0.74221602  1
  Ta  Ta97  1  0.90407207  0.69609043  0.87806381  1
  Ta  Ta98  1  -0.01025549  0.80151487  0.25393807  1
  Ta  Ta99  1  0.80233661  0.59867548  0.49975623  1
  Ta  Ta100  1  0.09792788  0.49972511  0.11497135  1
  Ta  Ta101  1  0.69808089  0.90226133  0.38542782  1
  Ta  Ta102  1  0.50275748  0.90576199  0.14317777  1
  Ta  Ta103  1  0.20921114  0.60382892  0.01719665  1
  Ta  Ta104  1  0.79940109  -0.00261348  -0.00250631  1
  Ta  Ta105  1  0.40853230  0.39985650  0.00085067  1
  Ta  Ta106  1  -0.00793949  0.60262719  0.48449656  1
  Ta  Ta107  1  0.40024072  0.20668651  0.26023296  1
  Ta  Ta108  1  0.09903064  0.10455553  0.12554428  1
  Ta  Ta109  1  0.80103557  0.39758504  0.75409750  1
  Ta  Ta110  1  0.70991517  0.30118597  0.10000661  1
  Ta  Ta111  1  0.29248583  0.90395117  0.35835143  1
  Ta  Ta112  1  0.18368246  0.80864779  0.47435206  1
  Ta  Ta113  1  0.29593638  0.90288968  0.15298840  1
  Ta  Ta114  1  0.00639501  0.40806225  0.49780969  1
  Ta  Ta115  1  0.39615749  0.00876087  0.47881945  1
  Ta  Ta116  1  0.28682230  0.09271939  0.89162533  1
  Ta  Ta117  1  0.09893623  0.50468289  0.89209302  1
  Ta  Ta118  1  0.60245915  0.19674088  0.75167856  1
  Ta  Ta119  1  0.80442082  0.79521542  0.49231786  1
  Ti  Ti120  1  -0.00298662  0.40064213  -0.00682934  1
  Ti  Ti121  1  0.29916645  0.70061607  0.87943184  1
  Ti  Ti122  1  0.10448898  0.91116787  0.88444626  1
  Ti  Ti123  1  -0.00258846  0.39576433  0.77371046  1
  Ti  Ti124  1  0.69854229  0.69828187  0.38983095  1
  Ti  Ti125  1  0.60932493  0.00233811  0.25863192  1
  Ti  Ti126  1  0.40714050  0.39529425  0.24011772  1
  Ti  Ti127  1  0.40260843  0.59922639  0.01768968  1
  Ti  Ti128  1  0.81121772  0.39699749  -0.02163430  1
  Ti  Ti129  1  0.20118399  0.39480878  0.22961814  1
  Ti  Ti130  1  0.79632961  0.79607794  0.26189040  1
  Ti  Ti131  1  0.70911274  0.08623301  0.64142056  1
  Ti  Ti132  1  0.00157377  0.60397936  0.76584021  1
  Ti  Ti133  1  0.61435027  0.01437605  0.49524805  1
  Ti  Ti134  1  0.58922044  0.79637056  0.74586948  1
  Ti  Ti135  1  0.59618006  0.39821158  -0.00955857  1
  Ti  Ti136  1  0.69976385  0.69827145  0.87462063  1
  Ti  Ti137  1  0.88527676  0.89803562  0.14191997  1
  Ti  Ti138  1  0.79383672  0.00727236  0.25336297  1
  Ti  Ti139  1  0.80050927  0.39003438  0.23873647  1
  Ti  Ti140  1  0.00495425  0.20188277  0.75741132  1
  Ti  Ti141  1  0.29075483  0.29989565  0.36314702  1
  Ti  Ti142  1  0.60429873  0.39366808  0.74726045  1
  Ti  Ti143  1  0.59043827  0.80869807  0.00748939  1
  Ti  Ti144  1  0.69645381  0.90602167  0.12656980  1
  Ti  Ti145  1  -0.00118557  0.00711256  0.75410776  1
  Ti  Ti146  1  0.10098011  0.29890003  0.61472680  1
  Ti  Ti147  1  0.40878114  0.60365086  0.22446526  1
  Ti  Ti148  1  0.61118757  0.19989269  0.51667656  1
  Ti  Ti149  1  0.89896531  0.28811449  0.09634601  1
  Ti  Ti150  1  0.09413416  0.90708697  0.61042405  1
  Ti  Ti151  1  0.90237617  0.69317068  0.12300076  1
  Ti  Ti152  1  0.10538634  0.30234727  0.38513110  1
  Ti  Ti153  1  0.40141134  0.00533242  0.26852216  1
  Ti  Ti154  1  0.60098798  0.59213650  0.52408373  1
  Ti  Ti155  1  0.19333391  0.21664200  0.23322284  1
  Ti  Ti156  1  0.61177112  0.20293326  0.24954115  1
  Ti  Ti157  1  0.70323725  0.09492675  0.87704492  1
  Ti  Ti158  1  -0.00210973  0.80129116  0.48133853  1
  Ti  Ti159  1  0.50620106  0.90396781  0.37706015  1
  Mo  Mo160  1  0.80662260  -0.00094695  0.77518298  1
  Mo  Mo161  1  0.19178721  0.00279822  0.25305510  1
  Mo  Mo162  1  0.89436693  0.09393028  0.12362241  1
  Mo  Mo163  1  0.50536280  0.29833798  0.36109073  1
  Mo  Mo164  1  0.50342909  0.30720760  0.86206502  1
  Mo  Mo165  1  0.70712270  0.49755852  0.64153886  1
  Mo  Mo166  1  0.79517825  0.00150625  0.49075623  1
  Mo  Mo167  1  0.90582014  0.30255163  0.87834778  1
  Mo  Mo168  1  -0.00214409  0.59842816  0.25666597  1
  Mo  Mo169  1  0.39388352  0.19004704  0.73971761  1
  Mo  Mo170  1  0.90723726  0.50030399  0.86805127  1
  Mo  Mo171  1  0.50324857  0.70279276  0.61184049  1
  Mo  Mo172  1  0.19959468  -0.00500320  0.02951927  1
  Mo  Mo173  1  0.89743709  0.70184528  0.38297989  1
  Mo  Mo174  1  0.20470429  0.20987809  0.49539308  1
  Mo  Mo175  1  0.70217995  0.09565882  0.36577126  1
  Mo  Mo176  1  0.10191913  0.29934236  0.10361189  1
  Mo  Mo177  1  0.69928234  0.29144802  0.64579181  1
  Mo  Mo178  1  0.30365196  0.30235164  0.13977603  1
  Mo  Mo179  1  0.50138625  0.70673825  0.12687019  1
  Mo  Mo180  1  0.19479710  0.80066717  0.25613460  1
  Mo  Mo181  1  0.50153026  0.49606901  0.11050576  1
  Mo  Mo182  1  0.00079945  0.20017579  0.01268765  1
  Mo  Mo183  1  0.89759797  0.10320545  0.35277619  1
  Mo  Mo184  1  0.28945337  0.49910190  0.64014044  1
  Mo  Mo185  1  0.60500249  0.79901145  0.48672522  1
  Mo  Mo186  1  0.90588431  0.09386967  0.64700236  1
  Mo  Mo187  1  0.09144879  0.90196863  0.36265724  1
  Mo  Mo188  1  0.30066546  0.69779004  0.14090230  1
  Mo  Mo189  1  0.09847414  0.90102642  0.15440127  1
  Mo  Mo190  1  0.90427042  0.90502571  0.87315367  1
  Mo  Mo191  1  0.20271738  0.19773257  0.01062189  1
  Mo  Mo192  1  0.00422775  0.20681687  0.50515388  1
  Mo  Mo193  1  0.00118088  0.59796673  -0.00595469  1
  Mo  Mo194  1  0.29743844  0.10677254  0.35779847  1
  Mo  Mo195  1  0.50325712  0.49370117  0.63872362  1
  Mo  Mo196  1  -0.00292305  0.20005336  0.22283180  1
  Mo  Mo197  1  0.79740638  0.20075991  -0.00684317  1
  Mo  Mo198  1  0.80653326  0.60395565  0.76453910  1
  Mo  Mo199  1  0.49962146  0.89609090  0.87988223  1
