# generated using pymatgen
data_HfZrTaTiMo
_symmetry_space_group_name_H-M   'P 1'
_cell_length_a   15.93308156
_cell_length_b   15.92935685
_cell_length_c   15.19913613
_cell_angle_alpha   90.03264775
_cell_angle_beta   89.98691010
_cell_angle_gamma   90.07719455
_symmetry_Int_Tables_number   1
_chemical_formula_structural   HfZrTaTiMo
_chemical_formula_sum   'Hf40 Zr40 Ta40 Ti40 Mo40'
_cell_volume   3857.59339329
_cell_formula_units_Z   40
loop_
 _symmetry_equiv_pos_site_id
 _symmetry_equiv_pos_as_xyz
  1  'x, y, z'
loop_
 _atom_site_type_symbol
 _atom_site_label
 _atom_site_symmetry_multiplicity
 _atom_site_fract_x
 _atom_site_fract_y
 _atom_site_fract_z
 _atom_site_occupancy
  Hf  Hf0  1  0.71384060  0.09445780  0.13821143  1
  Hf  Hf1  1  0.78493430  0.59182886  0.49820792  1
  Hf  Hf2  1  0.39103573  0.80367821  0.24634491  1
  Hf  Hf3  1  0.50916006  0.30488097  0.61181721  1
  Hf  Hf4  1  0.70012455  0.90876980  0.13068494  1
  Hf  Hf5  1  0.81195133  0.21819034  0.76046308  1
  Hf  Hf6  1  0.49683661  0.89535257  0.64245342  1
  Hf  Hf7  1  0.59278399  0.38701230  0.00610870  1
  Hf  Hf8  1  0.90459897  0.70578705  0.39127074  1
  Hf  Hf9  1  0.29779092  0.10938154  0.63517215  1
  Hf  Hf10  1  0.10306894  0.48855836  0.63128589  1
  Hf  Hf11  1  0.29604839  0.09584352  0.11840174  1
  Hf  Hf12  1  0.10472236  0.29556466  0.86683647  1
  Hf  Hf13  1  0.59777709  0.19689122  0.01134245  1
  Hf  Hf14  1  0.89987055  0.89436856  0.86670959  1
  Hf  Hf15  1  0.49316501  0.51476630  0.11482212  1
  Hf  Hf16  1  0.09189479  0.09153296  0.11825825  1
  Hf  Hf17  1  0.28805180  0.70132880  0.38731559  1
  Hf  Hf18  1  0.40344059  0.80614651  0.49438715  1
  Hf  Hf19  1  0.79381754  0.79218865  0.74687119  1
  Hf  Hf20  1  0.78409678  0.01188801  0.50604069  1
  Hf  Hf21  1  -0.00281818  -0.00663114  0.26569070  1
  Hf  Hf22  1  0.89562832  0.48925742  0.62273897  1
  Hf  Hf23  1  0.81458464  0.59936248  0.24193451  1
  Hf  Hf24  1  0.49360764  0.29912997  0.37829892  1
  Hf  Hf25  1  -0.01417752  0.38002068  0.75018545  1
  Hf  Hf26  1  0.69889483  0.49842555  0.12435466  1
  Hf  Hf27  1  0.10759073  0.69941727  0.11264297  1
  Hf  Hf28  1  0.30699032  0.49324682  0.61094570  1
  Hf  Hf29  1  0.20142296  0.20850555  0.24864829  1
  Hf  Hf30  1  0.51285738  0.50748740  0.61039186  1
  Hf  Hf31  1  0.50019669  0.10349921  0.37566265  1
  Hf  Hf32  1  0.91427122  0.29434855  0.38271572  1
  Hf  Hf33  1  0.69328330  0.89091010  0.62683612  1
  Hf  Hf34  1  0.19635832  0.58984704  0.24797482  1
  Hf  Hf35  1  0.59769511  0.20109452  0.24329888  1
  Hf  Hf36  1  0.49736309  0.90127279  0.86928397  1
  Hf  Hf37  1  0.79224779  0.59683215  0.74293813  1
  Hf  Hf38  1  0.88876623  0.10575200  0.38448379  1
  Hf  Hf39  1  -0.00634578  0.79863993  0.00301747  1
  Zr  Zr40  1  -0.00162208  0.58992767  0.01135601  1
  Zr  Zr41  1  0.90011273  0.91752251  0.12297179  1
  Zr  Zr42  1  0.30173407  0.10351722  0.86331620  1
  Zr  Zr43  1  0.40270789  0.60221102  0.75380941  1
  Zr  Zr44  1  0.49956423  0.09796687  0.86790450  1
  Zr  Zr45  1  0.69547557  0.69957341  0.12727497  1
  Zr  Zr46  1  0.79588471  0.00542565  0.74295001  1
  Zr  Zr47  1  0.69845297  0.69619868  0.89100508  1
  Zr  Zr48  1  0.90303423  0.11356356  0.62138709  1
  Zr  Zr49  1  0.58862239  0.80198437  0.25178131  1
  Zr  Zr50  1  0.08876063  0.69874744  0.86456298  1
  Zr  Zr51  1  0.39422883  0.00483633  0.24568481  1
  Zr  Zr52  1  0.89342654  0.70604468  0.61376797  1
  Zr  Zr53  1  0.30103022  0.10923320  0.38769218  1
  Zr  Zr54  1  0.29582167  0.49466253  0.39250404  1
  Zr  Zr55  1  0.59230955  0.79719718  0.48626536  1
  Zr  Zr56  1  0.58689177  0.79774649  0.01076473  1
  Zr  Zr57  1  0.20054949  0.19528034  -0.00563534  1
  Zr  Zr58  1  0.69468529  0.10005215  0.87331713  1
  Zr  Zr59  1  0.00400340  0.79978536  0.25410670  1
  Zr  Zr60  1  0.00796796  0.59752331  0.24290255  1
  Zr  Zr61  1  0.61320518  0.39903870  0.48015299  1
  Zr  Zr62  1  0.20314897  0.79547936  0.74943345  1
  Zr  Zr63  1  0.00753598  0.40458634  0.23297445  1
  Zr  Zr64  1  0.70283821  0.70375927  0.37319066  1
  Zr  Zr65  1  0.41079432  0.39914558  0.75373889  1
  Zr  Zr66  1  0.19765846  0.80250737  0.24794739  1
  Zr  Zr67  1  0.19590019  -0.00634119  0.25724835  1
  Zr  Zr68  1  0.68924795  0.90307195  0.87672921  1
  Zr  Zr69  1  0.09537156  0.11369156  0.38945581  1
  Zr  Zr70  1  0.91508789  0.49762346  0.38602211  1
  Zr  Zr71  1  0.19614298  0.00208651  0.51754511  1
  Zr  Zr72  1  0.59404639  0.00783926  0.50460327  1
  Zr  Zr73  1  0.79439721  0.38939652  0.48738054  1
  Zr  Zr74  1  0.00101079  0.20205406  0.23970118  1
  Zr  Zr75  1  0.89956716  0.49846888  0.86881847  1
  Zr  Zr76  1  0.30847745  0.69180338  0.10986091  1
  Zr  Zr77  1  0.70256356  0.49613404  0.88736118  1
  Zr  Zr78  1  0.29731274  0.69862512  0.61635625  1
  Zr  Zr79  1  0.19788899  0.39734021  0.24457590  1
  Ta  Ta80  1  0.00067693  -0.00157648  0.51316229  1
  Ta  Ta81  1  0.59547258  0.39918392  0.24662149  1
  Ta  Ta82  1  0.80415650  0.20104986  0.00277565  1
  Ta  Ta83  1  0.70249021  0.91363733  0.36405627  1
  Ta  Ta84  1  0.41361692  0.60746889  0.48803890  1
  Ta  Ta85  1  0.39743695  0.21047649  0.23445319  1
  Ta  Ta86  1  0.20261470  0.80435851  -0.01318252  1
  Ta  Ta87  1  0.39542309  0.40093117  0.24551930  1
  Ta  Ta88  1  0.30685316  0.30036551  0.87846015  1
  Ta  Ta89  1  0.30009206  0.49898088  0.10783438  1
  Ta  Ta90  1  0.20087108  0.59454307  -0.01935034  1
  Ta  Ta91  1  0.00108215  0.00082476  0.74377701  1
  Ta  Ta92  1  0.80487074  0.00745880  -0.00905122  1
  Ta  Ta93  1  0.81194328  0.60398397  0.01609225  1
  Ta  Ta94  1  0.68066812  0.68988156  0.61506869  1
  Ta  Ta95  1  0.29572498  0.90348950  0.39339728  1
  Ta  Ta96  1  0.50269088  0.50369488  0.89004392  1
  Ta  Ta97  1  0.49732043  0.49838894  0.37290733  1
  Ta  Ta98  1  0.09651586  0.89963555  0.86300664  1
  Ta  Ta99  1  0.80995912  0.80761031  0.25239195  1
  Ta  Ta100  1  0.39661435  0.60030157  0.25764900  1
  Ta  Ta101  1  0.58821544  0.60122456  0.25547149  1
  Ta  Ta102  1  0.00218666  0.39535500  0.00054675  1
  Ta  Ta103  1  0.49786266  0.91255040  0.12514684  1
  Ta  Ta104  1  0.20208462  0.59195397  0.75254462  1
  Ta  Ta105  1  0.70558125  0.30077312  0.63409760  1
  Ta  Ta106  1  -0.00604219  0.19740775  -0.00993205  1
  Ta  Ta107  1  0.40993999  0.20703102  0.00826924  1
  Ta  Ta108  1  0.40011772  0.00142410  0.00235099  1
  Ta  Ta109  1  0.10245388  0.69217868  0.40136266  1
  Ta  Ta110  1  0.29639609  0.30244936  0.39446387  1
  Ta  Ta111  1  0.20055094  -0.00744120  -0.01938873  1
  Ta  Ta112  1  0.09466750  0.89233849  0.63550001  1
  Ta  Ta113  1  0.00243106  0.00435611  -0.02102211  1
  Ta  Ta114  1  0.30534875  0.70126767  0.87720264  1
  Ta  Ta115  1  0.10448131  0.90373978  0.10743448  1
  Ta  Ta116  1  0.59873834  0.21293998  0.75623624  1
  Ta  Ta117  1  0.59710385  0.59758349  0.76119350  1
  Ta  Ta118  1  0.70781012  0.30105414  0.13162978  1
  Ta  Ta119  1  0.10267419  0.49250904  0.86321285  1
  Ti  Ti120  1  0.89654064  0.89891053  0.62076510  1
  Ti  Ti121  1  0.60306935  0.40012193  0.76220966  1
  Ti  Ti122  1  0.40244904  0.39552727  -0.00291467  1
  Ti  Ti123  1  0.89942871  0.29448257  0.12083254  1
  Ti  Ti124  1  0.10442117  0.88926386  0.39852565  1
  Ti  Ti125  1  0.50039364  0.69916006  0.62777111  1
  Ti  Ti126  1  0.39635596  0.80645546  0.00644065  1
  Ti  Ti127  1  0.70663475  0.30585124  0.88076425  1
  Ti  Ti128  1  0.90427847  0.29575559  0.60692808  1
  Ti  Ti129  1  0.90350867  0.10290435  0.86888387  1
  Ti  Ti130  1  0.10360451  0.29838264  0.10711724  1
  Ti  Ti131  1  0.30179265  0.89647969  0.62802371  1
  Ti  Ti132  1  0.18725373  0.21303805  0.52423536  1
  Ti  Ti133  1  0.00767777  0.59616049  0.51574012  1
  Ti  Ti134  1  0.63007776  0.19839866  0.48809488  1
  Ti  Ti135  1  0.89885056  0.69763914  0.86850856  1
  Ti  Ti136  1  0.39922473  0.20323038  0.51317041  1
  Ti  Ti137  1  0.21265305  0.38613740  0.74098683  1
  Ti  Ti138  1  0.30167594  0.30534442  0.11094529  1
  Ti  Ti139  1  0.10514735  0.48774495  0.40318170  1
  Ti  Ti140  1  0.50687097  0.10731366  0.63262041  1
  Ti  Ti141  1  0.49303456  0.69724795  0.88699175  1
  Ti  Ti142  1  0.39815995  0.00056544  0.74406880  1
  Ti  Ti143  1  0.19839355  -0.00154025  0.74748602  1
  Ti  Ti144  1  0.00562806  0.80164428  0.51406529  1
  Ti  Ti145  1  0.59332152  0.78339290  0.75690374  1
  Ti  Ti146  1  0.10005541  0.10002185  0.85675776  1
  Ti  Ti147  1  0.19930507  0.40286524  -0.00565065  1
  Ti  Ti148  1  0.69930181  0.49883760  0.35394649  1
  Ti  Ti149  1  0.69313605  0.49243883  0.63107882  1
  Ti  Ti150  1  0.80615575  0.39302357  0.25099303  1
  Ti  Ti151  1  0.40225382  0.21515353  0.74490947  1
  Ti  Ti152  1  0.00124808  0.60426346  0.73735755  1
  Ti  Ti153  1  0.40107679  0.00392867  0.51074816  1
  Ti  Ti154  1  0.30198904  0.49549999  0.87743931  1
  Ti  Ti155  1  0.30706695  0.89751337  0.86770545  1
  Ti  Ti156  1  0.49578404  0.91099362  0.36635516  1
  Ti  Ti157  1  0.81072100  0.39918795  0.00947400  1
  Ti  Ti158  1  0.89332299  0.89931508  0.39554662  1
  Ti  Ti159  1  0.80540279  0.79853309  0.00879091  1
  Mo  Mo160  1  0.39687330  0.59829634  -0.01600341  1
  Mo  Mo161  1  0.49979414  0.30063214  0.87301484  1
  Mo  Mo162  1  0.49059828  0.69914145  0.36163341  1
  Mo  Mo163  1  0.59925460  0.59725226  0.47664045  1
  Mo  Mo164  1  0.69078893  0.11434451  0.64140857  1
  Mo  Mo165  1  0.49958844  0.09976325  0.12304941  1
  Mo  Mo166  1  0.49485646  0.30745912  0.13446764  1
  Mo  Mo167  1  -0.00611209  0.80109705  0.73890231  1
  Mo  Mo168  1  0.19426621  0.59766442  0.51269819  1
  Mo  Mo169  1  0.59937582  0.59800367  -0.00391826  1
  Mo  Mo170  1  0.00529745  0.19864805  0.50833824  1
  Mo  Mo171  1  0.19471715  0.80327226  0.51233190  1
  Mo  Mo172  1  0.29553036  0.90090136  0.10207337  1
  Mo  Mo173  1  0.59600985  0.00400266  0.01768752  1
  Mo  Mo174  1  0.40508283  0.39839331  0.49326501  1
  Mo  Mo175  1  0.01005697  0.38748526  0.51540886  1
  Mo  Mo176  1  0.59776922  0.00350005  0.25316102  1
  Mo  Mo177  1  0.79644109  0.80958725  0.49628862  1
  Mo  Mo178  1  0.70979496  0.29428589  0.34625113  1
  Mo  Mo179  1  0.90305198  0.10048680  0.11154132  1
  Mo  Mo180  1  0.10006420  0.28811457  0.64286414  1
  Mo  Mo181  1  0.09831204  0.09686910  0.63888782  1
  Mo  Mo182  1  0.79222551  0.39676849  0.74485207  1
  Mo  Mo183  1  0.89858852  0.48777041  0.12207637  1
  Mo  Mo184  1  0.00023676  0.19503417  0.76394482  1
  Mo  Mo185  1  0.09671539  0.69315342  0.62538849  1
  Mo  Mo186  1  0.11182329  0.49554726  0.10066934  1
  Mo  Mo187  1  0.10705774  0.30821481  0.39406748  1
  Mo  Mo188  1  0.30435609  0.30012828  0.61766438  1
  Mo  Mo189  1  0.40286517  0.79706725  0.75537510  1
  Mo  Mo190  1  0.59541163  0.01089876  0.73190524  1
  Mo  Mo191  1  0.80649916  0.00189322  0.26662581  1
  Mo  Mo192  1  0.80740289  0.20562282  0.23562907  1
  Mo  Mo193  1  0.49221975  0.70039643  0.12787314  1
  Mo  Mo194  1  0.19960444  0.39081865  0.51544512  1
  Mo  Mo195  1  0.70204868  0.10137161  0.35573404  1
  Mo  Mo196  1  0.79174075  0.20351701  0.50415610  1
  Mo  Mo197  1  0.89901325  0.70630667  0.13063680  1
  Mo  Mo198  1  0.89705948  0.30103284  0.89545644  1
  Mo  Mo199  1  0.20349030  0.20453853  0.74688254  1
