# generated using pymatgen
data_HfZrTaTiMo
_symmetry_space_group_name_H-M   'P 1'
_cell_length_a   15.93784800
_cell_length_b   15.92632441
_cell_length_c   15.21080334
_cell_angle_alpha   90.07193728
_cell_angle_beta   90.08107131
_cell_angle_gamma   89.86094760
_symmetry_Int_Tables_number   1
_chemical_formula_structural   HfZrTaTiMo
_chemical_formula_sum   'Hf40 Zr40 Ta40 Ti40 Mo40'
_cell_volume   3860.96029845
_cell_formula_units_Z   40
loop_
 _symmetry_equiv_pos_site_id
 _symmetry_equiv_pos_as_xyz
  1  'x, y, z'
loop_
 _atom_site_type_symbol
 _atom_site_label
 _atom_site_symmetry_multiplicity
 _atom_site_fract_x
 _atom_site_fract_y
 _atom_site_fract_z
 _atom_site_occupancy
  Hf  Hf0  1  0.29924776  0.09791026  0.12013025  1
  Hf  Hf1  1  0.29889532  0.50109473  0.38210019  1
  Hf  Hf2  1  0.70907269  0.48490141  0.13295452  1
  Hf  Hf3  1  0.18940368  0.20434714  -0.01740098  1
  Hf  Hf4  1  0.58861223  0.40917416  0.50903908  1
  Hf  Hf5  1  0.60331912  0.60074144  0.51039831  1
  Hf  Hf6  1  0.30500859  0.69339407  0.87257190  1
  Hf  Hf7  1  0.51324105  0.89799940  0.62324160  1
  Hf  Hf8  1  0.80279435  0.21588686  -0.00773983  1
  Hf  Hf9  1  -0.00358409  0.20429523  0.26541754  1
  Hf  Hf10  1  0.50197939  0.49150106  0.14080598  1
  Hf  Hf11  1  0.10339564  0.90269961  0.12341335  1
  Hf  Hf12  1  0.40188983  0.58344106  -0.00202697  1
  Hf  Hf13  1  0.58888350  0.39670615  -0.00507756  1
  Hf  Hf14  1  0.29720982  0.69649979  0.37616733  1
  Hf  Hf15  1  0.79580044  0.20287325  0.73893748  1
  Hf  Hf16  1  -0.01718848  0.39580884  -0.02066031  1
  Hf  Hf17  1  0.81607218  0.58179714  0.00030387  1
  Hf  Hf18  1  0.20684217  -0.00044385  -0.01627030  1
  Hf  Hf19  1  0.02028377  0.59545868  0.49359992  1
  Hf  Hf20  1  0.88826706  0.31719773  0.13931362  1
  Hf  Hf21  1  0.38722782  -0.00561764  0.26792734  1
  Hf  Hf22  1  0.79716580  0.00895842  -0.00346519  1
  Hf  Hf23  1  0.80578590  0.80182697  0.25310542  1
  Hf  Hf24  1  0.40142813  0.78661527  0.72882159  1
  Hf  Hf25  1  0.01713521  0.81078456  0.75339868  1
  Hf  Hf26  1  0.91517767  0.70679773  0.11905376  1
  Hf  Hf27  1  0.90674384  0.69780467  0.61694726  1
  Hf  Hf28  1  0.50601463  0.69349799  0.36745848  1
  Hf  Hf29  1  0.39938359  0.00270040  0.51196986  1
  Hf  Hf30  1  0.39404435  0.19918078  -0.01950149  1
  Hf  Hf31  1  0.81533499  0.58661554  0.47722408  1
  Hf  Hf32  1  0.61059021  0.59140328  0.73612525  1
  Hf  Hf33  1  0.68795472  0.49861288  0.35725440  1
  Hf  Hf34  1  0.50506519  0.69483534  0.88022432  1
  Hf  Hf35  1  0.49810206  0.90677659  0.85565303  1
  Hf  Hf36  1  0.79817065  0.00383147  0.50265612  1
  Hf  Hf37  1  0.39251481  0.40572232  0.76797869  1
  Hf  Hf38  1  0.20011398  0.20270226  0.25590923  1
  Hf  Hf39  1  0.58885509  0.19672522  -0.00345788  1
  Zr  Zr40  1  0.69742315  0.10046209  0.13335650  1
  Zr  Zr41  1  0.69778548  0.90627138  0.12669537  1
  Zr  Zr42  1  0.59713798  0.80414583  0.24677039  1
  Zr  Zr43  1  0.90771307  0.90910671  0.12539659  1
  Zr  Zr44  1  0.10403116  0.10440884  0.39451821  1
  Zr  Zr45  1  0.08892624  0.30787852  0.12481285  1
  Zr  Zr46  1  0.69442706  0.29973714  0.38399089  1
  Zr  Zr47  1  0.17924285  -0.01592836  0.74028093  1
  Zr  Zr48  1  0.31622182  0.70286438  0.12817644  1
  Zr  Zr49  1  0.11294557  0.50277336  0.35764879  1
  Zr  Zr50  1  0.21233418  0.80441207  -0.00202738  1
  Zr  Zr51  1  0.11108732  0.69940382  0.13433233  1
  Zr  Zr52  1  0.19782154  0.40379134  -0.01335976  1
  Zr  Zr53  1  0.08548408  0.09975193  0.85974553  1
  Zr  Zr54  1  0.90502206  0.90338701  0.37744625  1
  Zr  Zr55  1  0.09380718  0.11107956  0.62905407  1
  Zr  Zr56  1  0.49341001  0.10597470  0.39064218  1
  Zr  Zr57  1  0.68950242  0.30125526  0.13707283  1
  Zr  Zr58  1  0.80519822  0.00075713  0.74017810  1
  Zr  Zr59  1  0.61185301  0.78945510  0.75044702  1
  Zr  Zr60  1  0.68980451  0.10020579  0.86406326  1
  Zr  Zr61  1  0.81168897  0.78497826  0.77208566  1
  Zr  Zr62  1  0.80525773  0.79705442  -0.00595167  1
  Zr  Zr63  1  0.38772274  0.20242680  0.26706820  1
  Zr  Zr64  1  0.41306540  0.59456036  0.51161805  1
  Zr  Zr65  1  0.81557080  0.59660863  0.24595705  1
  Zr  Zr66  1  0.01078043  0.58868162  0.00124064  1
  Zr  Zr67  1  0.90995830  0.50271871  0.63514735  1
  Zr  Zr68  1  0.10913666  0.90328982  0.38464852  1
  Zr  Zr69  1  0.91839733  0.91283338  0.87750589  1
  Zr  Zr70  1  0.89112391  0.31054388  0.61136259  1
  Zr  Zr71  1  0.49293927  0.09994106  0.13127037  1
  Zr  Zr72  1  0.79922912  0.40257017  0.76518247  1
  Zr  Zr73  1  0.29054793  0.30384316  0.41083309  1
  Zr  Zr74  1  0.09809968  0.10508118  0.12422213  1
  Zr  Zr75  1  0.47107889  0.30218404  0.62294492  1
  Zr  Zr76  1  0.89799243  0.88884245  0.61871844  1
  Zr  Zr77  1  0.59643939  0.80141759  0.00428166  1
  Zr  Zr78  1  0.71696487  0.70419623  0.61068927  1
  Zr  Zr79  1  0.30453421  0.48378381  0.61473216  1
  Ta  Ta80  1  0.59821458  0.20689347  0.73247695  1
  Ta  Ta81  1  0.90153867  0.11259631  0.12571681  1
  Ta  Ta82  1  0.59090553  0.20161011  0.26110951  1
  Ta  Ta83  1  0.30518162  0.89946640  0.84980733  1
  Ta  Ta84  1  -0.00174452  0.00339335  0.51539491  1
  Ta  Ta85  1  0.49425958  0.09652470  0.84636694  1
  Ta  Ta86  1  0.30103140  0.09607617  0.84361416  1
  Ta  Ta87  1  -0.00118800  0.00922833  0.25458207  1
  Ta  Ta88  1  0.29723216  0.90009527  0.62216200  1
  Ta  Ta89  1  0.59311808  0.00050943  0.26799257  1
  Ta  Ta90  1  0.20187531  0.78837004  0.51535741  1
  Ta  Ta91  1  0.11409205  0.69896792  0.36163187  1
  Ta  Ta92  1  0.69888124  0.69808609  0.36648346  1
  Ta  Ta93  1  -0.00013689  0.60926574  0.76271520  1
  Ta  Ta94  1  0.50067799  0.89479365  0.39143759  1
  Ta  Ta95  1  0.10780265  0.69940757  0.87803203  1
  Ta  Ta96  1  0.48660327  0.30040543  0.13109499  1
  Ta  Ta97  1  0.21643368  0.81360719  0.24919195  1
  Ta  Ta98  1  0.48691837  0.90693948  0.12653804  1
  Ta  Ta99  1  0.30188935  0.30183440  0.11803731  1
  Ta  Ta100  1  0.19318100  0.39802130  0.74827790  1
  Ta  Ta101  1  0.20580633  0.59634534  0.74005443  1
  Ta  Ta102  1  -0.00520742  0.40862187  0.48615908  1
  Ta  Ta103  1  0.20174061  0.79175328  0.74118517  1
  Ta  Ta104  1  0.60365537  0.00161806  0.50214125  1
  Ta  Ta105  1  0.69604723  0.10118748  0.37889394  1
  Ta  Ta106  1  0.39437738  0.39453067  -0.01529566  1
  Ta  Ta107  1  0.40546073  0.79136277  0.50962400  1
  Ta  Ta108  1  0.10289778  0.50211148  0.85933282  1
  Ta  Ta109  1  0.69413505  0.90531035  0.87170647  1
  Ta  Ta110  1  0.70064907  0.68980093  0.12761677  1
  Ta  Ta111  1  0.79915393  0.19573490  0.26253344  1
  Ta  Ta112  1  0.40787423  0.59660998  0.73949130  1
  Ta  Ta113  1  0.59682042  0.19898572  0.51670086  1
  Ta  Ta114  1  0.29695501  0.11382256  0.63071474  1
  Ta  Ta115  1  0.20549801  0.58937660  0.00490022  1
  Ta  Ta116  1  0.69008583  0.30232474  0.87078112  1
  Ta  Ta117  1  0.89252194  0.30535287  0.38124280  1
  Ta  Ta118  1  0.29859518  0.89753681  0.40072267  1
  Ta  Ta119  1  0.58596456  -0.00007793  -0.00667716  1
  Ti  Ti120  1  0.17581722  0.41177129  0.51874415  1
  Ti  Ti121  1  0.30086244  0.49033628  0.13261089  1
  Ti  Ti122  1  0.08933924  0.31136497  0.63289590  1
  Ti  Ti123  1  0.50094566  0.29366691  0.85885044  1
  Ti  Ti124  1  0.89794178  0.10456059  0.38677290  1
  Ti  Ti125  1  0.40173539  0.81287810  -0.00126313  1
  Ti  Ti126  1  0.69172086  0.09565546  0.62614708  1
  Ti  Ti127  1  0.69490776  0.90023496  0.37858725  1
  Ti  Ti128  1  0.79207881  0.19839916  0.50760966  1
  Ti  Ti129  1  0.90294809  0.10917831  0.87451869  1
  Ti  Ti130  1  0.01129460  0.80600719  0.25878813  1
  Ti  Ti131  1  0.40039281  0.59425373  0.25146298  1
  Ti  Ti132  1  0.60180740  0.39884628  0.73839270  1
  Ti  Ti133  1  0.70050980  0.68924010  0.89270289  1
  Ti  Ti134  1  0.39699602  -0.00225691  -0.01244321  1
  Ti  Ti135  1  0.80218729  0.00703367  0.25877161  1
  Ti  Ti136  1  0.28418961  0.10056840  0.40916801  1
  Ti  Ti137  1  0.39675083  0.39450560  0.26418106  1
  Ti  Ti138  1  -0.00408891  0.20889022  0.50112935  1
  Ti  Ti139  1  0.01130256  0.79449914  0.49519925  1
  Ti  Ti140  1  0.69777053  0.49777608  0.88483783  1
  Ti  Ti141  1  0.39954813  0.80897769  0.25678803  1
  Ti  Ti142  1  0.00893128  0.58827693  0.23883556  1
  Ti  Ti143  1  0.49356477  0.30349666  0.38863293  1
  Ti  Ti144  1  0.50860556  0.50094599  0.86782808  1
  Ti  Ti145  1  0.91890901  0.69736989  0.36808856  1
  Ti  Ti146  1  0.49333834  0.09926298  0.63774209  1
  Ti  Ti147  1  0.10309006  0.69220684  0.62901672  1
  Ti  Ti148  1  0.28923345  0.29155887  0.85511502  1
  Ti  Ti149  1  0.60085203  0.59427686  0.01293580  1
  Ti  Ti150  1  0.70122552  0.89418559  0.61937906  1
  Ti  Ti151  1  0.09953044  0.30540066  0.38544948  1
  Ti  Ti152  1  0.20274786  0.00054342  0.25565296  1
  Ti  Ti153  1  0.00412379  0.01081300  0.00393604  1
  Ti  Ti154  1  0.80101141  0.79451368  0.47714182  1
  Ti  Ti155  1  0.20222706  0.39524554  0.24334092  1
  Ti  Ti156  1  0.80584155  0.60127260  0.76846196  1
  Ti  Ti157  1  -0.01207278  0.21312998  0.74928362  1
  Ti  Ti158  1  0.71822230  0.48611874  0.61545339  1
  Ti  Ti159  1  0.50242707  0.69823799  0.12961150  1
  Mo  Mo160  1  -0.01112438  0.19889799  -0.00604656  1
  Mo  Mo161  1  0.50827248  0.69767591  0.61825866  1
  Mo  Mo162  1  0.91276908  0.48976638  0.14156593  1
  Mo  Mo163  1  0.10886342  0.49508239  0.13600763  1
  Mo  Mo164  1  0.28365355  0.29908082  0.62678631  1
  Mo  Mo165  1  0.09268284  0.29958966  0.85872596  1
  Mo  Mo166  1  0.00009051  0.39969528  0.76230092  1
  Mo  Mo167  1  0.20041046  -0.00114033  0.51877031  1
  Mo  Mo168  1  0.09657162  0.50101803  0.64133678  1
  Mo  Mo169  1  0.69294465  0.30121128  0.61779884  1
  Mo  Mo170  1  0.21179869  0.59833038  0.22998510  1
  Mo  Mo171  1  0.60866019  0.80122829  0.48683090  1
  Mo  Mo172  1  0.39482514  0.19919301  0.50997567  1
  Mo  Mo173  1  0.19928851  0.60420729  0.51697968  1
  Mo  Mo174  1  0.90829956  0.49594392  0.35985557  1
  Mo  Mo175  1  0.90234798  0.50247991  0.86084372  1
  Mo  Mo176  1  0.29702982  0.50272584  0.86816073  1
  Mo  Mo177  1  0.91158036  0.69928816  0.88721492  1
  Mo  Mo178  1  0.18908852  0.21142679  0.52327513  1
  Mo  Mo179  1  0.40427510  0.40383801  0.48831360  1
  Mo  Mo180  1  0.60009478  0.60299535  0.23360679  1
  Mo  Mo181  1  0.89548914  0.29415650  0.86740010  1
  Mo  Mo182  1  -0.01046645  0.00751972  0.72988749  1
  Mo  Mo183  1  0.39569339  -0.00224308  0.73020729  1
  Mo  Mo184  1  0.79990434  0.39552338  0.27026938  1
  Mo  Mo185  1  0.09789616  0.89228579  0.60588640  1
  Mo  Mo186  1  0.00187036  0.39940471  0.26566033  1
  Mo  Mo187  1  0.29964807  0.69396603  0.62318689  1
  Mo  Mo188  1  0.58497627  0.39085288  0.25757802  1
  Mo  Mo189  1  0.60262155  0.00105070  0.73241516  1
  Mo  Mo190  1  0.39552560  0.20191889  0.75320635  1
  Mo  Mo191  1  0.79249721  0.40107740  -0.01630831  1
  Mo  Mo192  1  0.30773301  0.90797329  0.12915714  1
  Mo  Mo193  1  0.01217265  0.80117665  -0.01459605  1
  Mo  Mo194  1  0.50502139  0.49558473  0.64449615  1
  Mo  Mo195  1  0.49729702  0.49626796  0.35682380  1
  Mo  Mo196  1  0.89843529  0.10894285  0.61298720  1
  Mo  Mo197  1  0.79715055  0.40533979  0.48948689  1
  Mo  Mo198  1  0.19270793  0.20809802  0.74556558  1
  Mo  Mo199  1  0.10487698  0.89711778  0.88863627  1
