# generated using pymatgen
data_HfZrTaTiMo
_symmetry_space_group_name_H-M   'P 1'
_cell_length_a   15.92808458
_cell_length_b   15.93632682
_cell_length_c   15.18967729
_cell_angle_alpha   90.00851003
_cell_angle_beta   90.00195112
_cell_angle_gamma   89.94002917
_symmetry_Int_Tables_number   1
_chemical_formula_structural   HfZrTaTiMo
_chemical_formula_sum   'Hf40 Zr40 Ta40 Ti40 Mo40'
_cell_volume   3855.67203033
_cell_formula_units_Z   40
loop_
 _symmetry_equiv_pos_site_id
 _symmetry_equiv_pos_as_xyz
  1  'x, y, z'
loop_
 _atom_site_type_symbol
 _atom_site_label
 _atom_site_symmetry_multiplicity
 _atom_site_fract_x
 _atom_site_fract_y
 _atom_site_fract_z
 _atom_site_occupancy
  Hf  Hf0  1  0.10327714  0.49016486  0.88282981  1
  Hf  Hf1  1  0.00530858  0.39522868  0.75461470  1
  Hf  Hf2  1  0.29544211  0.69090064  0.37187207  1
  Hf  Hf3  1  0.28931568  0.91318527  0.13255558  1
  Hf  Hf4  1  0.50098289  0.49566983  0.87049747  1
  Hf  Hf5  1  0.69176356  0.69194356  0.12310619  1
  Hf  Hf6  1  0.10761430  0.29464286  0.88887062  1
  Hf  Hf7  1  0.09211329  0.90582075  0.62667764  1
  Hf  Hf8  1  0.40930225  0.59375680  0.50000256  1
  Hf  Hf9  1  0.58431709  0.79183889  0.00231505  1
  Hf  Hf10  1  0.39944837  0.20494289  0.02021420  1
  Hf  Hf11  1  0.09315996  0.68509237  0.37805330  1
  Hf  Hf12  1  0.69768799  0.70033878  0.63199079  1
  Hf  Hf13  1  0.09339962  0.69053241  0.13196670  1
  Hf  Hf14  1  -0.00542425  0.80485739  0.24701734  1
  Hf  Hf15  1  0.11093387  0.50074647  0.62034267  1
  Hf  Hf16  1  0.19935245  0.60683246  -0.00568265  1
  Hf  Hf17  1  0.90224352  0.30550025  0.11110441  1
  Hf  Hf18  1  0.29758322  0.90124555  0.88561978  1
  Hf  Hf19  1  0.09399453  0.90920684  0.37275285  1
  Hf  Hf20  1  0.29760291  0.70518550  0.13648598  1
  Hf  Hf21  1  -0.00415955  0.79584799  -0.00093194  1
  Hf  Hf22  1  0.09993174  0.90798405  0.12534629  1
  Hf  Hf23  1  0.69102272  0.10027242  0.61831430  1
  Hf  Hf24  1  0.00036786  0.20162341  0.24668774  1
  Hf  Hf25  1  0.59799153  0.80406925  0.49522734  1
  Hf  Hf26  1  0.29616944  0.91239074  0.36862057  1
  Hf  Hf27  1  0.79151659  0.41047087  -0.00711558  1
  Hf  Hf28  1  0.09949913  0.90017916  0.87545596  1
  Hf  Hf29  1  0.30353847  0.28171927  0.35247194  1
  Hf  Hf30  1  0.80856293  0.39126365  0.25392243  1
  Hf  Hf31  1  0.40231193  0.80065512  0.49800443  1
  Hf  Hf32  1  0.52181440  0.29130448  0.13042491  1
  Hf  Hf33  1  0.09615407  0.09309335  0.62774617  1
  Hf  Hf34  1  0.19452251  0.78961916  0.74872326  1
  Hf  Hf35  1  0.89774779  0.90623736  0.64088921  1
  Hf  Hf36  1  -0.00550685  0.00547284  -0.00620062  1
  Hf  Hf37  1  0.07799572  0.68322527  0.60925476  1
  Hf  Hf38  1  -0.00112505  0.39231159  0.49605523  1
  Hf  Hf39  1  0.52219829  0.50675363  0.12535930  1
  Zr  Zr40  1  0.80743720  0.60654785  0.50364452  1
  Zr  Zr41  1  0.40371574  0.80500755  0.25383714  1
  Zr  Zr42  1  0.69236292  0.49695271  0.63219636  1
  Zr  Zr43  1  0.30294730  0.10121455  0.87362915  1
  Zr  Zr44  1  0.41017322  0.39542659  0.48550488  1
  Zr  Zr45  1  0.40958353  0.39806931  0.24505070  1
  Zr  Zr46  1  0.30530697  0.50897900  0.13114082  1
  Zr  Zr47  1  0.50435485  0.91336516  0.62377683  1
  Zr  Zr48  1  0.61967121  0.39431097  0.26123047  1
  Zr  Zr49  1  0.39122043  0.80416784  0.73086458  1
  Zr  Zr50  1  0.39848706  0.60075607  0.73974182  1
  Zr  Zr51  1  0.28103134  0.68236788  0.60729475  1
  Zr  Zr52  1  0.88814405  0.10254617  0.12067246  1
  Zr  Zr53  1  0.91188820  0.50757513  0.63177503  1
  Zr  Zr54  1  0.78811003  0.80642533  0.24772023  1
  Zr  Zr55  1  0.31083171  0.49652162  0.87434707  1
  Zr  Zr56  1  0.80054528  0.00022792  0.50100073  1
  Zr  Zr57  1  0.59402517  0.00924874  0.76218252  1
  Zr  Zr58  1  -0.00121901  0.20139227  0.49522247  1
  Zr  Zr59  1  -0.02195637  0.80249220  0.49439581  1
  Zr  Zr60  1  0.89348958  0.68984154  0.35759768  1
  Zr  Zr61  1  0.48994766  0.90137690  0.87729206  1
  Zr  Zr62  1  0.80763252  0.39660490  0.48960831  1
  Zr  Zr63  1  0.88770025  0.68994913  0.12549690  1
  Zr  Zr64  1  0.81199857  0.60677434  0.76168443  1
  Zr  Zr65  1  0.79190708  0.20046037  0.76473798  1
  Zr  Zr66  1  0.21552249  0.39113984  0.01214454  1
  Zr  Zr67  1  0.50625658  0.30666307  0.61586234  1
  Zr  Zr68  1  0.41799489  0.61570418  0.00780899  1
  Zr  Zr69  1  0.69217559  0.91159841  0.11551533  1
  Zr  Zr70  1  0.69641809  0.29940591  0.61924702  1
  Zr  Zr71  1  0.19448904  0.80496476  0.49687412  1
  Zr  Zr72  1  0.30037705  0.10383013  0.62011198  1
  Zr  Zr73  1  0.20342349  0.20317659  0.75125398  1
  Zr  Zr74  1  0.40058736  0.00983599  0.02127378  1
  Zr  Zr75  1  0.39928304  0.00564994  0.48776396  1
  Zr  Zr76  1  0.88324310  0.11083580  0.35916675  1
  Zr  Zr77  1  0.19430007  0.39926222  0.24021506  1
  Zr  Zr78  1  0.20914073  0.37925738  0.50190538  1
  Zr  Zr79  1  -0.01134091  0.78363674  0.75961030  1
  Ta  Ta80  1  0.50687780  0.11277468  0.61107473  1
  Ta  Ta81  1  0.09796909  0.29521941  0.11724926  1
  Ta  Ta82  1  0.29873589  0.50047305  0.37087931  1
  Ta  Ta83  1  0.49997203  0.10216451  0.36169019  1
  Ta  Ta84  1  0.69592900  0.89889820  0.88263767  1
  Ta  Ta85  1  0.69176061  0.09821947  0.89414632  1
  Ta  Ta86  1  -0.00328609  0.59821007  -0.00872767  1
  Ta  Ta87  1  -0.00586931  0.00769479  0.48774732  1
  Ta  Ta88  1  0.90267682  0.09869316  0.64162317  1
  Ta  Ta89  1  0.89215806  0.90671856  0.12299432  1
  Ta  Ta90  1  0.21190285  0.39418548  0.74528064  1
  Ta  Ta91  1  0.90687680  0.50469131  0.12501358  1
  Ta  Ta92  1  0.90360207  0.30047099  0.88488222  1
  Ta  Ta93  1  0.50181905  0.69836622  0.85982998  1
  Ta  Ta94  1  0.10281603  0.29256468  0.36382029  1
  Ta  Ta95  1  0.60237367  0.38994465  0.77006574  1
  Ta  Ta96  1  0.50559832  0.70163750  0.36864852  1
  Ta  Ta97  1  0.19274898  0.80126866  0.25558674  1
  Ta  Ta98  1  0.79509270  0.80276256  0.76008153  1
  Ta  Ta99  1  0.68957270  0.90922974  0.36923876  1
  Ta  Ta100  1  0.69932451  0.90237197  0.63231059  1
  Ta  Ta101  1  0.89275198  0.90356883  0.87682012  1
  Ta  Ta102  1  0.69645034  0.69942942  0.87600779  1
  Ta  Ta103  1  0.79282563  0.80573519  0.49844511  1
  Ta  Ta104  1  0.19619405  0.59850881  0.76237533  1
  Ta  Ta105  1  0.79575903  0.00397117  0.76424548  1
  Ta  Ta106  1  0.30753223  0.48636281  0.62599980  1
  Ta  Ta107  1  0.60717993  0.60172399  0.26216182  1
  Ta  Ta108  1  0.19989887  -0.00374595  0.75531252  1
  Ta  Ta109  1  0.41012632  0.20982663  0.74692959  1
  Ta  Ta110  1  0.20917474  0.18984933  0.01673531  1
  Ta  Ta111  1  0.60161528  0.80127020  0.75312999  1
  Ta  Ta112  1  -0.00228951  0.19384573  0.76618576  1
  Ta  Ta113  1  0.90143888  0.29562349  0.64311588  1
  Ta  Ta114  1  0.50569401  0.90835801  0.14287951  1
  Ta  Ta115  1  0.80827923  0.20162829  0.51026537  1
  Ta  Ta116  1  0.41211688  0.39627846  0.01437984  1
  Ta  Ta117  1  0.60015979  0.59723489  0.48800988  1
  Ta  Ta118  1  0.59490166  0.20555021  0.77199998  1
  Ta  Ta119  1  0.79831809  0.39810332  0.76820867  1
  Ti  Ti120  1  0.00640940  0.60527008  0.77460230  1
  Ti  Ti121  1  0.61558362  0.58865418  -0.01479643  1
  Ti  Ti122  1  0.10333273  0.49649549  0.38511267  1
  Ti  Ti123  1  -0.00018499  0.19436511  -0.00635354  1
  Ti  Ti124  1  0.10154521  0.29202436  0.62858727  1
  Ti  Ti125  1  0.31759753  0.30280645  0.87330841  1
  Ti  Ti126  1  0.41022490  0.60191684  0.25119114  1
  Ti  Ti127  1  0.71287057  0.27894713  0.37953298  1
  Ti  Ti128  1  0.28725918  0.91296643  0.61475187  1
  Ti  Ti129  1  0.79656906  0.00295799  -0.00720306  1
  Ti  Ti130  1  0.90242702  0.49923589  0.88286978  1
  Ti  Ti131  1  0.91129280  0.50352518  0.36356227  1
  Ti  Ti132  1  0.69157527  0.10188686  0.38729937  1
  Ti  Ti133  1  0.62355032  0.18452066  0.24006520  1
  Ti  Ti134  1  0.10543752  0.09662599  0.12107087  1
  Ti  Ti135  1  0.88645960  0.91144004  0.36013462  1
  Ti  Ti136  1  0.10464041  0.09592526  0.87864704  1
  Ti  Ti137  1  0.50586254  0.50116500  0.36705517  1
  Ti  Ti138  1  0.18823982  0.58950646  0.24806509  1
  Ti  Ti139  1  0.60659485  0.40110432  0.47955590  1
  Ti  Ti140  1  0.30763434  0.70660555  0.87828647  1
  Ti  Ti141  1  0.79744625  0.79709047  -0.00595879  1
  Ti  Ti142  1  0.51065449  0.69322706  0.62912237  1
  Ti  Ti143  1  0.19484209  0.02130825  0.26318837  1
  Ti  Ti144  1  0.00690784  0.40271757  0.24759421  1
  Ti  Ti145  1  0.71117878  0.50900564  0.37453905  1
  Ti  Ti146  1  0.50900764  0.49699888  0.63390395  1
  Ti  Ti147  1  -0.00420209  0.00715203  0.24957457  1
  Ti  Ti148  1  0.60638630  0.39115760  -0.01050205  1
  Ti  Ti149  1  0.39724462  0.00950645  0.74224317  1
  Ti  Ti150  1  0.19845439  0.79809232  0.00265529  1
  Ti  Ti151  1  0.20038593  0.18728710  0.48852188  1
  Ti  Ti152  1  0.49539568  0.10824766  0.88488764  1
  Ti  Ti153  1  0.78824320  0.20439406  -0.00160129  1
  Ti  Ti154  1  0.40076006  0.80094735  0.01777079  1
  Ti  Ti155  1  0.77753729  0.01939798  0.24024763  1
  Ti  Ti156  1  0.39824160  0.20278259  0.49368307  1
  Ti  Ti157  1  0.69903466  0.70317612  0.37195643  1
  Ti  Ti158  1  0.71386887  0.50518641  0.13123766  1
  Ti  Ti159  1  0.51243861  0.28362070  0.36481886  1
  Mo  Mo160  1  0.59657783  0.00384437  0.48520394  1
  Mo  Mo161  1  0.40363995  0.39281221  0.74198681  1
  Mo  Mo162  1  0.78955211  0.20708906  0.23117174  1
  Mo  Mo163  1  0.90371684  0.30220159  0.36360063  1
  Mo  Mo164  1  0.70503298  0.29867123  0.11177253  1
  Mo  Mo165  1  0.69838063  0.29790771  0.88824790  1
  Mo  Mo166  1  0.20365824  0.58261550  0.48865820  1
  Mo  Mo167  1  0.19536641  0.19845807  0.23363534  1
  Mo  Mo168  1  0.00487031  0.58174820  0.24901996  1
  Mo  Mo169  1  0.69742851  0.50088829  0.86451463  1
  Mo  Mo170  1  0.19072889  0.01026133  0.48835741  1
  Mo  Mo171  1  0.60152189  0.59923865  0.75734608  1
  Mo  Mo172  1  0.40774164  0.19434460  0.23812970  1
  Mo  Mo173  1  0.09944558  0.10256522  0.37513321  1
  Mo  Mo174  1  0.89456610  0.10372281  0.88022502  1
  Mo  Mo175  1  0.08892662  0.49561133  0.11103254  1
  Mo  Mo176  1  0.79510225  0.58975706  0.25485196  1
  Mo  Mo177  1  0.29734295  0.10210311  0.14753891  1
  Mo  Mo178  1  0.79796334  0.59910183  -0.01144252  1
  Mo  Mo179  1  0.50717905  0.09488964  0.14202863  1
  Mo  Mo180  1  0.30520542  0.29656260  0.13511809  1
  Mo  Mo181  1  0.60080174  0.00428031  0.25981790  1
  Mo  Mo182  1  0.59843803  0.80031666  0.25610489  1
  Mo  Mo183  1  0.59678683  0.19732007  -0.00400345  1
  Mo  Mo184  1  -0.00050305  0.40013631  0.00069684  1
  Mo  Mo185  1  0.10415467  0.69676334  0.88417895  1
  Mo  Mo186  1  0.29975596  0.10606274  0.36589974  1
  Mo  Mo187  1  0.59866608  0.20146521  0.48239115  1
  Mo  Mo188  1  0.19576358  0.00620553  -0.00355228  1
  Mo  Mo189  1  0.68850221  0.10352254  0.10358664  1
  Mo  Mo190  1  0.59247579  -0.00035644  -0.00714770  1
  Mo  Mo191  1  0.50633602  0.70188953  0.14570506  1
  Mo  Mo192  1  0.89225560  0.70704934  0.61860918  1
  Mo  Mo193  1  -0.00038932  0.58920974  0.48674668  1
  Mo  Mo194  1  0.30462367  0.29744113  0.62458804  1
  Mo  Mo195  1  0.50466396  0.90445317  0.36492118  1
  Mo  Mo196  1  0.49666526  0.29874253  0.88668914  1
  Mo  Mo197  1  0.89387799  0.70178720  0.89395699  1
  Mo  Mo198  1  0.40061307  0.00752446  0.25040506  1
  Mo  Mo199  1  -0.00414237  0.00717862  0.76990418  1
