# generated using pymatgen
data_HfZrTaTiMo
_symmetry_space_group_name_H-M   'P 1'
_cell_length_a   15.93386235
_cell_length_b   15.92896047
_cell_length_c   15.20275956
_cell_angle_alpha   90.03746607
_cell_angle_beta   90.00346360
_cell_angle_gamma   90.14813040
_symmetry_Int_Tables_number   1
_chemical_formula_structural   HfZrTaTiMo
_chemical_formula_sum   'Hf40 Zr40 Ta40 Ti40 Mo40'
_cell_volume   3858.59660261
_cell_formula_units_Z   40
loop_
 _symmetry_equiv_pos_site_id
 _symmetry_equiv_pos_as_xyz
  1  'x, y, z'
loop_
 _atom_site_type_symbol
 _atom_site_label
 _atom_site_symmetry_multiplicity
 _atom_site_fract_x
 _atom_site_fract_y
 _atom_site_fract_z
 _atom_site_occupancy
  Hf  Hf0  1  0.90076494  0.09917814  0.63193506  1
  Hf  Hf1  1  0.39954344  0.80521151  0.00938101  1
  Hf  Hf2  1  -0.01228463  0.79511564  0.00777751  1
  Hf  Hf3  1  0.49028541  0.50133132  0.88115346  1
  Hf  Hf4  1  0.19735123  0.00863378  0.49676289  1
  Hf  Hf5  1  0.58880727  0.40026712  0.24675574  1
  Hf  Hf6  1  0.09224718  0.68512115  0.88300602  1
  Hf  Hf7  1  0.20966583  0.79952001  0.23746516  1
  Hf  Hf8  1  0.19401192  0.60783208  0.24657118  1
  Hf  Hf9  1  0.29993482  0.51637410  0.60256215  1
  Hf  Hf10  1  -0.00723971  0.40043267  0.00916089  1
  Hf  Hf11  1  0.69296551  0.09134158  0.37168580  1
  Hf  Hf12  1  0.68887899  0.49996968  0.86904638  1
  Hf  Hf13  1  -0.01244603  0.39714281  0.50591396  1
  Hf  Hf14  1  0.31260789  0.90789432  0.37234788  1
  Hf  Hf15  1  0.81025981  0.60847260  -0.00907127  1
  Hf  Hf16  1  0.30096800  0.30346468  0.37942663  1
  Hf  Hf17  1  0.00907598  0.00055301  0.23726700  1
  Hf  Hf18  1  0.01087442  0.39636780  0.73236287  1
  Hf  Hf19  1  0.20595901  0.59012777  0.76177864  1
  Hf  Hf20  1  -0.00373226  -0.00554952  0.00792653  1
  Hf  Hf21  1  0.49479158  0.10716702  0.89278076  1
  Hf  Hf22  1  0.48799258  0.30258581  0.87419969  1
  Hf  Hf23  1  0.79995370  0.79932555  0.73747628  1
  Hf  Hf24  1  0.70245474  0.29339058  0.13407909  1
  Hf  Hf25  1  0.09897838  0.10523845  0.87722616  1
  Hf  Hf26  1  0.30634339  0.10555065  0.62021173  1
  Hf  Hf27  1  0.80682937  0.40170799  0.25772510  1
  Hf  Hf28  1  0.50391489  0.51699480  0.62567963  1
  Hf  Hf29  1  0.69643943  0.29592133  0.37751676  1
  Hf  Hf30  1  0.29689323  0.30846177  0.89091413  1
  Hf  Hf31  1  0.69550780  0.90573004  0.61916685  1
  Hf  Hf32  1  0.40762745  0.80468120  0.50377029  1
  Hf  Hf33  1  0.79352905  0.19114766  -0.00314896  1
  Hf  Hf34  1  0.10114609  0.29147094  0.38213226  1
  Hf  Hf35  1  0.39223058  0.59889035  0.23586007  1
  Hf  Hf36  1  0.10703127  0.30142091  0.87866643  1
  Hf  Hf37  1  0.60169287  0.40697239  0.50180004  1
  Hf  Hf38  1  0.10903521  0.69078983  0.62162346  1
  Hf  Hf39  1  0.69136278  0.89101009  0.36806720  1
  Zr  Zr40  1  0.19979721  0.40546525  0.24257030  1
  Zr  Zr41  1  0.20326709  0.20435864  0.23162156  1
  Zr  Zr42  1  0.80188691  0.39616465  -0.00455538  1
  Zr  Zr43  1  0.71279846  0.90533264  0.87401454  1
  Zr  Zr44  1  0.69718578  0.69932007  0.86711628  1
  Zr  Zr45  1  0.58967870  0.19739763  0.74973149  1
  Zr  Zr46  1  0.58751125  0.39802298  0.01718486  1
  Zr  Zr47  1  0.19841051  0.80391695  0.49494320  1
  Zr  Zr48  1  0.40152115  0.79905897  0.75643180  1
  Zr  Zr49  1  0.08928234  0.51955138  0.11451175  1
  Zr  Zr50  1  0.90375256  0.90137162  0.62157322  1
  Zr  Zr51  1  0.68075155  0.68349375  0.63653336  1
  Zr  Zr52  1  0.70949077  0.50584488  0.13023958  1
  Zr  Zr53  1  0.91502630  0.50725427  0.85707246  1
  Zr  Zr54  1  0.90245997  0.29353892  0.37465470  1
  Zr  Zr55  1  -0.00518261  0.20049949  0.01311045  1
  Zr  Zr56  1  0.48676342  0.50443899  0.37946368  1
  Zr  Zr57  1  0.90967051  0.28717945  0.85640879  1
  Zr  Zr58  1  0.79919560  0.78054447  0.49637344  1
  Zr  Zr59  1  0.90314509  0.69320998  0.14624532  1
  Zr  Zr60  1  0.50662897  0.91628234  0.62336997  1
  Zr  Zr61  1  0.01360376  0.79406999  0.25245262  1
  Zr  Zr62  1  0.71125459  0.70241114  0.14294546  1
  Zr  Zr63  1  0.90316080  0.89722418  0.37630946  1
  Zr  Zr64  1  0.90983956  0.09893003  0.37314014  1
  Zr  Zr65  1  0.60541596  0.80074837  0.00478133  1
  Zr  Zr66  1  0.29927791  0.29980246  0.61502588  1
  Zr  Zr67  1  0.78144526  0.18741960  0.75165509  1
  Zr  Zr68  1  0.20457709  0.79313496  0.00735385  1
  Zr  Zr69  1  0.50438561  0.71431450  0.36220112  1
  Zr  Zr70  1  0.38771389  0.41009240  0.74311689  1
  Zr  Zr71  1  0.69577095  0.29616719  0.61094482  1
  Zr  Zr72  1  0.20970180  0.79409170  0.76052188  1
  Zr  Zr73  1  0.40167994  0.01440631  0.76361720  1
  Zr  Zr74  1  0.89243005  0.08338174  0.86272213  1
  Zr  Zr75  1  0.70910330  0.89168067  0.13802059  1
  Zr  Zr76  1  0.79374202  0.39206719  0.74048759  1
  Zr  Zr77  1  0.79629551  0.58571502  0.49722571  1
  Zr  Zr78  1  0.30213985  0.90760486  0.62557136  1
  Zr  Zr79  1  0.21155903  0.00372884  0.23681410  1
  Ta  Ta80  1  0.59464938  0.19810693  0.01764052  1
  Ta  Ta81  1  0.60428052  0.00241339  0.00564598  1
  Ta  Ta82  1  0.40454334  0.81874731  0.23072560  1
  Ta  Ta83  1  0.80708582  -0.01199220  0.01654911  1
  Ta  Ta84  1  0.39179461  0.60944602  0.76337689  1
  Ta  Ta85  1  0.58877832  0.19250508  0.24391030  1
  Ta  Ta86  1  0.69039650  0.09104326  0.60673052  1
  Ta  Ta87  1  0.90934856  0.68803411  0.63536380  1
  Ta  Ta88  1  0.00272318  0.79432682  0.50307727  1
  Ta  Ta89  1  0.59446061  0.60133188  0.01082451  1
  Ta  Ta90  1  0.30678462  0.69923319  0.37585100  1
  Ta  Ta91  1  0.19479160  0.40147523  0.49988778  1
  Ta  Ta92  1  0.80364820  0.19951874  0.50399910  1
  Ta  Ta93  1  0.48953144  0.08889664  0.12407598  1
  Ta  Ta94  1  0.39466961  0.39716379  0.23029776  1
  Ta  Ta95  1  0.69945159  0.49987447  0.36899968  1
  Ta  Ta96  1  0.39796143  0.60753237  0.01002209  1
  Ta  Ta97  1  0.09962908  0.89937950  0.87779875  1
  Ta  Ta98  1  0.90337227  0.70127990  0.85529099  1
  Ta  Ta99  1  0.39615247  0.19900124  0.24021174  1
  Ta  Ta100  1  0.69760807  0.09361683  0.13321365  1
  Ta  Ta101  1  0.00306965  0.40275510  0.24811645  1
  Ta  Ta102  1  0.40513494  0.19792030  0.48884888  1
  Ta  Ta103  1  0.10495357  0.28847762  0.61811580  1
  Ta  Ta104  1  0.20857209  0.00082049  -0.00071804  1
  Ta  Ta105  1  0.39595325  0.20890896  0.02483903  1
  Ta  Ta106  1  0.00986799  0.79780856  0.74367883  1
  Ta  Ta107  1  0.20680089  0.20055543  0.75105303  1
  Ta  Ta108  1  0.89679025  0.49882885  0.62650169  1
  Ta  Ta109  1  0.49231490  0.29369442  0.62289986  1
  Ta  Ta110  1  0.89302019  0.09939470  0.13564560  1
  Ta  Ta111  1  0.50472053  0.90626591  0.88341631  1
  Ta  Ta112  1  0.09666847  0.49950761  0.38105197  1
  Ta  Ta113  1  0.61269236  0.01149282  0.76598944  1
  Ta  Ta114  1  -0.00642809  0.60061320  0.49352228  1
  Ta  Ta115  1  0.50499037  0.70438978  0.13227914  1
  Ta  Ta116  1  0.90499531  0.89330515  0.86315010  1
  Ta  Ta117  1  0.00970219  -0.00578523  0.74804561  1
  Ta  Ta118  1  0.59937734  0.59918989  0.24874908  1
  Ta  Ta119  1  0.20128740  0.00358413  0.76409263  1
  Ti  Ti120  1  0.00961943  -0.00239998  0.50478751  1
  Ti  Ti121  1  0.29918996  0.11597503  0.88797216  1
  Ti  Ti122  1  0.59079960  0.19396213  0.49096020  1
  Ti  Ti123  1  0.19937108  0.40281496  0.73806466  1
  Ti  Ti124  1  0.50267977  0.91021573  0.37655960  1
  Ti  Ti125  1  0.29366684  0.49982794  0.10617671  1
  Ti  Ti126  1  0.68520888  0.29657019  0.88003338  1
  Ti  Ti127  1  0.50020011  0.09974400  0.61619302  1
  Ti  Ti128  1  0.10756532  0.10460921  0.11024846  1
  Ti  Ti129  1  0.80680527  -0.00592340  0.24819319  1
  Ti  Ti130  1  0.49350874  0.09348453  0.36788447  1
  Ti  Ti131  1  0.49401279  0.29715872  0.36944949  1
  Ti  Ti132  1  0.10631591  0.49407829  0.88942379  1
  Ti  Ti133  1  0.49906353  0.70014986  0.88018082  1
  Ti  Ti134  1  0.59260979  0.80456817  0.75368648  1
  Ti  Ti135  1  0.29421222  0.49892994  0.89957491  1
  Ti  Ti136  1  0.10478210  0.89789065  0.11515122  1
  Ti  Ti137  1  0.29596162  0.50625557  0.38538493  1
  Ti  Ti138  1  0.59698782  0.40246706  0.73884530  1
  Ti  Ti139  1  0.30390830  0.90604017  0.88234275  1
  Ti  Ti140  1  0.00872270  0.20259454  0.23668570  1
  Ti  Ti141  1  0.30291970  0.10521121  0.37741686  1
  Ti  Ti142  1  0.30438861  0.69445340  0.60814026  1
  Ti  Ti143  1  0.10607796  0.10000566  0.63257650  1
  Ti  Ti144  1  0.79475469  0.59206479  0.74296899  1
  Ti  Ti145  1  0.60103823  0.79590898  0.50111741  1
  Ti  Ti146  1  0.80031903  0.00232167  0.49537509  1
  Ti  Ti147  1  0.40337103  0.40052420  0.50192124  1
  Ti  Ti148  1  0.90055426  0.51102280  0.13941011  1
  Ti  Ti149  1  0.58478997  -0.00940639  0.23706264  1
  Ti  Ti150  1  0.60180353  0.60736570  0.48453718  1
  Ti  Ti151  1  0.10190188  0.50557603  0.60970800  1
  Ti  Ti152  1  0.89879091  0.29663506  0.13671565  1
  Ti  Ti153  1  0.10223190  0.69556193  0.38496705  1
  Ti  Ti154  1  0.49497014  0.69798618  0.62798119  1
  Ti  Ti155  1  0.10277117  0.90424809  0.37411277  1
  Ti  Ti156  1  0.10671270  0.90115131  0.63198252  1
  Ti  Ti157  1  0.10261516  0.10395146  0.37370600  1
  Ti  Ti158  1  0.79813002  0.19228673  0.25478072  1
  Ti  Ti159  1  0.00210110  0.19222620  0.51152962  1
  Mo  Mo160  1  0.90291173  0.49644789  0.37377368  1
  Mo  Mo161  1  0.00766899  0.59425352  0.73638657  1
  Mo  Mo162  1  0.89895359  0.89894750  0.13916071  1
  Mo  Mo163  1  0.49647952  0.50544238  0.12291044  1
  Mo  Mo164  1  0.20317938  0.59993988  -0.00179831  1
  Mo  Mo165  1  0.81276633  0.80368901  -0.01283715  1
  Mo  Mo166  1  0.90533629  0.69442049  0.37393939  1
  Mo  Mo167  1  0.59474163  0.80385650  0.24440815  1
  Mo  Mo168  1  0.40543988  0.01195938  0.48575716  1
  Mo  Mo169  1  0.39587903  0.40545154  0.01710685  1
  Mo  Mo170  1  0.30454503  0.69149508  0.88841504  1
  Mo  Mo171  1  0.79682166  -0.00019520  0.74053989  1
  Mo  Mo172  1  0.20026405  0.19939347  0.00780223  1
  Mo  Mo173  1  0.69460576  0.49899404  0.63530475  1
  Mo  Mo174  1  0.58237076  0.60309736  0.76516385  1
  Mo  Mo175  1  0.30779805  0.91092347  0.12133389  1
  Mo  Mo176  1  0.69453980  0.09703212  0.89876102  1
  Mo  Mo177  1  0.50229432  0.90616541  0.11433840  1
  Mo  Mo178  1  0.10100719  0.69872284  0.11444836  1
  Mo  Mo179  1  0.49628178  0.29628624  0.13690954  1
  Mo  Mo180  1  0.59702103  0.00394656  0.48699373  1
  Mo  Mo181  1  0.40382517  0.60956355  0.49196984  1
  Mo  Mo182  1  0.80376680  0.79512036  0.27556385  1
  Mo  Mo183  1  0.09331008  0.30510153  0.12180731  1
  Mo  Mo184  1  0.00119837  0.59438765  0.27467731  1
  Mo  Mo185  1  0.19376970  0.39957004  0.01354618  1
  Mo  Mo186  1  0.79764273  0.39755366  0.50346038  1
  Mo  Mo187  1  0.39425024  0.20320591  0.74665402  1
  Mo  Mo188  1  0.80372369  0.59784281  0.27538280  1
  Mo  Mo189  1  0.29469163  0.30658704  0.11395642  1
  Mo  Mo190  1  0.90273548  0.29287852  0.62054110  1
  Mo  Mo191  1  0.69871797  0.69564021  0.36379759  1
  Mo  Mo192  1  0.19831116  0.60060925  0.48206224  1
  Mo  Mo193  1  0.19781977  0.19646035  0.49710876  1
  Mo  Mo194  1  0.39711866  0.00332300  -0.01104277  1
  Mo  Mo195  1  0.01399222  0.19439949  0.73509863  1
  Mo  Mo196  1  0.40463636  0.00926153  0.25635540  1
  Mo  Mo197  1  0.30202842  0.10087105  0.11062407  1
  Mo  Mo198  1  -0.00635133  0.60023767  -0.00649946  1
  Mo  Mo199  1  0.30393670  0.69984831  0.12905387  1
