# generated using pymatgen
data_HfZrTaTiMo
_symmetry_space_group_name_H-M   'P 1'
_cell_length_a   15.93014221
_cell_length_b   15.92961736
_cell_length_c   15.22812437
_cell_angle_alpha   89.94404432
_cell_angle_beta   90.01019012
_cell_angle_gamma   89.89725116
_symmetry_Int_Tables_number   1
_chemical_formula_structural   HfZrTaTiMo
_chemical_formula_sum   'Hf40 Zr40 Ta40 Ti40 Mo40'
_cell_volume   3864.29701379
_cell_formula_units_Z   40
loop_
 _symmetry_equiv_pos_site_id
 _symmetry_equiv_pos_as_xyz
  1  'x, y, z'
loop_
 _atom_site_type_symbol
 _atom_site_label
 _atom_site_symmetry_multiplicity
 _atom_site_fract_x
 _atom_site_fract_y
 _atom_site_fract_z
 _atom_site_occupancy
  Hf  Hf0  1  0.30224163  0.50200829  0.12579649  1
  Hf  Hf1  1  0.79072711  0.00399120  0.24354338  1
  Hf  Hf2  1  0.29567677  0.89487070  0.62044598  1
  Hf  Hf3  1  0.00277198  0.19502856  -0.00575512  1
  Hf  Hf4  1  0.30517902  0.69927251  0.61564434  1
  Hf  Hf5  1  0.29873780  0.90364839  0.86680881  1
  Hf  Hf6  1  0.60608847  0.00132488  0.75619706  1
  Hf  Hf7  1  0.78412489  0.40972084  0.51491658  1
  Hf  Hf8  1  0.49509656  0.10333227  0.11113051  1
  Hf  Hf9  1  0.50122398  0.89974469  0.88865462  1
  Hf  Hf10  1  0.09219898  0.91677697  0.37360967  1
  Hf  Hf11  1  -0.00138149  0.60969704  0.48473563  1
  Hf  Hf12  1  0.00148968  0.40408017  0.74883933  1
  Hf  Hf13  1  0.09786903  0.51060262  0.12409154  1
  Hf  Hf14  1  0.00950013  0.19034354  0.23834516  1
  Hf  Hf15  1  0.39341303  0.19708216  0.25144189  1
  Hf  Hf16  1  0.41381543  0.39915205  0.49185801  1
  Hf  Hf17  1  0.70859596  0.49376019  0.88512165  1
  Hf  Hf18  1  0.89011563  0.31173315  0.86919024  1
  Hf  Hf19  1  0.00496757  0.39050505  0.23848605  1
  Hf  Hf20  1  0.00387766  -0.00816125  0.00309562  1
  Hf  Hf21  1  0.40211028  0.60179960  0.76756671  1
  Hf  Hf22  1  0.50866390  0.49485014  0.63744806  1
  Hf  Hf23  1  0.20777223  0.39418196  0.74913141  1
  Hf  Hf24  1  0.89845173  0.08950334  0.63303491  1
  Hf  Hf25  1  0.20315209  0.00784483  0.23634723  1
  Hf  Hf26  1  0.69688503  0.70426312  0.61588653  1
  Hf  Hf27  1  0.90933236  0.70531660  0.63377625  1
  Hf  Hf28  1  0.40682369  0.60565037  0.25329961  1
  Hf  Hf29  1  0.39066262  0.00851502  0.50455027  1
  Hf  Hf30  1  0.30166261  0.49759353  0.37357072  1
  Hf  Hf31  1  0.19845441  0.39635661  0.51169718  1
  Hf  Hf32  1  0.11053026  0.09659088  0.87166267  1
  Hf  Hf33  1  0.50696194  0.89358223  0.61435121  1
  Hf  Hf34  1  0.50256566  0.70615519  0.89818770  1
  Hf  Hf35  1  0.30506958  0.70760516  0.37792146  1
  Hf  Hf36  1  0.20373858  0.39088141  0.24347532  1
  Hf  Hf37  1  0.59507390  0.20154805  0.76263371  1
  Hf  Hf38  1  0.20104582  0.39683762  -0.00197002  1
  Hf  Hf39  1  0.60653421  0.20911526  -0.01884773  1
  Zr  Zr40  1  -0.02333634  0.78852911  -0.01936412  1
  Zr  Zr41  1  0.50302005  0.30827873  0.11176135  1
  Zr  Zr42  1  0.60185467  0.79977901  0.74683700  1
  Zr  Zr43  1  0.69276210  0.30555322  0.38226804  1
  Zr  Zr44  1  0.19744201  0.19971426  0.22668738  1
  Zr  Zr45  1  0.20325763  0.60383022  0.75792169  1
  Zr  Zr46  1  0.80818400  -0.00541182  -0.00630437  1
  Zr  Zr47  1  0.49918784  0.49899397  0.11893339  1
  Zr  Zr48  1  0.70353264  0.70357662  0.89829174  1
  Zr  Zr49  1  0.38477227  0.80494090  0.01558423  1
  Zr  Zr50  1  -0.00153770  0.40008549  0.00136928  1
  Zr  Zr51  1  0.79991839  0.59919843  0.74963068  1
  Zr  Zr52  1  0.61111497  0.20643411  0.24036925  1
  Zr  Zr53  1  0.17854943  0.01419520  0.51650406  1
  Zr  Zr54  1  0.01638970  0.18246548  0.51541106  1
  Zr  Zr55  1  0.49747113  0.10257976  0.37816110  1
  Zr  Zr56  1  0.91043876  0.08915962  0.38250060  1
  Zr  Zr57  1  0.69705208  0.09311625  0.61837344  1
  Zr  Zr58  1  0.19493393  0.60251650  0.49567150  1
  Zr  Zr59  1  0.08709635  0.69624942  0.12742134  1
  Zr  Zr60  1  0.48861051  0.30041943  0.63803282  1
  Zr  Zr61  1  0.59427583  -0.00022254  0.24026692  1
  Zr  Zr62  1  0.60245047  0.58772355  0.50065352  1
  Zr  Zr63  1  0.89235231  0.89357792  0.36367232  1
  Zr  Zr64  1  0.78422393  0.20146360  0.75847032  1
  Zr  Zr65  1  0.90167523  0.29484003  0.38294302  1
  Zr  Zr66  1  0.10795043  0.28651460  0.38615296  1
  Zr  Zr67  1  0.88937560  0.28580601  0.11723838  1
  Zr  Zr68  1  0.89721163  0.88349113  0.13905318  1
  Zr  Zr69  1  0.09929210  0.89541681  0.86195879  1
  Zr  Zr70  1  0.68989323  0.89685802  0.38194070  1
  Zr  Zr71  1  0.89528279  0.49698175  0.36711454  1
  Zr  Zr72  1  0.79113660  0.38961196  0.23658385  1
  Zr  Zr73  1  0.40027582  0.00447509  0.74329067  1
  Zr  Zr74  1  0.59784651  0.60125042  0.75700234  1
  Zr  Zr75  1  0.31170486  0.49558647  0.62633053  1
  Zr  Zr76  1  0.89546461  0.30041232  0.63045334  1
  Zr  Zr77  1  0.40254843  0.80892994  0.24238911  1
  Zr  Zr78  1  0.19529720  0.79881472  0.00438982  1
  Zr  Zr79  1  0.70069520  0.70499554  0.37161784  1
  Ta  Ta80  1  0.00055710  0.80241960  0.49262923  1
  Ta  Ta81  1  0.00697312  0.00531595  0.23106695  1
  Ta  Ta82  1  0.49163990  0.09916941  0.88106086  1
  Ta  Ta83  1  0.30399886  0.29206379  0.39027064  1
  Ta  Ta84  1  0.29922087  0.91018727  0.37529493  1
  Ta  Ta85  1  0.31085283  0.29979626  0.10504450  1
  Ta  Ta86  1  0.40291135  0.79125243  0.74814773  1
  Ta  Ta87  1  0.49200453  0.10885786  0.62314123  1
  Ta  Ta88  1  0.90217415  0.51351671  0.12860180  1
  Ta  Ta89  1  0.80392434  0.80546227  0.76205124  1
  Ta  Ta90  1  0.09726115  0.49566225  0.36901107  1
  Ta  Ta91  1  0.20526950  -0.00569893  0.01154560  1
  Ta  Ta92  1  0.20127364  0.60451304  -0.01268338  1
  Ta  Ta93  1  0.60227967  0.60669183  0.23920788  1
  Ta  Ta94  1  0.89803969  0.69434601  0.14253167  1
  Ta  Ta95  1  0.80954840  0.79539035  0.50190044  1
  Ta  Ta96  1  0.19119168  0.80466766  0.49018031  1
  Ta  Ta97  1  0.70631551  0.10891436  0.10961906  1
  Ta  Ta98  1  0.69355300  0.49960119  0.35644933  1
  Ta  Ta99  1  0.00412168  0.40497172  0.51064683  1
  Ta  Ta100  1  0.49576684  0.89851299  0.37912033  1
  Ta  Ta101  1  0.69945394  0.89329087  0.89403845  1
  Ta  Ta102  1  0.20183926  0.00641190  0.73517198  1
  Ta  Ta103  1  0.90262359  0.50665875  0.62381962  1
  Ta  Ta104  1  0.59529509  0.20961162  0.50906548  1
  Ta  Ta105  1  0.19889993  0.80432582  0.25608461  1
  Ta  Ta106  1  0.40112740  0.39232683  0.25728678  1
  Ta  Ta107  1  0.70234047  0.50398917  0.12409286  1
  Ta  Ta108  1  0.80251820  0.60104995  0.49831605  1
  Ta  Ta109  1  0.19230318  0.60743427  0.26263146  1
  Ta  Ta110  1  0.31122012  0.09849398  0.10186946  1
  Ta  Ta111  1  0.38982378  0.60251888  -0.00602155  1
  Ta  Ta112  1  0.28186470  0.10842576  0.38676860  1
  Ta  Ta113  1  0.11146744  0.29213980  0.87066637  1
  Ta  Ta114  1  0.00372391  0.19872873  0.75701358  1
  Ta  Ta115  1  0.29514268  0.10792937  0.87688109  1
  Ta  Ta116  1  0.70060971  0.10067199  0.38875579  1
  Ta  Ta117  1  0.09840259  0.50127251  0.87554601  1
  Ta  Ta118  1  0.79529970  0.19913545  0.50684172  1
  Ta  Ta119  1  0.09448193  0.50821282  0.63010147  1
  Ti  Ti120  1  0.39961476  0.21283735  -0.02236848  1
  Ti  Ti121  1  0.79360958  -0.00812267  0.76272468  1
  Ti  Ti122  1  0.51252538  0.70953273  0.37912091  1
  Ti  Ti123  1  0.79729662  0.40071727  0.01215875  1
  Ti  Ti124  1  0.90385607  0.50758973  0.87875555  1
  Ti  Ti125  1  0.28997995  0.69605117  0.13357881  1
  Ti  Ti126  1  0.79856932  0.60570926  0.25324243  1
  Ti  Ti127  1  0.50649764  0.30306738  0.36981288  1
  Ti  Ti128  1  0.59661732  0.00180777  0.50083014  1
  Ti  Ti129  1  0.70719869  0.89694315  0.61680774  1
  Ti  Ti130  1  0.48643060  0.91631821  0.11753087  1
  Ti  Ti131  1  0.30107123  0.49578008  0.88232828  1
  Ti  Ti132  1  0.41408276  0.60100307  0.49362143  1
  Ti  Ti133  1  0.50640190  0.48934048  0.88908494  1
  Ti  Ti134  1  0.79698593  0.19515929  -0.01853068  1
  Ti  Ti135  1  0.09590964  0.69742035  0.87188717  1
  Ti  Ti136  1  0.09949351  0.70564635  0.62636162  1
  Ti  Ti137  1  0.90134304  0.09278616  0.86446281  1
  Ti  Ti138  1  0.60303428  0.59753104  0.00998677  1
  Ti  Ti139  1  -0.00101045  -0.00676228  0.74856868  1
  Ti  Ti140  1  0.40627997  0.79889387  0.49764476  1
  Ti  Ti141  1  0.00319834  0.78571240  0.26978558  1
  Ti  Ti142  1  0.59845216  0.80161288  0.23412755  1
  Ti  Ti143  1  0.80649708  -0.00700441  0.50009989  1
  Ti  Ti144  1  0.09056343  0.89232711  0.63070007  1
  Ti  Ti145  1  0.00235193  0.60443665  0.75796503  1
  Ti  Ti146  1  0.39828856  0.38752484  0.77344906  1
  Ti  Ti147  1  0.69813628  0.89502235  0.11236059  1
  Ti  Ti148  1  0.70703838  0.70473121  0.11905252  1
  Ti  Ti149  1  0.51425383  0.49210002  0.36065870  1
  Ti  Ti150  1  0.50268132  0.70190466  0.11499899  1
  Ti  Ti151  1  0.61846066  0.38999848  0.75860623  1
  Ti  Ti152  1  0.20262898  0.79462029  0.74842372  1
  Ti  Ti153  1  0.81953915  0.60972760  0.00215931  1
  Ti  Ti154  1  0.90071450  0.89556397  0.63211046  1
  Ti  Ti155  1  0.89650141  0.09724646  0.12098961  1
  Ti  Ti156  1  0.10632236  0.29259436  0.63540369  1
  Ti  Ti157  1  0.60427109  0.00489865  -0.00079359  1
  Ti  Ti158  1  0.09863273  0.89083100  0.13201015  1
  Ti  Ti159  1  0.79868947  0.19247364  0.25520469  1
  Mo  Mo160  1  0.59855340  0.40780877  0.23793787  1
  Mo  Mo161  1  0.89534729  0.70150353  0.36501624  1
  Mo  Mo162  1  0.20701262  0.20059832  0.73864927  1
  Mo  Mo163  1  0.59648029  0.80637565  0.02349106  1
  Mo  Mo164  1  0.10166127  0.09449204  0.10239822  1
  Mo  Mo165  1  0.20169424  0.19864051  0.00712279  1
  Mo  Mo166  1  0.60815897  0.40638042  -0.00186425  1
  Mo  Mo167  1  0.49990100  0.30761469  0.87221899  1
  Mo  Mo168  1  0.70282998  0.30069054  0.10595283  1
  Mo  Mo169  1  0.68922114  0.30260539  0.61693518  1
  Mo  Mo170  1  0.78692221  0.79501735  0.23532182  1
  Mo  Mo171  1  0.39408050  0.20294621  0.76884814  1
  Mo  Mo172  1  0.40017168  0.40394339  -0.01727115  1
  Mo  Mo173  1  0.89772425  0.90181468  0.85733695  1
  Mo  Mo174  1  0.29715216  0.29652711  0.88217293  1
  Mo  Mo175  1  0.90136803  0.69619716  0.85886057  1
  Mo  Mo176  1  0.70338505  0.49890953  0.64004727  1
  Mo  Mo177  1  0.39625578  0.00484773  -0.01264538  1
  Mo  Mo178  1  0.29930230  0.70304024  0.87359834  1
  Mo  Mo179  1  0.10478169  0.29861201  0.10684448  1
  Mo  Mo180  1  0.69798646  0.09078041  0.88493844  1
  Mo  Mo181  1  0.30199827  0.11480742  0.62842144  1
  Mo  Mo182  1  0.10232073  0.70673632  0.37315349  1
  Mo  Mo183  1  0.09540617  0.10008697  0.65418228  1
  Mo  Mo184  1  0.40243175  0.20170599  0.48905002  1
  Mo  Mo185  1  0.70438950  0.30981991  0.88676137  1
  Mo  Mo186  1  0.10056146  0.09563396  0.37159069  1
  Mo  Mo187  1  0.59888265  0.80153293  0.50411807  1
  Mo  Mo188  1  -0.00270250  0.59721610  0.26614007  1
  Mo  Mo189  1  0.00357999  0.79730618  0.74970234  1
  Mo  Mo190  1  0.29991589  0.90654913  0.14033092  1
  Mo  Mo191  1  0.30514176  0.29275417  0.61623341  1
  Mo  Mo192  1  0.39283248  0.00386204  0.26164901  1
  Mo  Mo193  1  0.79735136  0.40619506  0.73757825  1
  Mo  Mo194  1  0.20670167  0.19907835  0.52239849  1
  Mo  Mo195  1  -0.00168783  0.59800478  -0.01449244  1
  Mo  Mo196  1  -0.00776577  -0.01462497  0.52245498  1
  Mo  Mo197  1  0.59809656  0.39942271  0.50390978  1
  Mo  Mo198  1  0.49142485  0.69765253  0.61280382  1
  Mo  Mo199  1  0.79931805  0.79566406  0.00190865  1
