# generated using pymatgen
data_HfZrTaTiMo
_symmetry_space_group_name_H-M   'P 1'
_cell_length_a   15.93849182
_cell_length_b   15.93846470
_cell_length_c   15.21789579
_cell_angle_alpha   89.99529581
_cell_angle_beta   90.02106744
_cell_angle_gamma   90.03435356
_symmetry_Int_Tables_number   1
_chemical_formula_structural   HfZrTaTiMo
_chemical_formula_sum   'Hf40 Zr40 Ta40 Ti40 Mo40'
_cell_volume   3865.87854660
_cell_formula_units_Z   40
loop_
 _symmetry_equiv_pos_site_id
 _symmetry_equiv_pos_as_xyz
  1  'x, y, z'
loop_
 _atom_site_type_symbol
 _atom_site_label
 _atom_site_symmetry_multiplicity
 _atom_site_fract_x
 _atom_site_fract_y
 _atom_site_fract_z
 _atom_site_occupancy
  Hf  Hf0  1  0.59643743  0.40051490  0.74141404  1
  Hf  Hf1  1  0.80453733  0.00796084  -0.00837435  1
  Hf  Hf2  1  0.90723139  0.89857443  0.10248095  1
  Hf  Hf3  1  0.20635496  0.19930896  0.74458832  1
  Hf  Hf4  1  0.78656576  0.80215778  0.24460925  1
  Hf  Hf5  1  0.69554450  0.50875651  0.10907831  1
  Hf  Hf6  1  0.19612898  0.39647212  0.73704491  1
  Hf  Hf7  1  0.49913279  0.29269251  0.88781468  1
  Hf  Hf8  1  0.70084738  0.50151509  0.87840280  1
  Hf  Hf9  1  0.57384815  0.81585230  -0.00161477  1
  Hf  Hf10  1  0.40355042  0.00902536  0.72755035  1
  Hf  Hf11  1  0.38780067  0.18741537  0.02285239  1
  Hf  Hf12  1  0.50802243  0.50066515  0.13023954  1
  Hf  Hf13  1  0.69164216  0.10613093  0.10918916  1
  Hf  Hf14  1  0.70495022  0.10727092  0.38050676  1
  Hf  Hf15  1  0.40343101  0.38381746  0.73448943  1
  Hf  Hf16  1  0.69940780  0.30331061  0.87805412  1
  Hf  Hf17  1  0.79258527  0.40066381  0.24204516  1
  Hf  Hf18  1  0.48984195  0.71044727  0.86456778  1
  Hf  Hf19  1  0.09710186  0.49836116  0.36545654  1
  Hf  Hf20  1  0.50534292  0.29634397  0.12606536  1
  Hf  Hf21  1  -0.00097249  0.20090536  0.49084866  1
  Hf  Hf22  1  0.68001438  0.90950783  0.87328150  1
  Hf  Hf23  1  0.21130655  0.00705841  -0.00358411  1
  Hf  Hf24  1  0.20588340  0.80242245  0.25879686  1
  Hf  Hf25  1  0.68930174  0.30648553  0.10558180  1
  Hf  Hf26  1  0.60216640  0.61424222  0.74398910  1
  Hf  Hf27  1  0.39724814  0.60885405  0.25882461  1
  Hf  Hf28  1  0.19149626  0.59457888  0.01400714  1
  Hf  Hf29  1  0.80142837  0.01205013  0.75980575  1
  Hf  Hf30  1  0.79239827  0.79008334  0.76281585  1
  Hf  Hf31  1  0.28603395  0.49511110  0.37741458  1
  Hf  Hf32  1  -0.00467677  0.40067569  0.50381528  1
  Hf  Hf33  1  0.89199719  0.30002931  0.36888299  1
  Hf  Hf34  1  0.39149788  0.40230487  0.01578201  1
  Hf  Hf35  1  0.29621275  0.49681522  0.87087538  1
  Hf  Hf36  1  0.10074763  0.69433085  0.36847464  1
  Hf  Hf37  1  0.60386133  0.60481764  0.26517880  1
  Hf  Hf38  1  0.80944695  0.60669725  0.76063204  1
  Hf  Hf39  1  0.30892284  0.89483865  0.13246393  1
  Zr  Zr40  1  -0.01258745  0.81115406  0.25486383  1
  Zr  Zr41  1  -0.00444173  -0.00808629  0.48159403  1
  Zr  Zr42  1  0.39577852  0.60146613  0.73576166  1
  Zr  Zr43  1  0.28856296  0.69516821  0.87592726  1
  Zr  Zr44  1  0.50726699  0.09237339  0.88195965  1
  Zr  Zr45  1  0.39731551  0.60236895  0.00973828  1
  Zr  Zr46  1  0.70691489  0.50214450  0.63178796  1
  Zr  Zr47  1  0.00243300  0.20486961  0.24995339  1
  Zr  Zr48  1  0.69114208  0.70161134  0.10808856  1
  Zr  Zr49  1  0.88659845  0.69470809  0.37114675  1
  Zr  Zr50  1  0.10003984  0.90696818  0.12239432  1
  Zr  Zr51  1  0.91468631  0.09400803  0.63896209  1
  Zr  Zr52  1  0.58789647  0.19932722  0.72669198  1
  Zr  Zr53  1  0.90752052  0.90042432  0.88044122  1
  Zr  Zr54  1  0.50155299  0.09266530  0.13452837  1
  Zr  Zr55  1  0.29504995  0.49914182  0.60817180  1
  Zr  Zr56  1  0.80488142  -0.00581647  0.23987359  1
  Zr  Zr57  1  0.30989271  0.10407325  0.86854486  1
  Zr  Zr58  1  0.10004400  0.89917771  0.88116114  1
  Zr  Zr59  1  0.70646377  0.90024685  0.63244820  1
  Zr  Zr60  1  0.31280795  0.89509860  0.86794487  1
  Zr  Zr61  1  -0.01048852  0.59585286  0.50749328  1
  Zr  Zr62  1  0.80697061  0.00020303  0.50860866  1
  Zr  Zr63  1  0.60584572  -0.00633017  0.25511214  1
  Zr  Zr64  1  0.19780777  0.79108247  0.74518615  1
  Zr  Zr65  1  0.58813175  0.80073010  0.25595528  1
  Zr  Zr66  1  0.09557392  0.89938889  0.62877440  1
  Zr  Zr67  1  0.90889090  0.30767443  0.86588131  1
  Zr  Zr68  1  0.09442363  0.49319022  0.87423302  1
  Zr  Zr69  1  0.60544035  0.39873108  0.49693055  1
  Zr  Zr70  1  0.49693108  0.50060499  0.38007381  1
  Zr  Zr71  1  0.11003102  0.09415016  0.61126462  1
  Zr  Zr72  1  0.39974083  -0.01071372  0.27081894  1
  Zr  Zr73  1  0.29857915  0.29946021  0.88376480  1
  Zr  Zr74  1  0.09665841  0.29400394  0.88824363  1
  Zr  Zr75  1  0.38856038  0.38200201  0.25400084  1
  Zr  Zr76  1  -0.00656519  0.80090995  0.49616290  1
  Zr  Zr77  1  0.11530748  0.09816046  0.36348961  1
  Zr  Zr78  1  0.82341716  0.20555402  0.00621982  1
  Zr  Zr79  1  0.82024212  0.41454879  0.00817936  1
  Ta  Ta80  1  0.50439529  0.89677453  0.39836550  1
  Ta  Ta81  1  -0.00319570  0.39959664  0.72715947  1
  Ta  Ta82  1  0.80480882  0.20135515  0.51596255  1
  Ta  Ta83  1  0.29866228  0.10164566  0.60495794  1
  Ta  Ta84  1  0.00290081  0.39643706  0.02859391  1
  Ta  Ta85  1  0.69579231  0.11213286  0.87913476  1
  Ta  Ta86  1  0.89384222  0.49948145  0.36381272  1
  Ta  Ta87  1  0.29704174  0.69905836  0.38893726  1
  Ta  Ta88  1  0.80344449  0.79895510  0.50909902  1
  Ta  Ta89  1  0.49600294  0.50397178  0.61042789  1
  Ta  Ta90  1  0.81041275  0.40186054  0.51133224  1
  Ta  Ta91  1  -0.00567142  0.78061707  0.76092559  1
  Ta  Ta92  1  0.10962263  0.29403270  0.13243982  1
  Ta  Ta93  1  0.60209088  0.60772623  0.50629969  1
  Ta  Ta94  1  0.29806227  0.70527648  0.59772760  1
  Ta  Ta95  1  0.10556411  0.29641497  0.60828890  1
  Ta  Ta96  1  0.60436711  0.79634907  0.51301668  1
  Ta  Ta97  1  0.59809567  0.00749622  0.73025146  1
  Ta  Ta98  1  0.89745348  0.09866758  0.36110487  1
  Ta  Ta99  1  0.50736817  0.10471913  0.38498428  1
  Ta  Ta100  1  0.29790955  0.29330545  0.60161435  1
  Ta  Ta101  1  -0.00270439  0.40038142  0.24206017  1
  Ta  Ta102  1  0.80191529  0.20574281  0.74244400  1
  Ta  Ta103  1  0.79786220  0.20104362  0.23490337  1
  Ta  Ta104  1  0.49801616  0.49655047  0.87501135  1
  Ta  Ta105  1  0.29013844  0.90352100  0.60617647  1
  Ta  Ta106  1  0.70488434  0.30008301  0.62215566  1
  Ta  Ta107  1  0.70214259  0.89661293  0.39212073  1
  Ta  Ta108  1  0.41847373  -0.01919363  0.00475299  1
  Ta  Ta109  1  0.29388355  0.70114012  0.13598736  1
  Ta  Ta110  1  -0.00851685  0.59964765  0.23722745  1
  Ta  Ta111  1  0.40033876  0.00409134  0.49560196  1
  Ta  Ta112  1  0.10749895  0.09427460  0.14162866  1
  Ta  Ta113  1  0.39973585  0.80021945  0.72292503  1
  Ta  Ta114  1  -0.00989838  0.58494687  0.01769473  1
  Ta  Ta115  1  0.89135979  0.69716812  0.11368596  1
  Ta  Ta116  1  0.20074235  0.00305527  0.75232132  1
  Ta  Ta117  1  0.09617318  0.70056507  0.13181425  1
  Ta  Ta118  1  0.60285762  0.00823490  0.51214656  1
  Ta  Ta119  1  0.49669351  0.90045539  0.61331138  1
  Ti  Ti120  1  0.29814324  0.89491588  0.39417546  1
  Ti  Ti121  1  0.59159762  0.61033921  -0.01504031  1
  Ti  Ti122  1  0.00391048  0.77992777  -0.00500912  1
  Ti  Ti123  1  0.09599537  0.50314975  0.62327094  1
  Ti  Ti124  1  0.22103100  0.21199519  0.25972262  1
  Ti  Ti125  1  0.79350262  0.60105827  0.24547892  1
  Ti  Ti126  1  0.69929584  0.70224762  0.39026968  1
  Ti  Ti127  1  0.70978350  0.50376935  0.38444747  1
  Ti  Ti128  1  0.20027710  0.39655110  0.02153517  1
  Ti  Ti129  1  0.01137985  0.20340015  0.74043636  1
  Ti  Ti130  1  0.19341222  0.19120973  0.00856388  1
  Ti  Ti131  1  0.92301381  0.11043833  0.87257164  1
  Ti  Ti132  1  0.10410484  0.49866147  0.14435729  1
  Ti  Ti133  1  0.91894663  0.09413943  0.12801946  1
  Ti  Ti134  1  0.19195813  0.60101911  0.73903062  1
  Ti  Ti135  1  0.60546286  0.20722341  0.25893927  1
  Ti  Ti136  1  0.08913397  0.68067764  0.87647239  1
  Ti  Ti137  1  0.40649481  0.19970405  0.49806010  1
  Ti  Ti138  1  0.10577053  0.90279953  0.37201806  1
  Ti  Ti139  1  0.11824774  0.31056795  0.37648574  1
  Ti  Ti140  1  0.59351774  0.80078992  0.73742431  1
  Ti  Ti141  1  0.91224075  0.50316549  0.86337904  1
  Ti  Ti142  1  0.48538384  0.71279809  0.13293563  1
  Ti  Ti143  1  0.60474620  0.39926032  0.26492481  1
  Ti  Ti144  1  0.50429597  0.29336137  0.38112938  1
  Ti  Ti145  1  0.90024118  0.69945335  0.62907928  1
  Ti  Ti146  1  0.19850629  0.79399871  0.00437479  1
  Ti  Ti147  1  0.29013790  0.49916486  0.14714848  1
  Ti  Ti148  1  0.39852002  0.19613943  0.26328023  1
  Ti  Ti149  1  0.29229903  0.09072872  0.14993679  1
  Ti  Ti150  1  0.70547476  0.29632210  0.38517731  1
  Ti  Ti151  1  0.39857098  0.39379843  0.49364116  1
  Ti  Ti152  1  0.19083172  0.60033550  0.50327526  1
  Ti  Ti153  1  0.79176172  0.79061655  -0.01749766  1
  Ti  Ti154  1  0.09725303  0.70108818  0.62029175  1
  Ti  Ti155  1  0.90894314  0.89595580  0.64950531  1
  Ti  Ti156  1  0.69111677  0.90573263  0.10561969  1
  Ti  Ti157  1  0.39252482  0.79844815  -0.00008758  1
  Ti  Ti158  1  0.48940140  0.70544152  0.39772465  1
  Ti  Ti159  1  0.80009629  0.60030281  0.51096543  1
  Mo  Mo160  1  0.39816124  0.79461276  0.27823668  1
  Mo  Mo161  1  0.49544523  0.90130089  0.84371809  1
  Mo  Mo162  1  0.49359519  0.89281487  0.13452028  1
  Mo  Mo163  1  0.49780421  0.30353702  0.60013941  1
  Mo  Mo164  1  0.10214524  0.10291322  0.86949654  1
  Mo  Mo165  1  0.88902370  0.90017509  0.36922636  1
  Mo  Mo166  1  0.59907069  -0.00052155  -0.00082691  1
  Mo  Mo167  1  0.19722715  0.39391778  0.24361744  1
  Mo  Mo168  1  0.39953655  0.80238325  0.50185503  1
  Mo  Mo169  1  0.20749843  -0.00401649  0.26251749  1
  Mo  Mo170  1  0.20624197  0.20149421  0.48493384  1
  Mo  Mo171  1  0.29462426  0.28794029  0.12307814  1
  Mo  Mo172  1  0.00108385  -0.00101876  0.25745753  1
  Mo  Mo173  1  0.59715244  0.20233731  -0.00333615  1
  Mo  Mo174  1  0.90585214  0.69066254  0.89201394  1
  Mo  Mo175  1  0.30859771  0.10280458  0.38114307  1
  Mo  Mo176  1  0.89671593  0.50524124  0.14045345  1
  Mo  Mo177  1  0.89949148  0.50209266  0.63578176  1
  Mo  Mo178  1  0.69125142  0.70391625  0.88613596  1
  Mo  Mo179  1  0.19264797  0.40113771  0.50581989  1
  Mo  Mo180  1  0.01008216  0.00142434  0.76766965  1
  Mo  Mo181  1  0.39842262  0.20230560  0.71864719  1
  Mo  Mo182  1  0.19661896  0.60145242  0.24233244  1
  Mo  Mo183  1  0.49908694  0.70192987  0.61678188  1
  Mo  Mo184  1  0.40015315  0.59925147  0.49555717  1
  Mo  Mo185  1  0.80458102  0.60534777  -0.01499983  1
  Mo  Mo186  1  0.20586972  -0.00216615  0.48320727  1
  Mo  Mo187  1  0.90313667  0.29764070  0.63100001  1
  Mo  Mo188  1  0.80648757  0.39930586  0.74069985  1
  Mo  Mo189  1  0.30244396  0.29743620  0.39067762  1
  Mo  Mo190  1  0.01093083  0.02603468  -0.01048849  1
  Mo  Mo191  1  0.60511282  0.20258808  0.49955340  1
  Mo  Mo192  1  0.01169048  0.19631860  0.01922793  1
  Mo  Mo193  1  0.00593403  0.60075655  0.73871786  1
  Mo  Mo194  1  0.70634611  0.70109037  0.61631976  1
  Mo  Mo195  1  0.49898233  0.10403532  0.60242266  1
  Mo  Mo196  1  0.59091938  0.41022120  -0.01208777  1
  Mo  Mo197  1  0.90451961  0.29929411  0.13804216  1
  Mo  Mo198  1  0.70431007  0.10672956  0.62580133  1
  Mo  Mo199  1  0.19337402  0.79880450  0.49377202  1
