# generated using pymatgen
data_HfZrTaTiMo
_symmetry_space_group_name_H-M   'P 1'
_cell_length_a   15.91482287
_cell_length_b   15.92614343
_cell_length_c   15.19467998
_cell_angle_alpha   89.94642671
_cell_angle_beta   89.96175566
_cell_angle_gamma   90.03627369
_symmetry_Int_Tables_number   1
_chemical_formula_structural   HfZrTaTiMo
_chemical_formula_sum   'Hf40 Zr40 Ta40 Ti40 Mo40'
_cell_volume   3851.26689025
_cell_formula_units_Z   40
loop_
 _symmetry_equiv_pos_site_id
 _symmetry_equiv_pos_as_xyz
  1  'x, y, z'
loop_
 _atom_site_type_symbol
 _atom_site_label
 _atom_site_symmetry_multiplicity
 _atom_site_fract_x
 _atom_site_fract_y
 _atom_site_fract_z
 _atom_site_occupancy
  Hf  Hf0  1  0.40431868  0.79928002  -0.01478843  1
  Hf  Hf1  1  0.00322100  0.38912453  0.24285404  1
  Hf  Hf2  1  0.00645603  0.18901523  0.76220074  1
  Hf  Hf3  1  0.90752412  0.91630056  0.12587804  1
  Hf  Hf4  1  0.50090997  0.69375409  0.62915719  1
  Hf  Hf5  1  0.79300421  0.80434977  0.74486592  1
  Hf  Hf6  1  0.69736582  0.69338814  0.63280044  1
  Hf  Hf7  1  0.90052465  0.09737393  0.37779405  1
  Hf  Hf8  1  0.29488803  0.50387276  0.63322780  1
  Hf  Hf9  1  0.30863031  0.11108953  0.62526514  1
  Hf  Hf10  1  0.40390218  0.19378178  0.26169410  1
  Hf  Hf11  1  0.20471525  0.79758917  0.24310096  1
  Hf  Hf12  1  0.79431637  0.19496515  0.24843340  1
  Hf  Hf13  1  0.50241925  0.69417836  0.38350255  1
  Hf  Hf14  1  0.88913140  0.29296918  0.87191819  1
  Hf  Hf15  1  0.47424804  0.89149465  0.61704392  1
  Hf  Hf16  1  0.20216156  0.40419045  0.76561613  1
  Hf  Hf17  1  0.10058113  0.70816732  0.88159777  1
  Hf  Hf18  1  0.50336867  0.91458377  0.12443021  1
  Hf  Hf19  1  0.20207535  0.00846242  0.51271812  1
  Hf  Hf20  1  0.30056480  0.49564900  0.10727444  1
  Hf  Hf21  1  0.30916866  0.10521072  0.11654024  1
  Hf  Hf22  1  0.29067426  0.30587506  0.37332357  1
  Hf  Hf23  1  0.09035872  0.30885392  0.64072909  1
  Hf  Hf24  1  0.19227251  0.19662238  -0.01260645  1
  Hf  Hf25  1  0.29883053  0.29862802  0.11376751  1
  Hf  Hf26  1  0.30405810  0.49882444  0.36791045  1
  Hf  Hf27  1  0.90067386  0.49452315  0.11339062  1
  Hf  Hf28  1  0.00620128  0.57896375  0.50525061  1
  Hf  Hf29  1  0.78735156  -0.00285563  0.50705376  1
  Hf  Hf30  1  0.79615900  0.79299349  0.49556176  1
  Hf  Hf31  1  0.09302672  0.09664192  0.13662067  1
  Hf  Hf32  1  0.69269562  0.91377664  0.88415338  1
  Hf  Hf33  1  0.41219199  0.39773724  0.23686560  1
  Hf  Hf34  1  0.30397139  0.90522938  0.12166684  1
  Hf  Hf35  1  0.90230490  0.11174117  0.62187690  1
  Hf  Hf36  1  0.68987714  0.68796432  0.87476722  1
  Hf  Hf37  1  0.60353851  0.80532533  0.50243993  1
  Hf  Hf38  1  0.69577940  0.11593871  0.62262956  1
  Hf  Hf39  1  0.71144383  0.10832542  0.86324720  1
  Zr  Zr40  1  0.69115728  0.28960165  0.12582808  1
  Zr  Zr41  1  0.39974763  0.79893083  0.25153455  1
  Zr  Zr42  1  0.59120946  0.01942123  0.26402344  1
  Zr  Zr43  1  0.70173032  0.91756412  0.12789543  1
  Zr  Zr44  1  0.49981458  0.30115066  0.87757514  1
  Zr  Zr45  1  0.00743905  0.21074112  0.49587912  1
  Zr  Zr46  1  0.79734818  0.79532352  0.25145512  1
  Zr  Zr47  1  0.59969897  0.58800382  0.23287609  1
  Zr  Zr48  1  0.50574600  0.50196296  0.87869204  1
  Zr  Zr49  1  0.90213797  0.69794424  0.11297662  1
  Zr  Zr50  1  0.30871460  0.71442142  0.63020622  1
  Zr  Zr51  1  0.80772572  -0.00453747  0.73561835  1
  Zr  Zr52  1  0.20726225  0.00121532  0.25643307  1
  Zr  Zr53  1  0.10344149  0.69731704  0.61819156  1
  Zr  Zr54  1  0.08885338  0.91414367  0.87408783  1
  Zr  Zr55  1  0.18942765  0.40045923  0.51215471  1
  Zr  Zr56  1  0.00865001  0.58664683  0.75283055  1
  Zr  Zr57  1  0.10683285  0.69604864  0.38350008  1
  Zr  Zr58  1  0.09740401  0.90081682  0.39044334  1
  Zr  Zr59  1  0.90281345  0.70017701  0.89006150  1
  Zr  Zr60  1  0.90493685  0.90371896  0.37292997  1
  Zr  Zr61  1  0.40245949  0.59902413  0.76287462  1
  Zr  Zr62  1  0.69354168  0.31345914  0.36790058  1
  Zr  Zr63  1  0.89438862  0.46744727  0.62492781  1
  Zr  Zr64  1  0.40362217  0.60035678  0.24248074  1
  Zr  Zr65  1  0.78794690  0.79837508  0.00906667  1
  Zr  Zr66  1  0.11074112  0.48834595  0.35566150  1
  Zr  Zr67  1  0.40232544  0.59098889  0.50237160  1
  Zr  Zr68  1  0.60158566  0.79048763  0.24403089  1
  Zr  Zr69  1  0.60439575  0.40031192  0.51947130  1
  Zr  Zr70  1  -0.00283171  0.80034928  0.73898926  1
  Zr  Zr71  1  0.89439613  0.49243257  0.36959605  1
  Zr  Zr72  1  0.59728762  -0.00367159  0.73057009  1
  Zr  Zr73  1  0.81106236  0.59412564  0.75504472  1
  Zr  Zr74  1  0.91295442  0.89165705  0.60163027  1
  Zr  Zr75  1  0.40593441  0.00136251  -0.01852508  1
  Zr  Zr76  1  0.90144080  0.90516502  0.89189586  1
  Zr  Zr77  1  0.01001830  0.79917653  0.24284955  1
  Zr  Zr78  1  0.79144872  0.59984954  0.24173823  1
  Zr  Zr79  1  0.29222264  0.90287937  0.86123248  1
  Ta  Ta80  1  0.60207743  0.40109449  0.00636746  1
  Ta  Ta81  1  0.50508008  0.11066349  0.10800481  1
  Ta  Ta82  1  0.80185619  0.22291710  0.50340826  1
  Ta  Ta83  1  0.30576917  0.90029722  0.39203795  1
  Ta  Ta84  1  0.10697457  0.49331669  0.11831700  1
  Ta  Ta85  1  0.80146080  0.19303795  0.00224398  1
  Ta  Ta86  1  -0.00219817  0.18861054  -0.00574032  1
  Ta  Ta87  1  0.40009905  0.00404914  0.74889383  1
  Ta  Ta88  1  0.69831990  0.10851136  0.38709489  1
  Ta  Ta89  1  0.50771656  0.48769877  0.38002362  1
  Ta  Ta90  1  0.59142792  0.80307541  -0.00486094  1
  Ta  Ta91  1  0.49421343  0.90489935  0.38492558  1
  Ta  Ta92  1  0.71712190  0.30802302  0.64780385  1
  Ta  Ta93  1  0.49765539  0.28938074  0.62742108  1
  Ta  Ta94  1  0.29727297  0.10213852  0.86819499  1
  Ta  Ta95  1  0.20535878  0.20712047  0.75592580  1
  Ta  Ta96  1  0.60549804  0.19867636  -0.01355735  1
  Ta  Ta97  1  0.49411956  0.30346247  0.38831909  1
  Ta  Ta98  1  0.19738229  0.80654807  0.00513439  1
  Ta  Ta99  1  0.58599230  0.79867656  0.76106991  1
  Ta  Ta100  1  0.39960042  0.20237868  0.75857922  1
  Ta  Ta101  1  0.29587131  0.70165911  0.87518779  1
  Ta  Ta102  1  0.79407641  0.58729401  0.50185228  1
  Ta  Ta103  1  0.00749554  0.59464274  0.00335362  1
  Ta  Ta104  1  0.59429952  0.00231755  0.50233888  1
  Ta  Ta105  1  0.19204347  0.00367360  0.00115067  1
  Ta  Ta106  1  0.79164635  0.39250004  -0.00214313  1
  Ta  Ta107  1  0.90173879  0.29132543  0.11654742  1
  Ta  Ta108  1  0.69715496  0.90782915  0.36774668  1
  Ta  Ta109  1  0.90640948  0.69162520  0.38317387  1
  Ta  Ta110  1  0.39801155  0.39416969  0.51833388  1
  Ta  Ta111  1  0.58653194  0.20475461  0.25889928  1
  Ta  Ta112  1  0.39731426  0.39472758  0.74219063  1
  Ta  Ta113  1  0.70059187  0.49771115  0.64218045  1
  Ta  Ta114  1  0.30024755  0.69774030  0.10603954  1
  Ta  Ta115  1  0.00697899  0.59897438  0.23879160  1
  Ta  Ta116  1  0.19918284  0.80806810  0.74046273  1
  Ta  Ta117  1  0.20284765  0.60286049  0.23455349  1
  Ta  Ta118  1  0.10288827  0.10569592  0.36855795  1
  Ta  Ta119  1  0.79325873  0.40085557  0.23059708  1
  Ti  Ti120  1  0.59640379  0.40110759  0.74777192  1
  Ti  Ti121  1  0.20348331  0.59977524  -0.00738146  1
  Ti  Ti122  1  0.00126284  0.38992756  -0.00033269  1
  Ti  Ti123  1  0.10417562  0.49515769  0.89349903  1
  Ti  Ti124  1  0.90847484  0.08529980  0.87701239  1
  Ti  Ti125  1  0.49218948  0.29249965  0.10455908  1
  Ti  Ti126  1  0.49408576  0.10570303  0.61302763  1
  Ti  Ti127  1  0.01509903  0.01240931  0.51534459  1
  Ti  Ti128  1  0.59721329  0.20563389  0.49721465  1
  Ti  Ti129  1  0.19687835  0.20756519  0.50768672  1
  Ti  Ti130  1  -0.00425365  0.40275016  0.76783154  1
  Ti  Ti131  1  0.29865407  0.70287525  0.38502953  1
  Ti  Ti132  1  0.40224882  0.00821524  0.26562890  1
  Ti  Ti133  1  0.20192495  0.59324841  0.50280298  1
  Ti  Ti134  1  0.69745258  0.49648669  0.37702915  1
  Ti  Ti135  1  0.89529849  0.09597106  0.13011144  1
  Ti  Ti136  1  0.50773647  0.09706963  0.87351249  1
  Ti  Ti137  1  0.09713359  0.30139932  0.87960900  1
  Ti  Ti138  1  0.19630073  0.20769623  0.25177559  1
  Ti  Ti139  1  0.90089348  0.69014186  0.61065501  1
  Ti  Ti140  1  0.20441943  0.80970312  0.51586564  1
  Ti  Ti141  1  0.59559465  0.40364010  0.23048028  1
  Ti  Ti142  1  0.40321791  0.59967209  -0.00948506  1
  Ti  Ti143  1  -0.00109101  0.20117473  0.25388895  1
  Ti  Ti144  1  0.89256990  0.30278085  0.36460399  1
  Ti  Ti145  1  0.69602398  0.09570302  0.11921785  1
  Ti  Ti146  1  0.19006279  0.00873371  0.73434258  1
  Ti  Ti147  1  0.69880186  0.68871082  0.38245231  1
  Ti  Ti148  1  0.30627306  0.30979689  0.89238243  1
  Ti  Ti149  1  0.10144724  0.29822753  0.11877718  1
  Ti  Ti150  1  0.10434040  0.69770730  0.11229770  1
  Ti  Ti151  1  0.30475385  0.10522405  0.39212562  1
  Ti  Ti152  1  0.60583915  0.59853801  0.01262240  1
  Ti  Ti153  1  -0.00279449  0.38827262  0.48945270  1
  Ti  Ti154  1  0.89733761  0.49740673  0.89384504  1
  Ti  Ti155  1  0.60181303  0.58856297  0.50969340  1
  Ti  Ti156  1  0.59793361  0.20565207  0.75243050  1
  Ti  Ti157  1  0.70012637  0.49387018  0.87350694  1
  Ti  Ti158  1  0.19940925  0.59920635  0.76275884  1
  Ti  Ti159  1  0.49881607  0.69808271  0.11166462  1
  Mo  Mo160  1  0.29838600  0.50070852  0.88453585  1
  Mo  Mo161  1  0.00062016  0.00971978  0.25041213  1
  Mo  Mo162  1  0.39885929  0.00520021  0.49876618  1
  Mo  Mo163  1  0.79623463  0.40089119  0.77660129  1
  Mo  Mo164  1  0.50230293  0.49209705  0.63654467  1
  Mo  Mo165  1  0.68768307  0.89506242  0.62497761  1
  Mo  Mo166  1  0.19302046  0.39653291  -0.00813948  1
  Mo  Mo167  1  0.10306108  0.90398563  0.62200754  1
  Mo  Mo168  1  0.49840234  0.10663284  0.39733686  1
  Mo  Mo169  1  0.10096375  0.29198662  0.36394573  1
  Mo  Mo170  1  0.01109571  0.80227774  0.01589645  1
  Mo  Mo171  1  0.80374764  0.01530576  0.00010125  1
  Mo  Mo172  1  0.69594349  0.30316425  0.86980932  1
  Mo  Mo173  1  0.50120706  0.90351032  0.86548576  1
  Mo  Mo174  1  0.20108425  0.39571344  0.23151613  1
  Mo  Mo175  1  0.10576900  0.10905376  0.63357724  1
  Mo  Mo176  1  0.69236911  0.69903658  0.10705175  1
  Mo  Mo177  1  0.00336609  0.01116452  0.01225640  1
  Mo  Mo178  1  0.70220035  0.49607234  0.10699025  1
  Mo  Mo179  1  0.50372471  0.69825907  0.88346562  1
  Mo  Mo180  1  0.00935486  0.00215288  0.72764260  1
  Mo  Mo181  1  0.60261722  0.00953940  -0.00530411  1
  Mo  Mo182  1  0.49903439  0.49616377  0.10407285  1
  Mo  Mo183  1  0.79881240  0.39678385  0.49696467  1
  Mo  Mo184  1  0.39799343  0.20641511  0.49416286  1
  Mo  Mo185  1  0.89793509  0.29859552  0.64460969  1
  Mo  Mo186  1  0.10140885  0.90244407  0.11516784  1
  Mo  Mo187  1  0.00207603  0.78654130  0.49781619  1
  Mo  Mo188  1  0.80370663  0.20016285  0.74780826  1
  Mo  Mo189  1  0.40025709  0.80326912  0.76947925  1
  Mo  Mo190  1  0.39628210  0.79728041  0.48521219  1
  Mo  Mo191  1  0.30046198  0.29901121  0.63090974  1
  Mo  Mo192  1  0.09914657  0.49747869  0.63987871  1
  Mo  Mo193  1  0.79646906  0.58899484  -0.00654677  1
  Mo  Mo194  1  0.10394353  0.09827459  0.86754328  1
  Mo  Mo195  1  0.40210393  0.19820188  -0.02040765  1
  Mo  Mo196  1  0.60126383  0.59343218  0.74549101  1
  Mo  Mo197  1  0.29817827  0.90615323  0.63085669  1
  Mo  Mo198  1  0.79511533  0.00997958  0.26351249  1
  Mo  Mo199  1  0.40292277  0.40105740  0.00248532  1
