# generated using pymatgen
data_HfZrTaTiMo
_symmetry_space_group_name_H-M   'P 1'
_cell_length_a   15.91568015
_cell_length_b   15.92768973
_cell_length_c   15.21677505
_cell_angle_alpha   89.91818811
_cell_angle_beta   90.02652900
_cell_angle_gamma   89.80163814
_symmetry_Int_Tables_number   1
_chemical_formula_structural   HfZrTaTiMo
_chemical_formula_sum   'Hf40 Zr40 Ta40 Ti40 Mo40'
_cell_volume   3857.42523544
_cell_formula_units_Z   40
loop_
 _symmetry_equiv_pos_site_id
 _symmetry_equiv_pos_as_xyz
  1  'x, y, z'
loop_
 _atom_site_type_symbol
 _atom_site_label
 _atom_site_symmetry_multiplicity
 _atom_site_fract_x
 _atom_site_fract_y
 _atom_site_fract_z
 _atom_site_occupancy
  Hf  Hf0  1  0.20613035  -0.00470678  0.00649557  1
  Hf  Hf1  1  -0.00110367  0.59124543  0.75162411  1
  Hf  Hf2  1  0.31530249  0.87851287  0.86417190  1
  Hf  Hf3  1  0.27895678  0.29534144  0.36247757  1
  Hf  Hf4  1  0.09771925  0.68179482  0.61209284  1
  Hf  Hf5  1  0.31462782  0.87879499  0.14173816  1
  Hf  Hf6  1  0.88217352  0.30228556  0.11654122  1
  Hf  Hf7  1  0.30281075  0.50543893  0.88722633  1
  Hf  Hf8  1  0.68938247  0.50865087  0.39356969  1
  Hf  Hf9  1  0.30307417  0.29702050  0.12319754  1
  Hf  Hf10  1  0.29917596  0.90063431  0.37436692  1
  Hf  Hf11  1  0.90225108  0.91104903  0.39046001  1
  Hf  Hf12  1  0.29579816  0.69292219  0.61850183  1
  Hf  Hf13  1  0.49079076  0.71290595  0.13305456  1
  Hf  Hf14  1  0.61320668  0.80047796  0.25852245  1
  Hf  Hf15  1  0.30946883  0.48413798  0.38040539  1
  Hf  Hf16  1  0.90324974  0.49971279  0.38599553  1
  Hf  Hf17  1  0.48538745  0.31575677  0.36969845  1
  Hf  Hf18  1  0.40293318  0.79711825  0.49404963  1
  Hf  Hf19  1  0.29461023  0.49552310  0.61205977  1
  Hf  Hf20  1  0.90571856  0.90515266  0.87036497  1
  Hf  Hf21  1  0.21761399  0.78579103  -0.00151965  1
  Hf  Hf22  1  0.09958067  0.70107315  0.12872493  1
  Hf  Hf23  1  0.39781339  0.19685724  0.49069953  1
  Hf  Hf24  1  0.69636497  0.92244814  0.86419141  1
  Hf  Hf25  1  0.89268516  0.70776197  0.12490102  1
  Hf  Hf26  1  0.59986345  0.19925809  0.48075798  1
  Hf  Hf27  1  0.10845144  0.49370665  0.89225513  1
  Hf  Hf28  1  0.08338951  0.29348013  0.64219886  1
  Hf  Hf29  1  0.00039741  0.39976161  0.24498047  1
  Hf  Hf30  1  0.17906385  0.19285770  0.51381572  1
  Hf  Hf31  1  0.08728585  0.09879220  0.87399252  1
  Hf  Hf32  1  0.48442995  0.70592321  0.86941596  1
  Hf  Hf33  1  -0.00414454  0.80458835  0.26190415  1
  Hf  Hf34  1  0.59566185  0.58973403  0.74460613  1
  Hf  Hf35  1  0.51226164  0.68792284  0.38114770  1
  Hf  Hf36  1  0.39558990  0.19295509  0.24705104  1
  Hf  Hf37  1  0.40484453  0.40597010  0.76003803  1
  Hf  Hf38  1  0.70232513  0.11712637  0.63354635  1
  Hf  Hf39  1  0.09536189  0.11411426  0.36422464  1
  Zr  Zr40  1  0.50055562  0.90122280  0.86177957  1
  Zr  Zr41  1  0.79766479  0.80353902  0.73956937  1
  Zr  Zr42  1  0.10528588  0.49221773  0.39371037  1
  Zr  Zr43  1  0.19855675  0.20153946  0.76365155  1
  Zr  Zr44  1  0.79887190  0.40981311  0.76172042  1
  Zr  Zr45  1  0.29448883  0.09298773  0.37943854  1
  Zr  Zr46  1  0.00077448  0.59716267  0.25072089  1
  Zr  Zr47  1  0.60542306  0.20165277  -0.00628693  1
  Zr  Zr48  1  0.79288267  0.60987036  0.26216057  1
  Zr  Zr49  1  0.79912263  0.19969865  0.25006963  1
  Zr  Zr50  1  0.10178249  0.69585604  0.87749194  1
  Zr  Zr51  1  0.69648601  0.69705020  0.10831328  1
  Zr  Zr52  1  0.90988001  0.49120570  0.61514905  1
  Zr  Zr53  1  0.09338716  0.89645041  0.87701802  1
  Zr  Zr54  1  0.00353804  0.01871772  0.51788938  1
  Zr  Zr55  1  0.30394572  0.29563288  0.63024343  1
  Zr  Zr56  1  0.59194371  0.80968075  0.72582542  1
  Zr  Zr57  1  0.81319263  0.60035504  -0.01946484  1
  Zr  Zr58  1  0.80852048  0.61750595  0.50777760  1
  Zr  Zr59  1  -0.00175362  0.00399764  0.23534024  1
  Zr  Zr60  1  0.89922611  0.29285864  0.88381716  1
  Zr  Zr61  1  0.49975312  0.11152661  0.63916588  1
  Zr  Zr62  1  0.20114378  0.00854179  0.22888457  1
  Zr  Zr63  1  0.19803326  -0.00460310  0.73685652  1
  Zr  Zr64  1  0.70144119  0.49199134  0.10836905  1
  Zr  Zr65  1  0.51390237  0.08856603  0.86603944  1
  Zr  Zr66  1  0.19725420  0.79064096  0.74499107  1
  Zr  Zr67  1  0.50771785  0.91160305  0.37326338  1
  Zr  Zr68  1  0.50593361  0.31081043  0.62147915  1
  Zr  Zr69  1  0.80226104  -0.00167042  0.24642617  1
  Zr  Zr70  1  0.59096055  0.81221467  0.00142217  1
  Zr  Zr71  1  0.88707344  0.09977552  0.87513053  1
  Zr  Zr72  1  0.41049770  -0.01317368  0.01726283  1
  Zr  Zr73  1  0.31289709  0.08686267  0.86874962  1
  Zr  Zr74  1  -0.00619387  0.41023805  0.00211648  1
  Zr  Zr75  1  0.70007430  0.31327603  0.62044867  1
  Zr  Zr76  1  0.79685907  0.80724663  0.50682091  1
  Zr  Zr77  1  0.10177318  0.29765348  0.11721159  1
  Zr  Zr78  1  0.40862526  0.58426832  0.25477992  1
  Zr  Zr79  1  0.51071018  0.10437399  0.13114107  1
  Ta  Ta80  1  0.60295761  0.00325872  0.51137558  1
  Ta  Ta81  1  0.69321230  0.50154624  0.88911081  1
  Ta  Ta82  1  0.70579957  0.89935548  0.12438583  1
  Ta  Ta83  1  0.40889701  -0.00055053  0.24495732  1
  Ta  Ta84  1  0.90076675  0.10620076  0.38138326  1
  Ta  Ta85  1  0.39861296  0.59784279  0.74490822  1
  Ta  Ta86  1  0.10068679  0.90584240  0.38782997  1
  Ta  Ta87  1  -0.00856653  0.78459747  0.49950392  1
  Ta  Ta88  1  0.30054811  0.69600346  0.15211490  1
  Ta  Ta89  1  0.19673750  0.79123021  0.48573086  1
  Ta  Ta90  1  0.60591672  0.80178585  0.50579974  1
  Ta  Ta91  1  0.61003519  0.21425869  0.77070773  1
  Ta  Ta92  1  0.19347770  0.79387566  0.26799563  1
  Ta  Ta93  1  0.50711990  0.50381143  0.10772423  1
  Ta  Ta94  1  0.90465011  0.70879560  0.86119592  1
  Ta  Ta95  1  0.19975787  0.59335318  0.25478000  1
  Ta  Ta96  1  0.39208918  0.61484670  0.00779656  1
  Ta  Ta97  1  0.40608264  -0.01695624  0.72335608  1
  Ta  Ta98  1  0.80621668  0.20364935  0.49330697  1
  Ta  Ta99  1  0.19570234  0.40016121  0.75707746  1
  Ta  Ta100  1  0.09761826  0.88760121  0.61030643  1
  Ta  Ta101  1  0.00488676  0.39718103  0.76887970  1
  Ta  Ta102  1  0.79743333  0.80687926  -0.01843107  1
  Ta  Ta103  1  0.09883550  0.89016490  0.11829590  1
  Ta  Ta104  1  0.59498256  0.40832926  0.25235300  1
  Ta  Ta105  1  0.80172167  0.00574536  0.73214142  1
  Ta  Ta106  1  0.40583999  0.39755059  0.00308287  1
  Ta  Ta107  1  0.90568147  0.29442794  0.36795956  1
  Ta  Ta108  1  0.89440998  0.89636937  0.11115160  1
  Ta  Ta109  1  0.79767553  0.60024831  0.75179463  1
  Ta  Ta110  1  0.40238269  0.19981890  -0.00520802  1
  Ta  Ta111  1  0.69121507  0.70154184  0.86990038  1
  Ta  Ta112  1  0.29308683  0.30763801  0.89036381  1
  Ta  Ta113  1  0.50247730  0.50713866  0.89444473  1
  Ta  Ta114  1  0.20175865  0.19159922  -0.00057987  1
  Ta  Ta115  1  0.29826951  0.89406518  0.60873873  1
  Ta  Ta116  1  0.19682391  0.40677758  0.23624751  1
  Ta  Ta117  1  0.70040372  0.30955274  0.37311575  1
  Ta  Ta118  1  0.60113268  0.20431611  0.26085001  1
  Ta  Ta119  1  0.20378285  0.59575155  0.02053186  1
  Ti  Ti120  1  0.59782567  0.40045612  0.77071992  1
  Ti  Ti121  1  0.19491162  0.38232108  0.50389424  1
  Ti  Ti122  1  0.69293233  0.30548279  0.12426891  1
  Ti  Ti123  1  0.70199827  0.91025397  0.38234688  1
  Ti  Ti124  1  0.89211126  0.50244258  0.12561058  1
  Ti  Ti125  1  -0.00085424  0.00204734  0.01500729  1
  Ti  Ti126  1  -0.00231329  0.19512964  0.22995705  1
  Ti  Ti127  1  0.79886864  0.01183766  0.51422109  1
  Ti  Ti128  1  -0.00488462  0.79756999  0.00125885  1
  Ti  Ti129  1  0.90513570  0.89792091  0.62317066  1
  Ti  Ti130  1  0.80072017  0.80079152  0.26701716  1
  Ti  Ti131  1  0.20139815  0.58851822  0.75174420  1
  Ti  Ti132  1  0.09481597  0.69048017  0.38400751  1
  Ti  Ti133  1  0.30592941  0.49524974  0.12442767  1
  Ti  Ti134  1  0.50499100  0.30792030  0.12858939  1
  Ti  Ti135  1  0.69243821  0.49798200  0.61237326  1
  Ti  Ti136  1  0.10080527  0.49093213  0.61483091  1
  Ti  Ti137  1  0.39618356  0.59867890  0.49565356  1
  Ti  Ti138  1  0.79458460  0.40631044  0.25669542  1
  Ti  Ti139  1  0.50393839  0.49514512  0.39663401  1
  Ti  Ti140  1  0.40756720  0.00635122  0.50471046  1
  Ti  Ti141  1  0.89638393  0.29697889  0.63494123  1
  Ti  Ti142  1  0.49635091  0.69410061  0.61873941  1
  Ti  Ti143  1  -0.00050969  0.60211646  0.00047040  1
  Ti  Ti144  1  0.80306406  0.39332285  0.49487161  1
  Ti  Ti145  1  0.79400049  0.00893996  0.00462521  1
  Ti  Ti146  1  0.49981655  0.49688778  0.60538247  1
  Ti  Ti147  1  0.40743388  0.21171134  0.77287988  1
  Ti  Ti148  1  0.70301787  0.10381248  0.13142330  1
  Ti  Ti149  1  -0.00274863  0.19194491  0.00861144  1
  Ti  Ti150  1  0.60771538  0.00044890  0.01487401  1
  Ti  Ti151  1  0.69613778  0.69528519  0.62801474  1
  Ti  Ti152  1  0.70956412  0.30166285  0.89037280  1
  Ti  Ti153  1  0.60487961  0.59670365  0.24592934  1
  Ti  Ti154  1  0.90651667  0.12232906  0.63635033  1
  Ti  Ti155  1  0.69919275  0.09397124  0.37315537  1
  Ti  Ti156  1  0.00392536  0.37421132  0.49202557  1
  Ti  Ti157  1  -0.00002580  -0.00006155  0.73391996  1
  Ti  Ti158  1  0.30178213  0.09933581  0.62972854  1
  Ti  Ti159  1  0.19640870  0.00267284  0.51348396  1
  Mo  Mo160  1  0.90181332  0.70586644  0.36831951  1
  Mo  Mo161  1  0.49780160  0.90310649  0.60322233  1
  Mo  Mo162  1  0.40519239  0.40140622  0.22596872  1
  Mo  Mo163  1  0.59846805  0.60294713  0.52178843  1
  Mo  Mo164  1  0.51149777  0.90167200  0.14824044  1
  Mo  Mo165  1  0.49775853  0.30501819  0.88028944  1
  Mo  Mo166  1  0.70646197  0.10381097  0.86080570  1
  Mo  Mo167  1  0.90150678  0.50530385  0.87064399  1
  Mo  Mo168  1  0.30252488  0.68739730  0.86099599  1
  Mo  Mo169  1  0.19231675  0.19975602  0.23095205  1
  Mo  Mo170  1  0.70139372  0.91345501  0.61918399  1
  Mo  Mo171  1  0.69688076  0.70737120  0.38723368  1
  Mo  Mo172  1  -0.00210611  0.79974771  0.72754895  1
  Mo  Mo173  1  0.09476668  0.29501969  0.35477270  1
  Mo  Mo174  1  -0.00011994  0.59844366  0.50238044  1
  Mo  Mo175  1  0.39799705  0.79394023  0.71869188  1
  Mo  Mo176  1  0.79257331  0.19505372  0.01466331  1
  Mo  Mo177  1  0.61070323  0.00290248  0.24494709  1
  Mo  Mo178  1  0.60080219  0.40024668  0.48744908  1
  Mo  Mo179  1  0.90181470  0.70092310  0.64416571  1
  Mo  Mo180  1  0.39525383  0.39831509  0.50824656  1
  Mo  Mo181  1  0.50563493  0.10024742  0.36550558  1
  Mo  Mo182  1  0.20637477  0.39984662  0.01108749  1
  Mo  Mo183  1  0.09577314  0.09788157  0.64271162  1
  Mo  Mo184  1  -0.01016192  0.20652453  0.50128429  1
  Mo  Mo185  1  0.09864661  0.09838668  0.11119997  1
  Mo  Mo186  1  0.30531661  0.10073263  0.11360372  1
  Mo  Mo187  1  0.59464408  0.60706691  -0.00940692  1
  Mo  Mo188  1  0.89581782  0.09977794  0.10768143  1
  Mo  Mo189  1  0.79497334  0.40043422  -0.00591857  1
  Mo  Mo190  1  0.20402698  0.59838878  0.48165033  1
  Mo  Mo191  1  0.39956645  0.79471802  0.27686008  1
  Mo  Mo192  1  0.39737388  0.79316293  0.00707706  1
  Mo  Mo193  1  0.60362140  0.00675521  0.72737787  1
  Mo  Mo194  1  0.79804949  0.20806638  0.74739910  1
  Mo  Mo195  1  0.59628672  0.39632743  -0.00530217  1
  Mo  Mo196  1  0.10470177  0.50389842  0.11932130  1
  Mo  Mo197  1  0.10279007  0.29741831  0.88455303  1
  Mo  Mo198  1  -0.00567248  0.20157643  0.75928110  1
  Mo  Mo199  1  0.29880959  0.69223511  0.36956513  1
