# generated using pymatgen
data_HfZrTaTiMo
_symmetry_space_group_name_H-M   'P 1'
_cell_length_a   15.93514967
_cell_length_b   15.91628415
_cell_length_c   15.21128056
_cell_angle_alpha   89.99874439
_cell_angle_beta   90.00427007
_cell_angle_gamma   89.97032005
_symmetry_Int_Tables_number   1
_chemical_formula_structural   HfZrTaTiMo
_chemical_formula_sum   'Hf40 Zr40 Ta40 Ti40 Mo40'
_cell_volume   3858.01176557
_cell_formula_units_Z   40
loop_
 _symmetry_equiv_pos_site_id
 _symmetry_equiv_pos_as_xyz
  1  'x, y, z'
loop_
 _atom_site_type_symbol
 _atom_site_label
 _atom_site_symmetry_multiplicity
 _atom_site_fract_x
 _atom_site_fract_y
 _atom_site_fract_z
 _atom_site_occupancy
  Hf  Hf0  1  0.72740314  0.88002197  0.87319417  1
  Hf  Hf1  1  0.71157122  0.88736206  0.61045307  1
  Hf  Hf2  1  0.19810362  -0.00398151  0.25201776  1
  Hf  Hf3  1  0.30754074  0.30118819  0.84845076  1
  Hf  Hf4  1  -0.02562140  0.61731895  0.00585569  1
  Hf  Hf5  1  0.60011559  0.59993558  0.25243166  1
  Hf  Hf6  1  0.59649848  0.38785369  -0.02006588  1
  Hf  Hf7  1  -0.00915233  0.41218995  0.75675879  1
  Hf  Hf8  1  0.30188771  0.70424006  0.12079919  1
  Hf  Hf9  1  0.29338394  0.30623186  0.13309189  1
  Hf  Hf10  1  0.28228198  0.70370937  0.63778737  1
  Hf  Hf11  1  0.69903040  0.48139585  0.13280065  1
  Hf  Hf12  1  0.09826118  0.52126611  0.62536671  1
  Hf  Hf13  1  -0.01370846  0.40616832  0.25441582  1
  Hf  Hf14  1  0.48948931  0.49030935  0.86857744  1
  Hf  Hf15  1  0.60566128  0.19084159  0.28061364  1
  Hf  Hf16  1  0.09820678  0.31323045  0.38306617  1
  Hf  Hf17  1  0.29837384  0.29941564  0.63662144  1
  Hf  Hf18  1  0.30199530  0.90091223  0.86068594  1
  Hf  Hf19  1  0.20497822  0.00623309  -0.00720379  1
  Hf  Hf20  1  0.70182746  0.49358291  0.38226717  1
  Hf  Hf21  1  0.80343327  0.59385494  0.25964215  1
  Hf  Hf22  1  0.09931683  0.10390570  0.38444545  1
  Hf  Hf23  1  0.60971781  -0.00100575  -0.01171613  1
  Hf  Hf24  1  0.20000984  0.20400472  -0.01245346  1
  Hf  Hf25  1  0.19830769  0.41918931  0.76296198  1
  Hf  Hf26  1  0.79179752  0.40445410  0.74993802  1
  Hf  Hf27  1  0.60902270  0.79786109  -0.00234887  1
  Hf  Hf28  1  0.09977873  0.70404747  0.12462713  1
  Hf  Hf29  1  0.69326781  0.29244732  0.12328351  1
  Hf  Hf30  1  0.82045187  -0.00859477  0.02084813  1
  Hf  Hf31  1  0.80254889  0.20014695  0.25637401  1
  Hf  Hf32  1  0.50841485  0.89103274  0.61485312  1
  Hf  Hf33  1  0.60561059  0.59609073  0.75376416  1
  Hf  Hf34  1  -0.01240438  0.00041433  0.24675057  1
  Hf  Hf35  1  -0.01442471  0.40195294  -0.01716187  1
  Hf  Hf36  1  0.09595731  0.10490269  0.11986942  1
  Hf  Hf37  1  0.30338809  0.70450329  0.88326402  1
  Hf  Hf38  1  0.51659947  0.89499318  0.38382007  1
  Hf  Hf39  1  0.39646685  0.59889939  0.24659905  1
  Zr  Zr40  1  0.37736776  0.59979904  0.48850358  1
  Zr  Zr41  1  -0.00657868  0.81231270  0.72721084  1
  Zr  Zr42  1  0.50751882  0.89550350  0.13702763  1
  Zr  Zr43  1  0.41432881  0.01060770  0.74670209  1
  Zr  Zr44  1  0.20019772  0.77790034  0.47238719  1
  Zr  Zr45  1  0.38652583  0.80157555  0.49337369  1
  Zr  Zr46  1  0.40795258  -0.00219493  0.26664677  1
  Zr  Zr47  1  0.39367344  0.59749867  0.75478416  1
  Zr  Zr48  1  0.70681431  0.69572709  0.11958921  1
  Zr  Zr49  1  -0.00468616  0.20876067  0.24893161  1
  Zr  Zr50  1  0.09972048  0.30606413  0.63322127  1
  Zr  Zr51  1  0.61116720  -0.00776479  0.74880803  1
  Zr  Zr52  1  0.91684828  0.09044554  0.86496706  1
  Zr  Zr53  1  0.07735605  0.71959579  0.88600783  1
  Zr  Zr54  1  0.40157485  0.40427748  0.25786701  1
  Zr  Zr55  1  0.00528056  0.79653661  0.50222212  1
  Zr  Zr56  1  0.59955018  0.39581135  0.50871251  1
  Zr  Zr57  1  0.50575740  0.70078044  0.37651215  1
  Zr  Zr58  1  0.71755445  0.08985303  0.86695620  1
  Zr  Zr59  1  0.30518210  0.10313389  0.13142224  1
  Zr  Zr60  1  0.09516802  0.52149373  0.38030770  1
  Zr  Zr61  1  0.13073843  0.89984210  0.62068814  1
  Zr  Zr62  1  0.88986546  0.30992542  0.11659555  1
  Zr  Zr63  1  0.40650634  -0.00091662  -0.01004549  1
  Zr  Zr64  1  0.79816480  0.80348980  0.26774026  1
  Zr  Zr65  1  0.50671570  0.29949586  0.12853197  1
  Zr  Zr66  1  0.91315569  0.69070414  0.38150682  1
  Zr  Zr67  1  0.39397571  0.40638025  0.50254809  1
  Zr  Zr68  1  0.40807036  0.20015012  0.26512394  1
  Zr  Zr69  1  0.29820009  0.10441165  0.37958133  1
  Zr  Zr70  1  0.51901085  0.10134927  0.12233348  1
  Zr  Zr71  1  0.40853135  0.20193089  -0.01134923  1
  Zr  Zr72  1  0.89859276  0.11329429  0.39297657  1
  Zr  Zr73  1  0.80049437  0.19959894  -0.00537446  1
  Zr  Zr74  1  0.29018065  0.30907539  0.37975566  1
  Zr  Zr75  1  0.90247348  0.09959567  0.61647263  1
  Zr  Zr76  1  0.59900451  0.18803073  0.74005863  1
  Zr  Zr77  1  0.91142973  0.89391622  0.87570376  1
  Zr  Zr78  1  0.60721071  0.78705762  0.75438432  1
  Zr  Zr79  1  0.19449960  0.40163925  -0.01591110  1
  Ta  Ta80  1  0.89932779  0.49415745  0.39545936  1
  Ta  Ta81  1  0.49537323  0.29564162  0.63000706  1
  Ta  Ta82  1  0.59893281  0.39622879  0.74189326  1
  Ta  Ta83  1  0.70241346  0.90156449  0.13937581  1
  Ta  Ta84  1  0.89676886  0.50981191  0.62030347  1
  Ta  Ta85  1  0.72591248  0.68233686  0.88334424  1
  Ta  Ta86  1  0.00616592  -0.00651707  0.50537833  1
  Ta  Ta87  1  0.79568855  0.60279641  0.50019064  1
  Ta  Ta88  1  0.39968058  0.59321820  0.00338144  1
  Ta  Ta89  1  0.88852761  0.50081815  0.12118283  1
  Ta  Ta90  1  0.08274633  0.51543788  0.88143384  1
  Ta  Ta91  1  0.18880337  0.60853340  0.77320319  1
  Ta  Ta92  1  0.39977701  0.19375453  0.51125812  1
  Ta  Ta93  1  0.50142757  0.49592991  0.11877153  1
  Ta  Ta94  1  0.87835638  0.53150827  0.86429244  1
  Ta  Ta95  1  0.19549077  0.60291208  -0.00436703  1
  Ta  Ta96  1  0.70377637  0.09563758  0.12989897  1
  Ta  Ta97  1  0.19959485  0.19976230  0.51184740  1
  Ta  Ta98  1  0.39463729  0.40030545  -0.00204964  1
  Ta  Ta99  1  -0.00123291  0.19877040  -0.00338589  1
  Ta  Ta100  1  0.50255852  0.69613703  0.89101596  1
  Ta  Ta101  1  0.09285755  0.49976211  0.11635321  1
  Ta  Ta102  1  0.79128975  0.41098009  -0.02644865  1
  Ta  Ta103  1  0.09050255  0.29259019  0.86140239  1
  Ta  Ta104  1  0.02475690  0.00809037  0.72932531  1
  Ta  Ta105  1  0.50289016  0.69599741  0.11690038  1
  Ta  Ta106  1  0.69933185  0.50306366  0.62194596  1
  Ta  Ta107  1  0.79921703  0.20033209  0.73367982  1
  Ta  Ta108  1  0.19125182  0.20919940  0.25037173  1
  Ta  Ta109  1  0.39789852  -0.00227313  0.49963086  1
  Ta  Ta110  1  0.60490090  0.58688114  -0.00722563  1
  Ta  Ta111  1  0.29044650  0.49993187  0.12175182  1
  Ta  Ta112  1  0.19854718  0.81052391  0.00004627  1
  Ta  Ta113  1  0.09373297  0.91834559  0.88251124  1
  Ta  Ta114  1  0.49923217  0.69400606  0.61470231  1
  Ta  Ta115  1  0.89814747  0.30382679  0.62441252  1
  Ta  Ta116  1  0.60737824  0.19582120  0.50348627  1
  Ta  Ta117  1  0.20190414  0.80032253  0.25284124  1
  Ta  Ta118  1  0.80229432  -0.01086407  0.48394483  1
  Ta  Ta119  1  0.00250739  0.80455858  0.25241610  1
  Ti  Ti120  1  0.39929734  0.79824666  0.25606952  1
  Ti  Ti121  1  0.49507807  0.50084543  0.62863734  1
  Ti  Ti122  1  0.30744992  0.90113701  0.64178266  1
  Ti  Ti123  1  0.79972946  0.00203780  0.26420398  1
  Ti  Ti124  1  0.71743122  0.29672075  0.38833515  1
  Ti  Ti125  1  0.09934386  0.90415650  0.11934572  1
  Ti  Ti126  1  0.41042647  0.79204532  0.74898635  1
  Ti  Ti127  1  0.50388772  0.89333756  0.86984826  1
  Ti  Ti128  1  0.49884593  0.29607522  0.39403221  1
  Ti  Ti129  1  0.09765633  0.89892070  0.37394671  1
  Ti  Ti130  1  0.18587877  0.17745039  0.74494825  1
  Ti  Ti131  1  0.59830201  0.59962316  0.50062541  1
  Ti  Ti132  1  0.30262257  0.89920481  0.12807743  1
  Ti  Ti133  1  0.00270775  0.20956283  0.50991337  1
  Ti  Ti134  1  0.27481374  0.50635679  0.35545451  1
  Ti  Ti135  1  -0.01869579  0.81515867  0.02705277  1
  Ti  Ti136  1  0.29419658  0.50737388  0.63082369  1
  Ti  Ti137  1  0.82093821  -0.01662810  0.73048625  1
  Ti  Ti138  1  0.50099023  0.49796797  0.37841876  1
  Ti  Ti139  1  0.00248555  0.19564283  0.74163934  1
  Ti  Ti140  1  0.29112420  0.08864446  0.62726815  1
  Ti  Ti141  1  0.18801169  0.80260389  0.76635894  1
  Ti  Ti142  1  0.69904928  0.69968495  0.61272741  1
  Ti  Ti143  1  0.60078610  0.38961699  0.26732574  1
  Ti  Ti144  1  0.89556920  0.29145477  0.86117218  1
  Ti  Ti145  1  0.40393754  0.80429128  0.00167739  1
  Ti  Ti146  1  0.19934541  0.41470604  0.50802340  1
  Ti  Ti147  1  -0.00284412  0.60170383  0.23722953  1
  Ti  Ti148  1  0.70622392  0.09082049  0.61043320  1
  Ti  Ti149  1  0.61667657  0.00091396  0.27408109  1
  Ti  Ti150  1  0.49329631  0.28969654  0.85000717  1
  Ti  Ti151  1  0.50561551  0.09236773  0.60702179  1
  Ti  Ti152  1  0.21141456  -0.01062754  0.48671775  1
  Ti  Ti153  1  0.69643562  0.29088078  0.86399757  1
  Ti  Ti154  1  0.09658307  0.30875241  0.12189927  1
  Ti  Ti155  1  0.30569167  0.10593917  0.85650679  1
  Ti  Ti156  1  0.80018054  0.39458980  0.51267939  1
  Ti  Ti157  1  0.88814187  0.70713712  0.61411372  1
  Ti  Ti158  1  -0.00212050  0.40566153  0.51042687  1
  Ti  Ti159  1  -0.01209833  0.61838716  0.74618559  1
  Mo  Mo160  1  0.79869090  0.79548343  0.48389589  1
  Mo  Mo161  1  0.50572851  0.10417740  0.87978640  1
  Mo  Mo162  1  0.29421145  0.69082736  0.34579006  1
  Mo  Mo163  1  0.50507570  0.09668883  0.40276973  1
  Mo  Mo164  1  0.89434140  0.10392823  0.12966136  1
  Mo  Mo165  1  0.30317691  0.89733718  0.36225306  1
  Mo  Mo166  1  0.60222301  0.19446615  -0.02468089  1
  Mo  Mo167  1  0.90122537  0.90173800  0.60827766  1
  Mo  Mo168  1  0.10887059  0.09767002  0.60448581  1
  Mo  Mo169  1  0.88651849  0.71265592  0.86781991  1
  Mo  Mo170  1  0.79584548  0.20539154  0.51622331  1
  Mo  Mo171  1  0.20301969  0.00308138  0.76196972  1
  Mo  Mo172  1  0.60327324  0.78978380  0.50833394  1
  Mo  Mo173  1  0.70052787  0.89500617  0.37765967  1
  Mo  Mo174  1  0.90004701  0.70195136  0.14622471  1
  Mo  Mo175  1  0.00430747  0.00111577  0.01970716  1
  Mo  Mo176  1  0.10112498  0.70054676  0.64167308  1
  Mo  Mo177  1  -0.00170136  0.60629873  0.51565829  1
  Mo  Mo178  1  0.79619324  0.59242620  0.01213771  1
  Mo  Mo179  1  0.70349094  0.09693155  0.38940643  1
  Mo  Mo180  1  0.80060260  0.39690004  0.26883086  1
  Mo  Mo181  1  0.09784674  0.10415043  0.88158482  1
  Mo  Mo182  1  0.90667569  0.90250325  0.37988476  1
  Mo  Mo183  1  0.40028631  0.19205344  0.72915830  1
  Mo  Mo184  1  0.80472451  0.78851307  0.73755360  1
  Mo  Mo185  1  0.18492381  0.40340888  0.23772789  1
  Mo  Mo186  1  0.29389352  0.50384683  0.88929089  1
  Mo  Mo187  1  0.60047651  0.79910555  0.23910434  1
  Mo  Mo188  1  0.19933386  0.60024245  0.50128972  1
  Mo  Mo189  1  0.40152526  0.40198851  0.73605151  1
  Mo  Mo190  1  0.69430272  0.49812745  0.86196385  1
  Mo  Mo191  1  0.79716662  0.60667505  0.72475431  1
  Mo  Mo192  1  0.89845457  0.31120930  0.40222924  1
  Mo  Mo193  1  0.69951984  0.29811747  0.62714317  1
  Mo  Mo194  1  0.10151994  0.69613282  0.35096795  1
  Mo  Mo195  1  0.60625211  -0.00140011  0.49826260  1
  Mo  Mo196  1  0.89628097  0.90039880  0.14634002  1
  Mo  Mo197  1  0.81184343  0.79110836  0.02207878  1
  Mo  Mo198  1  0.19327646  0.59819817  0.22397746  1
  Mo  Mo199  1  0.69619974  0.69969685  0.39096108  1
