# generated using pymatgen
data_HfZrTaTiMo
_symmetry_space_group_name_H-M   'P 1'
_cell_length_a   15.92592079
_cell_length_b   15.93453228
_cell_length_c   15.21257113
_cell_angle_alpha   90.01791251
_cell_angle_beta   89.94972936
_cell_angle_gamma   90.05601667
_symmetry_Int_Tables_number   1
_chemical_formula_structural   HfZrTaTiMo
_chemical_formula_sum   'Hf40 Zr40 Ta40 Ti40 Mo40'
_cell_volume   3860.52258790
_cell_formula_units_Z   40
loop_
 _symmetry_equiv_pos_site_id
 _symmetry_equiv_pos_as_xyz
  1  'x, y, z'
loop_
 _atom_site_type_symbol
 _atom_site_label
 _atom_site_symmetry_multiplicity
 _atom_site_fract_x
 _atom_site_fract_y
 _atom_site_fract_z
 _atom_site_occupancy
  Hf  Hf0  1  0.88705099  0.10131069  0.11393334  1
  Hf  Hf1  1  0.08529384  0.49902179  0.88331000  1
  Hf  Hf2  1  0.10959304  0.68967090  0.10657086  1
  Hf  Hf3  1  0.50345306  0.50456182  0.37157154  1
  Hf  Hf4  1  0.48889203  0.70596384  0.10744029  1
  Hf  Hf5  1  0.00399435  0.00510369  0.25458245  1
  Hf  Hf6  1  0.29602350  0.70531570  0.63196057  1
  Hf  Hf7  1  0.60663784  0.80258384  0.74421918  1
  Hf  Hf8  1  0.09233451  0.50523454  0.37962921  1
  Hf  Hf9  1  0.61201726  0.00336071  0.51043538  1
  Hf  Hf10  1  -0.00583513  -0.00086699  -0.01603665  1
  Hf  Hf11  1  0.60095332  0.60479117  0.51720145  1
  Hf  Hf12  1  0.00161278  0.78364354  0.24310223  1
  Hf  Hf13  1  0.30338481  0.69313701  0.38422874  1
  Hf  Hf14  1  0.49389924  0.29233602  0.11826297  1
  Hf  Hf15  1  0.89053573  0.68944328  0.39116034  1
  Hf  Hf16  1  0.60027656  0.60413530  0.73644853  1
  Hf  Hf17  1  0.40836174  0.79518168  0.75128700  1
  Hf  Hf18  1  0.10435573  0.89442023  0.63999957  1
  Hf  Hf19  1  0.60934257  0.61382961  0.23868436  1
  Hf  Hf20  1  0.89832234  0.10337285  0.63992628  1
  Hf  Hf21  1  0.70911357  0.51244391  0.37898177  1
  Hf  Hf22  1  0.20405828  0.20043291  0.76670280  1
  Hf  Hf23  1  0.40161911  0.59339414  0.51091029  1
  Hf  Hf24  1  0.39182887  0.01630425  0.49612285  1
  Hf  Hf25  1  0.40116273  0.79557215  0.25270709  1
  Hf  Hf26  1  0.19440712  0.40324057  -0.00105155  1
  Hf  Hf27  1  0.90070136  0.88483849  0.86238972  1
  Hf  Hf28  1  0.31061600  0.88641776  0.10884556  1
  Hf  Hf29  1  0.21750572  0.18745010  0.48353786  1
  Hf  Hf30  1  -0.01366020  -0.01148381  0.51429382  1
  Hf  Hf31  1  0.89612592  0.69560263  0.63454886  1
  Hf  Hf32  1  0.18554758  0.39382532  0.75895460  1
  Hf  Hf33  1  0.29920720  0.49035211  0.63509014  1
  Hf  Hf34  1  0.59099603  0.80977043  0.23970866  1
  Hf  Hf35  1  0.11312193  0.09518542  0.62970537  1
  Hf  Hf36  1  0.20199679  0.19003025  0.26433106  1
  Hf  Hf37  1  0.78370880  0.19643528  -0.02252535  1
  Hf  Hf38  1  0.69764486  0.10668838  0.63690915  1
  Hf  Hf39  1  0.20833378  0.00607289  -0.01101393  1
  Zr  Zr40  1  0.20656873  0.40841242  0.24878513  1
  Zr  Zr41  1  0.31212404  0.29401409  0.63067946  1
  Zr  Zr42  1  0.89379926  0.30298449  0.63482014  1
  Zr  Zr43  1  0.30082506  0.29743257  0.12672293  1
  Zr  Zr44  1  0.10503000  0.89242905  0.11399186  1
  Zr  Zr45  1  0.70273162  0.90604247  0.36915607  1
  Zr  Zr46  1  0.70799157  0.92332518  0.14405564  1
  Zr  Zr47  1  0.80048346  0.40254257  0.24155892  1
  Zr  Zr48  1  0.78427359  -0.00644106  -0.02595836  1
  Zr  Zr49  1  0.49999044  0.50594435  0.89086752  1
  Zr  Zr50  1  0.09241058  0.29326118  0.11452978  1
  Zr  Zr51  1  0.30728930  0.90056943  0.86707592  1
  Zr  Zr52  1  0.20874392  -0.00124228  0.24633813  1
  Zr  Zr53  1  0.61288103  0.81678141  0.00498447  1
  Zr  Zr54  1  0.49489207  0.91584576  0.62858668  1
  Zr  Zr55  1  0.18824105  0.60415821  0.75353433  1
  Zr  Zr56  1  0.42120962  -0.00184892  0.23711079  1
  Zr  Zr57  1  0.59279600  0.20901657  0.76022023  1
  Zr  Zr58  1  0.79442969  0.82041109  0.52803079  1
  Zr  Zr59  1  0.50089326  0.70116114  0.88668192  1
  Zr  Zr60  1  0.68758951  0.31313369  0.61224424  1
  Zr  Zr61  1  0.10421505  0.88938801  0.86416663  1
  Zr  Zr62  1  -0.00463293  0.41042883  0.23087640  1
  Zr  Zr63  1  0.60013645  0.40160750  0.24302520  1
  Zr  Zr64  1  0.59950400  0.40309425  0.75834480  1
  Zr  Zr65  1  0.19990973  0.60057961  0.24963522  1
  Zr  Zr66  1  0.89306625  0.30859604  0.38027689  1
  Zr  Zr67  1  0.09676280  0.30404515  0.37474843  1
  Zr  Zr68  1  0.90245307  0.89916029  0.12324590  1
  Zr  Zr69  1  0.00467632  0.19395750  0.49691019  1
  Zr  Zr70  1  0.19825613  0.79924283  0.49869330  1
  Zr  Zr71  1  0.79324173  0.19431551  0.49597930  1
  Zr  Zr72  1  0.21145773  0.39657229  0.49092917  1
  Zr  Zr73  1  0.30624317  0.90131623  0.37951829  1
  Zr  Zr74  1  0.09738076  0.89581963  0.38116235  1
  Zr  Zr75  1  0.29088321  0.91310004  0.63789773  1
  Zr  Zr76  1  0.89089370  0.89504299  0.36540011  1
  Zr  Zr77  1  0.79341936  0.77292601  0.23555243  1
  Zr  Zr78  1  0.09590712  0.10373359  0.10844685  1
  Zr  Zr79  1  -0.01129164  0.19334990  0.26085584  1
  Ta  Ta80  1  0.49428566  0.50139208  0.12048947  1
  Ta  Ta81  1  0.80050583  0.39930057  -0.00959337  1
  Ta  Ta82  1  0.70051667  0.29263043  0.11525410  1
  Ta  Ta83  1  0.39897011  0.59726718  0.24498845  1
  Ta  Ta84  1  0.79589355  -0.00716496  0.74923021  1
  Ta  Ta85  1  0.80287792  0.79211305  -0.00327948  1
  Ta  Ta86  1  0.40643955  0.39472127  0.76361378  1
  Ta  Ta87  1  0.90511961  0.68488690  0.87285086  1
  Ta  Ta88  1  0.08931867  0.69324995  0.38529339  1
  Ta  Ta89  1  0.60815726  0.60118593  0.01287777  1
  Ta  Ta90  1  0.49974918  0.29974990  0.89978125  1
  Ta  Ta91  1  0.50083387  0.10524338  0.89200593  1
  Ta  Ta92  1  0.69995661  0.50617115  0.88397623  1
  Ta  Ta93  1  0.51013661  0.09787937  0.37569528  1
  Ta  Ta94  1  0.19680353  0.59251953  0.50529648  1
  Ta  Ta95  1  0.00102773  0.00218463  0.75294948  1
  Ta  Ta96  1  0.40881137  0.59331543  0.73820045  1
  Ta  Ta97  1  0.90147350  0.50762016  0.38658832  1
  Ta  Ta98  1  0.50605707  0.91029494  0.88413302  1
  Ta  Ta99  1  0.30311261  0.50378812  0.87465351  1
  Ta  Ta100  1  0.40277418  0.20443280  0.48103595  1
  Ta  Ta101  1  -0.00881974  0.59754763  0.23302290  1
  Ta  Ta102  1  0.79558902  0.59568690  0.75534701  1
  Ta  Ta103  1  0.79694657  0.40045511  0.76859197  1
  Ta  Ta104  1  0.30572910  0.10100128  0.64188843  1
  Ta  Ta105  1  0.39481458  0.40365271  0.00010080  1
  Ta  Ta106  1  0.69090384  0.29992130  0.37531659  1
  Ta  Ta107  1  0.20151888  0.20074327  -0.01919713  1
  Ta  Ta108  1  0.59655739  0.19264132  0.24027467  1
  Ta  Ta109  1  0.30247842  0.69088922  0.87764803  1
  Ta  Ta110  1  0.00697158  0.21499436  0.76178266  1
  Ta  Ta111  1  -0.00063663  0.59436967  0.51895574  1
  Ta  Ta112  1  0.80264714  0.60032686  0.00049249  1
  Ta  Ta113  1  0.69868527  0.09890507  0.36281240  1
  Ta  Ta114  1  0.89560988  0.29338951  0.10379343  1
  Ta  Ta115  1  0.00019057  0.40651714  0.51723055  1
  Ta  Ta116  1  0.20135202  0.79166647  0.25122119  1
  Ta  Ta117  1  0.50812575  0.90042288  0.38891625  1
  Ta  Ta118  1  0.89835684  0.10564097  0.86079423  1
  Ta  Ta119  1  0.31164042  0.10814141  0.11526380  1
  Ti  Ti120  1  0.40381292  0.39286639  0.48541858  1
  Ti  Ti121  1  0.88688438  0.08654632  0.38389729  1
  Ti  Ti122  1  0.90098593  0.49372058  0.87496843  1
  Ti  Ti123  1  0.01123439  0.77837420  0.75364779  1
  Ti  Ti124  1  0.50711582  0.70573901  0.38418544  1
  Ti  Ti125  1  0.20151759  0.78913363  -0.01949522  1
  Ti  Ti126  1  0.81216028  0.59457350  0.22391921  1
  Ti  Ti127  1  0.70766183  0.49927099  0.62198275  1
  Ti  Ti128  1  0.10039449  0.69574817  0.61947507  1
  Ti  Ti129  1  0.29827118  0.51259793  0.10912950  1
  Ti  Ti130  1  0.79837611  0.40780744  0.49800869  1
  Ti  Ti131  1  0.70031200  0.70514399  0.39502813  1
  Ti  Ti132  1  0.40802717  0.00383963  0.00312155  1
  Ti  Ti133  1  0.50378759  0.47336246  0.61625543  1
  Ti  Ti134  1  0.10199902  0.29966099  0.62054081  1
  Ti  Ti135  1  0.40693846  0.01692745  0.76196212  1
  Ti  Ti136  1  0.09679099  0.10207304  0.87178221  1
  Ti  Ti137  1  0.49261405  0.11818125  0.62404846  1
  Ti  Ti138  1  0.41029405  0.79854787  0.50936655  1
  Ti  Ti139  1  0.79121035  0.21174480  0.76786785  1
  Ti  Ti140  1  0.70359626  0.69841297  0.88074719  1
  Ti  Ti141  1  0.39414333  0.40729273  0.25262473  1
  Ti  Ti142  1  0.40521865  0.20481001  0.76579332  1
  Ti  Ti143  1  0.89395008  0.49499480  0.63098126  1
  Ti  Ti144  1  0.60051931  0.80115400  0.52295833  1
  Ti  Ti145  1  0.50340410  0.30123205  0.36658405  1
  Ti  Ti146  1  0.30510357  0.30474059  0.88084135  1
  Ti  Ti147  1  0.79271469  0.79409286  0.75152767  1
  Ti  Ti148  1  0.70290616  0.49755078  0.11569575  1
  Ti  Ti149  1  0.60607766  0.01774763  0.00517023  1
  Ti  Ti150  1  0.59997414  0.00441391  0.76003603  1
  Ti  Ti151  1  0.79473315  0.20208298  0.24947843  1
  Ti  Ti152  1  -0.00074175  0.58534987  0.74060013  1
  Ti  Ti153  1  0.40263814  0.19441696  0.25973264  1
  Ti  Ti154  1  -0.00595080  0.79678787  0.51148362  1
  Ti  Ti155  1  0.30164677  0.69721051  0.10485176  1
  Ti  Ti156  1  -0.00362680  0.78631672  -0.00599785  1
  Ti  Ti157  1  0.59071959  0.20692600  0.49576082  1
  Ti  Ti158  1  -0.00654351  0.58849944  0.01261552  1
  Ti  Ti159  1  0.60455975  0.39825970  0.00504691  1
  Mo  Mo160  1  0.08962228  0.69154314  0.88784627  1
  Mo  Mo161  1  0.20050501  0.59861072  -0.01137358  1
  Mo  Mo162  1  0.39304404  0.19999036  -0.01043217  1
  Mo  Mo163  1  0.59767030  0.40084304  0.48543379  1
  Mo  Mo164  1  0.39656506  0.59761521  0.00790767  1
  Mo  Mo165  1  0.10080316  0.08783018  0.39377868  1
  Mo  Mo166  1  0.09783338  0.49566431  0.62337916  1
  Mo  Mo167  1  0.50214696  0.90627945  0.10228199  1
  Mo  Mo168  1  -0.00434426  0.40092998  0.73644784  1
  Mo  Mo169  1  0.80804538  0.02013180  0.25179372  1
  Mo  Mo170  1  0.69712556  0.89787399  0.86212922  1
  Mo  Mo171  1  0.89497890  0.49547389  0.10778462  1
  Mo  Mo172  1  -0.00775520  0.20178600  -0.02551757  1
  Mo  Mo173  1  0.69893370  0.90516024  0.64312020  1
  Mo  Mo174  1  0.70392749  0.69680036  0.62812820  1
  Mo  Mo175  1  0.69950194  0.10937381  0.13819481  1
  Mo  Mo176  1  -0.00927657  0.39930562  0.00786094  1
  Mo  Mo177  1  0.79928625  0.00526379  0.52436854  1
  Mo  Mo178  1  0.59827223  0.00730675  0.24906472  1
  Mo  Mo179  1  0.09227772  0.30046117  0.88542836  1
  Mo  Mo180  1  0.49202274  0.30056802  0.61360287  1
  Mo  Mo181  1  0.70213502  0.69747645  0.11209147  1
  Mo  Mo182  1  0.80013736  0.59673715  0.51954543  1
  Mo  Mo183  1  0.90455926  0.69620565  0.10402529  1
  Mo  Mo184  1  0.90061988  0.30533498  0.87387377  1
  Mo  Mo185  1  0.19774767  0.00725089  0.49327236  1
  Mo  Mo186  1  0.30809988  0.50296508  0.37784912  1
  Mo  Mo187  1  0.69255772  0.10080832  0.85597999  1
  Mo  Mo188  1  0.69288679  0.30897912  0.88882881  1
  Mo  Mo189  1  0.31627923  0.30167616  0.35956354  1
  Mo  Mo190  1  0.59853661  0.19717884  0.00622364  1
  Mo  Mo191  1  0.50092026  0.10310693  0.10979501  1
  Mo  Mo192  1  0.19884986  0.79055798  0.76125114  1
  Mo  Mo193  1  0.39917285  0.80320714  -0.01698990  1
  Mo  Mo194  1  0.09822002  0.50256041  0.11364825  1
  Mo  Mo195  1  0.20360999  0.00826024  0.76674708  1
  Mo  Mo196  1  0.49714631  0.70310203  0.61918315  1
  Mo  Mo197  1  0.31007264  0.10304753  0.87425271  1
  Mo  Mo198  1  0.90725986  0.89386034  0.65404417  1
  Mo  Mo199  1  0.31087821  0.09869203  0.35689905  1
