# generated using pymatgen
data_HfZrTaTiMo
_symmetry_space_group_name_H-M   'P 1'
_cell_length_a   15.92778008
_cell_length_b   15.91791879
_cell_length_c   15.20880307
_cell_angle_alpha   90.00094047
_cell_angle_beta   90.04477725
_cell_angle_gamma   89.90112680
_symmetry_Int_Tables_number   1
_chemical_formula_structural   HfZrTaTiMo
_chemical_formula_sum   'Hf40 Zr40 Ta40 Ti40 Mo40'
_cell_volume   3855.98905538
_cell_formula_units_Z   40
loop_
 _symmetry_equiv_pos_site_id
 _symmetry_equiv_pos_as_xyz
  1  'x, y, z'
loop_
 _atom_site_type_symbol
 _atom_site_label
 _atom_site_symmetry_multiplicity
 _atom_site_fract_x
 _atom_site_fract_y
 _atom_site_fract_z
 _atom_site_occupancy
  Hf  Hf0  1  0.70177740  0.09869381  0.88290129  1
  Hf  Hf1  1  0.89427773  0.89740810  0.88319929  1
  Hf  Hf2  1  0.81411624  0.39801396  0.74420793  1
  Hf  Hf3  1  0.49691098  0.90033359  0.87520457  1
  Hf  Hf4  1  0.51067832  0.49650159  0.65114585  1
  Hf  Hf5  1  0.61140713  0.20758905  0.24745156  1
  Hf  Hf6  1  0.01067236  0.18571579  -0.01852555  1
  Hf  Hf7  1  0.69959642  0.69840278  0.86118509  1
  Hf  Hf8  1  0.09627226  0.50183244  0.12095033  1
  Hf  Hf9  1  0.71235235  0.30972634  0.11027225  1
  Hf  Hf10  1  0.49769633  0.30692020  0.11705339  1
  Hf  Hf11  1  0.38232850  0.00840082  0.50811897  1
  Hf  Hf12  1  0.60498667  0.00463313  0.49729886  1
  Hf  Hf13  1  0.29951932  0.50170524  0.87119177  1
  Hf  Hf14  1  0.49312222  0.90582543  0.36850018  1
  Hf  Hf15  1  -0.00331682  0.20058524  0.74678088  1
  Hf  Hf16  1  0.49123183  0.09334187  0.88412083  1
  Hf  Hf17  1  0.48045161  0.31265150  0.36856825  1
  Hf  Hf18  1  0.70488996  0.51892397  0.63506677  1
  Hf  Hf19  1  0.79942368  0.00088869  0.25268378  1
  Hf  Hf20  1  0.31561617  0.48219043  0.37576327  1
  Hf  Hf21  1  0.28701937  0.68445502  0.38389456  1
  Hf  Hf22  1  0.39476259  0.59433382  0.23768516  1
  Hf  Hf23  1  0.79264727  -0.00421333  0.73675026  1
  Hf  Hf24  1  0.79440384  0.00072080  0.01877326  1
  Hf  Hf25  1  0.69902218  0.88790752  0.13700307  1
  Hf  Hf26  1  0.90027580  0.29816669  0.11570557  1
  Hf  Hf27  1  0.10159594  0.89984162  0.63905580  1
  Hf  Hf28  1  0.60173805  0.79769711  0.26133387  1
  Hf  Hf29  1  0.49165726  0.52090798  0.87239788  1
  Hf  Hf30  1  0.29365789  0.11014509  0.10939808  1
  Hf  Hf31  1  0.11395628  0.30381041  0.38572615  1
  Hf  Hf32  1  0.18021747  0.80142227  0.48747302  1
  Hf  Hf33  1  0.01133264  -0.01989821  0.48439468  1
  Hf  Hf34  1  0.90077861  0.10168223  0.12565214  1
  Hf  Hf35  1  0.09947303  0.69948234  0.12490123  1
  Hf  Hf36  1  0.68961487  0.50608499  0.84652080  1
  Hf  Hf37  1  0.09743355  0.09405121  0.12962757  1
  Hf  Hf38  1  0.48941957  0.69873440  0.38007805  1
  Hf  Hf39  1  0.88299639  0.28732841  0.38527157  1
  Zr  Zr40  1  0.38803635  0.80615448  0.50688747  1
  Zr  Zr41  1  0.11072055  0.29389047  0.11211609  1
  Zr  Zr42  1  0.69465015  0.90161457  0.88079556  1
  Zr  Zr43  1  0.00226038  0.20022316  0.26014409  1
  Zr  Zr44  1  0.21979430  0.39291516  0.24289134  1
  Zr  Zr45  1  0.22411529  0.81068189  0.76821000  1
  Zr  Zr46  1  0.80272208  0.39720689  0.51057349  1
  Zr  Zr47  1  0.40724783  0.58673147  0.51408068  1
  Zr  Zr48  1  0.00586800  0.20120510  0.50528037  1
  Zr  Zr49  1  0.60513830  0.19498945  0.00766644  1
  Zr  Zr50  1  0.89488620  0.08793375  0.60252236  1
  Zr  Zr51  1  0.09815890  0.89243695  0.12660713  1
  Zr  Zr52  1  0.59827692  0.19517406  0.75222106  1
  Zr  Zr53  1  0.39283196  0.19106201  0.74803102  1
  Zr  Zr54  1  0.10835985  0.69722110  0.88891355  1
  Zr  Zr55  1  0.89998796  0.70163184  0.61812249  1
  Zr  Zr56  1  0.50039532  0.31324651  0.88408012  1
  Zr  Zr57  1  0.01467775  0.61304456  0.48869448  1
  Zr  Zr58  1  0.49256695  0.10830436  0.37369260  1
  Zr  Zr59  1  0.80352874  0.19635932  0.73972498  1
  Zr  Zr60  1  0.00091459  0.40108577  -0.01785476  1
  Zr  Zr61  1  0.71378404  0.11620559  0.38470985  1
  Zr  Zr62  1  0.29813844  0.29648779  0.88550475  1
  Zr  Zr63  1  0.68697316  0.31054146  0.63482443  1
  Zr  Zr64  1  0.90461413  0.69360981  0.13625081  1
  Zr  Zr65  1  0.38406406  0.21197559  0.24125049  1
  Zr  Zr66  1  0.60234185  0.60244288  0.26181979  1
  Zr  Zr67  1  0.00486237  0.39896089  0.74301560  1
  Zr  Zr68  1  0.00250580  0.40180758  0.26252266  1
  Zr  Zr69  1  0.58830041  0.41222355  0.48941014  1
  Zr  Zr70  1  0.09914670  0.70639750  0.63918605  1
  Zr  Zr71  1  0.49711667  0.90451893  0.62251985  1
  Zr  Zr72  1  0.89151320  0.49503096  0.12556577  1
  Zr  Zr73  1  0.19529444  -0.00395826  -0.00995753  1
  Zr  Zr74  1  0.70945095  0.50838780  0.38332237  1
  Zr  Zr75  1  0.51041151  0.50824641  0.11880455  1
  Zr  Zr76  1  0.20444482  0.40114449  0.51769726  1
  Zr  Zr77  1  0.09434766  0.90064677  0.87823321  1
  Zr  Zr78  1  0.60617246  0.81459266  0.73383321  1
  Zr  Zr79  1  0.79487100  0.78613805  0.00975939  1
  Ta  Ta80  1  0.41019688  0.78386034  0.74947245  1
  Ta  Ta81  1  0.37842558  -0.01251361  0.74407115  1
  Ta  Ta82  1  -0.00645021  0.00108386  0.74930387  1
  Ta  Ta83  1  0.29772737  0.90076977  0.36177680  1
  Ta  Ta84  1  0.21117793  0.18564415  0.50382738  1
  Ta  Ta85  1  0.59615628  0.21110610  0.49980634  1
  Ta  Ta86  1  0.80369035  0.80130694  0.74000509  1
  Ta  Ta87  1  0.10864446  0.09514018  0.37433260  1
  Ta  Ta88  1  0.60340514  0.80076949  0.49454193  1
  Ta  Ta89  1  0.90601529  0.50547707  0.37905944  1
  Ta  Ta90  1  0.20039986  0.39685107  0.74286131  1
  Ta  Ta91  1  0.20047480  0.59678328  0.24139519  1
  Ta  Ta92  1  0.20149970  0.59919755  0.74962505  1
  Ta  Ta93  1  0.90580340  0.89375857  0.13803435  1
  Ta  Ta94  1  0.39310012  0.39757303  0.74200518  1
  Ta  Ta95  1  0.70633680  0.70548098  0.61436844  1
  Ta  Ta96  1  0.49452414  0.10046540  0.12556413  1
  Ta  Ta97  1  0.29586548  0.69807535  0.62470722  1
  Ta  Ta98  1  0.11542668  0.50959164  0.37787776  1
  Ta  Ta99  1  0.89477904  0.69566937  0.87255539  1
  Ta  Ta100  1  0.89124599  0.50496577  0.87318157  1
  Ta  Ta101  1  0.39668111  0.79844135  -0.00141792  1
  Ta  Ta102  1  0.60008249  0.00595791  0.24449172  1
  Ta  Ta103  1  0.49387962  0.89587054  0.13226263  1
  Ta  Ta104  1  0.90022842  0.09343972  0.38053736  1
  Ta  Ta105  1  0.49336468  0.10692444  0.61666619  1
  Ta  Ta106  1  0.59613959  -0.00407404  0.02306711  1
  Ta  Ta107  1  -0.00033462  0.59677976  0.75948519  1
  Ta  Ta108  1  0.39271409  0.00094065  0.23820425  1
  Ta  Ta109  1  0.20400870  0.00086779  0.25034851  1
  Ta  Ta110  1  0.39122702  0.41778344  0.00981638  1
  Ta  Ta111  1  0.89895652  0.08996001  0.88136075  1
  Ta  Ta112  1  0.59995575  0.60929228  0.50213814  1
  Ta  Ta113  1  0.39835482  0.39076249  0.52254274  1
  Ta  Ta114  1  0.70546718  0.30600587  0.88013943  1
  Ta  Ta115  1  0.60292462  0.40381655  0.25533990  1
  Ta  Ta116  1  0.79241895  0.39234566  0.26186251  1
  Ta  Ta117  1  0.00224539  0.40499193  0.50516692  1
  Ta  Ta118  1  0.10888268  0.09049084  0.63074368  1
  Ta  Ta119  1  0.78589863  0.58711557  0.00176829  1
  Ti  Ti120  1  0.71526096  0.90120826  0.60047834  1
  Ti  Ti121  1  -0.00461646  0.79783600  0.00101184  1
  Ti  Ti122  1  -0.00871609  0.59939352  -0.01166597  1
  Ti  Ti123  1  0.11130927  0.29843163  0.87350865  1
  Ti  Ti124  1  0.49683274  0.70556063  0.12010321  1
  Ti  Ti125  1  0.29602075  0.70329655  0.11651885  1
  Ti  Ti126  1  0.70022390  0.68914040  0.13453502  1
  Ti  Ti127  1  0.31661065  0.68990027  0.88093024  1
  Ti  Ti128  1  0.00100222  0.79715160  0.26985450  1
  Ti  Ti129  1  0.60173014  0.61271125  -0.00106306  1
  Ti  Ti130  1  0.10710342  0.49927892  0.87581387  1
  Ti  Ti131  1  0.29597373  0.30079486  0.09488021  1
  Ti  Ti132  1  0.20265930  0.19927025  0.26046927  1
  Ti  Ti133  1  0.21319893  0.59276980  0.00757727  1
  Ti  Ti134  1  0.71425762  0.70546808  0.38871880  1
  Ti  Ti135  1  0.29857357  0.50427975  0.63688215  1
  Ti  Ti136  1  0.20219182  -0.00719248  0.49311812  1
  Ti  Ti137  1  0.57469218  0.63622161  0.73898942  1
  Ti  Ti138  1  0.29509594  0.89282512  0.12310116  1
  Ti  Ti139  1  0.19771095  0.18914137  0.75307853  1
  Ti  Ti140  1  0.89663970  0.70363580  0.37694585  1
  Ti  Ti141  1  0.61560910  0.42191982  -0.00256189  1
  Ti  Ti142  1  0.30183371  0.10294549  0.37242843  1
  Ti  Ti143  1  0.90487154  0.51145596  0.61803882  1
  Ti  Ti144  1  0.89020812  0.29391511  0.88705310  1
  Ti  Ti145  1  0.49700130  0.29882236  0.63277616  1
  Ti  Ti146  1  0.71268980  0.89734355  0.37738340  1
  Ti  Ti147  1  0.59937590  0.00898068  0.73257403  1
  Ti  Ti148  1  0.39869405  -0.00614797  0.01134468  1
  Ti  Ti149  1  0.10279226  0.50984446  0.62484839  1
  Ti  Ti150  1  0.90378075  0.89002797  0.60942770  1
  Ti  Ti151  1  0.29749509  0.09590126  0.88319688  1
  Ti  Ti152  1  -0.00663572  0.79947582  0.76075754  1
  Ti  Ti153  1  0.00260901  -0.00682108  0.26406675  1
  Ti  Ti154  1  0.20155775  0.79605909  0.25440861  1
  Ti  Ti155  1  0.29831564  0.28555115  0.62654153  1
  Ti  Ti156  1  0.80439285  0.59944101  0.25501652  1
  Ti  Ti157  1  0.10585340  0.29362275  0.62519407  1
  Ti  Ti158  1  0.59482260  0.79760920  0.00493006  1
  Ti  Ti159  1  0.39187494  0.79729202  0.24499557  1
  Mo  Mo160  1  0.10236326  0.69609061  0.35477271  1
  Mo  Mo161  1  0.09756193  0.09711060  0.85340884  1
  Mo  Mo162  1  0.39339125  0.60812335  0.73972276  1
  Mo  Mo163  1  0.28928842  0.09411073  0.62925123  1
  Mo  Mo164  1  0.80430589  0.60325160  0.49536253  1
  Mo  Mo165  1  0.20046335  0.00541409  0.76136219  1
  Mo  Mo166  1  0.20340720  0.59875628  0.51474619  1
  Mo  Mo167  1  0.50201023  0.70693939  0.88980699  1
  Mo  Mo168  1  0.80161591  0.20457204  0.24191061  1
  Mo  Mo169  1  0.31137585  0.90069626  0.88936918  1
  Mo  Mo170  1  0.89919192  0.89268450  0.36397564  1
  Mo  Mo171  1  0.28921794  0.89718810  0.62474062  1
  Mo  Mo172  1  0.00327341  0.59989832  0.26704799  1
  Mo  Mo173  1  0.69314560  0.30337398  0.37733106  1
  Mo  Mo174  1  0.49862340  0.49956666  0.36783346  1
  Mo  Mo175  1  0.80268823  0.80177009  0.49355580  1
  Mo  Mo176  1  0.80458308  -0.00759141  0.48895395  1
  Mo  Mo177  1  0.39983328  0.19652089  0.00237039  1
  Mo  Mo178  1  -0.00792102  -0.00668923  -0.00174571  1
  Mo  Mo179  1  0.29674983  0.50155430  0.11921420  1
  Mo  Mo180  1  0.69947826  0.10075040  0.12996742  1
  Mo  Mo181  1  0.19789758  0.40579722  -0.00623883  1
  Mo  Mo182  1  0.59287791  0.39582991  0.76457570  1
  Mo  Mo183  1  0.30199183  0.29088411  0.39488746  1
  Mo  Mo184  1  0.69192663  0.10002993  0.60928249  1
  Mo  Mo185  1  0.39723846  0.20378040  0.51102210  1
  Mo  Mo186  1  0.80249597  0.79397259  0.25835164  1
  Mo  Mo187  1  0.80528612  0.19947691  -0.00741007  1
  Mo  Mo188  1  0.90685007  0.30160542  0.61209674  1
  Mo  Mo189  1  0.39927137  0.61009358  0.01399790  1
  Mo  Mo190  1  0.19618439  0.19630007  -0.02020500  1
  Mo  Mo191  1  0.70602852  0.50271774  0.13609010  1
  Mo  Mo192  1  0.21077033  0.79057052  -0.00402484  1
  Mo  Mo193  1  0.81019489  0.60544355  0.74568614  1
  Mo  Mo194  1  0.40067502  0.40029704  0.22451373  1
  Mo  Mo195  1  0.79634246  0.40640261  -0.01958408  1
  Mo  Mo196  1  -0.00176341  0.80351163  0.47925581  1
  Mo  Mo197  1  0.79154027  0.19824813  0.51975585  1
  Mo  Mo198  1  0.10715648  0.89913261  0.35332059  1
  Mo  Mo199  1  0.50044451  0.70322589  0.60611002  1
