# generated using pymatgen
data_HfZrTaTiMo
_symmetry_space_group_name_H-M   'P 1'
_cell_length_a   15.92530336
_cell_length_b   15.92859568
_cell_length_c   15.20851584
_cell_angle_alpha   90.02631968
_cell_angle_beta   90.02921623
_cell_angle_gamma   89.86300637
_symmetry_Int_Tables_number   1
_chemical_formula_structural   HfZrTaTiMo
_chemical_formula_sum   'Hf40 Zr40 Ta40 Ti40 Mo40'
_cell_volume   3857.89757802
_cell_formula_units_Z   40
loop_
 _symmetry_equiv_pos_site_id
 _symmetry_equiv_pos_as_xyz
  1  'x, y, z'
loop_
 _atom_site_type_symbol
 _atom_site_label
 _atom_site_symmetry_multiplicity
 _atom_site_fract_x
 _atom_site_fract_y
 _atom_site_fract_z
 _atom_site_occupancy
  Hf  Hf0  1  0.70561090  0.48832904  0.87152120  1
  Hf  Hf1  1  0.89706785  0.70772963  0.12732415  1
  Hf  Hf2  1  0.29511938  0.11364609  0.38731912  1
  Hf  Hf3  1  0.09901913  0.11115631  0.37058125  1
  Hf  Hf4  1  0.90903553  0.30267125  0.37631429  1
  Hf  Hf5  1  0.70755676  0.29942506  0.38318660  1
  Hf  Hf6  1  0.69708603  0.51344657  0.14199589  1
  Hf  Hf7  1  0.60607802  -0.00796710  0.72829720  1
  Hf  Hf8  1  -0.00451285  0.00999944  0.75097905  1
  Hf  Hf9  1  0.00163479  0.58123341  0.51445846  1
  Hf  Hf10  1  -0.00730040  0.41273524  0.00195981  1
  Hf  Hf11  1  0.88991090  0.69817460  0.61841149  1
  Hf  Hf12  1  0.40883251  0.80647421  0.25363662  1
  Hf  Hf13  1  0.59481137  0.39402001  0.25337609  1
  Hf  Hf14  1  0.69370980  0.09237062  0.88230903  1
  Hf  Hf15  1  0.10912966  0.30046052  0.37131802  1
  Hf  Hf16  1  0.29046855  0.49322401  0.37384299  1
  Hf  Hf17  1  0.18999436  0.40897634  0.51699289  1
  Hf  Hf18  1  0.70054847  0.50859572  0.37804697  1
  Hf  Hf19  1  0.51501118  0.89641151  0.88211245  1
  Hf  Hf20  1  0.59797942  0.18659700  0.25959422  1
  Hf  Hf21  1  0.00358623  0.79728243  0.74971700  1
  Hf  Hf22  1  0.80545800  0.19856000  0.75145217  1
  Hf  Hf23  1  0.09273512  0.89399216  0.13314397  1
  Hf  Hf24  1  0.79596801  0.00081432  0.73653216  1
  Hf  Hf25  1  0.80486696  0.59455912  -0.00638223  1
  Hf  Hf26  1  0.40146496  0.79566558  0.73533402  1
  Hf  Hf27  1  0.30131352  0.28215095  0.61953888  1
  Hf  Hf28  1  0.19919635  0.60779460  0.75891986  1
  Hf  Hf29  1  0.29211010  0.09289789  0.62650488  1
  Hf  Hf30  1  0.69205273  0.70571195  0.86113000  1
  Hf  Hf31  1  0.69582867  0.29986866  0.88791401  1
  Hf  Hf32  1  0.89934222  0.50939849  0.13898941  1
  Hf  Hf33  1  0.49793012  0.10963939  0.88199779  1
  Hf  Hf34  1  0.69180669  0.69562805  0.60719330  1
  Hf  Hf35  1  0.09690778  0.10383242  0.13520135  1
  Hf  Hf36  1  0.80128860  0.19374230  0.00830040  1
  Hf  Hf37  1  0.18908352  0.59800839  -0.01505072  1
  Hf  Hf38  1  0.88633605  0.90324677  0.87250503  1
  Hf  Hf39  1  0.19639135  0.78726400  0.25652895  1
  Zr  Zr40  1  0.89637942  0.89990033  0.13232176  1
  Zr  Zr41  1  0.39214020  0.60508449  0.25159478  1
  Zr  Zr42  1  0.40616284  0.59218903  0.51099888  1
  Zr  Zr43  1  0.29597213  0.69526507  0.10495849  1
  Zr  Zr44  1  0.50342002  0.30069010  0.89530635  1
  Zr  Zr45  1  0.00519352  0.79982543  -0.01410531  1
  Zr  Zr46  1  0.59303668  0.80174469  0.72543598  1
  Zr  Zr47  1  0.58758129  0.40799390  0.50329135  1
  Zr  Zr48  1  0.00373887  0.19866576  -0.00680641  1
  Zr  Zr49  1  0.81352904  0.00260826  0.48913963  1
  Zr  Zr50  1  0.39800261  0.00153006  0.00885395  1
  Zr  Zr51  1  0.31895373  0.50551887  0.87479840  1
  Zr  Zr52  1  0.00914428  0.41066176  0.24941875  1
  Zr  Zr53  1  0.60781269  -0.00895668  0.02240045  1
  Zr  Zr54  1  0.21218144  0.00541124  0.24884358  1
  Zr  Zr55  1  0.40663066  -0.00929520  0.74759183  1
  Zr  Zr56  1  0.61266743  0.78846837  0.25125547  1
  Zr  Zr57  1  0.11153725  0.90615505  0.63257037  1
  Zr  Zr58  1  0.10793248  0.30352586  0.12854946  1
  Zr  Zr59  1  0.39244928  0.19360462  0.24400425  1
  Zr  Zr60  1  0.89249534  0.31778536  0.87977947  1
  Zr  Zr61  1  0.29839124  0.69424555  0.38936105  1
  Zr  Zr62  1  -0.00193582  0.81178071  0.49917010  1
  Zr  Zr63  1  0.50456963  0.69263077  0.12454691  1
  Zr  Zr64  1  0.48906513  0.11410669  0.61877003  1
  Zr  Zr65  1  0.59293933  0.21270637  0.73955588  1
  Zr  Zr66  1  0.29899651  0.89476533  0.12331337  1
  Zr  Zr67  1  0.49357623  0.69276277  0.88069400  1
  Zr  Zr68  1  0.11008394  0.69827930  0.62150678  1
  Zr  Zr69  1  0.10359846  0.10372547  0.61982468  1
  Zr  Zr70  1  0.30676097  0.29162036  0.88284871  1
  Zr  Zr71  1  0.88891670  0.70262377  0.86280414  1
  Zr  Zr72  1  0.70967291  0.10806762  0.60208632  1
  Zr  Zr73  1  0.40715616  -0.00354579  0.48999378  1
  Zr  Zr74  1  0.19435193  0.39626467  0.75118155  1
  Zr  Zr75  1  0.19482083  -0.00238025  -0.00482550  1
  Zr  Zr76  1  0.41603915  0.38901328  0.73466495  1
  Zr  Zr77  1  0.70081896  0.29949841  0.60551292  1
  Zr  Zr78  1  0.70385800  0.29835991  0.12620546  1
  Zr  Zr79  1  0.60146309  0.59765164  -0.00290561  1
  Ta  Ta80  1  0.29668258  0.89450126  0.61761444  1
  Ta  Ta81  1  0.30342251  0.89715020  0.38019481  1
  Ta  Ta82  1  0.90013923  0.29214355  0.61566388  1
  Ta  Ta83  1  0.29694000  0.30106211  0.11811628  1
  Ta  Ta84  1  0.49922792  0.29434418  0.11942257  1
  Ta  Ta85  1  0.48411860  0.30085067  0.37839655  1
  Ta  Ta86  1  0.80171219  0.19456833  0.25684201  1
  Ta  Ta87  1  0.29702112  0.50606021  0.63312918  1
  Ta  Ta88  1  -0.00054896  0.60188726  -0.01946575  1
  Ta  Ta89  1  -0.00362542  0.59282186  0.75150878  1
  Ta  Ta90  1  0.89597153  0.69931870  0.39042198  1
  Ta  Ta91  1  0.60110215  0.40471315  0.01624506  1
  Ta  Ta92  1  0.60094361  -0.00276375  0.48805831  1
  Ta  Ta93  1  0.09822970  0.69083776  0.38801043  1
  Ta  Ta94  1  0.79896297  0.40038502  0.72911500  1
  Ta  Ta95  1  0.49478041  0.50262698  0.36275012  1
  Ta  Ta96  1  0.49645838  0.50028148  0.13715187  1
  Ta  Ta97  1  0.81395126  0.41302590  0.50724371  1
  Ta  Ta98  1  0.50805572  0.70181836  0.39141528  1
  Ta  Ta99  1  0.70398346  0.89098313  0.38169000  1
  Ta  Ta100  1  0.90049098  0.09779964  0.13525643  1
  Ta  Ta101  1  0.39285752  0.39549373  0.24250968  1
  Ta  Ta102  1  0.90000780  0.50740325  0.37202298  1
  Ta  Ta103  1  -0.00552997  -0.00077936  0.26234422  1
  Ta  Ta104  1  -0.00175745  0.20456116  0.75171186  1
  Ta  Ta105  1  0.29145946  0.49595261  0.12244180  1
  Ta  Ta106  1  -0.00292557  0.00184339  -0.00663523  1
  Ta  Ta107  1  0.40433111  0.40690662  0.01381786  1
  Ta  Ta108  1  0.90154216  0.29815016  0.13459593  1
  Ta  Ta109  1  0.79548032  0.59133759  0.74105586  1
  Ta  Ta110  1  0.30130556  0.09993128  0.86432321  1
  Ta  Ta111  1  0.10207964  0.90017304  0.36992426  1
  Ta  Ta112  1  0.61011046  0.80082297  0.01715839  1
  Ta  Ta113  1  0.59055304  0.19278131  0.47951419  1
  Ta  Ta114  1  0.20056702  0.80180016  0.49126052  1
  Ta  Ta115  1  0.79661701  0.00036246  0.26490936  1
  Ta  Ta116  1  0.79352050  0.62172034  0.26064261  1
  Ta  Ta117  1  0.41281185  -0.00112951  0.25355367  1
  Ta  Ta118  1  0.39595912  0.39952990  0.50794635  1
  Ta  Ta119  1  0.30500704  0.70733025  0.88055155  1
  Ti  Ti120  1  0.30014283  0.89650894  0.86969703  1
  Ti  Ti121  1  0.19625900  0.19813866  0.75571472  1
  Ti  Ti122  1  -0.00706443  0.39981252  0.73803338  1
  Ti  Ti123  1  0.40975675  0.80482159  0.00644402  1
  Ti  Ti124  1  0.09641747  0.29410440  0.62608139  1
  Ti  Ti125  1  -0.00439900  0.19566039  0.50671362  1
  Ti  Ti126  1  0.41380591  0.60327485  0.73470223  1
  Ti  Ti127  1  0.10823857  0.90188451  0.86039118  1
  Ti  Ti128  1  0.80265852  0.40223854  0.25350807  1
  Ti  Ti129  1  0.19554582  -0.00461269  0.48898571  1
  Ti  Ti130  1  0.60273999  0.40658363  0.73379344  1
  Ti  Ti131  1  0.29822975  0.70229219  0.61820006  1
  Ti  Ti132  1  0.71101913  0.89237340  0.14631071  1
  Ti  Ti133  1  0.89774069  0.09967355  0.88154372  1
  Ti  Ti134  1  0.10314965  0.50352601  0.37532858  1
  Ti  Ti135  1  0.90414464  0.10746362  0.36870812  1
  Ti  Ti136  1  0.89700894  0.90202429  0.62243466  1
  Ti  Ti137  1  0.78470692  0.81195053  0.73465156  1
  Ti  Ti138  1  0.20878251  0.19063159  0.00336344  1
  Ti  Ti139  1  0.19004090  0.59713625  0.24427084  1
  Ti  Ti140  1  0.09927310  0.29811549  0.87745963  1
  Ti  Ti141  1  0.09155052  0.69644368  0.12074607  1
  Ti  Ti142  1  0.00263748  0.61090489  0.25911257  1
  Ti  Ti143  1  0.50728024  0.49780938  0.86864909  1
  Ti  Ti144  1  0.10501828  0.10011623  0.87085217  1
  Ti  Ti145  1  0.08806728  0.49303986  0.86507690  1
  Ti  Ti146  1  0.00109500  0.40086062  0.51206020  1
  Ti  Ti147  1  0.19248898  0.79705012  -0.01537288  1
  Ti  Ti148  1  0.69671523  0.51009423  0.61543830  1
  Ti  Ti149  1  0.50208387  0.10001583  0.12187047  1
  Ti  Ti150  1  0.70198259  0.70016483  0.39905372  1
  Ti  Ti151  1  0.10132821  0.50757143  0.12261660  1
  Ti  Ti152  1  0.78687999  0.80397266  -0.00260009  1
  Ti  Ti153  1  -0.00588110  0.79650171  0.26800588  1
  Ti  Ti154  1  -0.00004917  0.00232144  0.49333803  1
  Ti  Ti155  1  0.59653028  -0.00860668  0.26147357  1
  Ti  Ti156  1  0.79881797  -0.00566217  0.00723607  1
  Ti  Ti157  1  0.70448261  0.09366228  0.13577527  1
  Ti  Ti158  1  0.29100260  0.30234154  0.37592370  1
  Ti  Ti159  1  0.19753783  0.40316876  -0.00919016  1
  Mo  Mo160  1  -0.00499200  0.19874023  0.24638185  1
  Mo  Mo161  1  0.60133349  0.19340493  0.02010182  1
  Mo  Mo162  1  0.10064954  0.70052421  0.86777670  1
  Mo  Mo163  1  0.19754348  0.59648141  0.51330645  1
  Mo  Mo164  1  0.39911891  0.79929566  0.50799332  1
  Mo  Mo165  1  0.71142423  0.70355694  0.12291350  1
  Mo  Mo166  1  0.29865206  0.10520602  0.12180722  1
  Mo  Mo167  1  0.19249311  0.20644576  0.50601546  1
  Mo  Mo168  1  0.20361804  -0.00076792  0.76439008  1
  Mo  Mo169  1  0.21286333  0.80239816  0.76036590  1
  Mo  Mo170  1  0.50503542  0.89576883  0.37772518  1
  Mo  Mo171  1  0.80249835  0.59625091  0.49796214  1
  Mo  Mo172  1  0.39695897  0.20544611  0.48424680  1
  Mo  Mo173  1  0.79886286  0.40317210  0.02200074  1
  Mo  Mo174  1  0.80935987  0.20474725  0.48030776  1
  Mo  Mo175  1  0.60003522  0.60279323  0.26843426  1
  Mo  Mo176  1  0.39777023  0.59127056  0.00485957  1
  Mo  Mo177  1  0.49884631  0.69808693  0.60925004  1
  Mo  Mo178  1  0.50543700  0.50361468  0.63566220  1
  Mo  Mo179  1  0.20515732  0.40933144  0.24773137  1
  Mo  Mo180  1  0.79974707  0.80363753  0.49730873  1
  Mo  Mo181  1  0.50670162  0.90042807  0.13169163  1
  Mo  Mo182  1  0.59575482  0.80570400  0.49952425  1
  Mo  Mo183  1  0.70090326  0.09477691  0.37022536  1
  Mo  Mo184  1  0.50006615  0.09775202  0.36880517  1
  Mo  Mo185  1  0.20301591  0.20953818  0.23974706  1
  Mo  Mo186  1  0.39548658  0.19708364  0.01635906  1
  Mo  Mo187  1  0.59715774  0.59865435  0.48931740  1
  Mo  Mo188  1  0.49733489  0.29986797  0.60226360  1
  Mo  Mo189  1  0.70384468  0.89902536  0.59658412  1
  Mo  Mo190  1  0.59780373  0.59064227  0.74773525  1
  Mo  Mo191  1  0.39642229  0.19690153  0.75394187  1
  Mo  Mo192  1  0.89812538  0.49525246  0.63392743  1
  Mo  Mo193  1  0.49940360  0.89892685  0.60216670  1
  Mo  Mo194  1  0.90804659  0.10583742  0.62018748  1
  Mo  Mo195  1  0.70186193  0.89549170  0.87888044  1
  Mo  Mo196  1  0.89773312  0.49817448  0.85794851  1
  Mo  Mo197  1  0.90454600  0.90028027  0.36813248  1
  Mo  Mo198  1  0.09836641  0.49358805  0.64634647  1
  Mo  Mo199  1  0.80466668  0.80036943  0.27328406  1
