# generated using pymatgen
data_HfZrTaTiMo
_symmetry_space_group_name_H-M   'P 1'
_cell_length_a   15.92676046
_cell_length_b   15.92506298
_cell_length_c   15.19842427
_cell_angle_alpha   89.95590949
_cell_angle_beta   90.01115203
_cell_angle_gamma   90.04058419
_symmetry_Int_Tables_number   1
_chemical_formula_structural   HfZrTaTiMo
_chemical_formula_sum   'Hf40 Zr40 Ta40 Ti40 Mo40'
_cell_volume   3854.84504179
_cell_formula_units_Z   40
loop_
 _symmetry_equiv_pos_site_id
 _symmetry_equiv_pos_as_xyz
  1  'x, y, z'
loop_
 _atom_site_type_symbol
 _atom_site_label
 _atom_site_symmetry_multiplicity
 _atom_site_fract_x
 _atom_site_fract_y
 _atom_site_fract_z
 _atom_site_occupancy
  Hf  Hf0  1  0.57667436  0.20502739  0.23528778  1
  Hf  Hf1  1  0.70193223  0.49072803  0.62728837  1
  Hf  Hf2  1  0.59423424  -0.00148679  0.74915871  1
  Hf  Hf3  1  0.69821974  0.88752702  0.11150435  1
  Hf  Hf4  1  0.10477805  0.69376267  0.13553829  1
  Hf  Hf5  1  0.60355645  0.59765255  0.23683482  1
  Hf  Hf6  1  0.41320236  0.38659775  0.24095020  1
  Hf  Hf7  1  0.00728598  0.80554151  0.74911763  1
  Hf  Hf8  1  0.51435086  0.49680674  0.37791229  1
  Hf  Hf9  1  0.29364024  0.50061385  0.13055675  1
  Hf  Hf10  1  -0.01464575  0.20610757  0.26719516  1
  Hf  Hf11  1  0.70198499  0.10190782  0.39040288  1
  Hf  Hf12  1  0.00016574  0.20100878  0.74707743  1
  Hf  Hf13  1  0.89347291  0.88855508  0.12142884  1
  Hf  Hf14  1  0.81749011  0.39128518  -0.00690654  1
  Hf  Hf15  1  0.09635804  0.29408577  0.12258787  1
  Hf  Hf16  1  0.50001489  0.11259855  0.39321966  1
  Hf  Hf17  1  0.59432398  0.21007194  0.75400772  1
  Hf  Hf18  1  0.30773763  0.48750441  0.88494619  1
  Hf  Hf19  1  0.58475771  0.18962011  -0.00122936  1
  Hf  Hf20  1  0.20006285  0.60910210  0.48058752  1
  Hf  Hf21  1  0.36855121  0.19112760  0.02190779  1
  Hf  Hf22  1  0.80115102  0.59408974  0.24884128  1
  Hf  Hf23  1  0.11456618  0.69124284  0.63735983  1
  Hf  Hf24  1  0.89841522  0.90485011  0.85921502  1
  Hf  Hf25  1  0.50192129  0.70445513  0.37130597  1
  Hf  Hf26  1  0.80558302  0.79721217  0.51829779  1
  Hf  Hf27  1  0.39863427  0.60449665  0.75389492  1
  Hf  Hf28  1  0.46474998  0.09095195  0.86951148  1
  Hf  Hf29  1  0.19693038  0.00542560  0.74926905  1
  Hf  Hf30  1  0.90355166  0.10774188  0.11503735  1
  Hf  Hf31  1  0.09774610  0.10220780  0.88097103  1
  Hf  Hf32  1  0.68961103  0.30433846  0.37316290  1
  Hf  Hf33  1  0.69853658  0.69455985  0.38280317  1
  Hf  Hf34  1  0.00987714  0.40490530  -0.00671154  1
  Hf  Hf35  1  0.30210698  0.10707630  0.38138926  1
  Hf  Hf36  1  0.60610146  0.21484389  0.52123686  1
  Hf  Hf37  1  0.10352176  0.10228070  0.11556904  1
  Hf  Hf38  1  0.50107767  0.49899128  0.10072462  1
  Hf  Hf39  1  0.80086899  -0.00168016  -0.00792026  1
  Zr  Zr40  1  0.60675596  0.38029518  0.00198381  1
  Zr  Zr41  1  -0.00280986  0.00459246  0.26150078  1
  Zr  Zr42  1  0.79978730  0.19726591  0.25653563  1
  Zr  Zr43  1  0.69480471  0.68582001  0.62681109  1
  Zr  Zr44  1  0.39845604  0.79216172  0.51601734  1
  Zr  Zr45  1  0.30058569  0.90037358  0.12870781  1
  Zr  Zr46  1  0.90078797  0.69577017  0.36908951  1
  Zr  Zr47  1  0.47610001  0.30863228  0.88459538  1
  Zr  Zr48  1  -0.00674362  0.40111825  0.76256156  1
  Zr  Zr49  1  0.21210163  0.80368298  0.75887096  1
  Zr  Zr50  1  0.80416801  -0.00561006  0.25651840  1
  Zr  Zr51  1  0.08894626  0.31414590  0.38455502  1
  Zr  Zr52  1  -0.00673302  0.78940574  -0.00914023  1
  Zr  Zr53  1  0.69276608  0.09065480  0.12002584  1
  Zr  Zr54  1  0.10531931  0.69475439  0.86969607  1
  Zr  Zr55  1  0.59814797  -0.00183241  0.25707448  1
  Zr  Zr56  1  0.40146024  0.40162728  0.50103588  1
  Zr  Zr57  1  0.31301085  0.89747202  0.37000484  1
  Zr  Zr58  1  0.10494657  0.90197106  0.11451348  1
  Zr  Zr59  1  0.69752618  0.50135180  0.88841458  1
  Zr  Zr60  1  -0.00045352  0.80202002  0.25824540  1
  Zr  Zr61  1  0.09201408  0.30364076  0.60788783  1
  Zr  Zr62  1  0.79357123  0.20683513  -0.01899081  1
  Zr  Zr63  1  0.09350106  0.50666332  0.62526663  1
  Zr  Zr64  1  0.69944216  0.88964807  0.38438433  1
  Zr  Zr65  1  0.50220163  0.89840624  0.63037583  1
  Zr  Zr66  1  0.50108796  0.89314919  0.11349814  1
  Zr  Zr67  1  0.90624146  0.48269651  0.37624431  1
  Zr  Zr68  1  0.30333995  0.50258835  0.35714194  1
  Zr  Zr69  1  0.20003949  0.39994617  0.75271355  1
  Zr  Zr70  1  0.70872943  0.50398498  0.10988040  1
  Zr  Zr71  1  0.39855522  0.61997440  -0.00471035  1
  Zr  Zr72  1  0.51597427  0.51132212  0.62002962  1
  Zr  Zr73  1  0.69836770  0.09218794  0.86417975  1
  Zr  Zr74  1  0.19678793  0.59524869  0.00016081  1
  Zr  Zr75  1  0.40798713  0.01358695  0.24230699  1
  Zr  Zr76  1  0.39632097  0.60715876  0.50976664  1
  Zr  Zr77  1  0.91001895  0.68284447  0.63296829  1
  Zr  Zr78  1  0.09609863  0.10732369  0.39394995  1
  Zr  Zr79  1  0.00707086  0.79228079  0.50037397  1
  Ta  Ta80  1  0.09486315  0.09819544  0.61436165  1
  Ta  Ta81  1  0.79814733  0.20471744  0.74306072  1
  Ta  Ta82  1  0.70317000  0.89376057  0.86777655  1
  Ta  Ta83  1  0.30027653  0.29922553  0.37423232  1
  Ta  Ta84  1  0.59962452  0.60273584  0.77292418  1
  Ta  Ta85  1  0.22169420  0.01597764  -0.00929366  1
  Ta  Ta86  1  0.81996573  0.61214314  -0.01117448  1
  Ta  Ta87  1  0.30519693  0.70372099  0.35077355  1
  Ta  Ta88  1  0.21716524  0.80209788  -0.01335811  1
  Ta  Ta89  1  0.19860989  0.20203431  0.74155023  1
  Ta  Ta90  1  0.60026693  0.79321201  0.75765102  1
  Ta  Ta91  1  0.89302864  0.30222402  0.61648782  1
  Ta  Ta92  1  0.39076126  0.20956191  0.73347054  1
  Ta  Ta93  1  0.29488203  0.30867303  0.61592664  1
  Ta  Ta94  1  0.39954021  0.40343079  0.73708111  1
  Ta  Ta95  1  0.20653938  0.79554960  0.49805137  1
  Ta  Ta96  1  0.10418028  0.90037708  0.38909380  1
  Ta  Ta97  1  0.40122109  0.00272309  0.50819725  1
  Ta  Ta98  1  0.80713907  0.59027187  0.76436932  1
  Ta  Ta99  1  0.80014994  0.39470232  0.76182075  1
  Ta  Ta100  1  0.89958850  0.10049916  0.62278417  1
  Ta  Ta101  1  0.29682380  0.10434164  0.61993198  1
  Ta  Ta102  1  0.49512679  0.10543333  0.62541688  1
  Ta  Ta103  1  0.19996185  0.41169586  0.49078053  1
  Ta  Ta104  1  0.10180078  0.90492428  0.61480567  1
  Ta  Ta105  1  0.32073023  0.92183835  0.86923156  1
  Ta  Ta106  1  0.40639475  0.79979923  0.75691575  1
  Ta  Ta107  1  0.90893247  0.50240471  0.12521179  1
  Ta  Ta108  1  0.70737458  0.70483032  0.10655390  1
  Ta  Ta109  1  0.90351130  0.90896797  0.63519641  1
  Ta  Ta110  1  0.60157597  -0.00048473  0.51348438  1
  Ta  Ta111  1  0.80319624  0.58812792  0.49806597  1
  Ta  Ta112  1  0.29867914  0.90286909  0.62722776  1
  Ta  Ta113  1  0.60437541  0.39605093  0.23527929  1
  Ta  Ta114  1  0.20539854  -0.00142877  0.50034579  1
  Ta  Ta115  1  0.80656778  0.38984824  0.24267092  1
  Ta  Ta116  1  0.00135578  0.59334033  -0.00262607  1
  Ta  Ta117  1  0.19580276  0.00329921  0.26241838  1
  Ta  Ta118  1  0.30432603  0.71190527  0.13878649  1
  Ta  Ta119  1  0.40977133  0.60475589  0.23612868  1
  Ti  Ti120  1  0.19515306  0.80447943  0.26275666  1
  Ti  Ti121  1  0.89951826  0.49317491  0.61866367  1
  Ti  Ti122  1  0.59597584  0.79461898  -0.02391895  1
  Ti  Ti123  1  -0.00215432  0.58894719  0.77520335  1
  Ti  Ti124  1  0.70392420  0.09985185  0.63012009  1
  Ti  Ti125  1  0.59800474  0.79297092  0.51654131  1
  Ti  Ti126  1  0.70602455  0.29269255  0.12977071  1
  Ti  Ti127  1  0.60536140  0.79656199  0.24679514  1
  Ti  Ti128  1  0.59740823  0.40204956  0.76449651  1
  Ti  Ti129  1  0.58475568  -0.00746710  -0.01680046  1
  Ti  Ti130  1  0.40280631  0.80757177  -0.02108692  1
  Ti  Ti131  1  0.10463253  0.90786486  0.88458288  1
  Ti  Ti132  1  0.19492295  0.39619475  0.24990526  1
  Ti  Ti133  1  0.20311266  0.20672480  0.50437594  1
  Ti  Ti134  1  0.70891664  0.70215187  0.88153082  1
  Ti  Ti135  1  0.00534745  0.59541357  0.48728952  1
  Ti  Ti136  1  0.79213552  0.38800146  0.50197220  1
  Ti  Ti137  1  0.09707586  0.50948810  0.35275943  1
  Ti  Ti138  1  0.50468123  0.89787007  0.38486348  1
  Ti  Ti139  1  0.80154519  0.79121234  0.74866673  1
  Ti  Ti140  1  0.49799414  0.50017677  0.88952264  1
  Ti  Ti141  1  0.40080455  0.21164787  0.51048523  1
  Ti  Ti142  1  -0.00424564  0.39687077  0.23687307  1
  Ti  Ti143  1  0.19757434  0.20087902  0.25499530  1
  Ti  Ti144  1  0.20681837  0.38725293  0.00813761  1
  Ti  Ti145  1  0.50434054  0.31527348  0.62707251  1
  Ti  Ti146  1  0.89781207  0.69880690  0.13341770  1
  Ti  Ti147  1  0.80009551  -0.00031929  0.51068800  1
  Ti  Ti148  1  -0.01317288  0.21131709  -0.01503036  1
  Ti  Ti149  1  -0.00602241  -0.00067089  0.49905810  1
  Ti  Ti150  1  0.70067007  0.49400115  0.38024585  1
  Ti  Ti151  1  0.70674344  0.90102736  0.63788976  1
  Ti  Ti152  1  0.90044126  0.09443516  0.85651168  1
  Ti  Ti153  1  0.29539177  0.28957118  0.87324641  1
  Ti  Ti154  1  0.28813065  0.51087136  0.62986307  1
  Ti  Ti155  1  -0.00277899  -0.00075533  -0.00414656  1
  Ti  Ti156  1  0.10794356  0.29686248  0.88122093  1
  Ti  Ti157  1  0.50740137  0.70776729  0.11670929  1
  Ti  Ti158  1  0.39297411  0.20241138  0.23665929  1
  Ti  Ti159  1  0.89537504  0.89854986  0.38403721  1
  Mo  Mo160  1  0.00216423  0.59275163  0.24169718  1
  Mo  Mo161  1  0.10835421  0.49528915  0.87509922  1
  Mo  Mo162  1  0.19119934  0.20412920  -0.00692875  1
  Mo  Mo163  1  0.50203058  0.90085401  0.87202159  1
  Mo  Mo164  1  0.49663803  0.29894601  0.38224438  1
  Mo  Mo165  1  0.90231723  0.49994744  0.88409216  1
  Mo  Mo166  1  0.79582512  0.20009699  0.51770602  1
  Mo  Mo167  1  0.28333700  0.09880067  0.14541471  1
  Mo  Mo168  1  0.10695935  0.69890972  0.36326496  1
  Mo  Mo169  1  0.09686094  0.49682812  0.14024413  1
  Mo  Mo170  1  0.69903292  0.30838869  0.64221218  1
  Mo  Mo171  1  0.88961839  0.29612898  0.39982463  1
  Mo  Mo172  1  0.41550211  0.79722266  0.24790668  1
  Mo  Mo173  1  0.29342651  0.10929545  0.85470953  1
  Mo  Mo174  1  0.79974184  0.79733101  -0.01636812  1
  Mo  Mo175  1  -0.01185422  0.20055974  0.50183153  1
  Mo  Mo176  1  0.29793456  0.70036545  0.64073330  1
  Mo  Mo177  1  0.30415307  0.70679078  0.86918666  1
  Mo  Mo178  1  0.90354983  0.29232273  0.86027113  1
  Mo  Mo179  1  0.89282704  0.09776511  0.40721979  1
  Mo  Mo180  1  0.20476317  0.59315688  0.76747626  1
  Mo  Mo181  1  0.39637831  0.00182940  0.01084080  1
  Mo  Mo182  1  0.89969468  0.69921824  0.85805637  1
  Mo  Mo183  1  0.79192260  0.79203313  0.24572015  1
  Mo  Mo184  1  0.00419757  0.00320037  0.73888294  1
  Mo  Mo185  1  0.39396916  0.00402957  0.72689272  1
  Mo  Mo186  1  0.28527449  0.29789852  0.14680898  1
  Mo  Mo187  1  0.69600441  0.29799187  0.85889162  1
  Mo  Mo188  1  0.90101973  0.30090261  0.12442285  1
  Mo  Mo189  1  -0.00638596  0.40847413  0.50638215  1
  Mo  Mo190  1  0.60733205  0.60142950  0.49317300  1
  Mo  Mo191  1  0.38861935  0.39123008  0.01818231  1
  Mo  Mo192  1  0.50551577  0.70145755  0.87279834  1
  Mo  Mo193  1  0.49206288  0.29805901  0.11184250  1
  Mo  Mo194  1  0.79917745  0.00080089  0.73696722  1
  Mo  Mo195  1  0.49115399  0.09516263  0.10943450  1
  Mo  Mo196  1  0.50650066  0.69923970  0.64462355  1
  Mo  Mo197  1  0.20341468  0.60452349  0.25084314  1
  Mo  Mo198  1  0.60378258  0.61300113  -0.00703077  1
  Mo  Mo199  1  0.60544860  0.40003991  0.49647403  1
