# generated using pymatgen
data_HfZrTaTiMo
_symmetry_space_group_name_H-M   'P 1'
_cell_length_a   15.91803972
_cell_length_b   15.93378899
_cell_length_c   15.20781761
_cell_angle_alpha   89.99654410
_cell_angle_beta   89.99521213
_cell_angle_gamma   90.01774753
_symmetry_Int_Tables_number   1
_chemical_formula_structural   HfZrTaTiMo
_chemical_formula_sum   'Hf40 Zr40 Ta40 Ti40 Mo40'
_cell_volume   3857.22984103
_cell_formula_units_Z   40
loop_
 _symmetry_equiv_pos_site_id
 _symmetry_equiv_pos_as_xyz
  1  'x, y, z'
loop_
 _atom_site_type_symbol
 _atom_site_label
 _atom_site_symmetry_multiplicity
 _atom_site_fract_x
 _atom_site_fract_y
 _atom_site_fract_z
 _atom_site_occupancy
  Hf  Hf0  1  0.29852573  0.70615767  0.87816458  1
  Hf  Hf1  1  0.60771322  -0.00929313  -0.00399757  1
  Hf  Hf2  1  0.81185240  0.81111568  0.02010276  1
  Hf  Hf3  1  -0.01314283  0.00412478  0.51029620  1
  Hf  Hf4  1  0.81806415  0.19443970  0.25148679  1
  Hf  Hf5  1  0.31106260  0.50289835  0.35173179  1
  Hf  Hf6  1  0.18716754  0.38404878  0.26506252  1
  Hf  Hf7  1  0.70308426  0.29837178  0.12288701  1
  Hf  Hf8  1  0.61120634  0.20721030  0.50705752  1
  Hf  Hf9  1  0.19808467  0.20208500  -0.00086734  1
  Hf  Hf10  1  0.29783489  0.29772235  0.12872227  1
  Hf  Hf11  1  0.50331186  0.69883860  0.11842434  1
  Hf  Hf12  1  0.80719086  -0.00383139  0.23426831  1
  Hf  Hf13  1  -0.01289262  -0.00830420  0.01863235  1
  Hf  Hf14  1  0.29472029  0.31010655  0.62126771  1
  Hf  Hf15  1  0.01022873  0.20899920  0.26647784  1
  Hf  Hf16  1  0.38309101  0.78827799  0.24283925  1
  Hf  Hf17  1  0.60011191  0.60012567  0.75147187  1
  Hf  Hf18  1  0.00559124  -0.00470859  0.73230763  1
  Hf  Hf19  1  -0.00249256  0.80425616  0.25286092  1
  Hf  Hf20  1  0.50192197  0.70134500  0.89211311  1
  Hf  Hf21  1  0.80416923  0.41070207  0.00603570  1
  Hf  Hf22  1  0.70539268  0.69442051  0.88388501  1
  Hf  Hf23  1  0.60303934  -0.00698575  0.49531011  1
  Hf  Hf24  1  0.30293102  0.09720710  0.87979210  1
  Hf  Hf25  1  -0.00102729  0.19358073  0.74732796  1
  Hf  Hf26  1  0.49689927  0.89300539  0.62064782  1
  Hf  Hf27  1  0.49739106  0.30281822  0.12008100  1
  Hf  Hf28  1  0.89849540  0.30312648  0.88200234  1
  Hf  Hf29  1  0.18813108  0.80327496  0.73415673  1
  Hf  Hf30  1  0.59972688  0.19346855  0.24671580  1
  Hf  Hf31  1  0.70479905  0.30498922  0.36043904  1
  Hf  Hf32  1  0.20148661  0.60663377  0.48331995  1
  Hf  Hf33  1  -0.01338776  0.61173981  0.25312089  1
  Hf  Hf34  1  0.49808394  0.29216663  0.88571994  1
  Hf  Hf35  1  0.39900939  0.40715502  0.75587384  1
  Hf  Hf36  1  0.69465725  0.89188686  0.62913725  1
  Hf  Hf37  1  0.59124396  -0.00484273  0.24630105  1
  Hf  Hf38  1  0.39047950  0.40785130  0.00311938  1
  Hf  Hf39  1  0.09955636  0.70200111  0.87760311  1
  Zr  Zr40  1  0.28960982  0.69202256  0.62720530  1
  Zr  Zr41  1  0.91073454  0.29725767  0.11630796  1
  Zr  Zr42  1  0.71135653  0.08763325  0.37730137  1
  Zr  Zr43  1  0.50413929  0.50567747  0.88693650  1
  Zr  Zr44  1  0.78751386  0.58993318  0.49354354  1
  Zr  Zr45  1  0.09583799  0.89830881  0.87504142  1
  Zr  Zr46  1  0.90732585  0.30646982  0.61839607  1
  Zr  Zr47  1  0.19506482  -0.00432197  0.00576875  1
  Zr  Zr48  1  0.79491486  0.20426164  0.74599501  1
  Zr  Zr49  1  0.89867552  0.71038650  0.87326134  1
  Zr  Zr50  1  0.89470920  0.90417009  0.38334708  1
  Zr  Zr51  1  0.19804917  0.19694874  0.74863428  1
  Zr  Zr52  1  -0.00371868  0.41335072  0.75444552  1
  Zr  Zr53  1  0.90610339  0.69280077  0.60568434  1
  Zr  Zr54  1  0.60794414  0.41462964  0.50023253  1
  Zr  Zr55  1  0.00620685  0.79708624  0.02156320  1
  Zr  Zr56  1  0.39619397  0.19809573  0.74681837  1
  Zr  Zr57  1  0.49571686  0.30583533  0.36841767  1
  Zr  Zr58  1  0.39044089  -0.02604402  -0.00092506  1
  Zr  Zr59  1  0.39982305  0.58908591  0.50653477  1
  Zr  Zr60  1  0.39942394  0.80016264  0.75046397  1
  Zr  Zr61  1  0.10165231  0.30901782  0.88073121  1
  Zr  Zr62  1  0.29517552  0.50697059  0.14326993  1
  Zr  Zr63  1  0.50611551  0.50207003  0.35910767  1
  Zr  Zr64  1  0.10527624  0.51476539  0.61700546  1
  Zr  Zr65  1  0.48390343  0.89616677  0.38152292  1
  Zr  Zr66  1  0.50071771  0.08968144  0.63399144  1
  Zr  Zr67  1  0.10088879  0.31068068  0.61239267  1
  Zr  Zr68  1  0.79869918  0.39697357  0.49714483  1
  Zr  Zr69  1  0.80320332  0.77711258  0.25327338  1
  Zr  Zr70  1  0.61513141  0.19413988  -0.01239488  1
  Zr  Zr71  1  0.71795953  0.89261330  0.86145468  1
  Zr  Zr72  1  0.28333303  0.89309164  0.38331565  1
  Zr  Zr73  1  0.81477674  0.18923152  0.50180847  1
  Zr  Zr74  1  0.10046216  0.50232693  0.13469542  1
  Zr  Zr75  1  0.30155367  0.09113798  0.38195708  1
  Zr  Zr76  1  0.49289998  0.09970345  0.38343532  1
  Zr  Zr77  1  0.48976550  0.10436943  0.10376952  1
  Zr  Zr78  1  0.50687498  0.30348274  0.62965464  1
  Zr  Zr79  1  0.89505467  0.08416050  0.87772674  1
  Ta  Ta80  1  0.10365768  0.10551877  0.60690985  1
  Ta  Ta81  1  0.60004789  0.78690810  0.48592716  1
  Ta  Ta82  1  0.20309488  0.20553844  0.49131781  1
  Ta  Ta83  1  0.79472614  0.79680392  0.49584933  1
  Ta  Ta84  1  0.69846751  0.89084646  0.36957317  1
  Ta  Ta85  1  0.70797455  0.50608163  0.87993267  1
  Ta  Ta86  1  0.29513207  0.10110243  0.12663887  1
  Ta  Ta87  1  0.21597001  0.80618114  0.01658107  1
  Ta  Ta88  1  -0.00656984  0.80480324  0.72580625  1
  Ta  Ta89  1  0.10073066  0.50983497  0.88112325  1
  Ta  Ta90  1  0.10026106  0.09586402  0.38649302  1
  Ta  Ta91  1  0.81330353  -0.00778590  0.72949532  1
  Ta  Ta92  1  0.80645506  0.40922449  0.24281806  1
  Ta  Ta93  1  0.39764489  0.20263849  0.50791956  1
  Ta  Ta94  1  0.60928227  0.39827552  0.75802266  1
  Ta  Ta95  1  0.39296549  -0.00480268  0.23623468  1
  Ta  Ta96  1  0.50596085  0.69709230  0.61600137  1
  Ta  Ta97  1  0.00049957  0.41453419  0.00154056  1
  Ta  Ta98  1  0.59579775  0.79234076  0.25886178  1
  Ta  Ta99  1  0.69259297  0.89033180  0.13781223  1
  Ta  Ta100  1  -0.00223755  0.01222646  0.25164700  1
  Ta  Ta101  1  0.29634016  0.90508389  0.61168096  1
  Ta  Ta102  1  0.50168276  0.08961919  0.87013648  1
  Ta  Ta103  1  0.79844507  0.40850335  0.74953162  1
  Ta  Ta104  1  0.69772136  0.69838263  0.62507378  1
  Ta  Ta105  1  0.09826912  0.10696992  0.13111036  1
  Ta  Ta106  1  0.19901131  0.60357172  0.00238168  1
  Ta  Ta107  1  0.39533474  0.59694359  0.74665629  1
  Ta  Ta108  1  0.80672609  0.59660705  0.74224198  1
  Ta  Ta109  1  0.00306575  0.40855991  0.47273631  1
  Ta  Ta110  1  0.10613322  0.90393434  0.14383834  1
  Ta  Ta111  1  0.30868085  0.30042460  0.37443898  1
  Ta  Ta112  1  0.09683140  0.09564413  0.87917836  1
  Ta  Ta113  1  0.49332172  0.69089389  0.37330531  1
  Ta  Ta114  1  0.00645848  0.60874525  0.74691846  1
  Ta  Ta115  1  0.39191861  0.60507718  0.01158992  1
  Ta  Ta116  1  0.50315981  0.50228336  0.63147400  1
  Ta  Ta117  1  -0.00704603  0.40082184  0.26267852  1
  Ta  Ta118  1  0.29710803  0.30803529  0.88257988  1
  Ta  Ta119  1  0.69845813  0.09277314  0.63307398  1
  Ti  Ti120  1  0.60451962  0.40495564  0.23998915  1
  Ti  Ti121  1  0.70040339  0.08577922  0.85892118  1
  Ti  Ti122  1  0.60543422  0.80463423  0.00184297  1
  Ti  Ti123  1  0.59956236  0.79510161  0.75439703  1
  Ti  Ti124  1  -0.00275444  0.60162158  0.01376418  1
  Ti  Ti125  1  0.10089267  0.71631245  0.38180952  1
  Ti  Ti126  1  0.80047884  -0.00485294  0.01473208  1
  Ti  Ti127  1  0.10063641  0.51266994  0.36324966  1
  Ti  Ti128  1  0.70479600  0.30720727  0.87808740  1
  Ti  Ti129  1  0.80359182  0.18707641  0.00022657  1
  Ti  Ti130  1  0.00055945  0.19276897  -0.00145407  1
  Ti  Ti131  1  0.19736476  0.00405043  0.25107908  1
  Ti  Ti132  1  0.90895026  0.50250716  0.61370124  1
  Ti  Ti133  1  0.69388782  0.68519157  0.37474465  1
  Ti  Ti134  1  0.60492098  0.20021275  0.75522741  1
  Ti  Ti135  1  0.10049173  0.30500015  0.11518862  1
  Ti  Ti136  1  0.20255265  0.41657894  0.75238705  1
  Ti  Ti137  1  0.19966241  0.19583416  0.26102366  1
  Ti  Ti138  1  0.69818630  0.69688738  0.12031037  1
  Ti  Ti139  1  0.29073076  0.50806357  0.87791970  1
  Ti  Ti140  1  0.50051054  0.89776973  0.87055322  1
  Ti  Ti141  1  0.29758692  0.09413660  0.61355673  1
  Ti  Ti142  1  0.70178477  0.09696475  0.12362622  1
  Ti  Ti143  1  0.60608732  0.40881749  0.00105225  1
  Ti  Ti144  1  0.19810680  -0.00036882  0.74070014  1
  Ti  Ti145  1  0.39924269  0.40323689  0.50664758  1
  Ti  Ti146  1  0.69974518  0.50797484  0.12609565  1
  Ti  Ti147  1  0.39634337  0.19408291  0.25052985  1
  Ti  Ti148  1  0.90097335  0.51374178  0.87690159  1
  Ti  Ti149  1  0.38957649  0.78758024  0.49768976  1
  Ti  Ti150  1  0.49734097  0.88894735  0.12435784  1
  Ti  Ti151  1  0.88945975  0.50838737  0.36696763  1
  Ti  Ti152  1  0.39121143  -0.00787909  0.75176597  1
  Ti  Ti153  1  0.20733252  0.40998779  0.48605297  1
  Ti  Ti154  1  0.60494892  0.60242983  0.24191611  1
  Ti  Ti155  1  0.69839838  0.49979240  0.63582952  1
  Ti  Ti156  1  0.11412038  0.69859583  0.13728836  1
  Ti  Ti157  1  0.09961067  0.90394544  0.38394563  1
  Ti  Ti158  1  0.81001607  0.60104463  0.01837574  1
  Ti  Ti159  1  0.49930264  0.50364911  0.12892452  1
  Mo  Mo160  1  0.09433606  0.70075588  0.61314701  1
  Mo  Mo161  1  0.90088904  0.89422253  0.85601465  1
  Mo  Mo162  1  0.60091985  -0.00400079  0.76139170  1
  Mo  Mo163  1  0.39977122  0.80313350  0.00295866  1
  Mo  Mo164  1  0.90775390  0.10000325  0.37965365  1
  Mo  Mo165  1  0.40284317  0.39354375  0.23583882  1
  Mo  Mo166  1  0.90409393  0.69369724  0.11862781  1
  Mo  Mo167  1  0.19253306  0.80095314  0.24681212  1
  Mo  Mo168  1  0.90025874  0.69769887  0.39274165  1
  Mo  Mo169  1  0.60894026  0.59541127  0.01286999  1
  Mo  Mo170  1  0.90238239  0.89773723  0.14335435  1
  Mo  Mo171  1  0.19096813  0.80087075  0.51124309  1
  Mo  Mo172  1  0.79289331  0.59726448  0.24599130  1
  Mo  Mo173  1  -0.00009296  0.59719315  0.47380638  1
  Mo  Mo174  1  0.10084106  0.90151231  0.60902382  1
  Mo  Mo175  1  0.29313266  0.90125094  0.14427310  1
  Mo  Mo176  1  0.19610095  0.40800061  -0.00380953  1
  Mo  Mo177  1  0.90086388  0.10162942  0.62556685  1
  Mo  Mo178  1  0.29813757  0.49516704  0.63236155  1
  Mo  Mo179  1  0.90481743  0.10322611  0.11568773  1
  Mo  Mo180  1  0.29679179  0.70026158  0.11555536  1
  Mo  Mo181  1  0.69823989  0.50323521  0.34861518  1
  Mo  Mo182  1  0.89368505  0.89269658  0.61425026  1
  Mo  Mo183  1  0.10576021  0.30142186  0.38961762  1
  Mo  Mo184  1  0.30034939  0.70107893  0.38131138  1
  Mo  Mo185  1  0.29546793  0.89985908  0.85440482  1
  Mo  Mo186  1  0.79493652  -0.00671613  0.51691284  1
  Mo  Mo187  1  0.39453768  0.19677690  -0.00585920  1
  Mo  Mo188  1  0.90182253  0.50173917  0.13315651  1
  Mo  Mo189  1  0.20307235  0.62384938  0.26570196  1
  Mo  Mo190  1  0.19719723  0.59878746  0.76349329  1
  Mo  Mo191  1  0.00282641  0.79940482  0.49845023  1
  Mo  Mo192  1  0.80221822  0.79109622  0.73136216  1
  Mo  Mo193  1  0.19396974  0.00296198  0.50643996  1
  Mo  Mo194  1  0.39700008  -0.00017228  0.51540697  1
  Mo  Mo195  1  0.90274390  0.30739908  0.37446805  1
  Mo  Mo196  1  0.70014203  0.30148890  0.64154410  1
  Mo  Mo197  1  0.40552252  0.60322126  0.23645555  1
  Mo  Mo198  1  0.00520552  0.20378311  0.48731009  1
  Mo  Mo199  1  0.59935999  0.60205335  0.50605764  1
