# generated using pymatgen
data_HfZrTaTiMo
_symmetry_space_group_name_H-M   'P 1'
_cell_length_a   15.93048664
_cell_length_b   15.93628961
_cell_length_c   15.20692163
_cell_angle_alpha   90.01752894
_cell_angle_beta   90.03147563
_cell_angle_gamma   90.16139653
_symmetry_Int_Tables_number   1
_chemical_formula_structural   HfZrTaTiMo
_chemical_formula_sum   'Hf40 Zr40 Ta40 Ti40 Mo40'
_cell_volume   3860.60843368
_cell_formula_units_Z   40
loop_
 _symmetry_equiv_pos_site_id
 _symmetry_equiv_pos_as_xyz
  1  'x, y, z'
loop_
 _atom_site_type_symbol
 _atom_site_label
 _atom_site_symmetry_multiplicity
 _atom_site_fract_x
 _atom_site_fract_y
 _atom_site_fract_z
 _atom_site_occupancy
  Hf  Hf0  1  0.30327273  0.50433388  0.10385139  1
  Hf  Hf1  1  0.29455486  0.69518253  0.10282657  1
  Hf  Hf2  1  0.80124348  0.80498018  0.50841012  1
  Hf  Hf3  1  0.08739316  0.08598564  0.12213266  1
  Hf  Hf4  1  0.60378749  0.79645383  -0.00282984  1
  Hf  Hf5  1  0.49302412  0.30271124  0.60963896  1
  Hf  Hf6  1  0.01485719  0.59934794  0.24093996  1
  Hf  Hf7  1  0.50514030  0.11250684  0.61008676  1
  Hf  Hf8  1  0.49504496  0.10092005  0.37125484  1
  Hf  Hf9  1  0.39755862  0.40383566  0.24697726  1
  Hf  Hf10  1  0.40052064  0.59917940  0.51027831  1
  Hf  Hf11  1  0.80279810  0.60585585  0.01540405  1
  Hf  Hf12  1  0.60560782  0.60939654  0.50688305  1
  Hf  Hf13  1  0.19949775  0.18929332  0.49327431  1
  Hf  Hf14  1  0.49546580  0.30078210  0.38072726  1
  Hf  Hf15  1  0.28721961  0.89392691  0.12005427  1
  Hf  Hf16  1  0.39479795  0.80115949  -0.02107196  1
  Hf  Hf17  1  0.58453323  -0.01212413  0.25077391  1
  Hf  Hf18  1  0.18804048  -0.01211377  -0.01120153  1
  Hf  Hf19  1  0.70643105  0.90574324  0.86957873  1
  Hf  Hf20  1  0.19762452  0.19785077  0.25070770  1
  Hf  Hf21  1  0.59513228  0.59789355  0.24515908  1
  Hf  Hf22  1  0.91945358  0.71122289  0.38169786  1
  Hf  Hf23  1  -0.01542998  -0.01469101  0.26273875  1
  Hf  Hf24  1  0.29917596  0.90448150  0.63927721  1
  Hf  Hf25  1  0.18796027  0.79203889  0.24869170  1
  Hf  Hf26  1  0.20515661  0.59433518  0.25217493  1
  Hf  Hf27  1  0.09494952  0.69737040  0.87389557  1
  Hf  Hf28  1  0.29099053  0.48760172  0.38878669  1
  Hf  Hf29  1  0.30479879  0.70067982  0.64061121  1
  Hf  Hf30  1  0.70642492  0.90567821  0.12869767  1
  Hf  Hf31  1  0.52124981  0.28637251  0.88877502  1
  Hf  Hf32  1  0.10110641  0.49774491  0.87702590  1
  Hf  Hf33  1  0.82184861  0.81623610  0.25118712  1
  Hf  Hf34  1  0.40294828  0.80508386  0.25377525  1
  Hf  Hf35  1  0.38437435  0.00505056  -0.00691624  1
  Hf  Hf36  1  0.60378623  0.38425215  0.75162673  1
  Hf  Hf37  1  0.88893683  0.09499060  0.13504176  1
  Hf  Hf38  1  0.29509521  0.10246468  0.63560661  1
  Hf  Hf39  1  0.69537767  0.12982454  0.87280522  1
  Zr  Zr40  1  0.59314945  0.01748547  0.75423205  1
  Zr  Zr41  1  0.10311870  0.69573857  0.39260933  1
  Zr  Zr42  1  0.29858348  0.30196439  0.12119506  1
  Zr  Zr43  1  0.71614858  0.10443601  0.62752094  1
  Zr  Zr44  1  0.29149803  0.90058616  0.37273559  1
  Zr  Zr45  1  0.80611590  0.20806810  0.26165277  1
  Zr  Zr46  1  0.50085102  0.89919751  0.86705624  1
  Zr  Zr47  1  0.89749979  0.29396977  0.61872168  1
  Zr  Zr48  1  0.80183645  0.39712254  0.74595443  1
  Zr  Zr49  1  0.79862229  0.00795955  -0.00665361  1
  Zr  Zr50  1  0.60161941  0.80080476  0.49886345  1
  Zr  Zr51  1  0.49718239  0.69349909  0.11820063  1
  Zr  Zr52  1  0.51174980  0.50184383  0.87517331  1
  Zr  Zr53  1  0.70168406  0.49142526  0.61674738  1
  Zr  Zr54  1  0.19332757  0.19669499  0.00106392  1
  Zr  Zr55  1  0.81179714  0.79728538  0.74281570  1
  Zr  Zr56  1  0.90249962  0.29025813  0.86749910  1
  Zr  Zr57  1  0.60391958  -0.00456520  0.48965266  1
  Zr  Zr58  1  0.80496364  0.19709106  0.47959702  1
  Zr  Zr59  1  0.09970231  0.32179016  0.38365696  1
  Zr  Zr60  1  0.49176839  0.90105956  0.63899295  1
  Zr  Zr61  1  0.49624081  0.49388461  0.62880783  1
  Zr  Zr62  1  0.80960771  0.60331359  0.50379739  1
  Zr  Zr63  1  0.70512380  0.50045755  0.36842649  1
  Zr  Zr64  1  0.38998022  0.19451476  -0.00075989  1
  Zr  Zr65  1  0.38947735  -0.00011635  0.48976505  1
  Zr  Zr66  1  0.61115528  0.39503220  0.01163769  1
  Zr  Zr67  1  0.50200035  0.69736485  0.37018373  1
  Zr  Zr68  1  0.70623657  0.49939216  0.13698172  1
  Zr  Zr69  1  0.81115485  0.39049553  0.00609194  1
  Zr  Zr70  1  0.08449428  0.10618037  0.87211455  1
  Zr  Zr71  1  0.70356044  0.90782959  0.63605974  1
  Zr  Zr72  1  -0.00272187  0.19043682  0.48912284  1
  Zr  Zr73  1  0.19304029  0.58283994  0.52031305  1
  Zr  Zr74  1  0.90596435  0.70573181  0.88052581  1
  Zr  Zr75  1  0.40520206  0.20072903  0.76085325  1
  Zr  Zr76  1  0.70559300  0.50465757  0.87787186  1
  Zr  Zr77  1  0.90846721  0.50269586  0.87716282  1
  Zr  Zr78  1  0.20021239  0.80592429  0.51481038  1
  Zr  Zr79  1  0.81716063  0.60639992  0.25171049  1
  Ta  Ta80  1  0.00061920  0.59197265  0.51897876  1
  Ta  Ta81  1  0.30212299  0.69482967  0.38420321  1
  Ta  Ta82  1  -0.00028824  0.59587758  0.01635295  1
  Ta  Ta83  1  0.69944845  0.69525914  0.87515046  1
  Ta  Ta84  1  -0.00825137  0.59901778  0.73107677  1
  Ta  Ta85  1  0.49383992  0.10144695  0.12667732  1
  Ta  Ta86  1  0.09852232  0.70423175  0.63897843  1
  Ta  Ta87  1  0.50085396  0.29717662  0.12405274  1
  Ta  Ta88  1  0.10977009  0.49995667  0.10832152  1
  Ta  Ta89  1  0.00609980  0.38851552  0.01596772  1
  Ta  Ta90  1  0.08657025  0.88963874  0.37828681  1
  Ta  Ta91  1  0.90898060  0.92287293  0.63391410  1
  Ta  Ta92  1  0.80438732  0.80264802  0.00103085  1
  Ta  Ta93  1  0.49582865  0.49632759  0.38216443  1
  Ta  Ta94  1  0.40581062  0.59993025  -0.02408845  1
  Ta  Ta95  1  0.40122729  0.39731898  -0.01330726  1
  Ta  Ta96  1  0.00554015  0.39995082  0.73605972  1
  Ta  Ta97  1  0.69703748  0.09761685  0.35979433  1
  Ta  Ta98  1  0.81436782  0.00349710  0.47934306  1
  Ta  Ta99  1  0.19649505  0.80596646  0.75673741  1
  Ta  Ta100  1  0.59509470  0.39783177  0.25023037  1
  Ta  Ta101  1  0.30591154  0.48358388  0.64206157  1
  Ta  Ta102  1  0.40307224  0.59931537  0.76093661  1
  Ta  Ta103  1  0.59646630  0.00745174  0.00672266  1
  Ta  Ta104  1  0.30142550  0.30223751  0.62415295  1
  Ta  Ta105  1  0.19056313  -0.00463395  0.24813954  1
  Ta  Ta106  1  0.39180973  0.19551198  0.24886722  1
  Ta  Ta107  1  0.89203617  0.10273655  0.86014656  1
  Ta  Ta108  1  0.81680917  0.40060897  0.48187444  1
  Ta  Ta109  1  0.69237131  0.29222189  0.60299261  1
  Ta  Ta110  1  0.19014506  0.40281678  0.23906792  1
  Ta  Ta111  1  0.09121387  0.08879682  0.63237000  1
  Ta  Ta112  1  0.80241321  0.60481585  0.73327860  1
  Ta  Ta113  1  -0.01453889  0.20325149  0.01639936  1
  Ta  Ta114  1  0.40410579  0.79992022  0.49695202  1
  Ta  Ta115  1  0.10614414  0.29597007  0.62128831  1
  Ta  Ta116  1  0.49869858  0.70551258  0.64231767  1
  Ta  Ta117  1  0.69210839  0.10219994  0.13967513  1
  Ta  Ta118  1  0.00216816  0.20905454  0.24870787  1
  Ta  Ta119  1  0.29308246  0.69654899  0.87005434  1
  Ti  Ti120  1  0.60338417  0.79124779  0.75538436  1
  Ti  Ti121  1  0.91014945  0.90705611  0.10867183  1
  Ti  Ti122  1  0.29620502  0.30348293  0.37983761  1
  Ti  Ti123  1  0.38686101  0.19756261  0.48730308  1
  Ti  Ti124  1  0.19848368  0.39197179  -0.00497661  1
  Ti  Ti125  1  0.49827008  0.49933626  0.11254451  1
  Ti  Ti126  1  0.19678266  0.39262912  0.74716694  1
  Ti  Ti127  1  0.90770516  0.90602206  0.87018142  1
  Ti  Ti128  1  0.49279799  0.90081753  0.11375520  1
  Ti  Ti129  1  -0.00122494  0.00019616  0.49386401  1
  Ti  Ti130  1  0.10993507  0.70365234  0.10121403  1
  Ti  Ti131  1  0.70455763  0.30198094  0.14624504  1
  Ti  Ti132  1  0.39605084  0.59624295  0.25360843  1
  Ti  Ti133  1  0.38895540  0.00622246  0.77212487  1
  Ti  Ti134  1  0.60181532  0.40126657  0.48994591  1
  Ti  Ti135  1  0.09685525  0.09158042  0.36672395  1
  Ti  Ti136  1  0.50430125  0.10382062  0.89005924  1
  Ti  Ti137  1  0.19827926  0.59441982  0.75049821  1
  Ti  Ti138  1  0.19523554  0.20092458  0.75169653  1
  Ti  Ti139  1  0.09296277  0.30042740  0.87033460  1
  Ti  Ti140  1  0.01128492  0.81404981  0.00554372  1
  Ti  Ti141  1  0.69499414  0.30233084  0.37460233  1
  Ti  Ti142  1  0.29867364  0.49342217  0.86835560  1
  Ti  Ti143  1  0.70653731  0.70617546  0.36267969  1
  Ti  Ti144  1  0.70360264  0.70709340  0.12998122  1
  Ti  Ti145  1  0.79367230  0.20783845  0.01561244  1
  Ti  Ti146  1  0.08635822  0.89572538  0.86064293  1
  Ti  Ti147  1  0.60667836  0.60378434  0.74092836  1
  Ti  Ti148  1  0.59830400  0.80202474  0.24803058  1
  Ti  Ti149  1  0.91390003  0.71390378  0.12241103  1
  Ti  Ti150  1  0.38792129  0.00314676  0.24579932  1
  Ti  Ti151  1  0.29669623  0.30189526  0.86706551  1
  Ti  Ti152  1  0.00147005  0.80810618  0.52806788  1
  Ti  Ti153  1  0.59276294  0.20424858  0.24857181  1
  Ti  Ti154  1  0.00785535  0.41520778  0.51470775  1
  Ti  Ti155  1  0.18745099  -0.00032218  0.49747052  1
  Ti  Ti156  1  0.19353160  0.00171032  0.76154538  1
  Ti  Ti157  1  0.70509196  0.89943371  0.36515495  1
  Ti  Ti158  1  0.90579727  0.48704833  0.13928443  1
  Ti  Ti159  1  -0.00207104  0.19840862  0.73483991  1
  Mo  Mo160  1  0.20011919  0.39279021  0.52165739  1
  Mo  Mo161  1  0.90035396  0.30122894  0.13921487  1
  Mo  Mo162  1  0.20055987  0.59516476  -0.01940361  1
  Mo  Mo163  1  0.29026992  0.89993467  0.86337141  1
  Mo  Mo164  1  0.60263938  0.20899052  0.73668261  1
  Mo  Mo165  1  0.80763990  0.39967691  0.26873512  1
  Mo  Mo166  1  0.09859186  0.90839842  0.63430275  1
  Mo  Mo167  1  0.09801900  0.29958500  0.12621820  1
  Mo  Mo168  1  0.49729755  0.89721918  0.36935442  1
  Mo  Mo169  1  0.60434022  0.20210034  0.48038620  1
  Mo  Mo170  1  0.92561959  0.49649340  0.37312174  1
  Mo  Mo171  1  0.90505850  0.70482387  0.61654100  1
  Mo  Mo172  1  0.60338965  0.60792684  0.01243323  1
  Mo  Mo173  1  0.79453367  -0.00131146  0.26330804  1
  Mo  Mo174  1  0.79734685  0.20488947  0.73837593  1
  Mo  Mo175  1  0.90243192  0.49670018  0.62163360  1
  Mo  Mo176  1  0.90976178  0.31267789  0.36969151  1
  Mo  Mo177  1  0.00554585  0.79822912  0.23335782  1
  Mo  Mo178  1  0.60701834  0.19596253  0.02995523  1
  Mo  Mo179  1  0.19254380  0.79993867  -0.02094564  1
  Mo  Mo180  1  0.90729621  0.89514499  0.39643043  1
  Mo  Mo181  1  0.80294835  0.00411397  0.76317021  1
  Mo  Mo182  1  -0.00086220  0.00069192  0.76108736  1
  Mo  Mo183  1  0.50716167  0.69551209  0.86264595  1
  Mo  Mo184  1  0.29086482  0.10038547  0.36158698  1
  Mo  Mo185  1  0.39292565  0.39760380  0.49326752  1
  Mo  Mo186  1  0.70719290  0.29733168  0.88029010  1
  Mo  Mo187  1  0.69746662  0.70114194  0.64116627  1
  Mo  Mo188  1  0.28896079  0.10290146  0.85806892  1
  Mo  Mo189  1  0.39471033  0.39656984  0.77008941  1
  Mo  Mo190  1  0.09125945  0.89400694  0.12713001  1
  Mo  Mo191  1  0.10583399  0.49693330  0.64790746  1
  Mo  Mo192  1  0.00330946  0.80457243  0.73808803  1
  Mo  Mo193  1  0.00632465  0.40172834  0.23459698  1
  Mo  Mo194  1  -0.00783917  -0.00040554  -0.01514252  1
  Mo  Mo195  1  0.29476103  0.09006478  0.14076841  1
  Mo  Mo196  1  0.39805237  0.79587495  0.76273314  1
  Mo  Mo197  1  0.90513598  0.09917835  0.36017616  1
  Mo  Mo198  1  0.90470257  0.09563841  0.63725831  1
  Mo  Mo199  1  0.09641899  0.49837638  0.37516082  1
