# generated using pymatgen
data_HfZrTaTiMo
_symmetry_space_group_name_H-M   'P 1'
_cell_length_a   15.93507247
_cell_length_b   15.92111549
_cell_length_c   15.21286531
_cell_angle_alpha   90.05376960
_cell_angle_beta   89.91469716
_cell_angle_gamma   90.00563428
_symmetry_Int_Tables_number   1
_chemical_formula_structural   HfZrTaTiMo
_chemical_formula_sum   'Hf40 Zr40 Ta40 Ti40 Mo40'
_cell_volume   3859.56075198
_cell_formula_units_Z   40
loop_
 _symmetry_equiv_pos_site_id
 _symmetry_equiv_pos_as_xyz
  1  'x, y, z'
loop_
 _atom_site_type_symbol
 _atom_site_label
 _atom_site_symmetry_multiplicity
 _atom_site_fract_x
 _atom_site_fract_y
 _atom_site_fract_z
 _atom_site_occupancy
  Hf  Hf0  1  0.71430687  0.30630423  0.37246013  1
  Hf  Hf1  1  -0.00475180  0.39796221  0.49430498  1
  Hf  Hf2  1  0.48998309  0.70393319  0.11367944  1
  Hf  Hf3  1  0.10255369  0.30071674  0.87495277  1
  Hf  Hf4  1  0.90442741  0.09575100  0.62342433  1
  Hf  Hf5  1  0.51227779  0.89642922  0.88206916  1
  Hf  Hf6  1  0.60747126  0.39234621  -0.00033859  1
  Hf  Hf7  1  0.59813019  0.19324519  -0.01532705  1
  Hf  Hf8  1  0.08947384  0.90301152  0.89912236  1
  Hf  Hf9  1  0.59660130  0.19021573  0.26669564  1
  Hf  Hf10  1  0.09857386  0.10473961  0.12261708  1
  Hf  Hf11  1  0.11148625  0.09630771  0.87858322  1
  Hf  Hf12  1  0.80844547  0.38976720  0.00361935  1
  Hf  Hf13  1  0.60223756  0.80153214  0.73776367  1
  Hf  Hf14  1  0.19636579  0.19909526  0.50314266  1
  Hf  Hf15  1  0.69984629  0.69698706  0.36650932  1
  Hf  Hf16  1  0.80000701  0.80654137  0.23652270  1
  Hf  Hf17  1  0.20804843  0.40785448  0.00826873  1
  Hf  Hf18  1  0.40692532  0.61141669  0.75441483  1
  Hf  Hf19  1  0.49075720  0.89701755  0.11172387  1
  Hf  Hf20  1  0.61010722  0.19834230  0.50170740  1
  Hf  Hf21  1  0.01050643  0.40038112  0.27190190  1
  Hf  Hf22  1  0.18836357  0.39589886  0.49914805  1
  Hf  Hf23  1  0.49583003  0.30171065  0.39060916  1
  Hf  Hf24  1  0.59751838  0.80027527  0.23622044  1
  Hf  Hf25  1  0.09338977  0.49710305  0.87706948  1
  Hf  Hf26  1  0.20163600  0.62149981  -0.01010479  1
  Hf  Hf27  1  0.90054482  0.30406896  0.85653733  1
  Hf  Hf28  1  0.29826215  0.51096430  0.62165391  1
  Hf  Hf29  1  0.60060952  -0.00396140  0.51018355  1
  Hf  Hf30  1  0.30325874  0.29356763  0.13404242  1
  Hf  Hf31  1  0.37424795  0.79409424  -0.02053662  1
  Hf  Hf32  1  0.20653583  0.80021145  0.49066417  1
  Hf  Hf33  1  0.40225388  0.60293557  0.26105056  1
  Hf  Hf34  1  0.30132950  0.49949405  0.38258324  1
  Hf  Hf35  1  0.18694503  -0.00142724  0.51511417  1
  Hf  Hf36  1  0.58851129  0.40485829  0.25679446  1
  Hf  Hf37  1  0.61325351  0.40775591  0.51478200  1
  Hf  Hf38  1  0.71391157  0.10243740  0.63705552  1
  Hf  Hf39  1  0.08923056  0.70664335  0.62441035  1
  Zr  Zr40  1  0.50692366  0.50953910  0.87863311  1
  Zr  Zr41  1  0.81183985  0.79328828  0.49639719  1
  Zr  Zr42  1  0.39633092  0.39289673  -0.00347615  1
  Zr  Zr43  1  0.91778164  0.49578532  0.13148164  1
  Zr  Zr44  1  0.90467020  0.50242451  0.63118516  1
  Zr  Zr45  1  0.00455239  -0.01118319  0.74249214  1
  Zr  Zr46  1  0.49761676  0.09809063  0.63109118  1
  Zr  Zr47  1  0.20696249  -0.00382254  0.23949364  1
  Zr  Zr48  1  0.29114319  0.71634604  0.14178425  1
  Zr  Zr49  1  0.00064424  0.19827075  0.49155932  1
  Zr  Zr50  1  0.69384553  0.70992056  0.88162071  1
  Zr  Zr51  1  0.19142035  0.60825530  0.48761824  1
  Zr  Zr52  1  0.60331569  -0.00106158  0.24837893  1
  Zr  Zr53  1  0.70296251  0.50465572  0.86969449  1
  Zr  Zr54  1  0.40080875  0.19325896  -0.01762175  1
  Zr  Zr55  1  -0.00827098  0.20169084  -0.00699342  1
  Zr  Zr56  1  0.49430275  0.88852317  0.38520900  1
  Zr  Zr57  1  0.89393076  0.71082091  0.88409119  1
  Zr  Zr58  1  0.49251395  0.29027425  0.62290658  1
  Zr  Zr59  1  0.28930048  0.91180487  0.86422863  1
  Zr  Zr60  1  0.48885887  0.49827857  0.11312064  1
  Zr  Zr61  1  -0.00790509  0.60464164  0.47527216  1
  Zr  Zr62  1  0.79178447  0.59569704  0.51169656  1
  Zr  Zr63  1  0.79489152  0.19303245  -0.00959765  1
  Zr  Zr64  1  0.09448938  0.90087257  0.36703340  1
  Zr  Zr65  1  0.39668126  -0.00628559  0.25071432  1
  Zr  Zr66  1  0.71174302  0.49605209  0.14414834  1
  Zr  Zr67  1  0.80147621  0.60680958  0.01506131  1
  Zr  Zr68  1  0.60227084  0.40767046  0.73283585  1
  Zr  Zr69  1  0.90094012  0.49972672  0.87109820  1
  Zr  Zr70  1  0.19450792  0.39952272  0.72897602  1
  Zr  Zr71  1  0.09455942  0.30685594  0.11932514  1
  Zr  Zr72  1  0.18660453  0.80612420  0.75172569  1
  Zr  Zr73  1  0.70602080  0.90251716  0.38261076  1
  Zr  Zr74  1  0.30024672  0.49538849  0.85978849  1
  Zr  Zr75  1  0.69945431  0.50245820  0.37224022  1
  Zr  Zr76  1  0.39717462  0.40041918  0.25687603  1
  Zr  Zr77  1  0.49878870  0.30023625  0.85378205  1
  Zr  Zr78  1  0.39656487  0.01223075  -0.00632997  1
  Zr  Zr79  1  0.70070743  0.28939041  0.14038686  1
  Ta  Ta80  1  0.19391346  0.61034193  0.75522024  1
  Ta  Ta81  1  0.49306551  0.70740974  0.61368113  1
  Ta  Ta82  1  0.60474820  0.00477664  -0.00025036  1
  Ta  Ta83  1  0.39603130  0.61229193  0.49246423  1
  Ta  Ta84  1  0.30203199  0.70636619  0.63214523  1
  Ta  Ta85  1  0.80243526  0.00094476  0.23605164  1
  Ta  Ta86  1  0.19433899  0.00374779  0.72822381  1
  Ta  Ta87  1  0.79472634  0.61082350  0.73966620  1
  Ta  Ta88  1  0.39771037  0.40366011  0.50690578  1
  Ta  Ta89  1  0.30402509  0.10568567  0.62907305  1
  Ta  Ta90  1  0.19552501  0.59952785  0.26308756  1
  Ta  Ta91  1  0.19902863  0.20131386  0.26124872  1
  Ta  Ta92  1  0.19994195  0.40426811  0.25556454  1
  Ta  Ta93  1  -0.00028516  0.19722968  0.25934454  1
  Ta  Ta94  1  0.00822396  0.60483050  0.00230237  1
  Ta  Ta95  1  0.09773801  0.70415774  0.14296589  1
  Ta  Ta96  1  0.89171868  0.29127277  0.63406807  1
  Ta  Ta97  1  0.49879048  0.10520977  0.12830958  1
  Ta  Ta98  1  0.59501432  0.60402344  0.24244298  1
  Ta  Ta99  1  0.60556110  0.60544513  0.01906734  1
  Ta  Ta100  1  0.90660896  0.89993831  0.11189469  1
  Ta  Ta101  1  0.39716150  0.19136866  0.26268437  1
  Ta  Ta102  1  0.29321649  0.28980018  0.85113939  1
  Ta  Ta103  1  0.90013802  0.29627850  0.14200230  1
  Ta  Ta104  1  -0.00962974  0.80467938  0.75614740  1
  Ta  Ta105  1  0.21605332  0.19364674  -0.00070089  1
  Ta  Ta106  1  0.20929418  0.00123213  0.01760980  1
  Ta  Ta107  1  0.90074848  0.08918191  0.37187270  1
  Ta  Ta108  1  0.29644200  0.09531602  0.38488000  1
  Ta  Ta109  1  -0.00457679  -0.00011176  0.23514714  1
  Ta  Ta110  1  0.39266817  -0.00500219  0.50717423  1
  Ta  Ta111  1  0.49997282  0.28829452  0.13054823  1
  Ta  Ta112  1  0.30821019  0.89705705  0.62776373  1
  Ta  Ta113  1  0.00269418  0.19064461  0.75230367  1
  Ta  Ta114  1  0.80723465  -0.01617469  0.75523437  1
  Ta  Ta115  1  0.09510600  0.09390290  0.36954199  1
  Ta  Ta116  1  0.70332068  0.08652077  0.86196087  1
  Ta  Ta117  1  0.90687021  0.70007238  0.13602561  1
  Ta  Ta118  1  0.71091514  0.90123632  0.62240562  1
  Ta  Ta119  1  0.60497715  0.79471832  0.51459185  1
  Ti  Ti120  1  0.09139427  0.28686510  0.63327428  1
  Ti  Ti121  1  0.60464838  0.19429030  0.75112559  1
  Ti  Ti122  1  0.40536058  0.80288593  0.75492938  1
  Ti  Ti123  1  0.49823523  0.51530050  0.60934021  1
  Ti  Ti124  1  -0.00031831  0.79529671  0.48124095  1
  Ti  Ti125  1  0.90432110  0.90172774  0.36407308  1
  Ti  Ti126  1  0.90997046  0.89434101  0.61253081  1
  Ti  Ti127  1  0.29974181  0.29531497  0.38124859  1
  Ti  Ti128  1  0.88101209  0.49483583  0.36571313  1
  Ti  Ti129  1  0.09369152  0.51273069  0.62561553  1
  Ti  Ti130  1  0.40131844  0.40459922  0.73381816  1
  Ti  Ti131  1  0.89473588  0.29748227  0.37013795  1
  Ti  Ti132  1  0.50642276  0.70129501  0.88909085  1
  Ti  Ti133  1  0.60575342  0.60775506  0.72748514  1
  Ti  Ti134  1  0.10745138  0.88778755  0.12355780  1
  Ti  Ti135  1  0.00293968  0.39904107  0.73660378  1
  Ti  Ti136  1  0.00079845  0.61242730  0.76271434  1
  Ti  Ti137  1  0.81048372  -0.00207278  0.49958759  1
  Ti  Ti138  1  0.79233044  0.40254189  0.72975300  1
  Ti  Ti139  1  0.40539859  0.00066659  0.75106012  1
  Ti  Ti140  1  0.10707031  0.50975992  0.12749778  1
  Ti  Ti141  1  0.00093921  0.60226153  0.26607103  1
  Ti  Ti142  1  0.30528442  0.29055600  0.62817121  1
  Ti  Ti143  1  0.79804523  -0.00016722  0.00797737  1
  Ti  Ti144  1  0.80349861  0.20395396  0.49911503  1
  Ti  Ti145  1  0.70890406  0.29399789  0.85209266  1
  Ti  Ti146  1  0.80220311  0.80366468  0.74285383  1
  Ti  Ti147  1  0.00520389  0.78934443  0.00984706  1
  Ti  Ti148  1  0.49081748  0.09729128  0.39154137  1
  Ti  Ti149  1  0.70865754  0.89573693  0.88914647  1
  Ti  Ti150  1  0.90302789  0.70338276  0.63118757  1
  Ti  Ti151  1  0.89716774  0.90039763  0.89852976  1
  Ti  Ti152  1  0.90296215  0.08525116  0.87679227  1
  Ti  Ti153  1  0.80484842  0.18898897  0.25415815  1
  Ti  Ti154  1  0.89953902  0.10119897  0.12411233  1
  Ti  Ti155  1  0.50280939  0.69975703  0.38467235  1
  Ti  Ti156  1  0.69750994  0.09775509  0.12529738  1
  Ti  Ti157  1  0.71227914  0.09503466  0.37989568  1
  Ti  Ti158  1  0.38587371  0.59884652  -0.00634002  1
  Ti  Ti159  1  0.60377098  -0.00911888  0.74724634  1
  Mo  Mo160  1  -0.00071755  0.00061705  0.01565034  1
  Mo  Mo161  1  0.79968967  0.80559293  0.01839224  1
  Mo  Mo162  1  0.29606434  0.89803879  0.11538786  1
  Mo  Mo163  1  0.80887850  0.39484137  0.24827332  1
  Mo  Mo164  1  0.18974196  0.80241986  -0.00457611  1
  Mo  Mo165  1  0.29882620  0.70184991  0.85445501  1
  Mo  Mo166  1  0.19580300  0.19576323  0.73473398  1
  Mo  Mo167  1  0.51004983  0.08941064  0.85448455  1
  Mo  Mo168  1  0.49732019  0.89755249  0.62745387  1
  Mo  Mo169  1  0.39234932  0.19597599  0.48825954  1
  Mo  Mo170  1  0.30105889  0.90396166  0.39179812  1
  Mo  Mo171  1  0.30144918  0.10720484  0.13745951  1
  Mo  Mo172  1  0.70087441  0.70547996  0.62903869  1
  Mo  Mo173  1  0.28854178  0.50634379  0.13836356  1
  Mo  Mo174  1  0.80559579  0.38888370  0.51477180  1
  Mo  Mo175  1  0.70142619  0.90573392  0.10905356  1
  Mo  Mo176  1  0.80603111  0.18893179  0.76341083  1
  Mo  Mo177  1  0.00339813  0.40553587  0.00895708  1
  Mo  Mo178  1  0.09051528  0.89355444  0.61006330  1
  Mo  Mo179  1  0.39799025  0.80181899  0.26642749  1
  Mo  Mo180  1  0.59384160  0.60602933  0.50472642  1
  Mo  Mo181  1  0.89883633  0.70206124  0.35222451  1
  Mo  Mo182  1  0.09709442  0.10220468  0.62582858  1
  Mo  Mo183  1  0.10010793  0.49989318  0.37478876  1
  Mo  Mo184  1  0.80620066  0.60411849  0.24794422  1
  Mo  Mo185  1  0.09786190  0.70673292  0.35480410  1
  Mo  Mo186  1  -0.00734353  -0.00775182  0.49657324  1
  Mo  Mo187  1  0.09113424  0.70341305  0.87147672  1
  Mo  Mo188  1  0.71015298  0.29347403  0.63079440  1
  Mo  Mo189  1  0.69976729  0.50489427  0.62923574  1
  Mo  Mo190  1  0.39825953  0.79930474  0.50102392  1
  Mo  Mo191  1  0.29516718  0.10094453  0.85043553  1
  Mo  Mo192  1  0.20322757  0.80286933  0.26483432  1
  Mo  Mo193  1  -0.00030470  0.80483252  0.24084667  1
  Mo  Mo194  1  0.50164918  0.50969220  0.39702751  1
  Mo  Mo195  1  0.60388424  0.80211483  0.01045939  1
  Mo  Mo196  1  0.69824384  0.70035871  0.13389368  1
  Mo  Mo197  1  0.39696787  0.19242049  0.75757583  1
  Mo  Mo198  1  0.30581919  0.70974466  0.36335144  1
  Mo  Mo199  1  0.10486697  0.29475968  0.37008721  1
