# generated using pymatgen
data_HfZrTaTiMo
_symmetry_space_group_name_H-M   'P 1'
_cell_length_a   15.92838487
_cell_length_b   15.93138650
_cell_length_c   15.20364826
_cell_angle_alpha   89.95754631
_cell_angle_beta   90.00448154
_cell_angle_gamma   90.10693863
_symmetry_Int_Tables_number   1
_chemical_formula_structural   HfZrTaTiMo
_chemical_formula_sum   'Hf40 Zr40 Ta40 Ti40 Mo40'
_cell_volume   3858.08908500
_cell_formula_units_Z   40
loop_
 _symmetry_equiv_pos_site_id
 _symmetry_equiv_pos_as_xyz
  1  'x, y, z'
loop_
 _atom_site_type_symbol
 _atom_site_label
 _atom_site_symmetry_multiplicity
 _atom_site_fract_x
 _atom_site_fract_y
 _atom_site_fract_z
 _atom_site_occupancy
  Hf  Hf0  1  0.10184900  0.50430732  0.87395891  1
  Hf  Hf1  1  0.59285812  0.19602152  0.02123442  1
  Hf  Hf2  1  0.10499719  0.30835605  0.37926216  1
  Hf  Hf3  1  0.19598578  0.79736846  0.25248939  1
  Hf  Hf4  1  0.20444226  0.40265699  0.24338330  1
  Hf  Hf5  1  0.19125050  0.00473330  0.26417600  1
  Hf  Hf6  1  -0.00483287  0.39658130  0.74489303  1
  Hf  Hf7  1  0.61291064  0.19554746  0.74637304  1
  Hf  Hf8  1  0.87005489  0.68699609  0.63520085  1
  Hf  Hf9  1  0.09987480  0.28777017  0.62875013  1
  Hf  Hf10  1  0.10404487  0.28701100  0.86863887  1
  Hf  Hf11  1  0.49864879  0.29731827  0.63002736  1
  Hf  Hf12  1  0.49111166  0.49251377  0.36622064  1
  Hf  Hf13  1  -0.00597969  0.39869306  -0.00201534  1
  Hf  Hf14  1  0.90970842  0.89869949  0.13714952  1
  Hf  Hf15  1  0.81762831  0.21082115  0.51004796  1
  Hf  Hf16  1  0.89480981  0.51123596  0.86147545  1
  Hf  Hf17  1  0.77773584  0.18917340  0.23936848  1
  Hf  Hf18  1  0.80106288  0.59845836  0.01127052  1
  Hf  Hf19  1  0.09674546  0.68579956  0.37947646  1
  Hf  Hf20  1  0.21307734  -0.00149110  0.50783883  1
  Hf  Hf21  1  0.50761642  0.11879349  0.37077760  1
  Hf  Hf22  1  0.59953729  0.39659828  0.00889947  1
  Hf  Hf23  1  0.68929925  0.29292407  0.38416662  1
  Hf  Hf24  1  0.10169049  0.29740048  0.12009195  1
  Hf  Hf25  1  -0.00423932  0.59851014  0.01676589  1
  Hf  Hf26  1  0.30357649  0.90143537  0.13441453  1
  Hf  Hf27  1  0.20365544  0.00072079  0.74113395  1
  Hf  Hf28  1  0.20278369  0.19864042  0.25280078  1
  Hf  Hf29  1  0.68404247  0.90134270  0.60172538  1
  Hf  Hf30  1  0.00689735  0.18500153  0.26311479  1
  Hf  Hf31  1  0.80415609  -0.00283857  0.00840983  1
  Hf  Hf32  1  0.60160669  0.38905727  0.24299527  1
  Hf  Hf33  1  0.70172404  0.09730331  0.88081364  1
  Hf  Hf34  1  0.49755309  0.29235240  0.86673503  1
  Hf  Hf35  1  0.10037732  0.88945300  0.39446685  1
  Hf  Hf36  1  0.30411035  0.69857289  0.86994183  1
  Hf  Hf37  1  0.19994393  0.80182316  0.74645660  1
  Hf  Hf38  1  0.89542485  0.89697475  0.86085004  1
  Hf  Hf39  1  0.19673453  0.80417768  -0.00864282  1
  Zr  Zr40  1  0.60150710  0.41381266  0.75360356  1
  Zr  Zr41  1  0.30283092  0.50770651  0.88298986  1
  Zr  Zr42  1  0.49234466  0.70956563  0.13550022  1
  Zr  Zr43  1  0.59127537  0.80555355  -0.00782219  1
  Zr  Zr44  1  0.90272117  0.29956039  0.13808825  1
  Zr  Zr45  1  0.80326421  0.19843346  0.01198414  1
  Zr  Zr46  1  0.40280778  0.42304560  0.74532922  1
  Zr  Zr47  1  0.39682511  0.60389505  0.50578605  1
  Zr  Zr48  1  -0.01094278  0.38831791  0.50859115  1
  Zr  Zr49  1  0.31364240  0.09900275  0.37257493  1
  Zr  Zr50  1  0.89203956  0.30828886  0.35490412  1
  Zr  Zr51  1  0.79202055  0.40587124  0.74362285  1
  Zr  Zr52  1  0.70299857  0.89262271  0.13096884  1
  Zr  Zr53  1  0.09268009  0.89817809  0.12332265  1
  Zr  Zr54  1  0.39299451  0.40489311  0.50621810  1
  Zr  Zr55  1  0.61220460  0.01173573  0.24921812  1
  Zr  Zr56  1  0.79786967  0.59546371  0.24361013  1
  Zr  Zr57  1  0.69822146  0.30254701  0.61593435  1
  Zr  Zr58  1  0.59926555  0.60789886  0.74549705  1
  Zr  Zr59  1  0.40104465  0.38496702  0.00465896  1
  Zr  Zr60  1  0.29452645  0.69367993  0.36983402  1
  Zr  Zr61  1  0.30537544  0.49623675  0.11638043  1
  Zr  Zr62  1  0.49732933  0.09940840  0.86823658  1
  Zr  Zr63  1  0.09185027  0.69275323  0.86458877  1
  Zr  Zr64  1  0.90123689  0.70029245  0.36882695  1
  Zr  Zr65  1  0.70342356  0.49761547  0.37815389  1
  Zr  Zr66  1  0.29384632  0.29622085  0.63103719  1
  Zr  Zr67  1  0.69429001  0.70648135  0.12939890  1
  Zr  Zr68  1  0.90424906  0.71442250  0.14196099  1
  Zr  Zr69  1  0.90373253  0.09740687  0.85906320  1
  Zr  Zr70  1  0.30414276  0.28933291  0.85997051  1
  Zr  Zr71  1  0.51502944  0.09235209  0.61328078  1
  Zr  Zr72  1  0.41236058  0.79912493  0.48752097  1
  Zr  Zr73  1  0.69759532  0.69859226  0.88432409  1
  Zr  Zr74  1  0.10896213  0.49266064  0.62049788  1
  Zr  Zr75  1  -0.01772865  0.58639102  0.51466759  1
  Zr  Zr76  1  -0.00303170  0.80390967  0.73695212  1
  Zr  Zr77  1  0.09606236  0.08999733  0.11485891  1
  Zr  Zr78  1  0.30900270  0.10467913  0.86855188  1
  Zr  Zr79  1  -0.01061361  0.79715528  0.51353436  1
  Ta  Ta80  1  0.10089998  0.10042417  0.62154247  1
  Ta  Ta81  1  0.20562225  -0.00086046  -0.01290717  1
  Ta  Ta82  1  0.20198304  0.40265311  0.75486031  1
  Ta  Ta83  1  0.40971852  -0.00696091  0.50361257  1
  Ta  Ta84  1  0.59753341  0.80801490  0.75415986  1
  Ta  Ta85  1  0.70106119  0.09854971  0.40087615  1
  Ta  Ta86  1  0.70643808  0.52391779  0.60650207  1
  Ta  Ta87  1  0.59523940  0.00058510  0.01199183  1
  Ta  Ta88  1  0.18868027  0.59079306  0.23466845  1
  Ta  Ta89  1  0.69539839  0.70224904  0.38116450  1
  Ta  Ta90  1  0.49490659  0.90214126  0.14259531  1
  Ta  Ta91  1  0.39740535  0.80969114  -0.00771571  1
  Ta  Ta92  1  0.50229450  0.51848214  0.89438887  1
  Ta  Ta93  1  0.40676273  0.00023618  0.01025472  1
  Ta  Ta94  1  0.30775703  0.89845931  0.36997316  1
  Ta  Ta95  1  0.30780042  0.09864710  0.12943943  1
  Ta  Ta96  1  0.70499640  0.29951930  0.88460760  1
  Ta  Ta97  1  0.59456236  0.59989363  0.25122622  1
  Ta  Ta98  1  0.80065632  0.40230865  0.00827781  1
  Ta  Ta99  1  0.20563927  0.19797823  0.49490552  1
  Ta  Ta100  1  0.31797604  0.30229525  0.36549651  1
  Ta  Ta101  1  0.80969957  0.41369258  0.51169740  1
  Ta  Ta102  1  0.89479098  0.09896462  0.38359517  1
  Ta  Ta103  1  0.30903953  0.90603252  0.86579966  1
  Ta  Ta104  1  0.10149335  0.90185785  0.61558617  1
  Ta  Ta105  1  0.59480838  0.40479708  0.50031097  1
  Ta  Ta106  1  0.00093433  0.19161652  -0.00834684  1
  Ta  Ta107  1  0.21048198  0.19764256  0.00834347  1
  Ta  Ta108  1  0.49975971  0.72041895  0.62982639  1
  Ta  Ta109  1  0.31725168  0.88875188  0.63029644  1
  Ta  Ta110  1  -0.00218951  -0.00624589  0.27748049  1
  Ta  Ta111  1  0.39193624  0.59748595  0.24818378  1
  Ta  Ta112  1  0.90445315  0.49752990  0.35739211  1
  Ta  Ta113  1  0.49591260  0.90771561  0.86534880  1
  Ta  Ta114  1  0.89675502  0.29515667  0.86906185  1
  Ta  Ta115  1  0.80360897  -0.00032593  0.26540082  1
  Ta  Ta116  1  0.19642558  0.60656418  0.01520403  1
  Ta  Ta117  1  0.70850782  0.09383543  0.60662326  1
  Ta  Ta118  1  0.09383777  0.70434834  0.13297150  1
  Ta  Ta119  1  0.89365387  0.69730026  0.85848277  1
  Ti  Ti120  1  0.29003672  0.49644598  0.37424806  1
  Ti  Ti121  1  0.79212131  0.00021599  0.73832804  1
  Ti  Ti122  1  -0.00078753  0.80029115  -0.01699306  1
  Ti  Ti123  1  0.10094362  0.50051523  0.38480433  1
  Ti  Ti124  1  0.90758147  0.09020931  0.13420861  1
  Ti  Ti125  1  0.29910093  0.70579110  0.12880352  1
  Ti  Ti126  1  0.79668772  0.81409798  0.27365035  1
  Ti  Ti127  1  0.49525367  0.70221139  0.87290641  1
  Ti  Ti128  1  0.69413700  0.50551832  0.88970257  1
  Ti  Ti129  1  0.88839711  0.90915294  0.62095212  1
  Ti  Ti130  1  0.59778111  0.80077860  0.27145749  1
  Ti  Ti131  1  0.68830323  0.70687698  0.60350111  1
  Ti  Ti132  1  0.40214071  0.20005906  0.50469324  1
  Ti  Ti133  1  0.58778418  0.61276566  0.48678035  1
  Ti  Ti134  1  0.21138878  0.79053185  0.51481050  1
  Ti  Ti135  1  0.20765467  0.59741700  0.73440425  1
  Ti  Ti136  1  0.10598901  0.10061078  0.86612827  1
  Ti  Ti137  1  0.80930257  0.80027387  -0.00430148  1
  Ti  Ti138  1  0.60752439  -0.00486746  0.74901819  1
  Ti  Ti139  1  0.20123829  0.39453134  -0.00192286  1
  Ti  Ti140  1  0.00749020  -0.00287179  0.74345362  1
  Ti  Ti141  1  -0.00508888  0.00278674  0.49870195  1
  Ti  Ti142  1  0.49945702  0.50352731  0.12702684  1
  Ti  Ti143  1  0.09948336  0.69477768  0.62551120  1
  Ti  Ti144  1  0.78145234  0.80396053  0.74431844  1
  Ti  Ti145  1  0.50871254  0.51205287  0.61572925  1
  Ti  Ti146  1  0.00644767  -0.00679262  -0.01905938  1
  Ti  Ti147  1  0.00430646  0.19400236  0.49341500  1
  Ti  Ti148  1  0.69924845  0.90357996  0.87811556  1
  Ti  Ti149  1  0.40313954  0.61256711  0.01036966  1
  Ti  Ti150  1  0.39973532  0.60934257  0.73530056  1
  Ti  Ti151  1  0.01102222  0.42033882  0.23599992  1
  Ti  Ti152  1  0.40586947  0.00006003  0.72997525  1
  Ti  Ti153  1  0.79508754  0.80621403  0.48903813  1
  Ti  Ti154  1  0.50010328  0.90852130  0.36190083  1
  Ti  Ti155  1  0.21026534  0.59530938  0.51536267  1
  Ti  Ti156  1  0.90913066  0.10132878  0.62901068  1
  Ti  Ti157  1  0.48638198  0.29121042  0.14388861  1
  Ti  Ti158  1  0.69659480  0.49754485  0.12644553  1
  Ti  Ti159  1  0.80464910  0.20116622  0.74105943  1
  Mo  Mo160  1  0.30150716  0.29274330  0.13309031  1
  Mo  Mo161  1  0.79521056  0.60160933  0.48378847  1
  Mo  Mo162  1  -0.00331793  0.59882496  0.73591866  1
  Mo  Mo163  1  0.49725160  0.29998054  0.37613775  1
  Mo  Mo164  1  0.80863485  0.00146774  0.50305328  1
  Mo  Mo165  1  0.30781393  0.09764014  0.61669450  1
  Mo  Mo166  1  0.09832625  0.09797882  0.39940058  1
  Mo  Mo167  1  0.50124506  0.69524118  0.35652248  1
  Mo  Mo168  1  0.00792891  0.59377986  0.24377967  1
  Mo  Mo169  1  0.89802021  0.49617615  0.13697333  1
  Mo  Mo170  1  0.19854558  0.19150627  0.73492300  1
  Mo  Mo171  1  0.89179363  0.50275531  0.64032674  1
  Mo  Mo172  1  0.59239348  0.59537493  0.01862969  1
  Mo  Mo173  1  0.50256940  0.89927944  0.63486259  1
  Mo  Mo174  1  0.10241129  0.49907626  0.10769339  1
  Mo  Mo175  1  0.39911947  0.80077958  0.26141640  1
  Mo  Mo176  1  0.79669994  0.39825245  0.23274587  1
  Mo  Mo177  1  0.78429675  0.60352197  0.75833073  1
  Mo  Mo178  1  0.59368298  0.79954133  0.48281895  1
  Mo  Mo179  1  0.39743058  0.19318980  0.02189754  1
  Mo  Mo180  1  0.10125215  0.90957826  0.87228936  1
  Mo  Mo181  1  0.30127798  0.70210584  0.63394329  1
  Mo  Mo182  1  0.40261906  0.00030469  0.24797363  1
  Mo  Mo183  1  0.20371216  0.39874157  0.48391263  1
  Mo  Mo184  1  0.59930796  0.20079425  0.23753618  1
  Mo  Mo185  1  0.00080473  0.19081313  0.75568230  1
  Mo  Mo186  1  0.29816766  0.50175602  0.62931770  1
  Mo  Mo187  1  0.70332106  0.09372980  0.11507212  1
  Mo  Mo188  1  0.59767255  -0.00441322  0.48124367  1
  Mo  Mo189  1  0.00222498  0.80093479  0.26778338  1
  Mo  Mo190  1  0.89721390  0.90318492  0.38199669  1
  Mo  Mo191  1  0.40049035  0.40248823  0.24839899  1
  Mo  Mo192  1  0.40048932  0.20185826  0.24354953  1
  Mo  Mo193  1  0.90216554  0.29149749  0.64213934  1
  Mo  Mo194  1  0.49711225  0.09655997  0.13992444  1
  Mo  Mo195  1  0.69749105  0.30286069  0.11431893  1
  Mo  Mo196  1  0.69883930  0.90085680  0.38319748  1
  Mo  Mo197  1  0.40481116  0.80163020  0.76261629  1
  Mo  Mo198  1  0.60221901  0.20378726  0.50781249  1
  Mo  Mo199  1  0.40295330  0.18711366  0.72700760  1
