# generated using pymatgen
data_HfZrTaTiMo
_symmetry_space_group_name_H-M   'P 1'
_cell_length_a   15.92670985
_cell_length_b   15.93115186
_cell_length_c   15.21118745
_cell_angle_alpha   89.97354862
_cell_angle_beta   89.93868834
_cell_angle_gamma   89.93301828
_symmetry_Int_Tables_number   1
_chemical_formula_structural   HfZrTaTiMo
_chemical_formula_sum   'Hf40 Zr40 Ta40 Ti40 Mo40'
_cell_volume   3859.54200873
_cell_formula_units_Z   40
loop_
 _symmetry_equiv_pos_site_id
 _symmetry_equiv_pos_as_xyz
  1  'x, y, z'
loop_
 _atom_site_type_symbol
 _atom_site_label
 _atom_site_symmetry_multiplicity
 _atom_site_fract_x
 _atom_site_fract_y
 _atom_site_fract_z
 _atom_site_occupancy
  Hf  Hf0  1  0.68119418  0.51519988  0.89238593  1
  Hf  Hf1  1  0.09438168  0.90664644  0.62631894  1
  Hf  Hf2  1  0.80174728  0.41102801  0.76234279  1
  Hf  Hf3  1  0.49541991  0.69414004  0.11929183  1
  Hf  Hf4  1  0.49529711  0.28696179  0.85325243  1
  Hf  Hf5  1  0.20937337  0.59390405  0.23761650  1
  Hf  Hf6  1  -0.00228824  0.20022996  0.25242819  1
  Hf  Hf7  1  0.89340619  0.10341111  0.87997111  1
  Hf  Hf8  1  0.39935866  0.81225059  0.25168244  1
  Hf  Hf9  1  0.90043662  0.50363036  0.61881872  1
  Hf  Hf10  1  0.80881903  0.60604120  0.00843392  1
  Hf  Hf11  1  0.68519131  0.10674683  0.13302498  1
  Hf  Hf12  1  0.00394929  0.21200880  0.01443071  1
  Hf  Hf13  1  0.40449566  0.79293155  0.50676028  1
  Hf  Hf14  1  -0.00357883  0.00297843  0.01807355  1
  Hf  Hf15  1  0.89945567  0.30788019  0.62172301  1
  Hf  Hf16  1  0.39959254  0.19210302  0.51397256  1
  Hf  Hf17  1  0.10812532  0.70317524  0.35485565  1
  Hf  Hf18  1  0.20868411  0.79234985  0.50031183  1
  Hf  Hf19  1  0.19382033  0.78927903  -0.00830239  1
  Hf  Hf20  1  0.00943608  0.60027849  0.49043449  1
  Hf  Hf21  1  -0.01110430  0.80299070  0.24280291  1
  Hf  Hf22  1  0.78964593  0.81616435  0.74257905  1
  Hf  Hf23  1  0.89884867  0.69900037  0.61966239  1
  Hf  Hf24  1  0.39618284  0.19526328  0.00776524  1
  Hf  Hf25  1  0.00095664  -0.00089033  0.25415457  1
  Hf  Hf26  1  0.41067705  -0.01301976  0.75465497  1
  Hf  Hf27  1  0.70410127  0.50997224  0.61282558  1
  Hf  Hf28  1  0.69319705  0.70347025  0.12342061  1
  Hf  Hf29  1  0.09188340  0.10606534  0.87844518  1
  Hf  Hf30  1  0.50991141  0.48956852  0.10081297  1
  Hf  Hf31  1  0.51348381  0.08090033  0.62858069  1
  Hf  Hf32  1  0.79598735  0.60973748  0.75983649  1
  Hf  Hf33  1  0.69794111  0.89180144  0.37651465  1
  Hf  Hf34  1  0.88795754  0.70214115  0.38103443  1
  Hf  Hf35  1  0.19540230  0.19526753  0.73802534  1
  Hf  Hf36  1  0.51124217  0.88785423  0.88736180  1
  Hf  Hf37  1  0.41637158  0.20142898  0.23290755  1
  Hf  Hf38  1  0.69788576  0.90480502  0.11448948  1
  Hf  Hf39  1  0.68903030  0.92299709  0.61255842  1
  Zr  Zr40  1  0.88605520  0.90756643  0.89376147  1
  Zr  Zr41  1  0.10079183  0.31419787  0.63735233  1
  Zr  Zr42  1  0.69447381  0.72215027  0.89129246  1
  Zr  Zr43  1  0.29094294  0.49704804  0.63392638  1
  Zr  Zr44  1  0.90610886  0.71451242  0.88568347  1
  Zr  Zr45  1  0.70369828  0.30553341  0.62229734  1
  Zr  Zr46  1  0.19725638  0.39650869  0.49717791  1
  Zr  Zr47  1  0.40220837  -0.01173079  0.48336555  1
  Zr  Zr48  1  0.31402355  0.49552766  0.38632748  1
  Zr  Zr49  1  0.10672760  0.89755142  0.12529906  1
  Zr  Zr50  1  -0.00419398  0.80654356  0.74553298  1
  Zr  Zr51  1  0.60106288  0.39568096  0.26833128  1
  Zr  Zr52  1  0.58262794  0.00227381  0.25786658  1
  Zr  Zr53  1  0.09798132  0.48768409  0.13145295  1
  Zr  Zr54  1  0.78451035  0.21036944  0.26597282  1
  Zr  Zr55  1  0.21756236  0.18433485  0.25132774  1
  Zr  Zr56  1  0.50858664  0.67786188  0.88407986  1
  Zr  Zr57  1  0.70589936  0.49120100  0.11668478  1
  Zr  Zr58  1  0.80087244  0.59893715  0.24982650  1
  Zr  Zr59  1  0.69934468  0.29653028  0.87201050  1
  Zr  Zr60  1  0.29823366  0.89532357  0.63583066  1
  Zr  Zr61  1  0.10335153  0.30364142  0.13648700  1
  Zr  Zr62  1  0.59490945  0.41491523  0.75154598  1
  Zr  Zr63  1  0.50694068  0.69257466  0.36990871  1
  Zr  Zr64  1  0.18757836  -0.00267139  0.75987942  1
  Zr  Zr65  1  0.19532826  0.39523140  -0.01785400  1
  Zr  Zr66  1  0.01230970  0.80486457  0.49117437  1
  Zr  Zr67  1  0.00869001  0.20344638  0.50333672  1
  Zr  Zr68  1  0.89158276  0.91247697  0.60647936  1
  Zr  Zr69  1  0.91238892  0.29792531  0.86191545  1
  Zr  Zr70  1  0.30576717  0.69209829  0.36339766  1
  Zr  Zr71  1  0.80093569  -0.00210576  0.25659192  1
  Zr  Zr72  1  0.31065480  0.29342465  0.38209460  1
  Zr  Zr73  1  0.79865534  0.20679735  0.00767047  1
  Zr  Zr74  1  0.40474746  0.78410328  0.74270068  1
  Zr  Zr75  1  0.68941583  0.30992450  0.12066460  1
  Zr  Zr76  1  0.38764674  0.00969694  0.24904644  1
  Zr  Zr77  1  0.30983255  0.49483942  0.11011133  1
  Zr  Zr78  1  0.01092278  0.60296028  0.01312213  1
  Zr  Zr79  1  0.19924687  -0.00675713  0.48661732  1
  Ta  Ta80  1  0.29850943  0.89979591  0.11315672  1
  Ta  Ta81  1  0.39673688  0.00198415  -0.00475942  1
  Ta  Ta82  1  0.50181413  0.29623385  0.62765491  1
  Ta  Ta83  1  0.08745935  0.89447604  0.88514114  1
  Ta  Ta84  1  0.09686550  0.50802867  0.63965112  1
  Ta  Ta85  1  0.10857608  0.69328314  0.63778696  1
  Ta  Ta86  1  0.20321825  0.59799621  -0.00910082  1
  Ta  Ta87  1  0.49828238  0.30455508  0.39409322  1
  Ta  Ta88  1  0.40959999  0.39563888  0.24440895  1
  Ta  Ta89  1  0.20180256  0.19078782  0.50944863  1
  Ta  Ta90  1  0.89336998  0.09488152  0.60611529  1
  Ta  Ta91  1  0.00289353  0.40833408  0.48778110  1
  Ta  Ta92  1  0.19733011  0.79264088  0.76250504  1
  Ta  Ta93  1  0.20360063  0.00466291  -0.01053675  1
  Ta  Ta94  1  0.49660893  0.90067052  0.11029158  1
  Ta  Ta95  1  0.39950325  0.40041978  0.74640281  1
  Ta  Ta96  1  0.30046824  0.09220242  0.63176004  1
  Ta  Ta97  1  0.59620319  0.80557472  0.73418871  1
  Ta  Ta98  1  0.89066710  0.10464992  0.13006117  1
  Ta  Ta99  1  0.30719055  0.10311474  0.86454075  1
  Ta  Ta100  1  0.61378151  0.18003916  0.73925333  1
  Ta  Ta101  1  0.78543265  0.01519468  0.75035969  1
  Ta  Ta102  1  -0.00766705  0.59682131  0.24863299  1
  Ta  Ta103  1  0.50447461  0.09639220  0.86653332  1
  Ta  Ta104  1  0.58513681  0.20263467  -0.00009550  1
  Ta  Ta105  1  0.30441088  0.68969815  0.87098020  1
  Ta  Ta106  1  0.21190720  0.39448020  0.25794705  1
  Ta  Ta107  1  0.29848779  0.89459958  0.87903946  1
  Ta  Ta108  1  0.79392012  0.20235843  0.49309985  1
  Ta  Ta109  1  0.10274503  0.49864116  0.36033911  1
  Ta  Ta110  1  0.70353515  0.50843803  0.39528722  1
  Ta  Ta111  1  0.39746990  0.60435574  0.52163964  1
  Ta  Ta112  1  0.89957042  0.30709933  0.37948732  1
  Ta  Ta113  1  0.30031261  0.29288194  0.85644059  1
  Ta  Ta114  1  0.60409972  0.19742517  0.49711096  1
  Ta  Ta115  1  0.89903608  0.10125110  0.38515174  1
  Ta  Ta116  1  0.89907833  0.31662946  0.13988578  1
  Ta  Ta117  1  0.39394519  0.79460119  -0.00276460  1
  Ta  Ta118  1  0.91501232  0.50971878  0.87908833  1
  Ta  Ta119  1  0.10208032  0.09850599  0.37735828  1
  Ti  Ti120  1  0.00674687  0.41521442  0.76067186  1
  Ti  Ti121  1  0.49738223  0.49710577  0.39421302  1
  Ti  Ti122  1  0.41027180  0.58439230  0.24553565  1
  Ti  Ti123  1  0.09277452  0.69135831  0.86615506  1
  Ti  Ti124  1  0.30158442  0.30406314  0.12232283  1
  Ti  Ti125  1  0.69743911  0.09765912  0.88660917  1
  Ti  Ti126  1  0.69872061  0.90910000  0.89226835  1
  Ti  Ti127  1  0.30967238  0.49784377  0.87309342  1
  Ti  Ti128  1  0.20504509  0.19764107  -0.00247783  1
  Ti  Ti129  1  0.30147304  0.69916996  0.11926154  1
  Ti  Ti130  1  0.80220746  0.80197004  0.23944457  1
  Ti  Ti131  1  0.30503473  0.29881004  0.63534809  1
  Ti  Ti132  1  -0.00078953  0.18661143  0.72976960  1
  Ti  Ti133  1  0.59866820  0.00530665  0.47734995  1
  Ti  Ti134  1  0.40633012  0.38781039  -0.01600908  1
  Ti  Ti135  1  0.59161317  0.01029993  0.00086161  1
  Ti  Ti136  1  0.10323956  0.29956299  0.36842458  1
  Ti  Ti137  1  0.90773014  0.48938554  0.12453799  1
  Ti  Ti138  1  -0.01187370  0.00618468  0.74865681  1
  Ti  Ti139  1  0.80311787  0.40867249  0.27149221  1
  Ti  Ti140  1  0.59407125  0.80485554  0.24793696  1
  Ti  Ti141  1  0.59447802  0.60928106  0.50544924  1
  Ti  Ti142  1  0.80111360  0.19261804  0.73678899  1
  Ti  Ti143  1  0.60272014  0.39737637  0.50015207  1
  Ti  Ti144  1  0.11123651  0.09851748  0.12857995  1
  Ti  Ti145  1  0.19859998  0.59369512  0.76535162  1
  Ti  Ti146  1  0.41305319  0.59016440  0.74407109  1
  Ti  Ti147  1  0.81548395  0.40178452  -0.01145424  1
  Ti  Ti148  1  0.78806533  0.79830148  0.50459949  1
  Ti  Ti149  1  0.10025949  0.30205862  0.86309192  1
  Ti  Ti150  1  0.50262718  0.49754458  0.61546032  1
  Ti  Ti151  1  0.10371944  0.70127307  0.13314245  1
  Ti  Ti152  1  0.69566795  0.69932783  0.37442791  1
  Ti  Ti153  1  0.69478934  0.70072664  0.62295968  1
  Ti  Ti154  1  0.89862213  0.90348242  0.38947570  1
  Ti  Ti155  1  0.20160795  0.60172089  0.50313127  1
  Ti  Ti156  1  0.20655021  -0.01044026  0.26240582  1
  Ti  Ti157  1  0.49720683  0.11228037  0.37686737  1
  Ti  Ti158  1  0.60103632  0.58773723  0.25147985  1
  Ti  Ti159  1  0.59117739  0.80231184  0.50753354  1
  Mo  Mo160  1  0.69797540  0.30903132  0.39225861  1
  Mo  Mo161  1  0.20701941  0.80113052  0.23618627  1
  Mo  Mo162  1  0.59354608  0.20405837  0.27166081  1
  Mo  Mo163  1  0.40237807  0.19228459  0.73239631  1
  Mo  Mo164  1  0.90139457  0.50250515  0.38138877  1
  Mo  Mo165  1  0.69359163  0.10370707  0.37716991  1
  Mo  Mo166  1  0.59030847  0.39011559  -0.02236562  1
  Mo  Mo167  1  -0.00331714  0.40160438  0.27024812  1
  Mo  Mo168  1  0.79336014  0.00618258  0.47928401  1
  Mo  Mo169  1  0.10201119  0.50342606  0.86667208  1
  Mo  Mo170  1  0.29589855  0.89117190  0.36314502  1
  Mo  Mo171  1  0.49978153  0.30260685  0.11798330  1
  Mo  Mo172  1  -0.00466027  0.39891902  -0.01369510  1
  Mo  Mo173  1  0.39252405  0.59723846  -0.00452056  1
  Mo  Mo174  1  0.59475513  0.80497642  0.01135215  1
  Mo  Mo175  1  0.60012719  0.60079227  0.01442949  1
  Mo  Mo176  1  0.70446368  0.10109659  0.60940640  1
  Mo  Mo177  1  0.50298623  0.89434343  0.38191900  1
  Mo  Mo178  1  0.29896479  0.10108073  0.38621133  1
  Mo  Mo179  1  0.89411979  0.90217558  0.11645252  1
  Mo  Mo180  1  0.90211138  0.70382373  0.12701537  1
  Mo  Mo181  1  0.50740822  0.68985515  0.62458266  1
  Mo  Mo182  1  0.50836729  0.89568693  0.61677037  1
  Mo  Mo183  1  0.40876985  0.39803015  0.52451175  1
  Mo  Mo184  1  0.00053622  0.60220393  0.74692827  1
  Mo  Mo185  1  0.61053598  -0.00499530  0.76804833  1
  Mo  Mo186  1  0.29523156  0.68835625  0.64559061  1
  Mo  Mo187  1  0.79225690  0.01264584  0.00714623  1
  Mo  Mo188  1  0.79498600  0.61089284  0.49564347  1
  Mo  Mo189  1  0.29251524  0.09337808  0.10589187  1
  Mo  Mo190  1  0.09346620  0.09540975  0.61577320  1
  Mo  Mo191  1  0.49024732  0.49317514  0.88176236  1
  Mo  Mo192  1  0.00008179  0.79886338  0.01625932  1
  Mo  Mo193  1  0.20304485  0.40027445  0.76359703  1
  Mo  Mo194  1  0.10190118  0.89824276  0.35772727  1
  Mo  Mo195  1  0.80236236  0.80817507  0.01900836  1
  Mo  Mo196  1  -0.00022371  0.00267449  0.48071907  1
  Mo  Mo197  1  0.80443592  0.40483694  0.48851102  1
  Mo  Mo198  1  0.59721455  0.60671470  0.73292584  1
  Mo  Mo199  1  0.49998000  0.09714658  0.11310844  1
