# generated using pymatgen
data_HfZrTaTiMo
_symmetry_space_group_name_H-M   'P 1'
_cell_length_a   15.92432301
_cell_length_b   15.92727793
_cell_length_c   15.19404151
_cell_angle_alpha   90.10871672
_cell_angle_beta   89.96396347
_cell_angle_gamma   90.03383270
_symmetry_Int_Tables_number   1
_chemical_formula_structural   HfZrTaTiMo
_chemical_formula_sum   'Hf40 Zr40 Ta40 Ti40 Mo40'
_cell_volume   3853.67337535
_cell_formula_units_Z   40
loop_
 _symmetry_equiv_pos_site_id
 _symmetry_equiv_pos_as_xyz
  1  'x, y, z'
loop_
 _atom_site_type_symbol
 _atom_site_label
 _atom_site_symmetry_multiplicity
 _atom_site_fract_x
 _atom_site_fract_y
 _atom_site_fract_z
 _atom_site_occupancy
  Hf  Hf0  1  0.89689198  0.69512609  0.87833221  1
  Hf  Hf1  1  0.39578465  0.39747139  0.76256903  1
  Hf  Hf2  1  0.60480942  0.19592300  0.73697378  1
  Hf  Hf3  1  0.01604065  0.60190609  0.74647103  1
  Hf  Hf4  1  0.69785581  0.90014015  0.12407735  1
  Hf  Hf5  1  0.39019956  0.39250816  0.24961027  1
  Hf  Hf6  1  0.09337211  0.90030135  0.38038394  1
  Hf  Hf7  1  0.27745358  0.91625748  0.11064869  1
  Hf  Hf8  1  0.13758309  0.30124957  0.60484122  1
  Hf  Hf9  1  0.50459661  0.50324784  0.62122188  1
  Hf  Hf10  1  0.81125852  0.40615677  0.50056626  1
  Hf  Hf11  1  0.29117655  0.11012335  0.62889925  1
  Hf  Hf12  1  0.70573298  0.51135267  0.63864352  1
  Hf  Hf13  1  0.89915500  0.10078522  0.11544917  1
  Hf  Hf14  1  0.38094336  0.77445474  0.76367361  1
  Hf  Hf15  1  0.21175107  0.20981882  0.76861376  1
  Hf  Hf16  1  0.58153415  0.80295196  0.49648989  1
  Hf  Hf17  1  0.79708114  0.01343288  0.51502721  1
  Hf  Hf18  1  0.91310781  0.50340313  0.35653316  1
  Hf  Hf19  1  0.70394250  0.69116450  0.87197221  1
  Hf  Hf20  1  0.20778557  0.40099097  0.77023579  1
  Hf  Hf21  1  0.79517632  0.00330448  0.74797815  1
  Hf  Hf22  1  0.60431679  0.40232919  0.00289601  1
  Hf  Hf23  1  0.80838743  0.40385233  0.00867902  1
  Hf  Hf24  1  0.70847967  0.51305024  0.13751104  1
  Hf  Hf25  1  0.00003849  0.59979830  0.50780348  1
  Hf  Hf26  1  0.39167858  0.00676696  0.75759473  1
  Hf  Hf27  1  0.10040229  0.50081801  0.12925120  1
  Hf  Hf28  1  0.67717479  0.90860135  0.63680577  1
  Hf  Hf29  1  0.18698191  0.80659067  0.23702295  1
  Hf  Hf30  1  0.90025241  0.89372712  0.87479572  1
  Hf  Hf31  1  0.00649788  0.18964216  0.51435182  1
  Hf  Hf32  1  0.49938744  0.29338914  0.88445424  1
  Hf  Hf33  1  0.69858198  0.10407591  0.87714404  1
  Hf  Hf34  1  0.39602567  0.60360236  0.48938366  1
  Hf  Hf35  1  0.90437185  0.90205812  0.38904881  1
  Hf  Hf36  1  0.19490402  0.60117657  0.49729537  1
  Hf  Hf37  1  0.10010325  0.90568557  0.64528548  1
  Hf  Hf38  1  0.59968822  0.39914628  0.75613007  1
  Hf  Hf39  1  0.30337720  0.47636568  0.60528869  1
  Zr  Zr40  1  0.69745540  0.11409997  0.36620720  1
  Zr  Zr41  1  0.71379201  0.29492194  0.87748725  1
  Zr  Zr42  1  0.70049047  0.10420747  0.12740075  1
  Zr  Zr43  1  0.79573417  0.79936989  0.50472850  1
  Zr  Zr44  1  0.10248035  0.30114104  0.37392989  1
  Zr  Zr45  1  0.19499661  0.00358783  0.50252719  1
  Zr  Zr46  1  0.58522406  0.79480466  -0.00542234  1
  Zr  Zr47  1  0.10977660  0.50696745  0.88327835  1
  Zr  Zr48  1  0.28722417  0.90064084  0.87410891  1
  Zr  Zr49  1  0.61445067  0.40530750  0.48939627  1
  Zr  Zr50  1  0.69488055  0.90435718  0.37193685  1
  Zr  Zr51  1  0.48947434  0.30295593  0.61318066  1
  Zr  Zr52  1  0.70851664  0.50456423  0.86892525  1
  Zr  Zr53  1  0.30243129  0.30124601  0.40398737  1
  Zr  Zr54  1  0.39421241  -0.01099942  0.50176195  1
  Zr  Zr55  1  0.58610612  0.79690239  0.77550562  1
  Zr  Zr56  1  0.69579533  0.70198294  0.35882792  1
  Zr  Zr57  1  0.20291489  0.60824247  0.24735392  1
  Zr  Zr58  1  0.50099119  0.49973686  0.36607585  1
  Zr  Zr59  1  0.68936611  0.69574670  0.63737806  1
  Zr  Zr60  1  -0.01136391  0.79336954  0.23938933  1
  Zr  Zr61  1  -0.00180832  0.19630992  0.24192622  1
  Zr  Zr62  1  0.79730990  -0.00110520  -0.01234937  1
  Zr  Zr63  1  0.58683600  0.00167847  0.25132986  1
  Zr  Zr64  1  0.49313166  0.10765750  0.87945323  1
  Zr  Zr65  1  0.61562291  0.39079803  0.25328910  1
  Zr  Zr66  1  0.90433345  0.49949525  0.87105344  1
  Zr  Zr67  1  0.38684029  0.79914993  0.22411605  1
  Zr  Zr68  1  0.51003240  0.27919811  0.37403986  1
  Zr  Zr69  1  0.11552178  0.08732436  0.12629172  1
  Zr  Zr70  1  0.89146025  0.69739112  0.63622179  1
  Zr  Zr71  1  0.50394119  0.50302186  0.13342786  1
  Zr  Zr72  1  0.49430490  0.69347875  0.63306044  1
  Zr  Zr73  1  0.01328555  0.20834822  0.74329727  1
  Zr  Zr74  1  0.11475566  0.30123006  0.12817599  1
  Zr  Zr75  1  0.80416315  0.80563535  0.24492269  1
  Zr  Zr76  1  0.90755721  0.29977629  0.37501749  1
  Zr  Zr77  1  0.58132928  0.00951075  0.49034356  1
  Zr  Zr78  1  0.81767339  0.19716526  0.72893651  1
  Zr  Zr79  1  0.19772005  0.79693061  0.51050641  1
  Ta  Ta80  1  0.30050639  0.10016851  0.36649420  1
  Ta  Ta81  1  0.90588926  0.50415542  0.13305486  1
  Ta  Ta82  1  0.18931686  0.80085830  0.00066018  1
  Ta  Ta83  1  0.81702472  0.39175427  0.73902602  1
  Ta  Ta84  1  0.69250327  0.69609188  0.12444996  1
  Ta  Ta85  1  0.10947444  0.49486089  0.63050170  1
  Ta  Ta86  1  0.70582849  0.30555187  0.62029452  1
  Ta  Ta87  1  0.29825083  0.71029385  0.37431751  1
  Ta  Ta88  1  0.39054795  0.78606720  -0.00055887  1
  Ta  Ta89  1  0.60721352  0.60226996  0.48014217  1
  Ta  Ta90  1  0.08502008  0.69788860  0.36888128  1
  Ta  Ta91  1  0.08883787  0.69979518  0.11197182  1
  Ta  Ta92  1  0.10179923  0.09642533  0.36251162  1
  Ta  Ta93  1  0.39080216  0.60265210  0.24436145  1
  Ta  Ta94  1  0.40827838  0.18079449  0.50293589  1
  Ta  Ta95  1  0.90403359  0.89875661  0.10436152  1
  Ta  Ta96  1  0.00699633  0.00094215  -0.00861799  1
  Ta  Ta97  1  0.79954186  0.59710428  0.48557761  1
  Ta  Ta98  1  0.29855365  0.49647898  0.11542797  1
  Ta  Ta99  1  0.09653295  0.49896063  0.35840944  1
  Ta  Ta100  1  0.48049962  0.89297790  0.36076603  1
  Ta  Ta101  1  0.48727547  0.89743514  0.64641289  1
  Ta  Ta102  1  0.00686135  0.39565984  0.00493689  1
  Ta  Ta103  1  -0.00546848  0.01173994  0.75373109  1
  Ta  Ta104  1  0.00028424  -0.01014640  0.23864683  1
  Ta  Ta105  1  0.58935162  0.60159240  -0.00580438  1
  Ta  Ta106  1  0.00823023  0.20048871  -0.00298761  1
  Ta  Ta107  1  0.49219836  0.70384213  0.36009753  1
  Ta  Ta108  1  0.39792252  -0.00032028  0.00452436  1
  Ta  Ta109  1  0.59431205  -0.00592340  -0.00857807  1
  Ta  Ta110  1  0.39024238  0.00244556  0.23916211  1
  Ta  Ta111  1  0.91020858  0.29924689  0.88354320  1
  Ta  Ta112  1  0.49697263  0.10069908  0.12130770  1
  Ta  Ta113  1  0.09538406  0.89905666  0.87113966  1
  Ta  Ta114  1  0.50148769  0.29301789  0.12392364  1
  Ta  Ta115  1  0.22080496  0.60597783  0.74270743  1
  Ta  Ta116  1  0.80632671  0.20150400  0.51400661  1
  Ta  Ta117  1  0.29995736  0.10871118  0.11989034  1
  Ta  Ta118  1  0.29503661  0.89629319  0.64571693  1
  Ta  Ta119  1  0.32093060  0.52022619  0.89277839  1
  Ti  Ti120  1  0.78913934  0.79871896  -0.00337227  1
  Ti  Ti121  1  0.89189842  0.69584286  0.10478508  1
  Ti  Ti122  1  0.20781295  0.39823292  -0.00729756  1
  Ti  Ti123  1  0.90662759  0.09633235  0.37624859  1
  Ti  Ti124  1  0.29266437  0.90164918  0.36479592  1
  Ti  Ti125  1  0.21520959  0.20488954  0.25167995  1
  Ti  Ti126  1  0.30172957  0.10372819  0.88953123  1
  Ti  Ti127  1  0.00169379  0.79284560  0.51529260  1
  Ti  Ti128  1  0.71009277  0.29556818  0.38005697  1
  Ti  Ti129  1  0.90184494  0.11086577  0.88280033  1
  Ti  Ti130  1  0.60326878  0.19932136  0.01013218  1
  Ti  Ti131  1  0.20938130  0.40324926  0.25660013  1
  Ti  Ti132  1  0.90081523  0.90137847  0.63127574  1
  Ti  Ti133  1  0.01160383  0.39152469  0.74886175  1
  Ti  Ti134  1  0.90363549  0.30023718  0.12088639  1
  Ti  Ti135  1  0.00970145  0.40575906  0.50904813  1
  Ti  Ti136  1  0.80743197  0.39554866  0.24917494  1
  Ti  Ti137  1  0.00079811  0.00614113  0.51943886  1
  Ti  Ti138  1  0.40364627  0.40155775  0.00776074  1
  Ti  Ti139  1  0.90681951  0.49752673  0.63338410  1
  Ti  Ti140  1  0.19171216  0.78299213  0.75011654  1
  Ti  Ti141  1  0.70826145  0.29463995  0.12355819  1
  Ti  Ti142  1  0.20100349  0.20347481  -0.00392825  1
  Ti  Ti143  1  -0.00346750  0.59693873  0.00160225  1
  Ti  Ti144  1  0.49403385  0.90152321  0.11710337  1
  Ti  Ti145  1  0.48746855  0.90223254  0.87722328  1
  Ti  Ti146  1  0.39113839  0.80169465  0.50712516  1
  Ti  Ti147  1  0.81146291  0.00061668  0.25017782  1
  Ti  Ti148  1  0.58759498  0.79801464  0.23822638  1
  Ti  Ti149  1  0.80233527  0.20437346  0.24949179  1
  Ti  Ti150  1  0.09848793  0.70304696  0.88463206  1
  Ti  Ti151  1  0.81423303  0.61467578  0.25523087  1
  Ti  Ti152  1  0.60801909  0.19110340  0.51495313  1
  Ti  Ti153  1  0.40130189  0.19883623  0.24287472  1
  Ti  Ti154  1  0.20628418  0.60761395  0.00703239  1
  Ti  Ti155  1  0.79311603  0.80529747  0.75172950  1
  Ti  Ti156  1  0.00081052  0.79693476  0.75041263  1
  Ti  Ti157  1  0.10482307  0.09917847  0.87320432  1
  Ti  Ti158  1  0.50289703  0.08946645  0.64044039  1
  Ti  Ti159  1  0.31414357  0.29260665  0.89898935  1
  Mo  Mo160  1  0.10435015  0.30216309  0.89196667  1
  Mo  Mo161  1  0.29720047  0.50388482  0.37172776  1
  Mo  Mo162  1  0.19841950  0.00109717  0.26077914  1
  Mo  Mo163  1  0.90525834  0.09594041  0.62251031  1
  Mo  Mo164  1  0.10078080  0.69791822  0.63554883  1
  Mo  Mo165  1  0.49988400  0.69881416  0.13542621  1
  Mo  Mo166  1  0.28534967  0.69371384  0.89175930  1
  Mo  Mo167  1  0.20159443  0.18670449  0.48571946  1
  Mo  Mo168  1  0.30949246  0.29542523  0.61109904  1
  Mo  Mo169  1  0.48633367  0.09786554  0.35552437  1
  Mo  Mo170  1  0.00270410  0.40087520  0.22968726  1
  Mo  Mo171  1  0.60085505  0.20185795  0.23138372  1
  Mo  Mo172  1  0.29727337  0.69972036  0.61301004  1
  Mo  Mo173  1  0.90445977  0.70106091  0.39000360  1
  Mo  Mo174  1  0.19361047  0.00775191  0.76182914  1
  Mo  Mo175  1  0.79550455  0.60305285  0.01426949  1
  Mo  Mo176  1  0.39187055  0.58696827  0.74226997  1
  Mo  Mo177  1  0.71484256  0.50380780  0.35866916  1
  Mo  Mo178  1  0.47470881  0.66998327  0.87494076  1
  Mo  Mo179  1  0.80986954  0.20706688  0.00483233  1
  Mo  Mo180  1  0.39824700  0.20135175  0.01692622  1
  Mo  Mo181  1  0.40708559  0.40121203  0.48345932  1
  Mo  Mo182  1  -0.00310615  0.79748714  -0.00238191  1
  Mo  Mo183  1  0.40152902  0.60452042  0.02572504  1
  Mo  Mo184  1  0.29175470  0.70043480  0.11244044  1
  Mo  Mo185  1  0.59850508  0.60655778  0.25682875  1
  Mo  Mo186  1  0.19634584  0.00710312  -0.02147953  1
  Mo  Mo187  1  0.09051576  0.90088114  0.10598115  1
  Mo  Mo188  1  0.19493731  0.41570478  0.47985228  1
  Mo  Mo189  1  0.58536131  0.59289041  0.77418630  1
  Mo  Mo190  1  0.30263325  0.30135836  0.11517137  1
  Mo  Mo191  1  -0.00221583  0.60778556  0.23861956  1
  Mo  Mo192  1  0.91303054  0.31125224  0.61255491  1
  Mo  Mo193  1  0.59297116  -0.00422587  0.76930889  1
  Mo  Mo194  1  0.80799406  0.59689606  0.74320288  1
  Mo  Mo195  1  0.39923301  0.20475034  0.73651871  1
  Mo  Mo196  1  0.10459515  0.09889102  0.64520256  1
  Mo  Mo197  1  0.49817586  0.49739137  0.88527017  1
  Mo  Mo198  1  0.69337796  0.89810056  0.87134210  1
  Mo  Mo199  1  0.69457912  0.10251630  0.62593171  1
