# generated using pymatgen
data_HfZrTaTiMo
_symmetry_space_group_name_H-M   'P 1'
_cell_length_a   15.92721615
_cell_length_b   15.92555217
_cell_length_c   15.20895120
_cell_angle_alpha   89.94619640
_cell_angle_beta   90.07715014
_cell_angle_gamma   89.96733187
_symmetry_Int_Tables_number   1
_chemical_formula_structural   HfZrTaTiMo
_chemical_formula_sum   'Hf40 Zr40 Ta40 Ti40 Mo40'
_cell_volume   3857.74025738
_cell_formula_units_Z   40
loop_
 _symmetry_equiv_pos_site_id
 _symmetry_equiv_pos_as_xyz
  1  'x, y, z'
loop_
 _atom_site_type_symbol
 _atom_site_label
 _atom_site_symmetry_multiplicity
 _atom_site_fract_x
 _atom_site_fract_y
 _atom_site_fract_z
 _atom_site_occupancy
  Hf  Hf0  1  0.71449522  0.28996708  0.86362580  1
  Hf  Hf1  1  0.80000470  0.58845752  0.50758296  1
  Hf  Hf2  1  0.41012043  0.40132440  0.23148293  1
  Hf  Hf3  1  0.90168126  0.90285024  0.13759931  1
  Hf  Hf4  1  0.80803159  0.00481833  -0.00441742  1
  Hf  Hf5  1  0.50820374  0.50628057  0.61904274  1
  Hf  Hf6  1  0.00009973  0.00789961  0.49499589  1
  Hf  Hf7  1  0.20938895  0.00508091  0.48584376  1
  Hf  Hf8  1  0.90231574  0.49754831  0.36707076  1
  Hf  Hf9  1  0.09963533  0.08849036  0.86781809  1
  Hf  Hf10  1  0.79845505  0.18935287  0.50305872  1
  Hf  Hf11  1  0.18179625  0.60877001  0.47917118  1
  Hf  Hf12  1  0.39104933  0.61057015  0.49795312  1
  Hf  Hf13  1  0.40219998  0.60666067  0.74450284  1
  Hf  Hf14  1  0.90130186  0.29246131  0.12111965  1
  Hf  Hf15  1  -0.00302819  0.40824864  0.51817116  1
  Hf  Hf16  1  0.79172757  0.39271848  0.23499708  1
  Hf  Hf17  1  0.71101009  0.88336917  0.88505734  1
  Hf  Hf18  1  0.89840224  0.49982575  0.86864622  1
  Hf  Hf19  1  0.49456989  0.70570256  0.37819540  1
  Hf  Hf20  1  0.61024515  0.80702705  0.50029583  1
  Hf  Hf21  1  0.91167864  0.67564950  0.62426865  1
  Hf  Hf22  1  0.00207295  0.20213672  0.25579660  1
  Hf  Hf23  1  0.70714478  0.70137287  0.12066615  1
  Hf  Hf24  1  0.10342387  0.89580626  0.36446749  1
  Hf  Hf25  1  0.79789593  -0.01953507  0.74534406  1
  Hf  Hf26  1  0.60298739  0.80287068  0.74533191  1
  Hf  Hf27  1  0.59528060  0.20938955  0.24133306  1
  Hf  Hf28  1  0.89535302  0.29771273  0.38001408  1
  Hf  Hf29  1  0.68675161  0.08553431  0.64010252  1
  Hf  Hf30  1  0.89887025  0.69709746  0.37642210  1
  Hf  Hf31  1  0.19085716  0.40883328  0.50169942  1
  Hf  Hf32  1  0.20029843  0.40224449  0.24618519  1
  Hf  Hf33  1  0.70623566  0.90529112  0.13140451  1
  Hf  Hf34  1  0.61007260  0.39420273  -0.00370904  1
  Hf  Hf35  1  0.28490242  0.51376685  0.62726832  1
  Hf  Hf36  1  0.39800030  0.40002974  0.75079574  1
  Hf  Hf37  1  0.30829582  0.09517579  0.87856358  1
  Hf  Hf38  1  0.00157427  0.39903647  -0.00732424  1
  Hf  Hf39  1  0.40251464  0.80570963  0.74085269  1
  Zr  Zr40  1  0.40427141  0.40570742  0.01069663  1
  Zr  Zr41  1  0.20461133  0.21392563  0.50275128  1
  Zr  Zr42  1  0.39967634  0.20958368  0.75687299  1
  Zr  Zr43  1  -0.00616436  0.21479126  0.75271136  1
  Zr  Zr44  1  0.10577893  0.70437821  0.88906962  1
  Zr  Zr45  1  0.29992141  0.51620669  0.88530330  1
  Zr  Zr46  1  0.08833007  0.10142003  0.12523393  1
  Zr  Zr47  1  0.59258883  0.79654134  0.24331280  1
  Zr  Zr48  1  0.19291915  -0.00470705  0.01166244  1
  Zr  Zr49  1  0.30207741  0.50223387  0.36748875  1
  Zr  Zr50  1  0.59171943  0.40022711  0.76451112  1
  Zr  Zr51  1  0.30911652  0.11173331  0.36548853  1
  Zr  Zr52  1  0.00661909  0.40033803  0.24187389  1
  Zr  Zr53  1  0.58559803  0.18448135  0.77520018  1
  Zr  Zr54  1  0.90252140  0.87707866  0.59972053  1
  Zr  Zr55  1  -0.00006010  0.79757838  0.75812354  1
  Zr  Zr56  1  0.89052258  0.70885220  0.88990367  1
  Zr  Zr57  1  0.89524031  0.88919807  0.36933026  1
  Zr  Zr58  1  0.40669135  0.60258533  0.23108550  1
  Zr  Zr59  1  -0.01241054  0.19299497  -0.01459706  1
  Zr  Zr60  1  0.78056779  0.19370398  0.00971015  1
  Zr  Zr61  1  0.79627573  0.39522749  0.51705659  1
  Zr  Zr62  1  0.49261119  0.70307253  0.88436553  1
  Zr  Zr63  1  0.69459080  0.29129582  0.63686349  1
  Zr  Zr64  1  0.79014848  0.59303127  -0.00840344  1
  Zr  Zr65  1  0.20373895  0.00523953  0.24413075  1
  Zr  Zr66  1  0.29610344  0.90148001  0.87887147  1
  Zr  Zr67  1  0.29778277  0.10335008  0.63408860  1
  Zr  Zr68  1  0.59045398  -0.00598091  0.48495261  1
  Zr  Zr69  1  0.31178123  0.91701360  0.62652685  1
  Zr  Zr70  1  0.49589268  0.91134341  0.88112786  1
  Zr  Zr71  1  0.11181712  0.89756135  0.61145630  1
  Zr  Zr72  1  0.10503919  0.69825758  0.63175863  1
  Zr  Zr73  1  0.69708617  0.49324228  0.36894904  1
  Zr  Zr74  1  0.78636791  -0.01163942  0.49845426  1
  Zr  Zr75  1  0.38996118  0.38750112  0.51666623  1
  Zr  Zr76  1  0.59825212  0.59431875  0.24774369  1
  Zr  Zr77  1  0.00155208  -0.01280378  0.74855871  1
  Zr  Zr78  1  0.19607788  0.39952811  0.75523429  1
  Zr  Zr79  1  0.59424855  0.19339330  0.49352188  1
  Ta  Ta80  1  0.20068033  0.81119272  0.75867335  1
  Ta  Ta81  1  0.10346358  0.10042360  0.63479553  1
  Ta  Ta82  1  0.88255433  0.10402335  0.85449715  1
  Ta  Ta83  1  0.90015636  0.50645944  0.12183895  1
  Ta  Ta84  1  0.48803954  0.07701513  0.62872178  1
  Ta  Ta85  1  0.00812312  0.59879948  0.24745358  1
  Ta  Ta86  1  0.69548689  0.09218895  0.14208636  1
  Ta  Ta87  1  0.69638655  0.69001160  0.62492176  1
  Ta  Ta88  1  0.50390524  0.10490259  0.11427006  1
  Ta  Ta89  1  0.09980943  0.50846572  0.87751274  1
  Ta  Ta90  1  0.40309444  0.21089887  0.22972429  1
  Ta  Ta91  1  0.89445733  0.08825561  0.14560381  1
  Ta  Ta92  1  0.10641755  0.29865362  0.11139594  1
  Ta  Ta93  1  0.39825449  0.80292713  0.02419743  1
  Ta  Ta94  1  -0.00004862  0.39935511  0.75276517  1
  Ta  Ta95  1  0.29633762  0.70974797  0.34920151  1
  Ta  Ta96  1  0.20466559  0.80368355  0.02679463  1
  Ta  Ta97  1  0.61138346  0.01484482  -0.01102466  1
  Ta  Ta98  1  0.60346528  0.60055093  0.49274557  1
  Ta  Ta99  1  0.49575665  0.30299391  0.37778549  1
  Ta  Ta100  1  0.49995279  0.49155362  0.38579833  1
  Ta  Ta101  1  0.30153684  0.11152291  0.11862329  1
  Ta  Ta102  1  0.59911156  0.59551810  -0.00677366  1
  Ta  Ta103  1  0.09901257  0.10798030  0.37222071  1
  Ta  Ta104  1  0.21424539  0.79857398  0.48118509  1
  Ta  Ta105  1  0.60128818  0.79902010  0.00454875  1
  Ta  Ta106  1  0.80019366  0.39595363  0.00084231  1
  Ta  Ta107  1  0.29496509  0.71335877  0.62190948  1
  Ta  Ta108  1  0.19714674  0.20561213  -0.01262387  1
  Ta  Ta109  1  0.31316065  0.89820475  0.35826208  1
  Ta  Ta110  1  0.19758353  0.20815725  0.76285326  1
  Ta  Ta111  1  0.00081531  0.20061703  0.50567340  1
  Ta  Ta112  1  0.00424326  0.79086836  0.24400594  1
  Ta  Ta113  1  0.50269105  0.70354697  0.61494644  1
  Ta  Ta114  1  0.89976611  0.09960591  0.63209251  1
  Ta  Ta115  1  0.69325352  0.29805835  0.37145787  1
  Ta  Ta116  1  0.79719267  0.78807142  0.73648533  1
  Ta  Ta117  1  0.40575199  0.81569194  0.50146545  1
  Ta  Ta118  1  0.40806462  0.00567813  0.23555346  1
  Ta  Ta119  1  0.00913781  0.80530941  0.01799956  1
  Ti  Ti120  1  0.69686437  0.09341960  0.35733770  1
  Ti  Ti121  1  0.30779434  0.30235067  0.36720261  1
  Ti  Ti122  1  0.49527535  0.10326919  0.36157339  1
  Ti  Ti123  1  0.59274888  0.39680693  0.23430856  1
  Ti  Ti124  1  0.79330347  0.59826877  0.75647815  1
  Ti  Ti125  1  0.39930619  -0.00041456  0.01887546  1
  Ti  Ti126  1  0.20497335  0.60947337  0.01144450  1
  Ti  Ti127  1  0.70579072  0.89362465  0.35069304  1
  Ti  Ti128  1  0.60102063  0.39786170  0.50285432  1
  Ti  Ti129  1  0.49656842  0.50410411  0.88410900  1
  Ti  Ti130  1  0.80324256  0.60046967  0.24525910  1
  Ti  Ti131  1  0.30248777  0.70839723  0.88966511  1
  Ti  Ti132  1  0.49670064  0.90447839  0.35847990  1
  Ti  Ti133  1  0.90847789  0.89659115  0.89044435  1
  Ti  Ti134  1  0.90131793  0.70017405  0.12402091  1
  Ti  Ti135  1  0.71046645  0.70588872  0.37354067  1
  Ti  Ti136  1  0.79478444  0.19862142  0.24947221  1
  Ti  Ti137  1  0.20037834  0.21031694  0.24637436  1
  Ti  Ti138  1  0.08127045  0.52024180  0.64455950  1
  Ti  Ti139  1  0.19746317  0.40296649  -0.00387535  1
  Ti  Ti140  1  0.29505414  0.29928765  0.11393853  1
  Ti  Ti141  1  0.10975961  0.69689908  0.13679088  1
  Ti  Ti142  1  0.89663873  0.09435080  0.36556890  1
  Ti  Ti143  1  0.40018141  0.80422187  0.22474951  1
  Ti  Ti144  1  0.69877001  0.49916791  0.12493478  1
  Ti  Ti145  1  0.50005488  0.28989384  0.62026821  1
  Ti  Ti146  1  0.40126583  0.19519830  0.50475515  1
  Ti  Ti147  1  0.02174681  0.77382893  0.48346834  1
  Ti  Ti148  1  0.09904602  0.30478958  0.37868258  1
  Ti  Ti149  1  0.69799285  0.49935829  0.64085569  1
  Ti  Ti150  1  0.29398627  0.50999613  0.12076989  1
  Ti  Ti151  1  0.09214783  0.90488019  0.13915197  1
  Ti  Ti152  1  0.60462134  0.60272278  0.76670126  1
  Ti  Ti153  1  0.81518588  0.38818512  0.74180310  1
  Ti  Ti154  1  0.20174336  0.61448738  0.76063667  1
  Ti  Ti155  1  0.00307064  0.60266800  0.00782095  1
  Ti  Ti156  1  0.51291268  0.91200996  0.12187252  1
  Ti  Ti157  1  0.30453250  0.30326765  0.88844721  1
  Ti  Ti158  1  0.10376484  0.50354316  0.11711453  1
  Ti  Ti159  1  0.10289832  0.29774267  0.62832940  1
  Mo  Mo160  1  -0.00142617  0.00070891  0.26950929  1
  Mo  Mo161  1  0.09482311  0.49827908  0.36715029  1
  Mo  Mo162  1  0.80099541  0.19395260  0.73477269  1
  Mo  Mo163  1  0.79263347  0.78455575  0.51413171  1
  Mo  Mo164  1  0.90575083  0.29443454  0.61454363  1
  Mo  Mo165  1  0.29280200  0.30275393  0.63349330  1
  Mo  Mo166  1  0.90007220  0.49831380  0.64890245  1
  Mo  Mo167  1  0.79762951  0.00102544  0.26253923  1
  Mo  Mo168  1  0.20360031  0.80177040  0.23980318  1
  Mo  Mo169  1  0.59471755  0.00406233  0.25640119  1
  Mo  Mo170  1  0.39996721  0.60815071  0.01330729  1
  Mo  Mo171  1  0.89530047  0.30079061  0.88309165  1
  Mo  Mo172  1  -0.00603312  -0.00472136  -0.00968885  1
  Mo  Mo173  1  0.10450473  0.30505005  0.88470159  1
  Mo  Mo174  1  0.49490382  0.29837403  0.89686049  1
  Mo  Mo175  1  0.09714645  0.89566438  0.89358787  1
  Mo  Mo176  1  0.49468910  0.10112940  0.90255240  1
  Mo  Mo177  1  0.69557765  0.69842504  0.87309089  1
  Mo  Mo178  1  0.50394676  0.90639809  0.62804941  1
  Mo  Mo179  1  0.51088127  0.50316520  0.10950414  1
  Mo  Mo180  1  0.69965798  0.29756477  0.12968306  1
  Mo  Mo181  1  0.50245199  0.29751000  0.11089705  1
  Mo  Mo182  1  0.59619524  0.19852027  -0.00161028  1
  Mo  Mo183  1  0.80482915  0.78868498  0.23775449  1
  Mo  Mo184  1  0.70040243  0.08917872  0.86120609  1
  Mo  Mo185  1  0.59621665  -0.00510373  0.76821858  1
  Mo  Mo186  1  0.19878618  0.00071002  0.75273977  1
  Mo  Mo187  1  0.69758047  0.89098836  0.63274887  1
  Mo  Mo188  1  0.00251775  0.59673543  0.77201942  1
  Mo  Mo189  1  0.39636450  0.20303922  0.00767002  1
  Mo  Mo190  1  0.10301676  0.70065028  0.35192370  1
  Mo  Mo191  1  0.30543409  0.90632609  0.13491439  1
  Mo  Mo192  1  0.40843117  0.00769359  0.76207261  1
  Mo  Mo193  1  0.40464635  0.00109528  0.47581032  1
  Mo  Mo194  1  0.29697545  0.70186298  0.12943619  1
  Mo  Mo195  1  0.50366669  0.70261120  0.10845059  1
  Mo  Mo196  1  0.80630421  0.79961785  0.01547567  1
  Mo  Mo197  1  0.70144538  0.49629549  0.85852209  1
  Mo  Mo198  1  0.19561279  0.59830502  0.24350280  1
  Mo  Mo199  1  0.00403622  0.59069082  0.48362407  1
