# generated using pymatgen
data_HfZrTaTiMo
_symmetry_space_group_name_H-M   'P 1'
_cell_length_a   15.93301857
_cell_length_b   15.92409329
_cell_length_c   15.19412279
_cell_angle_alpha   89.99871089
_cell_angle_beta   89.98907094
_cell_angle_gamma   89.94491046
_symmetry_Int_Tables_number   1
_chemical_formula_structural   HfZrTaTiMo
_chemical_formula_sum   'Hf40 Zr40 Ta40 Ti40 Mo40'
_cell_volume   3855.03387438
_cell_formula_units_Z   40
loop_
 _symmetry_equiv_pos_site_id
 _symmetry_equiv_pos_as_xyz
  1  'x, y, z'
loop_
 _atom_site_type_symbol
 _atom_site_label
 _atom_site_symmetry_multiplicity
 _atom_site_fract_x
 _atom_site_fract_y
 _atom_site_fract_z
 _atom_site_occupancy
  Hf  Hf0  1  0.49297113  0.10513896  0.62753827  1
  Hf  Hf1  1  0.00177483  -0.00178307  0.49471928  1
  Hf  Hf2  1  0.80177945  0.19076742  0.01607319  1
  Hf  Hf3  1  0.91493700  0.67763132  0.61587922  1
  Hf  Hf4  1  0.40090554  0.20097258  -0.01880179  1
  Hf  Hf5  1  0.01427704  0.77870668  0.74787897  1
  Hf  Hf6  1  0.90485699  0.69440999  0.88673609  1
  Hf  Hf7  1  0.40062764  -0.00938356  0.49246319  1
  Hf  Hf8  1  0.09573424  0.29728444  0.60758755  1
  Hf  Hf9  1  0.19772145  -0.00785505  0.48526296  1
  Hf  Hf10  1  0.29910739  0.90556142  0.88750493  1
  Hf  Hf11  1  0.70328904  0.48736523  0.14449302  1
  Hf  Hf12  1  0.47334804  0.69815485  0.61191201  1
  Hf  Hf13  1  0.29318663  0.70974722  0.62028301  1
  Hf  Hf14  1  0.29644812  0.10276370  0.37655075  1
  Hf  Hf15  1  0.09895459  0.50286691  0.36471964  1
  Hf  Hf16  1  0.49863241  0.30872745  0.37377875  1
  Hf  Hf17  1  0.59571823  0.79503721  0.74627243  1
  Hf  Hf18  1  0.48272747  0.69293625  0.38118573  1
  Hf  Hf19  1  0.60923323  0.79195608  0.51909130  1
  Hf  Hf20  1  0.39624695  0.20297793  0.25099681  1
  Hf  Hf21  1  0.61113087  0.40625889  -0.01097754  1
  Hf  Hf22  1  0.00569985  0.20772242  0.01488424  1
  Hf  Hf23  1  0.59764912  0.60735172  0.73700127  1
  Hf  Hf24  1  0.20923041  0.79605380  0.77520204  1
  Hf  Hf25  1  0.10001048  0.69221758  0.90535487  1
  Hf  Hf26  1  0.19152626  0.61415397  0.49289468  1
  Hf  Hf27  1  0.09623491  0.89098302  0.34438345  1
  Hf  Hf28  1  0.28186267  0.50957672  0.88700510  1
  Hf  Hf29  1  0.29870798  0.28201360  0.62083043  1
  Hf  Hf30  1  0.90583917  0.89985563  0.86533989  1
  Hf  Hf31  1  0.71192839  0.49709824  0.62330458  1
  Hf  Hf32  1  0.08135205  0.51818124  0.62336128  1
  Hf  Hf33  1  0.29810031  0.30842858  0.38408893  1
  Hf  Hf34  1  0.20022532  0.40952952  0.50355349  1
  Hf  Hf35  1  0.08619757  0.49889488  0.88401110  1
  Hf  Hf36  1  0.02121730  0.78775389  0.49903601  1
  Hf  Hf37  1  0.90280695  0.29975774  0.88147996  1
  Hf  Hf38  1  0.28907094  0.09604629  0.63219001  1
  Hf  Hf39  1  -0.00497250  0.00663291  0.01308743  1
  Zr  Zr40  1  0.39921588  0.79409598  0.24075527  1
  Zr  Zr41  1  0.70479349  0.30121210  0.13539690  1
  Zr  Zr42  1  0.80211580  0.00240193  0.01941819  1
  Zr  Zr43  1  0.70564427  0.29059889  0.62555546  1
  Zr  Zr44  1  0.80498259  0.79164535  0.25285062  1
  Zr  Zr45  1  0.18838687  0.39520198  0.75243902  1
  Zr  Zr46  1  0.70892806  0.90151117  0.62711635  1
  Zr  Zr47  1  0.89294149  0.49902314  0.89039575  1
  Zr  Zr48  1  0.50393259  0.30485854  0.12476871  1
  Zr  Zr49  1  0.70654468  0.68782529  0.87733131  1
  Zr  Zr50  1  0.28599589  0.29572963  0.11364435  1
  Zr  Zr51  1  0.00913719  0.20758953  0.75133981  1
  Zr  Zr52  1  0.60050048  0.80162276  0.00283356  1
  Zr  Zr53  1  0.30438019  0.51495901  0.63712312  1
  Zr  Zr54  1  0.51323370  0.88796991  0.37656061  1
  Zr  Zr55  1  -0.00242723  0.00707885  0.23936295  1
  Zr  Zr56  1  0.58946582  0.58474946  0.50668719  1
  Zr  Zr57  1  0.70368576  0.32054100  0.36811886  1
  Zr  Zr58  1  0.30714677  0.89850680  0.63587302  1
  Zr  Zr59  1  -0.01188315  0.59307116  0.24370258  1
  Zr  Zr60  1  0.29495653  0.69107291  0.11597725  1
  Zr  Zr61  1  0.59279103  0.40171236  0.73915480  1
  Zr  Zr62  1  0.41412418  0.41321785  0.51899490  1
  Zr  Zr63  1  0.40297490  0.00377156  0.76516847  1
  Zr  Zr64  1  0.71004762  0.90247840  0.85872611  1
  Zr  Zr65  1  0.40392811  -0.00196452  0.25063772  1
  Zr  Zr66  1  0.11575593  0.90656028  0.64043214  1
  Zr  Zr67  1  0.60411682  0.19526563  0.49398616  1
  Zr  Zr68  1  0.68433145  0.70842191  0.36527919  1
  Zr  Zr69  1  0.50403408  0.09687707  0.12554891  1
  Zr  Zr70  1  0.70420795  0.10309197  0.84990446  1
  Zr  Zr71  1  0.61051166  0.00265833  0.00493695  1
  Zr  Zr72  1  0.60652268  0.19091037  0.25938567  1
  Zr  Zr73  1  0.50179000  0.50886192  0.87163520  1
  Zr  Zr74  1  0.79603364  0.59971393  0.47934215  1
  Zr  Zr75  1  0.39790555  0.37805825  0.76071714  1
  Zr  Zr76  1  0.90977043  0.89463964  0.62386563  1
  Zr  Zr77  1  0.80205175  0.80333708  0.01034879  1
  Zr  Zr78  1  0.39597155  0.40215891  -0.00638667  1
  Zr  Zr79  1  0.70610453  0.29489996  0.86464479  1
  Ta  Ta80  1  0.38907473  0.40889647  0.23959157  1
  Ta  Ta81  1  0.19464255  0.80583408  0.00900102  1
  Ta  Ta82  1  0.89741739  0.30325874  0.60880846  1
  Ta  Ta83  1  0.70724775  0.90498353  0.37698169  1
  Ta  Ta84  1  0.30242490  0.90318084  0.11527535  1
  Ta  Ta85  1  0.49596857  0.89691465  0.62220519  1
  Ta  Ta86  1  0.10114332  0.10298160  0.36662917  1
  Ta  Ta87  1  0.80906251  0.19592593  0.25747420  1
  Ta  Ta88  1  0.20389920  0.40488188  0.24667927  1
  Ta  Ta89  1  0.90026967  0.10078515  0.86513486  1
  Ta  Ta90  1  0.60030707  0.59907020  0.00904331  1
  Ta  Ta91  1  0.10500105  0.49738842  0.12820144  1
  Ta  Ta92  1  0.80699827  0.40120587  0.75078620  1
  Ta  Ta93  1  0.11374687  0.70254550  0.34111589  1
  Ta  Ta94  1  0.59306845  0.60088751  0.24426229  1
  Ta  Ta95  1  0.19765804  0.20478222  0.25314987  1
  Ta  Ta96  1  0.79948222  0.58899065  0.25989938  1
  Ta  Ta97  1  0.60551498  0.19778572  -0.00323366  1
  Ta  Ta98  1  -0.00175782  0.19810950  0.48276237  1
  Ta  Ta99  1  0.90589796  0.11026646  0.61888559  1
  Ta  Ta100  1  0.81420730  0.00717536  0.73266520  1
  Ta  Ta101  1  0.38991312  0.61969874  0.77346703  1
  Ta  Ta102  1  0.20379900  0.00109143  0.23535110  1
  Ta  Ta103  1  0.49884333  0.49730569  0.35825073  1
  Ta  Ta104  1  0.10665397  0.10636533  0.61719049  1
  Ta  Ta105  1  -0.00187462  0.20924781  0.24994388  1
  Ta  Ta106  1  0.89981880  0.49055656  0.60753365  1
  Ta  Ta107  1  0.69853156  0.69326134  0.13149474  1
  Ta  Ta108  1  0.29844518  0.10139109  0.11418358  1
  Ta  Ta109  1  0.10900080  0.11201628  0.12841789  1
  Ta  Ta110  1  0.19458065  0.00480448  0.00567463  1
  Ta  Ta111  1  0.60748117  0.00065710  0.50461320  1
  Ta  Ta112  1  0.80115066  0.00594072  0.49913415  1
  Ta  Ta113  1  0.09686089  0.90607084  0.88294776  1
  Ta  Ta114  1  0.80543394  0.19731262  0.48267286  1
  Ta  Ta115  1  0.49456284  0.50583529  0.12622519  1
  Ta  Ta116  1  0.89940306  0.89578307  0.37334214  1
  Ta  Ta117  1  0.18488946  0.61313970  0.75461774  1
  Ta  Ta118  1  0.10064118  0.30246415  0.37221313  1
  Ta  Ta119  1  0.40508876  0.00013238  -0.00157430  1
  Ti  Ti120  1  0.30312682  0.51317657  0.37514746  1
  Ti  Ti121  1  0.60052700  -0.00013587  0.73695555  1
  Ti  Ti122  1  -0.00439357  0.59359444  0.02586851  1
  Ti  Ti123  1  0.89788677  0.09313114  0.36918470  1
  Ti  Ti124  1  0.29070290  0.10212833  0.87922412  1
  Ti  Ti125  1  0.20030682  0.20422964  0.77025608  1
  Ti  Ti126  1  0.61018696  -0.00144237  0.25761015  1
  Ti  Ti127  1  0.50424050  0.89773336  0.12784268  1
  Ti  Ti128  1  0.09836940  0.70372015  0.13456171  1
  Ti  Ti129  1  0.29479922  0.88521682  0.35609916  1
  Ti  Ti130  1  0.18361436  0.38833629  0.00023014  1
  Ti  Ti131  1  0.40702181  0.79506540  0.77459189  1
  Ti  Ti132  1  0.89211171  0.69293833  0.12305896  1
  Ti  Ti133  1  -0.00657375  0.40358309  0.74587597  1
  Ti  Ti134  1  0.80943513  0.59384401  0.74661470  1
  Ti  Ti135  1  0.88995973  0.31316779  0.13166096  1
  Ti  Ti136  1  0.00072438  0.80779423  0.02074163  1
  Ti  Ti137  1  0.50829357  0.90380670  0.87551355  1
  Ti  Ti138  1  0.20534717  0.80277692  0.48676294  1
  Ti  Ti139  1  0.50151930  0.69874767  0.12157486  1
  Ti  Ti140  1  0.80366318  0.78461919  0.73846329  1
  Ti  Ti141  1  -0.00685405  0.40045625  0.48435629  1
  Ti  Ti142  1  0.69880049  0.89791984  0.14865657  1
  Ti  Ti143  1  0.40175629  0.60541148  -0.00640146  1
  Ti  Ti144  1  0.59987407  0.40235862  0.50953593  1
  Ti  Ti145  1  0.80621429  0.79749317  0.49796586  1
  Ti  Ti146  1  0.40535029  0.79869744  -0.00577531  1
  Ti  Ti147  1  -0.00294444  0.39802817  0.02028083  1
  Ti  Ti148  1  0.91468018  0.70172806  0.37346815  1
  Ti  Ti149  1  0.78877329  0.58256884  0.01163343  1
  Ti  Ti150  1  0.90049051  0.89757406  0.14365067  1
  Ti  Ti151  1  0.09849206  0.10355195  0.88349013  1
  Ti  Ti152  1  0.00933133  0.00893376  0.74838171  1
  Ti  Ti153  1  0.38933728  0.59446312  0.24392015  1
  Ti  Ti154  1  0.50813212  0.10129746  0.87212351  1
  Ti  Ti155  1  0.70640022  0.10589726  0.63110796  1
  Ti  Ti156  1  -0.00754816  0.39861723  0.24877243  1
  Ti  Ti157  1  0.57108235  0.21382885  0.75149767  1
  Ti  Ti158  1  0.40359996  0.19825792  0.49464140  1
  Ti  Ti159  1  0.50457920  0.09299233  0.37776954  1
  Mo  Mo160  1  0.89941179  0.49619986  0.38577389  1
  Mo  Mo161  1  0.38916052  0.59735440  0.48699220  1
  Mo  Mo162  1  0.50042663  0.70529021  0.89000079  1
  Mo  Mo163  1  0.09319676  0.30630754  0.87875147  1
  Mo  Mo164  1  0.69139176  0.50165662  0.36261846  1
  Mo  Mo165  1  0.81832146  0.20117624  0.73742372  1
  Mo  Mo166  1  0.90222458  0.10904875  0.14173558  1
  Mo  Mo167  1  0.19040755  0.59510938  0.01805995  1
  Mo  Mo168  1  0.90462796  0.29918359  0.37887469  1
  Mo  Mo169  1  0.19347206  0.19834405  0.48578879  1
  Mo  Mo170  1  0.59765263  0.79876822  0.23412146  1
  Mo  Mo171  1  0.81845019  0.40558244  0.26926507  1
  Mo  Mo172  1  0.10085450  0.90254252  0.11880795  1
  Mo  Mo173  1  -0.00440667  0.79487571  0.23460752  1
  Mo  Mo174  1  0.49591641  0.29343761  0.61194638  1
  Mo  Mo175  1  0.09538702  0.30701866  0.14403828  1
  Mo  Mo176  1  0.28529511  0.29675423  0.88305454  1
  Mo  Mo177  1  0.71780740  0.69747736  0.62769620  1
  Mo  Mo178  1  0.19065002  0.01163638  0.77468637  1
  Mo  Mo179  1  0.79890436  -0.00130320  0.25609029  1
  Mo  Mo180  1  0.29759284  0.49781626  0.11035203  1
  Mo  Mo181  1  0.00215172  0.59996293  0.47295690  1
  Mo  Mo182  1  0.19331899  0.20077332  -0.00995355  1
  Mo  Mo183  1  0.38675931  0.80362400  0.48445537  1
  Mo  Mo184  1  0.10731468  0.70305558  0.62595544  1
  Mo  Mo185  1  0.29927532  0.70127414  0.89770406  1
  Mo  Mo186  1  0.58664809  0.40563370  0.24451858  1
  Mo  Mo187  1  0.70602252  0.50295405  0.86172031  1
  Mo  Mo188  1  0.39520485  0.19834836  0.76703417  1
  Mo  Mo189  1  0.49236719  0.50550367  0.64422075  1
  Mo  Mo190  1  0.80184066  0.39803374  0.48952809  1
  Mo  Mo191  1  -0.00337511  0.59276458  0.75716292  1
  Mo  Mo192  1  0.19980351  0.80316960  0.22493274  1
  Mo  Mo193  1  0.70489059  0.09627314  0.14667233  1
  Mo  Mo194  1  0.79907426  0.39715127  -0.00720947  1
  Mo  Mo195  1  0.70753471  0.09109026  0.37293041  1
  Mo  Mo196  1  0.89528269  0.49343384  0.11630499  1
  Mo  Mo197  1  0.29362174  0.70010545  0.36413099  1
  Mo  Mo198  1  0.50540533  0.29408549  0.88718823  1
  Mo  Mo199  1  0.20425176  0.59502254  0.23939851  1
