# generated using pymatgen
data_HfZrTaTiMo
_symmetry_space_group_name_H-M   'P 1'
_cell_length_a   15.92613285
_cell_length_b   15.92806809
_cell_length_c   15.19963697
_cell_angle_alpha   90.04260530
_cell_angle_beta   90.04780761
_cell_angle_gamma   90.01695485
_symmetry_Int_Tables_number   1
_chemical_formula_structural   HfZrTaTiMo
_chemical_formula_sum   'Hf40 Zr40 Ta40 Ti40 Mo40'
_cell_volume   3855.72776379
_cell_formula_units_Z   40
loop_
 _symmetry_equiv_pos_site_id
 _symmetry_equiv_pos_as_xyz
  1  'x, y, z'
loop_
 _atom_site_type_symbol
 _atom_site_label
 _atom_site_symmetry_multiplicity
 _atom_site_fract_x
 _atom_site_fract_y
 _atom_site_fract_z
 _atom_site_occupancy
  Hf  Hf0  1  0.89254723  0.70779637  0.36256567  1
  Hf  Hf1  1  -0.00784834  0.80108999  0.74160574  1
  Hf  Hf2  1  0.79504451  0.60392949  0.01337524  1
  Hf  Hf3  1  0.19716746  0.40094658  0.74586497  1
  Hf  Hf4  1  0.61739122  0.19787019  0.73649456  1
  Hf  Hf5  1  0.69969752  0.11230305  0.37699202  1
  Hf  Hf6  1  0.70394940  0.70076106  0.87391706  1
  Hf  Hf7  1  0.49946655  0.08940702  0.61839837  1
  Hf  Hf8  1  0.20316289  0.38992338  0.25298362  1
  Hf  Hf9  1  -0.00860456  0.81331329  0.51245386  1
  Hf  Hf10  1  0.69448818  0.90693805  0.62944885  1
  Hf  Hf11  1  0.40710466  0.38305146  0.25405978  1
  Hf  Hf12  1  0.50820887  0.29674026  0.87992346  1
  Hf  Hf13  1  0.09705068  0.49880547  0.13406496  1
  Hf  Hf14  1  0.80145406  0.81108816  0.74764119  1
  Hf  Hf15  1  0.40460880  0.59728494  0.26085102  1
  Hf  Hf16  1  -0.00457694  0.00435205  -0.00971922  1
  Hf  Hf17  1  0.30177443  0.70136849  0.12248932  1
  Hf  Hf18  1  0.51630812  0.48186366  0.12803769  1
  Hf  Hf19  1  0.89882514  0.50457766  0.62674411  1
  Hf  Hf20  1  0.60159986  -0.00354495  0.76026418  1
  Hf  Hf21  1  0.00537554  0.80598105  0.00494797  1
  Hf  Hf22  1  0.59936665  0.60311871  0.49384480  1
  Hf  Hf23  1  0.59994052  0.20817248  0.23515689  1
  Hf  Hf24  1  0.09491352  0.29555951  0.87500586  1
  Hf  Hf25  1  0.39489246  0.39441488  0.74696862  1
  Hf  Hf26  1  0.70551067  0.50300348  0.37050815  1
  Hf  Hf27  1  0.00488602  0.80921162  0.24112195  1
  Hf  Hf28  1  0.79999070  0.00763290  0.00157625  1
  Hf  Hf29  1  0.39089465  0.60138327  0.75039363  1
  Hf  Hf30  1  0.80898665  0.01370837  0.50304615  1
  Hf  Hf31  1  0.90382217  0.51269385  0.87776242  1
  Hf  Hf32  1  0.10195402  0.70621543  0.38221811  1
  Hf  Hf33  1  0.40072308  0.60302270  0.49837541  1
  Hf  Hf34  1  0.79201150  0.39164481  0.25143426  1
  Hf  Hf35  1  0.50826321  0.28770201  0.39018270  1
  Hf  Hf36  1  0.70055456  0.69564532  0.63705847  1
  Hf  Hf37  1  0.28546056  0.27748330  0.38242427  1
  Hf  Hf38  1  0.19384665  0.80636295  0.23158691  1
  Hf  Hf39  1  0.19876691  0.20495729  0.73652067  1
  Zr  Zr40  1  0.89386302  0.12062157  0.85515270  1
  Zr  Zr41  1  0.40512075  0.39053062  0.00594492  1
  Zr  Zr42  1  0.09856693  0.69422567  0.63253503  1
  Zr  Zr43  1  0.90247752  0.70454349  0.87940949  1
  Zr  Zr44  1  0.61120518  0.39518711  0.74672133  1
  Zr  Zr45  1  0.40156972  0.18595463  0.24501722  1
  Zr  Zr46  1  0.29238080  0.49371338  0.87886169  1
  Zr  Zr47  1  0.49426962  0.89574422  0.10968760  1
  Zr  Zr48  1  0.60632019  0.19454580  0.01101758  1
  Zr  Zr49  1  0.49286831  0.90993251  0.38788334  1
  Zr  Zr50  1  0.38920440  0.79541124  0.51704776  1
  Zr  Zr51  1  0.81005108  0.80436035  0.51610282  1
  Zr  Zr52  1  0.59383509  0.00390093  0.23988672  1
  Zr  Zr53  1  0.10864132  0.91539925  0.63611072  1
  Zr  Zr54  1  0.20910588  -0.00413469  0.25177097  1
  Zr  Zr55  1  0.60162392  0.59438090  0.76073648  1
  Zr  Zr56  1  0.50364128  0.70474629  0.11628743  1
  Zr  Zr57  1  0.01529552  0.20599463  0.49443644  1
  Zr  Zr58  1  0.50027673  0.49794126  0.61993571  1
  Zr  Zr59  1  0.49653018  0.09947824  0.87135797  1
  Zr  Zr60  1  0.59238649  0.79266576  0.49482716  1
  Zr  Zr61  1  0.50295529  0.29645248  0.60950846  1
  Zr  Zr62  1  0.30061053  0.49917260  0.13011912  1
  Zr  Zr63  1  0.28754561  0.69849563  0.37138969  1
  Zr  Zr64  1  0.40360968  0.80508691  0.26132901  1
  Zr  Zr65  1  -0.00753661  0.60570149  0.50048311  1
  Zr  Zr66  1  0.10151659  0.89562314  0.85680013  1
  Zr  Zr67  1  0.00107927  0.40050788  0.75709216  1
  Zr  Zr68  1  0.18658513  0.60002816  -0.00095542  1
  Zr  Zr69  1  0.79998156  0.39504023  0.75335786  1
  Zr  Zr70  1  0.39503134  0.19914767  0.74310102  1
  Zr  Zr71  1  0.10488121  0.50375562  0.37465570  1
  Zr  Zr72  1  0.90114200  0.10735803  0.14420789  1
  Zr  Zr73  1  0.90095817  0.49833854  0.13407085  1
  Zr  Zr74  1  0.70329445  0.90034060  0.37438491  1
  Zr  Zr75  1  0.00096606  0.01374596  0.48895314  1
  Zr  Zr76  1  0.09876690  0.10259646  0.13874407  1
  Zr  Zr77  1  0.19370695  -0.00490777  -0.00329183  1
  Zr  Zr78  1  0.40574199  0.60595993  -0.01355995  1
  Zr  Zr79  1  0.60710285  0.60965662  0.24969888  1
  Ta  Ta80  1  0.20618715  0.59902422  0.51592886  1
  Ta  Ta81  1  0.30468154  0.09294690  0.11132859  1
  Ta  Ta82  1  0.70591289  0.89893224  0.88153624  1
  Ta  Ta83  1  0.09615277  0.10516984  0.85907441  1
  Ta  Ta84  1  0.09601428  0.68815290  0.86455631  1
  Ta  Ta85  1  0.39898524  -0.00366016  -0.01785903  1
  Ta  Ta86  1  0.50455279  0.49085119  0.37462478  1
  Ta  Ta87  1  0.19884047  0.00203140  0.49986616  1
  Ta  Ta88  1  0.89807067  0.90702828  0.35854790  1
  Ta  Ta89  1  0.69799109  0.89388042  0.11120882  1
  Ta  Ta90  1  0.39205083  0.39963877  0.48928286  1
  Ta  Ta91  1  0.00375510  0.61076808  0.24545795  1
  Ta  Ta92  1  0.89736557  0.90553936  0.13254226  1
  Ta  Ta93  1  0.50655426  0.49384962  0.87796085  1
  Ta  Ta94  1  0.09296746  0.29611771  0.13467728  1
  Ta  Ta95  1  0.29942308  0.89487403  0.86740504  1
  Ta  Ta96  1  0.60457260  0.59449020  -0.00583039  1
  Ta  Ta97  1  0.90350070  0.29984387  0.13358560  1
  Ta  Ta98  1  -0.00077866  0.40109971  -0.00309352  1
  Ta  Ta99  1  0.89706490  0.29635190  0.37498858  1
  Ta  Ta100  1  0.19124819  0.39120283  0.00512067  1
  Ta  Ta101  1  -0.00334866  0.20486087  0.00140996  1
  Ta  Ta102  1  0.19610204  0.79856349  0.00291791  1
  Ta  Ta103  1  0.89957720  0.70690392  0.12231247  1
  Ta  Ta104  1  0.29294632  0.08583128  0.62235648  1
  Ta  Ta105  1  0.80676478  0.40323815  0.49220192  1
  Ta  Ta106  1  0.90037658  0.50342127  0.36762461  1
  Ta  Ta107  1  0.49924782  0.09950238  0.39449356  1
  Ta  Ta108  1  0.71593297  0.28950433  0.88212890  1
  Ta  Ta109  1  0.79181004  0.00243178  0.24243744  1
  Ta  Ta110  1  0.60980403  0.39945813  0.49410327  1
  Ta  Ta111  1  0.30878194  0.08975646  0.39174628  1
  Ta  Ta112  1  0.19273538  0.19494545  0.00389821  1
  Ta  Ta113  1  0.29505783  0.28693261  0.11890589  1
  Ta  Ta114  1  0.80115107  0.39798921  -0.00041393  1
  Ta  Ta115  1  0.29519212  0.29054228  0.88788422  1
  Ta  Ta116  1  0.90735998  0.30256629  0.60849480  1
  Ta  Ta117  1  0.49714496  0.89598542  0.63596446  1
  Ta  Ta118  1  0.60229056  -0.00260725  -0.00694263  1
  Ta  Ta119  1  0.10407896  0.89975058  0.38495022  1
  Ti  Ti120  1  0.12239921  0.11572162  0.36534971  1
  Ti  Ti121  1  0.79684034  0.60973896  0.23697891  1
  Ti  Ti122  1  0.60489574  0.00363456  0.50479776  1
  Ti  Ti123  1  0.59975498  0.79359093  -0.01235013  1
  Ti  Ti124  1  0.30708853  0.89934447  0.10662536  1
  Ti  Ti125  1  0.18226088  0.38566129  0.49526300  1
  Ti  Ti126  1  0.39731447  0.19434270  0.00075621  1
  Ti  Ti127  1  0.19250500  0.58988023  0.74666002  1
  Ti  Ti128  1  0.49452614  0.09232509  0.11126077  1
  Ti  Ti129  1  0.80133462  0.60635317  0.50093631  1
  Ti  Ti130  1  0.00052925  0.39447007  0.26573753  1
  Ti  Ti131  1  0.09333638  0.48981841  0.61158391  1
  Ti  Ti132  1  0.70708021  0.10326842  0.86941228  1
  Ti  Ti133  1  0.08947053  0.10090212  0.64071111  1
  Ti  Ti134  1  0.29202365  0.09892509  0.87310301  1
  Ti  Ti135  1  0.50374093  0.70461132  0.64330114  1
  Ti  Ti136  1  0.69173990  0.31193021  0.11852388  1
  Ti  Ti137  1  0.71264852  0.29312327  0.60321995  1
  Ti  Ti138  1  0.29321598  0.70530392  0.87472183  1
  Ti  Ti139  1  0.29502011  0.90054996  0.38826201  1
  Ti  Ti140  1  0.39987765  0.79490787  0.75367349  1
  Ti  Ti141  1  0.20376432  0.80227389  0.52061007  1
  Ti  Ti142  1  0.00747800  0.00038554  0.26171821  1
  Ti  Ti143  1  0.29396423  0.49836367  0.37777023  1
  Ti  Ti144  1  0.70554780  0.70586005  0.37488325  1
  Ti  Ti145  1  0.69648814  0.49476472  0.12660669  1
  Ti  Ti146  1  0.39811847  -0.00208700  0.24778543  1
  Ti  Ti147  1  0.49931546  0.88569413  0.87198343  1
  Ti  Ti148  1  0.29034168  0.29952974  0.60511505  1
  Ti  Ti149  1  0.89357314  0.11235270  0.35677686  1
  Ti  Ti150  1  0.80181838  0.20351128  0.01826737  1
  Ti  Ti151  1  0.60236684  0.79925425  0.25100231  1
  Ti  Ti152  1  0.39248118  -0.00718790  0.75247501  1
  Ti  Ti153  1  0.29504283  0.49285722  0.61540257  1
  Ti  Ti154  1  0.79067537  0.80088149  0.23284033  1
  Ti  Ti155  1  0.39297448  0.19215758  0.50916531  1
  Ti  Ti156  1  0.70630262  0.50012784  0.61708854  1
  Ti  Ti157  1  0.90356004  0.93619621  0.64735415  1
  Ti  Ti158  1  0.70524299  0.29306645  0.38481405  1
  Ti  Ti159  1  0.21226359  0.79321141  0.74016656  1
  Mo  Mo160  1  0.39636976  -0.00609190  0.51362193  1
  Mo  Mo161  1  0.49916758  0.29480646  0.11584539  1
  Mo  Mo162  1  0.20694950  0.19342014  0.23477296  1
  Mo  Mo163  1  0.70608493  0.10149289  0.62129446  1
  Mo  Mo164  1  0.69866135  0.09532900  0.12707691  1
  Mo  Mo165  1  0.70042436  0.70886706  0.11284624  1
  Mo  Mo166  1  0.29903551  0.69299613  0.63761578  1
  Mo  Mo167  1  0.90133725  0.11362724  0.63845865  1
  Mo  Mo168  1  0.19791841  0.19000718  0.51718616  1
  Mo  Mo169  1  0.09913341  0.30668956  0.62420551  1
  Mo  Mo170  1  0.89433077  0.91195887  0.86706248  1
  Mo  Mo171  1  0.80963661  0.20142672  0.50557914  1
  Mo  Mo172  1  0.00177436  0.20508463  0.26595711  1
  Mo  Mo173  1  0.80191029  0.80971298  0.00579786  1
  Mo  Mo174  1  0.20551517  0.00826796  0.75880769  1
  Mo  Mo175  1  0.30164598  0.89931293  0.64423852  1
  Mo  Mo176  1  -0.00129514  0.20896117  0.73484495  1
  Mo  Mo177  1  0.79464119  0.20555603  0.23923066  1
  Mo  Mo178  1  0.80168800  0.20917945  0.72940153  1
  Mo  Mo179  1  -0.00275184  0.00633666  0.76383530  1
  Mo  Mo180  1  0.39274136  0.80178249  -0.02320688  1
  Mo  Mo181  1  0.49956439  0.70088195  0.87277799  1
  Mo  Mo182  1  0.80103722  0.59926001  0.74809415  1
  Mo  Mo183  1  0.09704191  0.90406685  0.11914063  1
  Mo  Mo184  1  0.79388527  0.00957450  0.75291662  1
  Mo  Mo185  1  0.00603012  0.59628734  0.74326422  1
  Mo  Mo186  1  0.50248646  0.69746232  0.36865079  1
  Mo  Mo187  1  0.89312560  0.68841835  0.64336436  1
  Mo  Mo188  1  0.10045167  0.29608662  0.36103596  1
  Mo  Mo189  1  -0.00082747  0.60511590  0.01870784  1
  Mo  Mo190  1  0.61275172  0.40057025  -0.01284980  1
  Mo  Mo191  1  0.09736073  0.69878911  0.12393885  1
  Mo  Mo192  1  0.09543289  0.50261198  0.88585590  1
  Mo  Mo193  1  0.59430330  0.80216018  0.76193873  1
  Mo  Mo194  1  0.19876325  0.59992258  0.24633558  1
  Mo  Mo195  1  0.89740934  0.30135821  0.89298789  1
  Mo  Mo196  1  -0.00328060  0.40222388  0.48570068  1
  Mo  Mo197  1  0.60344135  0.39435957  0.26807380  1
  Mo  Mo198  1  0.60904978  0.19431936  0.51046135  1
  Mo  Mo199  1  0.70386014  0.49545764  0.88798457  1
