# generated using pymatgen
data_HfZrTaTiMo
_symmetry_space_group_name_H-M   'P 1'
_cell_length_a   15.92585226
_cell_length_b   15.92685215
_cell_length_c   15.21203354
_cell_angle_alpha   90.05180176
_cell_angle_beta   90.00584375
_cell_angle_gamma   89.98122771
_symmetry_Int_Tables_number   1
_chemical_formula_structural   HfZrTaTiMo
_chemical_formula_sum   'Hf40 Zr40 Ta40 Ti40 Mo40'
_cell_volume   3858.51064135
_cell_formula_units_Z   40
loop_
 _symmetry_equiv_pos_site_id
 _symmetry_equiv_pos_as_xyz
  1  'x, y, z'
loop_
 _atom_site_type_symbol
 _atom_site_label
 _atom_site_symmetry_multiplicity
 _atom_site_fract_x
 _atom_site_fract_y
 _atom_site_fract_z
 _atom_site_occupancy
  Hf  Hf0  1  0.39479257  0.39731364  0.01058690  1
  Hf  Hf1  1  0.90487093  0.09573001  0.87123665  1
  Hf  Hf2  1  0.69361876  0.50114937  0.14021704  1
  Hf  Hf3  1  0.19487102  0.60067374  0.23604210  1
  Hf  Hf4  1  0.00608669  0.01149885  0.50416902  1
  Hf  Hf5  1  0.09735119  0.10140359  0.12110677  1
  Hf  Hf6  1  0.70754458  0.29797713  0.35998913  1
  Hf  Hf7  1  0.89178737  0.90539038  0.62495771  1
  Hf  Hf8  1  0.59316357  0.60193000  0.48833315  1
  Hf  Hf9  1  0.29682133  0.09279007  0.35710728  1
  Hf  Hf10  1  0.09657060  0.29638336  0.61255658  1
  Hf  Hf11  1  0.50027830  0.09364982  0.87674034  1
  Hf  Hf12  1  -0.00331029  0.39507916  0.75943749  1
  Hf  Hf13  1  0.40380122  0.19564985  0.50970630  1
  Hf  Hf14  1  0.39974596  -0.00109972  0.50998814  1
  Hf  Hf15  1  0.68852625  0.71215608  0.12277769  1
  Hf  Hf16  1  0.09631309  0.90632842  0.12595603  1
  Hf  Hf17  1  0.90350405  0.71173895  0.39213245  1
  Hf  Hf18  1  0.41474180  0.78548871  0.24996612  1
  Hf  Hf19  1  0.70362133  0.31300401  0.88336517  1
  Hf  Hf20  1  0.38802284  0.80232539  0.50630010  1
  Hf  Hf21  1  0.80552325  0.19074286  0.49056198  1
  Hf  Hf22  1  0.19973985  0.59589679  0.75463152  1
  Hf  Hf23  1  0.40615965  -0.00301952  0.23248700  1
  Hf  Hf24  1  0.49537736  0.50242117  0.63299670  1
  Hf  Hf25  1  0.90177650  0.30257727  0.60971820  1
  Hf  Hf26  1  0.49904648  0.10502506  0.36618026  1
  Hf  Hf27  1  0.20145472  -0.00809835  0.75538691  1
  Hf  Hf28  1  0.09702920  0.70504640  0.86973681  1
  Hf  Hf29  1  0.70355394  0.50419851  0.35687328  1
  Hf  Hf30  1  0.71387596  0.30540449  0.13600910  1
  Hf  Hf31  1  0.60443672  0.19881594  0.75490200  1
  Hf  Hf32  1  -0.00652779  0.59366637  0.00193168  1
  Hf  Hf33  1  0.29808868  0.49892794  0.37023170  1
  Hf  Hf34  1  0.50757988  0.50451442  0.88547003  1
  Hf  Hf35  1  0.79816477  0.60133931  0.00876633  1
  Hf  Hf36  1  -0.00562140  0.39891096  -0.01018958  1
  Hf  Hf37  1  0.09764863  0.89114124  0.63536265  1
  Hf  Hf38  1  0.40191689  0.20078916  0.74348099  1
  Hf  Hf39  1  0.49671369  0.30210874  0.88587849  1
  Zr  Zr40  1  0.39326475  0.39330857  0.23558316  1
  Zr  Zr41  1  0.20104430  0.20261640  0.75184692  1
  Zr  Zr42  1  0.79324752  0.59677397  0.75101402  1
  Zr  Zr43  1  0.50122997  0.89526088  0.37551958  1
  Zr  Zr44  1  0.10387805  0.50773891  0.37741812  1
  Zr  Zr45  1  0.30877181  0.49611240  0.86537783  1
  Zr  Zr46  1  0.30166173  0.29238917  0.37438275  1
  Zr  Zr47  1  0.89618223  0.48602082  0.14488968  1
  Zr  Zr48  1  0.00766666  0.20342200  0.76209556  1
  Zr  Zr49  1  0.20274224  0.59185347  -0.00470337  1
  Zr  Zr50  1  -0.00289446  0.21403513  0.26018770  1
  Zr  Zr51  1  0.79684406  0.00577442  -0.01168134  1
  Zr  Zr52  1  0.50822949  0.50489135  0.12401282  1
  Zr  Zr53  1  0.20396197  -0.00961747  0.50982366  1
  Zr  Zr54  1  0.29170137  0.89750967  0.35553779  1
  Zr  Zr55  1  0.69162033  0.90286631  0.62727306  1
  Zr  Zr56  1  0.09479533  0.29770433  0.11067572  1
  Zr  Zr57  1  0.71119591  0.08872783  0.64098073  1
  Zr  Zr58  1  0.61218512  0.40611137  0.75112127  1
  Zr  Zr59  1  0.39001332  0.60246903  0.50169694  1
  Zr  Zr60  1  0.18491328  0.78047122  0.49234762  1
  Zr  Zr61  1  0.08804834  0.89936507  0.36248092  1
  Zr  Zr62  1  0.89823219  0.70292448  0.87904766  1
  Zr  Zr63  1  0.09888742  0.09401394  0.89663666  1
  Zr  Zr64  1  0.40485674  0.39886093  0.50039017  1
  Zr  Zr65  1  0.80574678  0.21676454  0.75607343  1
  Zr  Zr66  1  0.21163448  0.79889779  -0.01380754  1
  Zr  Zr67  1  0.51300082  0.09789913  0.12562593  1
  Zr  Zr68  1  0.60126144  0.61163073  0.75001722  1
  Zr  Zr69  1  0.18779481  0.18491776  0.49631140  1
  Zr  Zr70  1  0.60761324  -0.00711670  -0.00771085  1
  Zr  Zr71  1  0.01226517  0.60795701  0.50282850  1
  Zr  Zr72  1  0.71788077  0.10253454  0.13979210  1
  Zr  Zr73  1  0.60622937  0.19829661  0.50062606  1
  Zr  Zr74  1  0.30574310  0.09884074  0.88261020  1
  Zr  Zr75  1  0.79138437  0.79938357  0.75798788  1
  Zr  Zr76  1  0.48177813  0.70525405  0.88258806  1
  Zr  Zr77  1  -0.01936601  0.79441999  0.23868634  1
  Zr  Zr78  1  0.70505815  0.49996722  0.61084960  1
  Zr  Zr79  1  0.09484066  0.70453915  0.11007004  1
  Ta  Ta80  1  0.89017308  0.91196944  0.12411306  1
  Ta  Ta81  1  0.70282802  0.71177867  0.37971554  1
  Ta  Ta82  1  0.89963098  0.70409114  0.61885101  1
  Ta  Ta83  1  0.29186011  0.70098686  0.64028591  1
  Ta  Ta84  1  0.29791995  0.30435589  0.62368381  1
  Ta  Ta85  1  0.60711418  0.00407191  0.48430441  1
  Ta  Ta86  1  0.40156036  0.19785031  0.01503464  1
  Ta  Ta87  1  0.50134749  0.70829939  0.62260264  1
  Ta  Ta88  1  0.50467862  0.30041164  0.35846407  1
  Ta  Ta89  1  0.58869460  0.62504409  0.26291501  1
  Ta  Ta90  1  0.68521129  0.70384958  0.89383730  1
  Ta  Ta91  1  0.50022573  0.49746741  0.35934153  1
  Ta  Ta92  1  0.51111909  0.08863434  0.63282100  1
  Ta  Ta93  1  0.20774819  -0.00754851  0.00351957  1
  Ta  Ta94  1  0.90225595  0.49671746  0.61897907  1
  Ta  Ta95  1  0.50363488  0.70281766  0.10468578  1
  Ta  Ta96  1  0.39906907  0.60234635  0.24509597  1
  Ta  Ta97  1  0.79175652  0.81348794  -0.00510445  1
  Ta  Ta98  1  0.80122380  0.40439503  0.00043014  1
  Ta  Ta99  1  0.90941423  0.09913983  0.63431317  1
  Ta  Ta100  1  0.90406468  0.09568007  0.36508110  1
  Ta  Ta101  1  0.29153029  0.69183640  0.36758098  1
  Ta  Ta102  1  0.19003603  0.39154902  0.24845201  1
  Ta  Ta103  1  0.29796105  0.89290788  0.13103196  1
  Ta  Ta104  1  0.39780363  0.80368240  0.73945737  1
  Ta  Ta105  1  0.89983540  0.50429550  0.36965521  1
  Ta  Ta106  1  0.61383314  -0.01080714  0.26287391  1
  Ta  Ta107  1  0.61270449  0.19816367  -0.00196203  1
  Ta  Ta108  1  0.20020993  0.40352675  0.50324170  1
  Ta  Ta109  1  0.80740948  0.62148249  0.24794108  1
  Ta  Ta110  1  0.09673157  0.69975904  0.64380134  1
  Ta  Ta111  1  0.51841484  0.30121644  0.12378945  1
  Ta  Ta112  1  -0.00517052  0.59329436  0.74842077  1
  Ta  Ta113  1  -0.00321462  0.60583122  0.24695287  1
  Ta  Ta114  1  0.50705326  0.30206830  0.62617201  1
  Ta  Ta115  1  0.70101148  0.70771772  0.60570292  1
  Ta  Ta116  1  0.39899415  -0.01129475  0.01271117  1
  Ta  Ta117  1  0.60045224  0.39816232  0.48794750  1
  Ta  Ta118  1  0.80350514  0.40149135  0.48435717  1
  Ta  Ta119  1  0.10056618  0.49482037  0.62810238  1
  Ti  Ti120  1  0.08752437  0.90438701  0.87790844  1
  Ti  Ti121  1  0.79543774  0.00015966  0.48628351  1
  Ti  Ti122  1  0.69673618  0.90002245  0.13040965  1
  Ti  Ti123  1  0.51358791  0.88533976  0.12337802  1
  Ti  Ti124  1  0.30436760  0.70449754  0.12657208  1
  Ti  Ti125  1  0.88453725  0.49224160  0.86566426  1
  Ti  Ti126  1  0.39048390  0.60537507  0.00851552  1
  Ti  Ti127  1  0.29316389  0.30295139  0.88296448  1
  Ti  Ti128  1  0.80325914  -0.00373362  0.26279030  1
  Ti  Ti129  1  0.00096214  0.39594720  0.26441683  1
  Ti  Ti130  1  0.19535178  0.20473559  0.25251740  1
  Ti  Ti131  1  0.90683880  0.10618736  0.12770261  1
  Ti  Ti132  1  0.60649289  0.19553246  0.24997619  1
  Ti  Ti133  1  0.39735397  0.39405634  0.74738700  1
  Ti  Ti134  1  0.89859172  0.90005585  0.38433545  1
  Ti  Ti135  1  0.31307521  0.89220187  0.87365831  1
  Ti  Ti136  1  0.80945862  0.20559442  -0.00567670  1
  Ti  Ti137  1  0.19226976  0.79069635  0.24936453  1
  Ti  Ti138  1  0.29126012  0.49538654  0.12535381  1
  Ti  Ti139  1  0.29764543  0.09617537  0.63259320  1
  Ti  Ti140  1  0.40346890  -0.00787288  0.74186730  1
  Ti  Ti141  1  -0.01507234  0.80972464  0.00252498  1
  Ti  Ti142  1  0.50621174  0.90187602  0.62485369  1
  Ti  Ti143  1  0.70535679  0.30805266  0.62012588  1
  Ti  Ti144  1  0.90493090  0.90860240  0.86919862  1
  Ti  Ti145  1  0.80197043  0.60106636  0.49532543  1
  Ti  Ti146  1  0.40026699  0.20193696  0.22996671  1
  Ti  Ti147  1  0.79143198  0.80819398  0.25279306  1
  Ti  Ti148  1  0.29081830  0.09881019  0.12382270  1
  Ti  Ti149  1  0.10826082  0.48752490  0.87002951  1
  Ti  Ti150  1  -0.00627917  0.80051621  0.75110807  1
  Ti  Ti151  1  0.11323869  0.29923804  0.89350737  1
  Ti  Ti152  1  0.00208808  0.39832493  0.48582415  1
  Ti  Ti153  1  0.29532816  0.49698923  0.63303946  1
  Ti  Ti154  1  0.09827891  0.08931550  0.35158386  1
  Ti  Ti155  1  0.49749466  0.89644386  0.87774804  1
  Ti  Ti156  1  0.28587409  0.29196653  0.11545423  1
  Ti  Ti157  1  0.09668417  0.49118792  0.12656289  1
  Ti  Ti158  1  0.59959178  0.80374403  0.49129056  1
  Ti  Ti159  1  0.59455663  0.80506550  0.75690193  1
  Mo  Mo160  1  0.00109197  -0.00128149  0.74063833  1
  Mo  Mo161  1  0.40053500  0.60382556  0.73498567  1
  Mo  Mo162  1  0.69644278  0.90267810  0.85868615  1
  Mo  Mo163  1  0.70903038  0.89798815  0.38288083  1
  Mo  Mo164  1  -0.00656266  0.20007666  -0.00436879  1
  Mo  Mo165  1  0.60511241  0.80184179  0.25984428  1
  Mo  Mo166  1  -0.00337865  0.80392971  0.51136656  1
  Mo  Mo167  1  0.00083595  0.19401342  0.48405532  1
  Mo  Mo168  1  0.40017466  0.80680747  0.01191268  1
  Mo  Mo169  1  0.79783942  0.80385766  0.50331633  1
  Mo  Mo170  1  0.59262598  -0.00625753  0.76404563  1
  Mo  Mo171  1  0.19936228  0.00243910  0.23025303  1
  Mo  Mo172  1  0.70113104  0.50585212  0.89223061  1
  Mo  Mo173  1  0.80592328  0.40502902  0.74736513  1
  Mo  Mo174  1  0.20905228  0.19855406  -0.00240437  1
  Mo  Mo175  1  0.20092716  0.40032800  0.00919101  1
  Mo  Mo176  1  0.20072432  0.80034332  0.76706090  1
  Mo  Mo177  1  0.59934844  0.80835264  -0.01012858  1
  Mo  Mo178  1  0.60537570  0.39856434  0.00372482  1
  Mo  Mo179  1  0.70105088  0.10579265  0.86777211  1
  Mo  Mo180  1  0.90619611  0.30135333  0.39047970  1
  Mo  Mo181  1  0.88844903  0.71070185  0.11424918  1
  Mo  Mo182  1  0.60018444  0.39991451  0.25857388  1
  Mo  Mo183  1  0.81013127  0.19644786  0.25700733  1
  Mo  Mo184  1  0.90041233  0.30128276  0.88968563  1
  Mo  Mo185  1  0.10431573  0.30338625  0.38488274  1
  Mo  Mo186  1  0.10142807  0.69916539  0.36358882  1
  Mo  Mo187  1  -0.00561863  -0.00651743  0.01215155  1
  Mo  Mo188  1  0.81468508  0.39518497  0.26485325  1
  Mo  Mo189  1  0.30032203  0.89672831  0.63829257  1
  Mo  Mo190  1  0.89741242  0.29136635  0.11137593  1
  Mo  Mo191  1  0.20131141  0.59700039  0.52280626  1
  Mo  Mo192  1  0.09409557  0.09491464  0.63566435  1
  Mo  Mo193  1  -0.01102029  0.00196581  0.24384967  1
  Mo  Mo194  1  0.79938198  0.00301118  0.76432860  1
  Mo  Mo195  1  0.49427004  0.69774661  0.39045023  1
  Mo  Mo196  1  0.59933679  0.60088820  -0.00183780  1
  Mo  Mo197  1  0.30475964  0.70374305  0.85927693  1
  Mo  Mo198  1  0.70586375  0.09665307  0.36172823  1
  Mo  Mo199  1  0.19953864  0.39550121  0.73772968  1
