# generated using pymatgen
data_HfZrTaTiMo
_symmetry_space_group_name_H-M   'P 1'
_cell_length_a   15.92539738
_cell_length_b   15.92195701
_cell_length_c   15.20017173
_cell_angle_alpha   90.01571900
_cell_angle_beta   89.97771358
_cell_angle_gamma   89.88729256
_symmetry_Int_Tables_number   1
_chemical_formula_structural   HfZrTaTiMo
_chemical_formula_sum   'Hf40 Zr40 Ta40 Ti40 Mo40'
_cell_volume   3854.20073496
_cell_formula_units_Z   40
loop_
 _symmetry_equiv_pos_site_id
 _symmetry_equiv_pos_as_xyz
  1  'x, y, z'
loop_
 _atom_site_type_symbol
 _atom_site_label
 _atom_site_symmetry_multiplicity
 _atom_site_fract_x
 _atom_site_fract_y
 _atom_site_fract_z
 _atom_site_occupancy
  Hf  Hf0  1  0.79853377  0.40141175  0.26507970  1
  Hf  Hf1  1  0.77969528  0.82843200  0.24628555  1
  Hf  Hf2  1  0.09662353  0.90036532  0.62062617  1
  Hf  Hf3  1  0.09639584  0.30134216  0.13233789  1
  Hf  Hf4  1  0.29889319  0.50539418  0.38708030  1
  Hf  Hf5  1  0.39484870  0.00531060  0.50284793  1
  Hf  Hf6  1  0.49591564  0.89535993  0.87130941  1
  Hf  Hf7  1  0.11374183  0.70403610  0.60605043  1
  Hf  Hf8  1  0.60546734  0.41873484  0.76256389  1
  Hf  Hf9  1  0.29662048  0.30605215  0.11946959  1
  Hf  Hf10  1  0.90582983  0.91847589  0.13283263  1
  Hf  Hf11  1  0.60463756  0.20648145  -0.01102471  1
  Hf  Hf12  1  0.39559471  0.58548997  0.24181537  1
  Hf  Hf13  1  0.49886229  0.09576015  0.87245039  1
  Hf  Hf14  1  0.20357640  0.41591662  0.24808125  1
  Hf  Hf15  1  0.00656018  0.20810984  0.75358161  1
  Hf  Hf16  1  0.69893069  0.69448338  0.13500178  1
  Hf  Hf17  1  0.01938324  0.59877013  0.25002485  1
  Hf  Hf18  1  0.58907049  0.41048253  -0.01531115  1
  Hf  Hf19  1  0.38746902  0.79547063  0.49824803  1
  Hf  Hf20  1  0.80422740  -0.00242908  -0.00680903  1
  Hf  Hf21  1  0.10582522  0.30710280  0.62429487  1
  Hf  Hf22  1  0.10901107  0.09379750  0.62772337  1
  Hf  Hf23  1  0.59904312  0.79177293  0.75309237  1
  Hf  Hf24  1  0.89497696  0.69877896  0.35248971  1
  Hf  Hf25  1  0.68738426  0.50307734  0.13204755  1
  Hf  Hf26  1  0.19542027  -0.01080935  -0.00749478  1
  Hf  Hf27  1  0.41378401  0.38409477  0.48887738  1
  Hf  Hf28  1  0.80373779  0.20135944  0.74731859  1
  Hf  Hf29  1  0.49092398  0.89421654  0.63374066  1
  Hf  Hf30  1  0.60275584  0.20015868  0.75083018  1
  Hf  Hf31  1  0.29925650  0.70496252  0.13440049  1
  Hf  Hf32  1  0.71357580  0.09918080  0.12246387  1
  Hf  Hf33  1  0.20449070  0.60265072  0.74346367  1
  Hf  Hf34  1  0.70201290  0.08470119  0.37990852  1
  Hf  Hf35  1  0.80730382  0.20803869  0.51005573  1
  Hf  Hf36  1  0.28771749  0.89327355  0.63306785  1
  Hf  Hf37  1  0.39219367  0.80214714  0.00467866  1
  Hf  Hf38  1  0.49977523  0.89991521  0.37333140  1
  Hf  Hf39  1  0.90600409  0.70076783  0.87478639  1
  Zr  Zr40  1  0.10572930  0.50814642  0.39450044  1
  Zr  Zr41  1  0.80304056  0.60348922  0.48951493  1
  Zr  Zr42  1  0.29952319  0.49811664  0.89016932  1
  Zr  Zr43  1  0.08795276  0.09306115  0.13727727  1
  Zr  Zr44  1  0.50330943  0.09999439  0.12143391  1
  Zr  Zr45  1  0.39906415  0.59935049  0.74957678  1
  Zr  Zr46  1  0.91643873  0.08271500  0.86412012  1
  Zr  Zr47  1  0.79622766  0.59866087  -0.00711131  1
  Zr  Zr48  1  0.18883759  0.19234560  -0.01412272  1
  Zr  Zr49  1  0.40664391  0.20530034  -0.00321817  1
  Zr  Zr50  1  0.69359489  0.30248858  0.38705475  1
  Zr  Zr51  1  0.90986306  0.09347613  0.62420003  1
  Zr  Zr52  1  0.61371746  -0.01552698  0.23730388  1
  Zr  Zr53  1  0.90629403  0.09401627  0.38719498  1
  Zr  Zr54  1  0.08084578  0.91354570  0.86211731  1
  Zr  Zr55  1  0.69106829  0.69369195  0.61753856  1
  Zr  Zr56  1  0.79884532  0.39984353  -0.00807546  1
  Zr  Zr57  1  0.49677557  0.10224337  0.37364624  1
  Zr  Zr58  1  0.10068373  0.09606769  0.37617577  1
  Zr  Zr59  1  0.89639384  0.70294206  0.13167851  1
  Zr  Zr60  1  0.69065777  0.70556958  0.36592710  1
  Zr  Zr61  1  0.58674432  0.20137663  0.50817391  1
  Zr  Zr62  1  0.60274462  0.79970967  0.00512014  1
  Zr  Zr63  1  0.90415700  0.29293152  0.12947882  1
  Zr  Zr64  1  0.19774133  0.79063592  0.77372458  1
  Zr  Zr65  1  0.10403025  0.50323277  0.87459014  1
  Zr  Zr66  1  0.69428418  0.30204448  0.12787481  1
  Zr  Zr67  1  0.00698399  0.81010211  0.00434019  1
  Zr  Zr68  1  -0.00836770  0.79483164  0.49159674  1
  Zr  Zr69  1  0.70217068  0.31559769  0.62245375  1
  Zr  Zr70  1  -0.00197214  0.39404513  -0.01269762  1
  Zr  Zr71  1  0.90407649  0.50073485  0.13798532  1
  Zr  Zr72  1  0.50698076  0.50162367  0.61438757  1
  Zr  Zr73  1  0.89899091  0.49105767  0.62132601  1
  Zr  Zr74  1  0.30013673  0.30751550  0.88066330  1
  Zr  Zr75  1  0.80510886  0.19631983  0.25931189  1
  Zr  Zr76  1  0.78870984  0.59437631  0.75053520  1
  Zr  Zr77  1  0.89431713  0.91166821  0.37399629  1
  Zr  Zr78  1  0.21575932  0.19765990  0.49913916  1
  Zr  Zr79  1  0.29395410  0.09414988  0.12610125  1
  Ta  Ta80  1  0.79176703  -0.00519313  0.52162289  1
  Ta  Ta81  1  0.49694394  0.69698563  0.62440180  1
  Ta  Ta82  1  0.40042568  0.20315714  0.24345963  1
  Ta  Ta83  1  0.49678705  0.30024653  0.63838074  1
  Ta  Ta84  1  0.60290456  -0.00050303  0.74180335  1
  Ta  Ta85  1  0.00950450  0.80678706  0.24876708  1
  Ta  Ta86  1  0.90585530  0.49699571  0.37229516  1
  Ta  Ta87  1  0.10409875  0.50127699  0.61560274  1
  Ta  Ta88  1  0.70479326  0.30217529  0.86997659  1
  Ta  Ta89  1  0.20265413  0.20245874  0.25737460  1
  Ta  Ta90  1  0.60139663  -0.00315237  -0.00197356  1
  Ta  Ta91  1  0.30489484  0.29493859  0.36913510  1
  Ta  Ta92  1  0.30135539  0.49575297  0.61223068  1
  Ta  Ta93  1  0.09855162  0.90493740  0.37176535  1
  Ta  Ta94  1  0.20636351  -0.00758382  0.48977720  1
  Ta  Ta95  1  0.79653439  0.79776139  0.75290583  1
  Ta  Ta96  1  0.39097212  -0.00118845  0.75784932  1
  Ta  Ta97  1  0.59032348  0.79768183  0.49784989  1
  Ta  Ta98  1  0.49892335  0.68849284  0.88259697  1
  Ta  Ta99  1  0.41053147  0.59125564  0.01513531  1
  Ta  Ta100  1  0.50459697  0.69184777  0.13306652  1
  Ta  Ta101  1  0.48681593  0.70187529  0.36090902  1
  Ta  Ta102  1  0.49018599  0.10151566  0.63546227  1
  Ta  Ta103  1  0.40368319  0.40103360  0.75247222  1
  Ta  Ta104  1  0.59958748  -0.00369129  0.51998015  1
  Ta  Ta105  1  0.10171033  0.30619117  0.37321242  1
  Ta  Ta106  1  0.90576485  0.50301931  0.86351728  1
  Ta  Ta107  1  0.20714797  0.19856510  0.75777048  1
  Ta  Ta108  1  0.29134292  0.69972224  0.36206631  1
  Ta  Ta109  1  0.39715293  -0.00609812  0.24215169  1
  Ta  Ta110  1  0.69714119  0.49765566  0.60025749  1
  Ta  Ta111  1  0.81051437  0.20040477  -0.01768743  1
  Ta  Ta112  1  0.79032421  -0.00637204  0.74051662  1
  Ta  Ta113  1  0.00733624  0.60474046  0.74160848  1
  Ta  Ta114  1  0.00461391  0.20984357  0.50308745  1
  Ta  Ta115  1  0.29774374  0.89684325  0.35954107  1
  Ta  Ta116  1  0.89684261  0.89149622  0.62980018  1
  Ta  Ta117  1  0.40383069  0.39880847  0.25232026  1
  Ta  Ta118  1  0.19958828  0.60524767  0.01330596  1
  Ta  Ta119  1  -0.00159954  0.78913918  0.74504983  1
  Ti  Ti120  1  0.10679732  0.30937707  0.87049246  1
  Ti  Ti121  1  0.38895221  0.78929510  0.75687255  1
  Ti  Ti122  1  0.11339270  0.70289211  0.37847382  1
  Ti  Ti123  1  -0.00227978  0.20550029  0.26557715  1
  Ti  Ti124  1  0.38921069  -0.00718503  -0.00465473  1
  Ti  Ti125  1  0.58985694  0.59822496  0.47752948  1
  Ti  Ti126  1  0.89581921  0.70101420  0.62769503  1
  Ti  Ti127  1  0.00581960  0.60342550  0.00089198  1
  Ti  Ti128  1  0.39975945  0.60599421  0.49789704  1
  Ti  Ti129  1  0.59282804  0.58859135  0.26645855  1
  Ti  Ti130  1  0.30977888  0.29620353  0.62761863  1
  Ti  Ti131  1  0.69973662  0.89918943  0.87337860  1
  Ti  Ti132  1  0.20824317  0.40260314  0.73948353  1
  Ti  Ti133  1  0.70204628  0.09462802  0.87184590  1
  Ti  Ti134  1  0.20699163  0.39461569  0.50086200  1
  Ti  Ti135  1  0.50592585  0.30882643  0.13639717  1
  Ti  Ti136  1  0.58824456  0.40617105  0.27478885  1
  Ti  Ti137  1  0.69278383  0.69294977  0.87807265  1
  Ti  Ti138  1  0.19677569  0.80674937  0.24662030  1
  Ti  Ti139  1  0.30361925  0.09752271  0.36470235  1
  Ti  Ti140  1  -0.00836760  0.39236087  0.49717581  1
  Ti  Ti141  1  0.59076065  0.80307538  0.24386527  1
  Ti  Ti142  1  0.79049011  0.80389734  0.49569780  1
  Ti  Ti143  1  -0.00155443  0.60303107  0.50190608  1
  Ti  Ti144  1  0.10418449  0.49734647  0.11681049  1
  Ti  Ti145  1  0.49242828  0.89783728  0.12303912  1
  Ti  Ti146  1  0.20502591  0.00621632  0.76729687  1
  Ti  Ti147  1  0.39581645  0.20050157  0.75965283  1
  Ti  Ti148  1  0.30241133  0.09972707  0.63355485  1
  Ti  Ti149  1  0.29959310  0.69413663  0.89428157  1
  Ti  Ti150  1  0.00043235  0.40243832  0.74903803  1
  Ti  Ti151  1  0.59742046  0.20199649  0.25389508  1
  Ti  Ti152  1  0.69661937  0.89013160  0.62465083  1
  Ti  Ti153  1  0.19859586  0.80535469  -0.00012499  1
  Ti  Ti154  1  0.79918779  0.80394158  -0.00233643  1
  Ti  Ti155  1  0.89632437  0.89726851  0.86072243  1
  Ti  Ti156  1  0.40956051  0.40496335  0.00783513  1
  Ti  Ti157  1  -0.00088989  0.19416348  -0.01507059  1
  Ti  Ti158  1  0.10307592  0.70598616  0.12459741  1
  Ti  Ti159  1  0.80592657  0.39926042  0.75900828  1
  Mo  Mo160  1  0.49506225  0.50505391  0.87370359  1
  Mo  Mo161  1  0.19640005  0.40266874  0.01384320  1
  Mo  Mo162  1  0.70174146  0.89834293  0.10315129  1
  Mo  Mo163  1  0.09809476  0.69533704  0.89054235  1
  Mo  Mo164  1  0.29854478  0.49732573  0.11179585  1
  Mo  Mo165  1  0.19681804  0.60693966  0.23357550  1
  Mo  Mo166  1  0.00564231  0.39948498  0.26466992  1
  Mo  Mo167  1  0.79521531  0.59377007  0.26071765  1
  Mo  Mo168  1  0.69803162  0.50196622  0.38261334  1
  Mo  Mo169  1  0.21325792  0.60659181  0.51148580  1
  Mo  Mo170  1  0.79986900  0.00790885  0.24144826  1
  Mo  Mo171  1  0.30230475  0.09580591  0.87259804  1
  Mo  Mo172  1  0.20206490  -0.00127128  0.26185644  1
  Mo  Mo173  1  0.29827613  0.90037109  0.13620721  1
  Mo  Mo174  1  0.69635362  0.09593761  0.62788817  1
  Mo  Mo175  1  0.20220502  0.80366022  0.47769828  1
  Mo  Mo176  1  0.80611723  0.40290696  0.48591546  1
  Mo  Mo177  1  0.00071696  0.00150522  0.24792155  1
  Mo  Mo178  1  0.00265860  0.00947680  0.00931811  1
  Mo  Mo179  1  -0.00252810  -0.00813171  0.73260852  1
  Mo  Mo180  1  0.29986245  0.89531906  0.86860439  1
  Mo  Mo181  1  0.39790346  0.19854241  0.51234720  1
  Mo  Mo182  1  0.49630401  0.50309985  0.37785828  1
  Mo  Mo183  1  0.69360050  0.90227237  0.39843603  1
  Mo  Mo184  1  0.90965147  0.30310235  0.38084050  1
  Mo  Mo185  1  0.30599372  0.69922031  0.61889516  1
  Mo  Mo186  1  0.10725421  0.89929802  0.14029188  1
  Mo  Mo187  1  0.70195526  0.50506223  0.88193448  1
  Mo  Mo188  1  0.10340301  0.10285406  0.86302158  1
  Mo  Mo189  1  0.49956544  0.30277144  0.85726625  1
  Mo  Mo190  1  0.90262547  0.30191662  0.86501569  1
  Mo  Mo191  1  0.49611260  0.29477973  0.35956777  1
  Mo  Mo192  1  0.59794119  0.40482022  0.48873450  1
  Mo  Mo193  1  0.40319041  0.79958285  0.24382739  1
  Mo  Mo194  1  0.00253378  -0.00317714  0.51331956  1
  Mo  Mo195  1  0.90735476  0.30586113  0.62947647  1
  Mo  Mo196  1  0.50334186  0.49318692  0.13856453  1
  Mo  Mo197  1  0.59356440  0.60004466  -0.00261016  1
  Mo  Mo198  1  0.90468302  0.10676894  0.11263709  1
  Mo  Mo199  1  0.59693553  0.60193954  0.75992676  1
