# generated using pymatgen
data_HfZrTaTiMo
_symmetry_space_group_name_H-M   'P 1'
_cell_length_a   15.92426883
_cell_length_b   15.92953560
_cell_length_c   15.19422763
_cell_angle_alpha   89.94395547
_cell_angle_beta   89.98040426
_cell_angle_gamma   89.99414556
_symmetry_Int_Tables_number   1
_chemical_formula_structural   HfZrTaTiMo
_chemical_formula_sum   'Hf40 Zr40 Ta40 Ti40 Mo40'
_cell_volume   3854.26000694
_cell_formula_units_Z   40
loop_
 _symmetry_equiv_pos_site_id
 _symmetry_equiv_pos_as_xyz
  1  'x, y, z'
loop_
 _atom_site_type_symbol
 _atom_site_label
 _atom_site_symmetry_multiplicity
 _atom_site_fract_x
 _atom_site_fract_y
 _atom_site_fract_z
 _atom_site_occupancy
  Hf  Hf0  1  0.68960550  0.70871581  0.61459313  1
  Hf  Hf1  1  0.89155586  0.29250015  0.36886512  1
  Hf  Hf2  1  0.79845660  0.20241804  0.74331155  1
  Hf  Hf3  1  0.10220141  0.08564955  0.38335927  1
  Hf  Hf4  1  0.69874825  0.30499149  0.88838713  1
  Hf  Hf5  1  0.91104720  0.89755900  0.14049754  1
  Hf  Hf6  1  0.40704148  0.59441658  -0.00138692  1
  Hf  Hf7  1  0.08826367  0.30115976  0.87426403  1
  Hf  Hf8  1  0.91167192  0.90614903  0.86783289  1
  Hf  Hf9  1  0.47578297  0.29150210  0.64382414  1
  Hf  Hf10  1  0.50414702  0.89941601  0.61940191  1
  Hf  Hf11  1  0.60526367  0.58546941  0.24113209  1
  Hf  Hf12  1  0.20112055  -0.00200535  0.74903919  1
  Hf  Hf13  1  -0.00496936  0.18345307  0.49949105  1
  Hf  Hf14  1  0.01500599  0.01101232  0.73106174  1
  Hf  Hf15  1  0.79928979  0.00190185  0.72388573  1
  Hf  Hf16  1  0.90362319  0.70506819  0.14544048  1
  Hf  Hf17  1  0.49613329  0.69758389  0.36993130  1
  Hf  Hf18  1  0.51402771  0.90905716  0.38529258  1
  Hf  Hf19  1  0.39951777  0.60115162  0.74808617  1
  Hf  Hf20  1  0.59156132  0.39176090  0.51623606  1
  Hf  Hf21  1  0.40547553  -0.00514358  -0.01011742  1
  Hf  Hf22  1  0.39527864  0.82333459  0.24861344  1
  Hf  Hf23  1  0.69650600  0.49392821  0.39079487  1
  Hf  Hf24  1  0.80942931  0.80418554  0.73350809  1
  Hf  Hf25  1  0.59847349  0.40227317  0.74095282  1
  Hf  Hf26  1  0.49661197  0.29365697  0.36979320  1
  Hf  Hf27  1  0.70299172  0.09379449  0.87563298  1
  Hf  Hf28  1  0.59324317  0.80589501  0.00450807  1
  Hf  Hf29  1  0.29250984  0.49322122  0.63563726  1
  Hf  Hf30  1  0.49367327  0.70231550  0.13621816  1
  Hf  Hf31  1  0.48785236  0.09163811  0.13904229  1
  Hf  Hf32  1  0.58124607  0.59164828  0.51441776  1
  Hf  Hf33  1  0.50213086  0.10150156  0.37006229  1
  Hf  Hf34  1  0.59167895  0.39939653  0.23703655  1
  Hf  Hf35  1  0.70557943  0.90402781  0.87929636  1
  Hf  Hf36  1  0.11538184  0.89386503  0.38692852  1
  Hf  Hf37  1  0.00551233  0.59797610  0.01563261  1
  Hf  Hf38  1  0.28769181  0.70787217  0.37107604  1
  Hf  Hf39  1  0.80334052  0.39767229  0.75303363  1
  Zr  Zr40  1  0.30940146  0.89866860  0.62655674  1
  Zr  Zr41  1  0.70166111  0.50491839  0.87710723  1
  Zr  Zr42  1  0.79140607  0.19661633  0.51239222  1
  Zr  Zr43  1  0.39712805  0.39890937  0.50618140  1
  Zr  Zr44  1  0.91195183  0.50209510  0.61408107  1
  Zr  Zr45  1  0.78970113  0.40662221  0.25650906  1
  Zr  Zr46  1  0.30070100  0.70529510  0.87677438  1
  Zr  Zr47  1  0.28480128  0.49866953  0.87228466  1
  Zr  Zr48  1  0.80811397  0.19583776  0.00566128  1
  Zr  Zr49  1  0.80884819  0.60413452  0.49605642  1
  Zr  Zr50  1  0.18857915  0.19081545  0.25283489  1
  Zr  Zr51  1  0.90684466  0.69918371  0.87371269  1
  Zr  Zr52  1  0.69816484  0.30161101  0.11685587  1
  Zr  Zr53  1  0.69388832  0.09819414  0.37466437  1
  Zr  Zr54  1  0.10516720  0.70618996  0.87930838  1
  Zr  Zr55  1  0.19742869  0.59720131  0.24161004  1
  Zr  Zr56  1  0.37875071  0.19039457  0.25272384  1
  Zr  Zr57  1  0.09392113  0.29750846  0.63911246  1
  Zr  Zr58  1  0.60740568  0.81305677  0.24699467  1
  Zr  Zr59  1  0.69558128  0.70242877  0.37730355  1
  Zr  Zr60  1  0.60014674  0.59893938  0.01546860  1
  Zr  Zr61  1  0.00458925  0.39510061  0.47811080  1
  Zr  Zr62  1  0.80942684  0.00824229  0.02034192  1
  Zr  Zr63  1  0.28749085  0.28201354  0.09880713  1
  Zr  Zr64  1  0.90159224  0.30790651  0.62192818  1
  Zr  Zr65  1  0.69745112  0.69538725  0.86777507  1
  Zr  Zr66  1  0.80336578  0.60258648  0.73437472  1
  Zr  Zr67  1  0.48407344  0.29485378  0.12362582  1
  Zr  Zr68  1  0.80162595  0.81666426  0.49022699  1
  Zr  Zr69  1  0.19858105  0.39278426  0.50060771  1
  Zr  Zr70  1  0.19387044  0.59781962  0.01522765  1
  Zr  Zr71  1  0.71959953  0.69551471  0.14086298  1
  Zr  Zr72  1  0.58726048  0.19100245  -0.00299298  1
  Zr  Zr73  1  0.88865495  0.50263998  0.13267566  1
  Zr  Zr74  1  0.80782177  0.79918029  -0.00048160  1
  Zr  Zr75  1  0.59878379  0.80708437  0.75236355  1
  Zr  Zr76  1  0.39045959  0.59567765  0.50375566  1
  Zr  Zr77  1  0.30173293  0.48587209  0.12060589  1
  Zr  Zr78  1  0.59462858  0.19763984  0.75148233  1
  Zr  Zr79  1  0.90268978  0.30257647  0.12802296  1
  Ta  Ta80  1  0.40168510  0.79963635  0.49313706  1
  Ta  Ta81  1  0.10836581  0.90927839  0.12590657  1
  Ta  Ta82  1  0.19487808  0.59661145  0.49354647  1
  Ta  Ta83  1  -0.00220823  0.19414103  -0.00324671  1
  Ta  Ta84  1  0.09467979  0.29820962  0.11454354  1
  Ta  Ta85  1  0.19537985  0.80026061  0.73748407  1
  Ta  Ta86  1  0.00384004  0.59867944  0.25696398  1
  Ta  Ta87  1  0.09905850  0.71345509  0.13720140  1
  Ta  Ta88  1  0.19298209  0.38805917  0.24858229  1
  Ta  Ta89  1  0.29750785  0.49413225  0.36572819  1
  Ta  Ta90  1  0.30051859  0.90929949  0.39078194  1
  Ta  Ta91  1  0.30193289  0.70727368  0.12639880  1
  Ta  Ta92  1  0.00999708  0.80728902  0.00702531  1
  Ta  Ta93  1  0.48979659  0.70780567  0.62918541  1
  Ta  Ta94  1  0.09904481  0.70131530  0.60291702  1
  Ta  Ta95  1  0.00630217  0.60634498  0.74248380  1
  Ta  Ta96  1  0.18602422  0.18456408  0.76028922  1
  Ta  Ta97  1  0.59060185  0.19753523  0.52071128  1
  Ta  Ta98  1  0.11273717  0.10213538  0.10814547  1
  Ta  Ta99  1  0.90780927  0.49747188  0.87307443  1
  Ta  Ta100  1  0.40313548  0.01001951  0.50146961  1
  Ta  Ta101  1  0.91546033  0.90199817  0.61049858  1
  Ta  Ta102  1  0.59743207  -0.00378799  0.01096569  1
  Ta  Ta103  1  0.68869056  0.29198028  0.37719394  1
  Ta  Ta104  1  0.20683046  0.81036008  0.01390722  1
  Ta  Ta105  1  0.38993995  0.19781208  0.50177602  1
  Ta  Ta106  1  0.29074779  0.29328207  0.87016282  1
  Ta  Ta107  1  0.00330249  0.00422278  0.00539105  1
  Ta  Ta108  1  0.79456884  0.18797352  0.24150781  1
  Ta  Ta109  1  0.40386754  0.39550113  -0.02106215  1
  Ta  Ta110  1  0.40782053  0.00080951  0.76618348  1
  Ta  Ta111  1  0.60194815  0.00117777  0.74288010  1
  Ta  Ta112  1  0.30088819  0.89254028  0.87104561  1
  Ta  Ta113  1  0.90969227  0.10410500  0.86132570  1
  Ta  Ta114  1  0.58659540  0.40785603  0.00352160  1
  Ta  Ta115  1  0.10318070  0.49876230  0.36727062  1
  Ta  Ta116  1  0.01195473  0.80380101  0.73667542  1
  Ta  Ta117  1  0.80596274  -0.00013240  0.25807772  1
  Ta  Ta118  1  0.81562174  0.01268889  0.50258908  1
  Ta  Ta119  1  0.29216277  0.29662193  0.37755174  1
  Ti  Ti120  1  0.61484995  0.00423331  0.51786082  1
  Ti  Ti121  1  0.22472393  0.00008314  0.23664239  1
  Ti  Ti122  1  0.39933390  0.19284232  -0.02362489  1
  Ti  Ti123  1  0.01259790  0.80376526  0.26580246  1
  Ti  Ti124  1  0.39020621  0.39522519  0.24921794  1
  Ti  Ti125  1  0.49035626  0.09796695  0.63411505  1
  Ti  Ti126  1  0.10295506  0.89356915  0.60251107  1
  Ti  Ti127  1  0.89960795  0.50350458  0.37228847  1
  Ti  Ti128  1  0.20550957  0.81259222  0.23869853  1
  Ti  Ti129  1  0.29657805  0.09486215  0.38716689  1
  Ti  Ti130  1  0.91827826  0.70587532  0.60673209  1
  Ti  Ti131  1  0.80507838  0.59462968  -0.00029406  1
  Ti  Ti132  1  0.80518683  0.81421220  0.27606577  1
  Ti  Ti133  1  0.29150164  0.28971084  0.64733791  1
  Ti  Ti134  1  -0.00688398  0.40322854  0.00005252  1
  Ti  Ti135  1  0.30615034  0.10940948  0.63646576  1
  Ti  Ti136  1  0.49854343  0.70623473  0.86595632  1
  Ti  Ti137  1  -0.00049205  0.19326727  0.24827564  1
  Ti  Ti138  1  0.19818232  0.19996932  0.50491182  1
  Ti  Ti139  1  0.70675241  0.49406737  0.61659341  1
  Ti  Ti140  1  0.01130390  0.00844098  0.24216173  1
  Ti  Ti141  1  0.09405202  0.50402636  0.62113628  1
  Ti  Ti142  1  0.49199055  0.49444830  0.36787671  1
  Ti  Ti143  1  0.18869192  0.40060219  0.75270482  1
  Ti  Ti144  1  0.92139265  0.91887904  0.38412741  1
  Ti  Ti145  1  0.70867537  0.90140905  0.12616406  1
  Ti  Ti146  1  0.09232611  0.50387263  0.86646152  1
  Ti  Ti147  1  0.10717524  0.90436680  0.88278675  1
  Ti  Ti148  1  0.39701337  0.39650280  0.76850635  1
  Ti  Ti149  1  0.28905909  0.09494354  0.88295878  1
  Ti  Ti150  1  0.91369950  0.70112321  0.37501519  1
  Ti  Ti151  1  0.39700491  0.59045198  0.24467969  1
  Ti  Ti152  1  0.60910428  -0.00033263  0.23887526  1
  Ti  Ti153  1  0.19036181  0.60797906  0.73886719  1
  Ti  Ti154  1  0.20627832  0.00817435  0.52064966  1
  Ti  Ti155  1  0.18573957  0.40166245  -0.00004071  1
  Ti  Ti156  1  0.00662545  0.39623463  0.25462201  1
  Ti  Ti157  1  0.40524330  0.80783337  0.00543554  1
  Ti  Ti158  1  0.50708960  0.50631564  0.86251484  1
  Ti  Ti159  1  0.29490133  0.70463063  0.62136986  1
  Mo  Mo160  1  0.69589133  0.30357939  0.61528540  1
  Mo  Mo161  1  0.80608672  0.60336303  0.27070139  1
  Mo  Mo162  1  0.50202431  0.09387564  0.86851758  1
  Mo  Mo163  1  0.59299492  0.59827927  0.73064255  1
  Mo  Mo164  1  0.60463500  0.19738005  0.24094575  1
  Mo  Mo165  1  0.49042410  0.49354016  0.12891955  1
  Mo  Mo166  1  0.00509972  0.00025837  0.50887911  1
  Mo  Mo167  1  0.91201031  0.09805388  0.14194020  1
  Mo  Mo168  1  0.39282249  -0.00011325  0.26687676  1
  Mo  Mo169  1  0.50107751  0.89846932  0.87053303  1
  Mo  Mo170  1  0.20857394  0.79677746  0.51034671  1
  Mo  Mo171  1  0.39646590  0.80084686  0.75331527  1
  Mo  Mo172  1  0.19292088  0.19724497  -0.01870699  1
  Mo  Mo173  1  0.50324639  0.90569164  0.13036585  1
  Mo  Mo174  1  0.70576444  0.90349052  0.60723498  1
  Mo  Mo175  1  0.09009832  0.48555595  0.14048950  1
  Mo  Mo176  1  0.10033470  0.70083693  0.37230895  1
  Mo  Mo177  1  0.70080361  0.49769246  0.10964300  1
  Mo  Mo178  1  0.80374741  0.40490553  -0.01294035  1
  Mo  Mo179  1  0.00180514  0.41137408  0.75862274  1
  Mo  Mo180  1  0.30420624  0.90666885  0.11503971  1
  Mo  Mo181  1  0.59335583  0.80076695  0.49846860  1
  Mo  Mo182  1  0.09957887  0.29195872  0.36598006  1
  Mo  Mo183  1  0.70586355  0.91240277  0.38580476  1
  Mo  Mo184  1  0.49336514  0.49929956  0.64756508  1
  Mo  Mo185  1  0.90755594  0.10443551  0.63891520  1
  Mo  Mo186  1  0.79386581  0.39612449  0.48818260  1
  Mo  Mo187  1  0.38603524  0.18874216  0.76689080  1
  Mo  Mo188  1  0.69559309  0.10129889  0.62436998  1
  Mo  Mo189  1  0.69682073  0.09522700  0.13548753  1
  Mo  Mo190  1  0.29475427  0.09167018  0.10160212  1
  Mo  Mo191  1  -0.00281277  0.20132673  0.75853162  1
  Mo  Mo192  1  0.20246433  -0.00321769  -0.00949849  1
  Mo  Mo193  1  0.00967121  0.60076313  0.47911515  1
  Mo  Mo194  1  0.00377823  0.79888352  0.49057670  1
  Mo  Mo195  1  0.11162611  0.10424723  0.61360743  1
  Mo  Mo196  1  0.90102837  0.30400178  0.88289226  1
  Mo  Mo197  1  0.90327824  0.09575276  0.35845369  1
  Mo  Mo198  1  0.09604818  0.09434359  0.88739506  1
  Mo  Mo199  1  0.49262155  0.30247166  0.87113112  1
