# generated using pymatgen
data_HfZrTaTiMo
_symmetry_space_group_name_H-M   'P 1'
_cell_length_a   15.91960768
_cell_length_b   15.92845598
_cell_length_c   15.21293618
_cell_angle_alpha   90.02461292
_cell_angle_beta   89.95391027
_cell_angle_gamma   89.99801911
_symmetry_Int_Tables_number   1
_chemical_formula_structural   HfZrTaTiMo
_chemical_formula_sum   'Hf40 Zr40 Ta40 Ti40 Mo40'
_cell_volume   3857.61518743
_cell_formula_units_Z   40
loop_
 _symmetry_equiv_pos_site_id
 _symmetry_equiv_pos_as_xyz
  1  'x, y, z'
loop_
 _atom_site_type_symbol
 _atom_site_label
 _atom_site_symmetry_multiplicity
 _atom_site_fract_x
 _atom_site_fract_y
 _atom_site_fract_z
 _atom_site_occupancy
  Hf  Hf0  1  0.39816229  0.79550089  0.51002892  1
  Hf  Hf1  1  0.78958026  0.20109507  0.00918595  1
  Hf  Hf2  1  0.59490432  0.40284033  0.75919295  1
  Hf  Hf3  1  0.20160286  0.20510618  0.25428488  1
  Hf  Hf4  1  0.08595675  0.11027438  0.61835181  1
  Hf  Hf5  1  -0.00462213  0.20311535  0.00364442  1
  Hf  Hf6  1  0.20384629  0.60342906  0.50415314  1
  Hf  Hf7  1  0.50189938  0.30232384  0.62002494  1
  Hf  Hf8  1  0.20671271  0.80670719  0.24989028  1
  Hf  Hf9  1  0.30239183  0.50142296  0.11018619  1
  Hf  Hf10  1  0.79550003  0.40408574  0.01257773  1
  Hf  Hf11  1  0.79791748  0.60552485  0.01431902  1
  Hf  Hf12  1  0.39004364  -0.00679823  0.24453194  1
  Hf  Hf13  1  0.68229842  0.49836978  0.13311360  1
  Hf  Hf14  1  0.80870480  0.18422278  0.75359369  1
  Hf  Hf15  1  0.79435070  0.60675573  0.25377829  1
  Hf  Hf16  1  0.91319118  0.28266832  0.62136774  1
  Hf  Hf17  1  0.80971083  0.79962528  0.00170985  1
  Hf  Hf18  1  0.40313636  0.20555943  0.25439960  1
  Hf  Hf19  1  0.40079911  0.80891878  0.74970051  1
  Hf  Hf20  1  0.79450964  0.79800720  0.50794091  1
  Hf  Hf21  1  0.09942198  0.50690602  0.12233041  1
  Hf  Hf22  1  0.09000820  0.88604384  0.12772716  1
  Hf  Hf23  1  -0.00884938  0.00624711  0.74672324  1
  Hf  Hf24  1  0.10239990  0.10352640  0.12243195  1
  Hf  Hf25  1  0.88480095  0.51303416  0.85497234  1
  Hf  Hf26  1  0.79923278  0.60161753  0.50151834  1
  Hf  Hf27  1  0.29855296  0.70104530  0.11199060  1
  Hf  Hf28  1  0.89628096  0.09944918  0.13728695  1
  Hf  Hf29  1  0.70769131  0.29430754  0.62879591  1
  Hf  Hf30  1  0.70107626  0.09674608  0.61487607  1
  Hf  Hf31  1  0.20426591  0.41025031  0.49872883  1
  Hf  Hf32  1  0.50270383  0.10823983  0.12497237  1
  Hf  Hf33  1  0.90561536  0.68761785  0.64306115  1
  Hf  Hf34  1  0.51893740  0.08709664  0.35999150  1
  Hf  Hf35  1  0.70357787  0.29753902  0.86917474  1
  Hf  Hf36  1  -0.00632355  0.79571434  0.50523607  1
  Hf  Hf37  1  0.11025722  0.90954537  0.39553927  1
  Hf  Hf38  1  0.08645931  0.10760381  0.38249749  1
  Hf  Hf39  1  0.80844609  0.39312786  0.49794912  1
  Zr  Zr40  1  0.68920949  0.10507882  0.14609345  1
  Zr  Zr41  1  -0.00647010  -0.01644796  -0.00232227  1
  Zr  Zr42  1  0.59612713  0.81567210  0.52065116  1
  Zr  Zr43  1  0.29932032  0.08799369  0.86826627  1
  Zr  Zr44  1  0.00167232  -0.00144710  0.25660459  1
  Zr  Zr45  1  0.50457380  0.91526958  0.87078336  1
  Zr  Zr46  1  0.20731090  0.40010683  0.74866752  1
  Zr  Zr47  1  0.18828050  0.79983066  -0.01966925  1
  Zr  Zr48  1  0.50351956  0.89726631  0.12430970  1
  Zr  Zr49  1  0.50858500  0.69614025  0.11032451  1
  Zr  Zr50  1  0.20414468  0.59984967  0.25824113  1
  Zr  Zr51  1  0.29036227  0.08649864  0.38407609  1
  Zr  Zr52  1  0.31091306  0.30360282  0.11862520  1
  Zr  Zr53  1  0.39710953  0.60563267  0.26251853  1
  Zr  Zr54  1  0.68823597  0.91128139  0.36955142  1
  Zr  Zr55  1  -0.00761273  0.40792634  0.00438656  1
  Zr  Zr56  1  0.91254431  0.71342968  0.14078311  1
  Zr  Zr57  1  0.79162119  -0.01245204  0.00575327  1
  Zr  Zr58  1  0.40541210  0.20131086  0.48429670  1
  Zr  Zr59  1  0.58970119  0.60514286  0.26191501  1
  Zr  Zr60  1  0.10270828  0.10427986  0.87373594  1
  Zr  Zr61  1  0.39916925  0.80105619  -0.02303041  1
  Zr  Zr62  1  0.61807560  0.79442991  -0.01662874  1
  Zr  Zr63  1  0.41243662  -0.00997795  0.50997569  1
  Zr  Zr64  1  0.49376771  0.49318283  0.11533740  1
  Zr  Zr65  1  0.90117486  0.49353536  0.37053467  1
  Zr  Zr66  1  0.60472916  0.39970490  0.49877041  1
  Zr  Zr67  1  0.29261415  0.09496829  0.63286271  1
  Zr  Zr68  1  0.59702911  0.59828144  0.76141700  1
  Zr  Zr69  1  0.89969017  0.30089665  0.86801692  1
  Zr  Zr70  1  0.00645864  0.39404632  0.74499667  1
  Zr  Zr71  1  0.31033107  0.30871291  0.62044265  1
  Zr  Zr72  1  0.78463220  0.38404040  0.24765473  1
  Zr  Zr73  1  0.72946265  0.69311335  0.85356842  1
  Zr  Zr74  1  0.18845761  0.21793461  0.49735029  1
  Zr  Zr75  1  0.49570501  0.68856568  0.63029013  1
  Zr  Zr76  1  0.20243701  0.81065851  0.74808190  1
  Zr  Zr77  1  0.39906694  0.21196104  0.76507585  1
  Zr  Zr78  1  0.50198892  0.10197492  0.63544812  1
  Zr  Zr79  1  0.10026943  0.70848959  0.38172937  1
  Ta  Ta80  1  0.40423007  0.60228545  -0.02474694  1
  Ta  Ta81  1  0.90116347  0.89991862  0.37908599  1
  Ta  Ta82  1  0.69304862  0.08846146  0.87466021  1
  Ta  Ta83  1  0.09368300  0.50653293  0.62334812  1
  Ta  Ta84  1  0.40853416  0.20269145  -0.00613691  1
  Ta  Ta85  1  0.60736202  0.19751483  0.48650945  1
  Ta  Ta86  1  0.10471158  0.29738663  0.88392450  1
  Ta  Ta87  1  0.10200769  0.90836370  0.61801680  1
  Ta  Ta88  1  0.40001425  0.79518825  0.25953553  1
  Ta  Ta89  1  0.09646947  0.50139603  0.87368633  1
  Ta  Ta90  1  0.49178082  0.49554274  0.61584925  1
  Ta  Ta91  1  0.19266398  0.60360693  -0.01504499  1
  Ta  Ta92  1  0.70027927  0.50164582  0.62920316  1
  Ta  Ta93  1  0.09626711  0.69804967  0.12618070  1
  Ta  Ta94  1  0.10551684  0.30173384  0.12410355  1
  Ta  Ta95  1  0.49748434  0.50169773  0.38950133  1
  Ta  Ta96  1  0.60827704  0.80366073  0.74524114  1
  Ta  Ta97  1  0.00059739  0.60341932  0.26324091  1
  Ta  Ta98  1  0.00773332  0.39790495  0.24823553  1
  Ta  Ta99  1  0.69283930  0.49760040  0.37497299  1
  Ta  Ta100  1  0.89061976  0.89075789  0.85619624  1
  Ta  Ta101  1  0.29557829  0.69365452  0.86146443  1
  Ta  Ta102  1  0.49787451  0.89486924  0.36636318  1
  Ta  Ta103  1  0.70202547  0.88638593  0.14568947  1
  Ta  Ta104  1  0.89312816  0.09132864  0.88352831  1
  Ta  Ta105  1  0.50564396  0.09990808  0.87783194  1
  Ta  Ta106  1  0.90406681  0.50513405  0.13937394  1
  Ta  Ta107  1  0.90828736  0.28606866  0.36535722  1
  Ta  Ta108  1  0.40344080  0.40579514  0.26275795  1
  Ta  Ta109  1  0.01388121  0.38764914  0.49607553  1
  Ta  Ta110  1  0.09965487  0.69826172  0.62930755  1
  Ta  Ta111  1  0.29632562  0.49838178  0.87846652  1
  Ta  Ta112  1  0.29955554  0.89797089  0.11233016  1
  Ta  Ta113  1  -0.00552935  0.61023815  -0.01194391  1
  Ta  Ta114  1  0.20173715  -0.00325264  0.00598615  1
  Ta  Ta115  1  0.69184985  0.70370721  0.38179986  1
  Ta  Ta116  1  0.89677326  0.09771635  0.60178854  1
  Ta  Ta117  1  0.20610825  0.40401977  0.25469752  1
  Ta  Ta118  1  0.60041492  0.39495673  -0.01484956  1
  Ta  Ta119  1  0.19765358  0.40124567  -0.00444888  1
  Ti  Ti120  1  0.29649535  0.69590728  0.63580019  1
  Ti  Ti121  1  0.19809063  0.59422705  0.74906921  1
  Ti  Ti122  1  0.40543260  0.40628920  0.76901050  1
  Ti  Ti123  1  0.79489709  0.80529372  0.72771476  1
  Ti  Ti124  1  0.79336966  -0.00411525  0.49463335  1
  Ti  Ti125  1  0.10346555  0.91180871  0.86190476  1
  Ti  Ti126  1  0.31181617  0.50519027  0.62949298  1
  Ti  Ti127  1  0.60018993  0.19721910  0.75929493  1
  Ti  Ti128  1  0.60728150  -0.00232986  0.00670993  1
  Ti  Ti129  1  0.60085570  0.60703046  0.50228087  1
  Ti  Ti130  1  0.50975281  0.30606693  0.37146669  1
  Ti  Ti131  1  0.39628861  0.59804732  0.49351334  1
  Ti  Ti132  1  0.79498980  -0.00609397  0.74485890  1
  Ti  Ti133  1  0.30433366  0.31236055  0.37679294  1
  Ti  Ti134  1  0.40314151  0.59213092  0.76481552  1
  Ti  Ti135  1  0.39804019  0.00201444  0.00220509  1
  Ti  Ti136  1  0.52096706  0.30069067  0.12896761  1
  Ti  Ti137  1  0.29908678  0.10507831  0.11359322  1
  Ti  Ti138  1  0.79807340  -0.00177984  0.25723737  1
  Ti  Ti139  1  0.60390702  -0.00658903  0.74009608  1
  Ti  Ti140  1  0.60441633  0.59329739  -0.02337726  1
  Ti  Ti141  1  0.59434687  0.79074599  0.25628930  1
  Ti  Ti142  1  0.00020995  0.80611553  0.74589710  1
  Ti  Ti143  1  0.09011214  0.69340531  0.85217187  1
  Ti  Ti144  1  0.29113817  0.29330727  0.88839782  1
  Ti  Ti145  1  0.89804412  0.89551409  0.14730599  1
  Ti  Ti146  1  0.20289435  -0.00137727  0.23796778  1
  Ti  Ti147  1  0.90053712  0.29514343  0.14171543  1
  Ti  Ti148  1  0.89479420  0.10064375  0.38083122  1
  Ti  Ti149  1  -0.00212737  0.59475560  0.49361726  1
  Ti  Ti150  1  0.80097282  0.79505727  0.26768382  1
  Ti  Ti151  1  0.29887452  0.70840918  0.38562699  1
  Ti  Ti152  1  0.90241955  0.49309710  0.62724059  1
  Ti  Ti153  1  0.18802462  0.20949123  0.74279176  1
  Ti  Ti154  1  0.70493865  0.10689507  0.36785263  1
  Ti  Ti155  1  0.89986384  0.90819933  0.61909144  1
  Ti  Ti156  1  0.40687570  0.39563424  -0.01927901  1
  Ti  Ti157  1  0.29556284  0.89699745  0.39310686  1
  Ti  Ti158  1  -0.00264699  0.79300282  -0.02405664  1
  Ti  Ti159  1  0.10108674  0.49833632  0.37509656  1
  Mo  Mo160  1  0.59635705  -0.00863341  0.23707808  1
  Mo  Mo161  1  -0.01073843  -0.00193575  0.50152495  1
  Mo  Mo162  1  0.19848191  0.00171170  0.51448792  1
  Mo  Mo163  1  0.19637334  -0.00119188  0.73670176  1
  Mo  Mo164  1  0.29588751  0.90074861  0.61547216  1
  Mo  Mo165  1  0.40102448  0.40633017  0.48636113  1
  Mo  Mo166  1  -0.00030013  0.19359102  0.76723062  1
  Mo  Mo167  1  0.49953003  0.70549744  0.39161042  1
  Mo  Mo168  1  0.70446384  0.49402590  0.87106782  1
  Mo  Mo169  1  0.60761014  0.21750829  0.26675327  1
  Mo  Mo170  1  0.30229633  0.50157098  0.37939879  1
  Mo  Mo171  1  0.39874889  -0.00343849  0.74620361  1
  Mo  Mo172  1  0.00642962  0.59501036  0.74997524  1
  Mo  Mo173  1  0.10095225  0.30312960  0.63174116  1
  Mo  Mo174  1  0.59240667  0.40106071  0.26515652  1
  Mo  Mo175  1  0.80121218  0.19678591  0.25848781  1
  Mo  Mo176  1  0.00026303  0.20464073  0.24359033  1
  Mo  Mo177  1  0.29565181  0.90554558  0.88704473  1
  Mo  Mo178  1  0.79973496  0.19517655  0.48429522  1
  Mo  Mo179  1  0.50077244  0.29556316  0.87884225  1
  Mo  Mo180  1  0.10096637  0.30896433  0.35594214  1
  Mo  Mo181  1  -0.00580853  0.20555496  0.48531799  1
  Mo  Mo182  1  0.90835284  0.70624883  0.85629292  1
  Mo  Mo183  1  0.79792315  0.39868120  0.73140071  1
  Mo  Mo184  1  0.79838797  0.59356627  0.72860054  1
  Mo  Mo185  1  0.49855181  0.49734647  0.88521470  1
  Mo  Mo186  1  0.70003065  0.69645726  0.62707756  1
  Mo  Mo187  1  0.70139633  0.70620231  0.14141082  1
  Mo  Mo188  1  0.50199432  0.69914756  0.86584186  1
  Mo  Mo189  1  0.89694869  0.70292471  0.37418477  1
  Mo  Mo190  1  0.59685474  0.19811200  -0.01195816  1
  Mo  Mo191  1  0.20389596  0.79875270  0.52050917  1
  Mo  Mo192  1  0.70507635  0.29506546  0.38585371  1
  Mo  Mo193  1  0.60263304  0.00394823  0.50847242  1
  Mo  Mo194  1  0.70421005  0.90656880  0.62959696  1
  Mo  Mo195  1  -0.00018396  0.80048731  0.27258237  1
  Mo  Mo196  1  0.49922966  0.90443085  0.64557673  1
  Mo  Mo197  1  0.68666159  0.29884093  0.11858685  1
  Mo  Mo198  1  0.70614183  0.90272986  0.85447832  1
  Mo  Mo199  1  0.20509531  0.20280230  0.00815959  1
