# generated using pymatgen
data_HfZrTaTiMo
_symmetry_space_group_name_H-M   'P 1'
_cell_length_a   15.92867949
_cell_length_b   15.93638545
_cell_length_c   15.21460723
_cell_angle_alpha   90.01072266
_cell_angle_beta   89.95522610
_cell_angle_gamma   90.06446686
_symmetry_Int_Tables_number   1
_chemical_formula_structural   HfZrTaTiMo
_chemical_formula_sum   'Hf40 Zr40 Ta40 Ti40 Mo40'
_cell_volume   3862.15704847
_cell_formula_units_Z   40
loop_
 _symmetry_equiv_pos_site_id
 _symmetry_equiv_pos_as_xyz
  1  'x, y, z'
loop_
 _atom_site_type_symbol
 _atom_site_label
 _atom_site_symmetry_multiplicity
 _atom_site_fract_x
 _atom_site_fract_y
 _atom_site_fract_z
 _atom_site_occupancy
  Hf  Hf0  1  0.29748121  0.49369753  0.40128688  1
  Hf  Hf1  1  0.10420422  0.12101994  0.11122444  1
  Hf  Hf2  1  0.39918242  0.58391467  0.26558573  1
  Hf  Hf3  1  0.79739433  -0.00144878  0.75012307  1
  Hf  Hf4  1  0.20811213  0.61672438  0.51184046  1
  Hf  Hf5  1  0.68186488  0.48025153  0.11182226  1
  Hf  Hf6  1  0.69856412  0.30111853  0.64196734  1
  Hf  Hf7  1  0.81308209  -0.00375319  0.23917555  1
  Hf  Hf8  1  0.09996981  0.30480326  0.62711207  1
  Hf  Hf9  1  -0.00841360  0.20165263  0.50654747  1
  Hf  Hf10  1  0.70248864  0.29075029  0.37184570  1
  Hf  Hf11  1  0.79944875  0.58961024  0.22597828  1
  Hf  Hf12  1  0.29980390  0.11524110  0.11895499  1
  Hf  Hf13  1  0.29412911  0.69019698  0.86257503  1
  Hf  Hf14  1  0.19677447  0.58766660  -0.00159423  1
  Hf  Hf15  1  0.40805668  0.20300312  -0.01576512  1
  Hf  Hf16  1  0.08841171  0.90223147  0.60746346  1
  Hf  Hf17  1  0.10815340  0.49222023  0.12422897  1
  Hf  Hf18  1  0.60306163  0.79664458  0.75982721  1
  Hf  Hf19  1  0.90145902  0.90246828  0.62172109  1
  Hf  Hf20  1  0.01164652  0.21663691  -0.02232548  1
  Hf  Hf21  1  0.30053410  0.09465906  0.86969363  1
  Hf  Hf22  1  0.69976279  0.30416017  0.87297858  1
  Hf  Hf23  1  0.59548260  0.60357336  -0.00214914  1
  Hf  Hf24  1  0.58870279  0.78771143  0.48602724  1
  Hf  Hf25  1  0.40209962  0.00314483  0.50348956  1
  Hf  Hf26  1  0.59617236  0.59503830  0.24947742  1
  Hf  Hf27  1  0.69560149  0.09523302  0.87270882  1
  Hf  Hf28  1  0.58760707  0.00461123  0.02533959  1
  Hf  Hf29  1  0.20689321  0.00734595  0.50279571  1
  Hf  Hf30  1  0.89783400  0.29838942  0.37028622  1
  Hf  Hf31  1  0.79765258  0.39756710  0.51241713  1
  Hf  Hf32  1  0.90236165  0.09745972  0.36579291  1
  Hf  Hf33  1  0.81013381  0.39692174  0.00717108  1
  Hf  Hf34  1  0.30494392  0.29866583  0.40421469  1
  Hf  Hf35  1  0.29259610  0.31305308  0.10599178  1
  Hf  Hf36  1  0.89725750  0.90172632  0.88232815  1
  Hf  Hf37  1  0.49852777  0.89995863  0.36840653  1
  Hf  Hf38  1  0.40686755  0.61253000  0.50062010  1
  Hf  Hf39  1  0.79196218  0.18766855  0.51557565  1
  Zr  Zr40  1  0.79600434  0.60278901  0.74489124  1
  Zr  Zr41  1  -0.00482457  0.60453364  0.25228574  1
  Zr  Zr42  1  0.79930342  0.80308909  0.48910664  1
  Zr  Zr43  1  0.58863985  0.40197902  0.26501023  1
  Zr  Zr44  1  0.40821907  0.00625798  0.24139776  1
  Zr  Zr45  1  0.69898631  0.88992333  0.13075186  1
  Zr  Zr46  1  0.29492947  0.68634814  0.14001676  1
  Zr  Zr47  1  0.60595102  0.20230983  0.00327652  1
  Zr  Zr48  1  0.09366619  0.90853904  0.38235718  1
  Zr  Zr49  1  0.29963848  0.88412612  0.14478037  1
  Zr  Zr50  1  0.70754727  0.68282751  0.37794893  1
  Zr  Zr51  1  0.89283493  0.49824210  0.37909566  1
  Zr  Zr52  1  0.10330001  0.71441447  0.37288814  1
  Zr  Zr53  1  0.19910696  0.21279039  0.26119824  1
  Zr  Zr54  1  0.49280584  0.70680647  0.13247109  1
  Zr  Zr55  1  -0.00246093  0.80150139  0.75956626  1
  Zr  Zr56  1  0.28381944  0.49548360  0.85542251  1
  Zr  Zr57  1  0.50432451  0.10825840  0.37413841  1
  Zr  Zr58  1  0.00698621  0.39908873  0.24862351  1
  Zr  Zr59  1  0.50489896  0.89518061  0.62483118  1
  Zr  Zr60  1  0.90718098  0.31344170  0.85959788  1
  Zr  Zr61  1  0.19258350  0.79638118  0.75312089  1
  Zr  Zr62  1  0.20301400  0.79915313  -0.00425529  1
  Zr  Zr63  1  0.40126074  -0.00396522  0.00866734  1
  Zr  Zr64  1  0.30240035  0.87471835  0.60628311  1
  Zr  Zr65  1  0.81440646  0.78898866  0.25338702  1
  Zr  Zr66  1  -0.00833542  0.60955791  0.50493932  1
  Zr  Zr67  1  0.79993330  0.00690478  0.00874465  1
  Zr  Zr68  1  -0.00309534  0.01585494  -0.00117110  1
  Zr  Zr69  1  0.69108168  0.69995824  0.62142050  1
  Zr  Zr70  1  0.50087713  0.29835945  0.63463215  1
  Zr  Zr71  1  0.39789781  0.80152896  0.76280015  1
  Zr  Zr72  1  0.90638530  0.50627296  0.87177996  1
  Zr  Zr73  1  0.19128275  0.00365091  0.24536342  1
  Zr  Zr74  1  0.40325120  0.80360946  -0.01080129  1
  Zr  Zr75  1  0.49994259  0.31346430  0.11349988  1
  Zr  Zr76  1  0.21062463  0.40418948  0.25744336  1
  Zr  Zr77  1  0.61640324  0.00610067  0.50838726  1
  Zr  Zr78  1  0.19965434  -0.00595913  0.74486455  1
  Zr  Zr79  1  0.59587375  0.20167217  0.23667436  1
  Ta  Ta80  1  0.90069098  0.69615343  0.88575021  1
  Ta  Ta81  1  0.79636629  0.59477441  0.51195049  1
  Ta  Ta82  1  0.30163918  0.49974703  0.63127938  1
  Ta  Ta83  1  0.90384859  0.70069906  0.11003104  1
  Ta  Ta84  1  0.50086146  0.09803890  0.85650841  1
  Ta  Ta85  1  0.49303726  0.29940816  0.39488188  1
  Ta  Ta86  1  0.10346922  0.90457706  0.88864753  1
  Ta  Ta87  1  0.69347699  0.90112240  0.88196546  1
  Ta  Ta88  1  0.79585088  0.79366708  -0.00254997  1
  Ta  Ta89  1  0.81385207  0.19645693  0.00461183  1
  Ta  Ta90  1  0.90490432  0.09768285  0.63605619  1
  Ta  Ta91  1  0.59719437  0.80303675  -0.00195728  1
  Ta  Ta92  1  0.91481549  0.29356083  0.12566615  1
  Ta  Ta93  1  0.19633348  0.19371439  0.74846927  1
  Ta  Ta94  1  0.60194523  0.19788816  0.51032629  1
  Ta  Ta95  1  0.10001149  0.49491446  0.39883852  1
  Ta  Ta96  1  0.29536478  0.88712414  0.37339969  1
  Ta  Ta97  1  0.09961878  0.70250395  0.12730685  1
  Ta  Ta98  1  0.70534898  0.09818353  0.35788910  1
  Ta  Ta99  1  0.50640295  0.91582459  0.86471826  1
  Ta  Ta100  1  0.79722258  0.79945625  0.76279159  1
  Ta  Ta101  1  0.09458956  0.09850257  0.61969094  1
  Ta  Ta102  1  0.39955959  0.40337107  -0.02922905  1
  Ta  Ta103  1  0.30059654  0.30090482  0.63673693  1
  Ta  Ta104  1  0.60032410  0.40037243  0.49974989  1
  Ta  Ta105  1  0.59186855  0.59602468  0.75779735  1
  Ta  Ta106  1  0.00614156  0.19557721  0.75596878  1
  Ta  Ta107  1  0.79673936  0.59876447  0.00945167  1
  Ta  Ta108  1  0.30122490  0.10389586  0.37504901  1
  Ta  Ta109  1  0.08917088  0.68436960  0.88048675  1
  Ta  Ta110  1  0.09809729  0.10747586  0.38795885  1
  Ta  Ta111  1  0.29653890  0.29792348  0.85740222  1
  Ta  Ta112  1  0.00459608  0.79767288  -0.00057955  1
  Ta  Ta113  1  0.60177063  0.79447058  0.25577099  1
  Ta  Ta114  1  0.40615832  0.40293568  0.75242554  1
  Ta  Ta115  1  0.10239330  0.30940294  0.40437334  1
  Ta  Ta116  1  0.90166314  0.30326757  0.63855813  1
  Ta  Ta117  1  0.48369886  0.49685675  0.10931342  1
  Ta  Ta118  1  0.39271165  0.59588293  -0.00760462  1
  Ta  Ta119  1  0.00311990  0.60454715  0.73602739  1
  Ti  Ti120  1  0.09574717  0.71490227  0.61477102  1
  Ti  Ti121  1  0.20607644  0.19506507  0.51512190  1
  Ti  Ti122  1  0.68667156  0.50006424  0.62902576  1
  Ti  Ti123  1  0.79913455  0.39058950  0.23018721  1
  Ti  Ti124  1  0.70366411  0.49123894  0.37517271  1
  Ti  Ti125  1  0.79655015  0.41126420  0.74785448  1
  Ti  Ti126  1  0.08802508  0.48842702  0.86081369  1
  Ti  Ti127  1  0.41041025  0.40831748  0.52208967  1
  Ti  Ti128  1  0.80486519  0.19416963  0.75353698  1
  Ti  Ti129  1  0.70158664  0.89764884  0.62978079  1
  Ti  Ti130  1  0.49874744  0.69641716  0.87464122  1
  Ti  Ti131  1  0.89572561  0.70954182  0.62514335  1
  Ti  Ti132  1  0.70879173  0.10744720  0.13735438  1
  Ti  Ti133  1  0.80214592  0.00414639  0.50113722  1
  Ti  Ti134  1  0.39918293  0.39908262  0.25732306  1
  Ti  Ti135  1  0.90385833  0.49745234  0.62676314  1
  Ti  Ti136  1  0.18053931  0.38389445  -0.01805578  1
  Ti  Ti137  1  0.60018593  0.19581648  0.75062797  1
  Ti  Ti138  1  0.39862052  0.18923763  0.52170266  1
  Ti  Ti139  1  0.00666949  0.81082876  0.23455076  1
  Ti  Ti140  1  0.00535900  0.00401337  0.23109842  1
  Ti  Ti141  1  0.20101845  -0.00148318  0.00153555  1
  Ti  Ti142  1  0.39859132  0.21253499  0.24910697  1
  Ti  Ti143  1  0.00997398  0.20338565  0.25317681  1
  Ti  Ti144  1  0.91182426  0.89824277  0.38139526  1
  Ti  Ti145  1  0.09933541  0.49509750  0.61349537  1
  Ti  Ti146  1  0.19765449  0.59458828  0.26179889  1
  Ti  Ti147  1  -0.00194129  0.58962855  0.00994054  1
  Ti  Ti148  1  0.18703146  0.60131680  0.73259869  1
  Ti  Ti149  1  0.50449731  0.09748542  0.64103541  1
  Ti  Ti150  1  0.40888341  0.59239398  0.74413524  1
  Ti  Ti151  1  0.70223926  0.69769967  0.88077596  1
  Ti  Ti152  1  0.00521639  0.00974423  0.76767207  1
  Ti  Ti153  1  0.70006579  0.90935496  0.36350993  1
  Ti  Ti154  1  0.90896158  0.89579592  0.11284250  1
  Ti  Ti155  1  0.39439005  -0.00174165  0.73973155  1
  Ti  Ti156  1  0.49164928  0.70161992  0.63054442  1
  Ti  Ti157  1  0.59276555  0.58719335  0.49361557  1
  Ti  Ti158  1  0.58877814  0.41266929  0.76308946  1
  Ti  Ti159  1  0.69680434  0.49981335  0.88185255  1
  Mo  Mo160  1  0.40045165  0.79059769  0.27038445  1
  Mo  Mo161  1  0.70016810  0.10141350  0.63965099  1
  Mo  Mo162  1  0.10332803  0.30113951  0.11978361  1
  Mo  Mo163  1  0.60867577  -0.00140689  0.24346224  1
  Mo  Mo164  1  0.39496703  0.78937651  0.48241780  1
  Mo  Mo165  1  0.10635405  0.31008106  0.84735064  1
  Mo  Mo166  1  0.30255936  0.10397206  0.63492058  1
  Mo  Mo167  1  0.30808040  0.49082155  0.11185251  1
  Mo  Mo168  1  0.40007359  0.19741486  0.75077219  1
  Mo  Mo169  1  -0.01020167  0.01035810  0.49941003  1
  Mo  Mo170  1  0.71010751  0.29671041  0.11701606  1
  Mo  Mo171  1  0.89974861  0.10639926  0.85853112  1
  Mo  Mo172  1  0.30187686  0.69019686  0.64227197  1
  Mo  Mo173  1  0.19153290  0.79872835  0.24451788  1
  Mo  Mo174  1  0.69933332  0.69698562  0.11423632  1
  Mo  Mo175  1  0.59614158  0.40176210  -0.02353103  1
  Mo  Mo176  1  -0.00354006  0.40147107  0.50964299  1
  Mo  Mo177  1  0.10682113  0.10094721  0.87874214  1
  Mo  Mo178  1  0.90113589  0.70406664  0.37552815  1
  Mo  Mo179  1  0.00612925  0.40433349  0.00836355  1
  Mo  Mo180  1  0.50071221  0.29995943  0.85900573  1
  Mo  Mo181  1  0.49895001  0.49094545  0.39349181  1
  Mo  Mo182  1  0.90270873  0.49730876  0.11749670  1
  Mo  Mo183  1  0.50567488  0.89592447  0.14804213  1
  Mo  Mo184  1  0.49644015  0.50580017  0.87969405  1
  Mo  Mo185  1  -0.00060546  0.41034443  0.72904259  1
  Mo  Mo186  1  0.30117985  0.90473894  0.87523575  1
  Mo  Mo187  1  0.50574881  0.50352472  0.62281535  1
  Mo  Mo188  1  0.20269794  0.20366882  -0.02736820  1
  Mo  Mo189  1  0.09533698  0.90036381  0.11216176  1
  Mo  Mo190  1  -0.00837857  0.80157258  0.49721430  1
  Mo  Mo191  1  0.60140005  -0.00052823  0.74147700  1
  Mo  Mo192  1  0.90854617  0.11094931  0.13888106  1
  Mo  Mo193  1  0.19824068  0.40222539  0.73680248  1
  Mo  Mo194  1  0.49807758  0.10708485  0.13439564  1
  Mo  Mo195  1  0.80613475  0.20330591  0.23355729  1
  Mo  Mo196  1  0.50214589  0.69482069  0.36538624  1
  Mo  Mo197  1  0.19960922  0.79818590  0.49894886  1
  Mo  Mo198  1  0.20557943  0.40329372  0.51949749  1
  Mo  Mo199  1  0.29837416  0.70304403  0.36227844  1
