# generated using pymatgen
data_HfZrTaTiMo
_symmetry_space_group_name_H-M   'P 1'
_cell_length_a   15.92699934
_cell_length_b   15.92315326
_cell_length_c   15.21126444
_cell_angle_alpha   90.00579523
_cell_angle_beta   90.05832567
_cell_angle_gamma   90.11946960
_symmetry_Int_Tables_number   1
_chemical_formula_structural   HfZrTaTiMo
_chemical_formula_sum   'Hf40 Zr40 Ta40 Ti40 Mo40'
_cell_volume   3857.68872685
_cell_formula_units_Z   40
loop_
 _symmetry_equiv_pos_site_id
 _symmetry_equiv_pos_as_xyz
  1  'x, y, z'
loop_
 _atom_site_type_symbol
 _atom_site_label
 _atom_site_symmetry_multiplicity
 _atom_site_fract_x
 _atom_site_fract_y
 _atom_site_fract_z
 _atom_site_occupancy
  Hf  Hf0  1  0.19797705  0.39050707  0.75151409  1
  Hf  Hf1  1  0.70532874  0.69504191  0.13085336  1
  Hf  Hf2  1  0.19025313  0.58216509  0.01825436  1
  Hf  Hf3  1  0.69072110  0.89640483  0.88698292  1
  Hf  Hf4  1  0.00209469  0.40526619  0.75901375  1
  Hf  Hf5  1  0.80593417  0.80542178  0.24894378  1
  Hf  Hf6  1  0.78747548  0.19447112  0.74434581  1
  Hf  Hf7  1  0.80435025  -0.00178778  0.00527047  1
  Hf  Hf8  1  0.49344285  0.90017124  0.36934690  1
  Hf  Hf9  1  0.49109963  0.28800803  0.37100786  1
  Hf  Hf10  1  0.70616192  0.50097338  0.60696050  1
  Hf  Hf11  1  0.09635112  0.09201768  0.61625465  1
  Hf  Hf12  1  0.19566738  0.60681128  0.49617873  1
  Hf  Hf13  1  0.90058483  0.49187099  0.14176996  1
  Hf  Hf14  1  0.70133332  0.90624380  0.61475270  1
  Hf  Hf15  1  -0.01337463  0.19384131  0.24178719  1
  Hf  Hf16  1  0.39877685  0.59610847  0.23698114  1
  Hf  Hf17  1  0.40591512  -0.00135204  0.01621920  1
  Hf  Hf18  1  0.80094916  0.80087863  0.74001277  1
  Hf  Hf19  1  0.40116824  0.19349132  0.02541628  1
  Hf  Hf20  1  0.09172939  0.50092867  0.61921745  1
  Hf  Hf21  1  0.40664543  0.38745704  0.00916354  1
  Hf  Hf22  1  0.48684014  0.68744078  0.38880614  1
  Hf  Hf23  1  0.29375816  0.30405276  0.14547564  1
  Hf  Hf24  1  0.51632323  0.48952028  0.11773835  1
  Hf  Hf25  1  0.60256557  0.79548695  0.25984457  1
  Hf  Hf26  1  0.69335675  0.31532738  0.13659607  1
  Hf  Hf27  1  0.90570040  0.70378633  0.36812765  1
  Hf  Hf28  1  0.30870341  0.69512541  0.89553166  1
  Hf  Hf29  1  0.19862386  0.80299949  0.48519340  1
  Hf  Hf30  1  0.50458782  0.10336406  0.87194074  1
  Hf  Hf31  1  0.09397581  0.29863459  0.36731110  1
  Hf  Hf32  1  0.20476554  -0.00377393  0.47874599  1
  Hf  Hf33  1  0.58881424  0.21498410  0.01131454  1
  Hf  Hf34  1  0.61212919  0.00567552  0.75090965  1
  Hf  Hf35  1  0.50171237  0.10067377  0.63256196  1
  Hf  Hf36  1  0.40521714  -0.02371969  0.76328816  1
  Hf  Hf37  1  0.10394719  0.90221305  0.62713586  1
  Hf  Hf38  1  0.39539844  0.40210210  0.73416872  1
  Hf  Hf39  1  0.91507057  0.90638081  0.61065593  1
  Zr  Zr40  1  0.49277156  0.89999813  0.61057194  1
  Zr  Zr41  1  0.59909183  0.19170125  0.49658021  1
  Zr  Zr42  1  0.08813583  0.09238648  0.12199349  1
  Zr  Zr43  1  0.00604161  0.41073308  -0.00343412  1
  Zr  Zr44  1  0.30253263  0.50521630  0.37842912  1
  Zr  Zr45  1  0.49630389  0.72119178  0.87841927  1
  Zr  Zr46  1  0.69597714  0.10503053  0.12102886  1
  Zr  Zr47  1  0.79520580  0.01123574  0.49755938  1
  Zr  Zr48  1  0.20703252  0.79985902  0.75198040  1
  Zr  Zr49  1  0.20141006  0.19553511  0.00770857  1
  Zr  Zr50  1  0.09174192  0.28135963  0.88553077  1
  Zr  Zr51  1  0.89514184  0.31381013  0.61771743  1
  Zr  Zr52  1  0.50714623  0.69730992  0.12094557  1
  Zr  Zr53  1  0.40721106  0.40247359  0.25273134  1
  Zr  Zr54  1  0.19422333  0.39655145  0.49812710  1
  Zr  Zr55  1  0.70409058  0.70738561  0.88492769  1
  Zr  Zr56  1  -0.00153882  0.19655906  0.73776701  1
  Zr  Zr57  1  0.91067132  0.11395176  0.89049489  1
  Zr  Zr58  1  0.30127242  0.10017182  0.87040383  1
  Zr  Zr59  1  0.19759363  0.59522364  0.75133984  1
  Zr  Zr60  1  0.90129137  0.51076711  0.87480711  1
  Zr  Zr61  1  0.09416044  0.31220398  0.13758768  1
  Zr  Zr62  1  0.19914627  0.79611854  0.23973552  1
  Zr  Zr63  1  0.09654112  0.89174794  0.88846069  1
  Zr  Zr64  1  0.10121078  0.69969654  0.89320889  1
  Zr  Zr65  1  0.60949389  0.79331250  0.49177639  1
  Zr  Zr66  1  0.81112976  -0.00053403  0.75868486  1
  Zr  Zr67  1  0.30332541  0.49711215  0.88312643  1
  Zr  Zr68  1  0.60261235  0.60923611  0.73839381  1
  Zr  Zr69  1  0.21264342  -0.01048006  0.01142535  1
  Zr  Zr70  1  0.80321890  0.61113704  0.74289194  1
  Zr  Zr71  1  0.89781894  0.50710953  0.61071533  1
  Zr  Zr72  1  0.29780116  0.08895244  0.63134245  1
  Zr  Zr73  1  0.81236082  0.00459665  0.23590225  1
  Zr  Zr74  1  0.70619660  0.49884971  0.13366739  1
  Zr  Zr75  1  0.60610008  0.59985145  -0.00760696  1
  Zr  Zr76  1  0.59719039  0.39896506  0.49132456  1
  Zr  Zr77  1  0.59776160  0.40299032  0.74014747  1
  Zr  Zr78  1  0.89761591  0.10556170  0.37806831  1
  Zr  Zr79  1  0.49644612  0.50376111  0.87803371  1
  Ta  Ta80  1  0.09888221  0.49981205  0.35764427  1
  Ta  Ta81  1  0.70250504  0.49732219  0.87550425  1
  Ta  Ta82  1  -0.00138813  0.20290607  0.49845868  1
  Ta  Ta83  1  0.19632405  0.19623222  0.74914576  1
  Ta  Ta84  1  0.59725500  0.00709875  0.48102265  1
  Ta  Ta85  1  0.60402417  0.59276942  0.27854541  1
  Ta  Ta86  1  0.69577577  0.10733668  0.89123819  1
  Ta  Ta87  1  0.81093713  0.80668033  0.01644841  1
  Ta  Ta88  1  0.29791982  0.69590406  0.11561904  1
  Ta  Ta89  1  0.00162921  0.60193604  0.02058173  1
  Ta  Ta90  1  0.00048637  0.61284181  0.75052145  1
  Ta  Ta91  1  0.79485386  0.39830344  -0.00919484  1
  Ta  Ta92  1  0.79489266  0.20761903  0.50350957  1
  Ta  Ta93  1  0.49549508  0.70190596  0.61350782  1
  Ta  Ta94  1  0.69718242  0.30019787  0.62433334  1
  Ta  Ta95  1  0.59584512  0.80499408  0.73609560  1
  Ta  Ta96  1  0.81029655  0.60094990  0.00460612  1
  Ta  Ta97  1  0.39896631  0.00572507  0.48487994  1
  Ta  Ta98  1  0.39908792  0.60590180  0.73490339  1
  Ta  Ta99  1  0.09221476  0.70402501  0.62017549  1
  Ta  Ta100  1  0.29769804  0.29440807  0.37426755  1
  Ta  Ta101  1  0.91468133  0.90613897  0.37758320  1
  Ta  Ta102  1  0.19867530  0.19105959  0.25674075  1
  Ta  Ta103  1  0.70463676  0.29629703  0.36521486  1
  Ta  Ta104  1  0.30158994  0.70509955  0.61933104  1
  Ta  Ta105  1  0.19982367  0.19210109  0.48763664  1
  Ta  Ta106  1  0.19849951  -0.00378071  0.24842389  1
  Ta  Ta107  1  0.30526545  0.89994988  0.35701310  1
  Ta  Ta108  1  0.59985690  0.00181763  0.25471736  1
  Ta  Ta109  1  0.80494312  0.79853719  0.49323284  1
  Ta  Ta110  1  0.39849447  0.39526693  0.50450712  1
  Ta  Ta111  1  0.70891736  0.90569004  0.37221211  1
  Ta  Ta112  1  0.09274869  0.09266270  0.37011409  1
  Ta  Ta113  1  0.00182037  0.60259651  0.48029926  1
  Ta  Ta114  1  0.29557308  0.28967495  0.61456447  1
  Ta  Ta115  1  0.49786692  0.29682427  0.86078516  1
  Ta  Ta116  1  0.90671534  0.71316097  0.89091508  1
  Ta  Ta117  1  0.40519457  0.81469877  0.02353444  1
  Ta  Ta118  1  -0.00697266  0.79922613  0.74909213  1
  Ta  Ta119  1  0.00512362  0.60307249  0.24417638  1
  Ti  Ti120  1  0.30470723  0.29430572  0.87520864  1
  Ti  Ti121  1  0.79331846  0.60599882  0.48100936  1
  Ti  Ti122  1  0.19988953  0.39804572  -0.00312606  1
  Ti  Ti123  1  0.30973455  0.10245749  0.35965954  1
  Ti  Ti124  1  0.58760913  -0.00569891  0.01271940  1
  Ti  Ti125  1  0.58729642  0.19644012  0.24495005  1
  Ti  Ti126  1  0.60116824  0.40783191  0.27426539  1
  Ti  Ti127  1  0.00340327  0.80715584  0.24158596  1
  Ti  Ti128  1  0.09652570  0.89280228  0.11766627  1
  Ti  Ti129  1  0.29838971  0.50298799  0.61603192  1
  Ti  Ti130  1  0.29979387  0.69786433  0.36574327  1
  Ti  Ti131  1  0.69866525  0.10651935  0.36093020  1
  Ti  Ti132  1  0.00978667  0.80047729  0.48870775  1
  Ti  Ti133  1  -0.00843628  0.40607891  0.48188898  1
  Ti  Ti134  1  0.49602191  0.51096293  0.60490333  1
  Ti  Ti135  1  0.00217500  -0.00273421  0.77016121  1
  Ti  Ti136  1  0.69130460  0.29900499  0.87200496  1
  Ti  Ti137  1  0.39488909  0.19208022  0.49998851  1
  Ti  Ti138  1  0.89320669  0.30738518  0.12742596  1
  Ti  Ti139  1  0.69309727  0.89710700  0.12564272  1
  Ti  Ti140  1  0.90442639  0.70226079  0.60662826  1
  Ti  Ti141  1  0.89303253  0.30648731  0.37142519  1
  Ti  Ti142  1  0.79873751  0.20380947  0.24058499  1
  Ti  Ti143  1  0.79944697  0.59490526  0.26731893  1
  Ti  Ti144  1  0.38773768  0.80280452  0.49418590  1
  Ti  Ti145  1  0.10280925  0.69818048  0.35897654  1
  Ti  Ti146  1  0.39977672  0.79947962  0.23859122  1
  Ti  Ti147  1  0.31005664  0.88108656  0.88427443  1
  Ti  Ti148  1  0.90189953  0.09879391  0.61591365  1
  Ti  Ti149  1  0.09942825  0.29528736  0.61550422  1
  Ti  Ti150  1  0.30138573  0.89821473  0.62418703  1
  Ti  Ti151  1  0.40350789  0.00548137  0.23740091  1
  Ti  Ti152  1  0.39451682  0.20288910  0.74463354  1
  Ti  Ti153  1  0.19355757  0.00041067  0.76802024  1
  Ti  Ti154  1  0.79937350  0.20952428  0.00724212  1
  Ti  Ti155  1  0.79725892  0.39959276  0.75842608  1
  Ti  Ti156  1  0.89367665  0.30048989  0.87911240  1
  Ti  Ti157  1  -0.00645609  -0.00659445  -0.00158913  1
  Ti  Ti158  1  0.90462555  0.70188246  0.13006859  1
  Ti  Ti159  1  0.49771963  0.29346204  0.62593907  1
  Mo  Mo160  1  0.50339299  0.89714033  0.88019903  1
  Mo  Mo161  1  -0.00781470  0.39976428  0.26101108  1
  Mo  Mo162  1  0.29998908  0.49496332  0.11953618  1
  Mo  Mo163  1  0.20046482  0.59715417  0.24074091  1
  Mo  Mo164  1  0.90242062  0.50283074  0.37049695  1
  Mo  Mo165  1  0.20094713  0.39974285  0.26438937  1
  Mo  Mo166  1  0.09622743  0.69942558  0.12615762  1
  Mo  Mo167  1  0.90075738  0.89199222  0.88271013  1
  Mo  Mo168  1  0.70206863  0.70262640  0.60617133  1
  Mo  Mo169  1  0.59947648  0.20358461  0.74904612  1
  Mo  Mo170  1  0.20737342  0.79810602  0.01537171  1
  Mo  Mo171  1  0.70592635  0.69988949  0.37329072  1
  Mo  Mo172  1  0.70582331  0.49746425  0.38241713  1
  Mo  Mo173  1  0.40165744  0.79305560  0.74014229  1
  Mo  Mo174  1  0.10016055  0.09148771  0.88055888  1
  Mo  Mo175  1  0.39757115  0.59566909  0.01874632  1
  Mo  Mo176  1  0.00490779  0.00108017  0.48904642  1
  Mo  Mo177  1  0.49515647  0.09685477  0.36333184  1
  Mo  Mo178  1  0.49936235  0.50022954  0.39194809  1
  Mo  Mo179  1  0.09796353  0.89808643  0.36286512  1
  Mo  Mo180  1  0.50500001  0.30216606  0.14777427  1
  Mo  Mo181  1  0.60031769  0.60033680  0.49647835  1
  Mo  Mo182  1  0.89935538  0.10615467  0.11259121  1
  Mo  Mo183  1  0.29736839  0.09820864  0.14628906  1
  Mo  Mo184  1  0.50559519  0.90137609  0.14698294  1
  Mo  Mo185  1  0.09901949  0.50388523  0.86488140  1
  Mo  Mo186  1  0.10398060  0.49675982  0.15108553  1
  Mo  Mo187  1  0.00518449  -0.00912637  0.25011122  1
  Mo  Mo188  1  0.50193250  0.09911028  0.13927085  1
  Mo  Mo189  1  0.79837225  0.39665218  0.48156888  1
  Mo  Mo190  1  -0.01339153  0.20557533  0.01774228  1
  Mo  Mo191  1  0.79976056  0.39740520  0.26647820  1
  Mo  Mo192  1  0.30420472  0.89749090  0.14192446  1
  Mo  Mo193  1  0.70021977  0.10632633  0.62052084  1
  Mo  Mo194  1  0.60286598  0.81222053  0.01721472  1
  Mo  Mo195  1  -0.00199535  0.79865846  0.02031900  1
  Mo  Mo196  1  0.39793154  0.19392575  0.24489572  1
  Mo  Mo197  1  0.39222132  0.60062345  0.51401878  1
  Mo  Mo198  1  0.91199334  0.90294430  0.12502133  1
  Mo  Mo199  1  0.60463356  0.39382020  -0.01757486  1
