# generated using pymatgen
data_HfZrTaTiMo
_symmetry_space_group_name_H-M   'P 1'
_cell_length_a   15.92053064
_cell_length_b   15.92177654
_cell_length_c   15.19957569
_cell_angle_alpha   90.07795397
_cell_angle_beta   89.97830955
_cell_angle_gamma   90.02321115
_symmetry_Int_Tables_number   1
_chemical_formula_structural   HfZrTaTiMo
_chemical_formula_sum   'Hf40 Zr40 Ta40 Ti40 Mo40'
_cell_volume   3852.83188194
_cell_formula_units_Z   40
loop_
 _symmetry_equiv_pos_site_id
 _symmetry_equiv_pos_as_xyz
  1  'x, y, z'
loop_
 _atom_site_type_symbol
 _atom_site_label
 _atom_site_symmetry_multiplicity
 _atom_site_fract_x
 _atom_site_fract_y
 _atom_site_fract_z
 _atom_site_occupancy
  Hf  Hf0  1  0.59691136  0.39931008  0.75459734  1
  Hf  Hf1  1  0.78906332  0.78637140  0.51318008  1
  Hf  Hf2  1  0.39554735  0.80283745  0.00845828  1
  Hf  Hf3  1  0.89904833  0.70382580  0.87492680  1
  Hf  Hf4  1  0.60590905  0.79468787  0.00309579  1
  Hf  Hf5  1  0.71214939  0.49427200  0.63752938  1
  Hf  Hf6  1  0.01652940  0.78736029  0.74978420  1
  Hf  Hf7  1  0.50119875  0.90635634  0.12408475  1
  Hf  Hf8  1  0.90182746  0.11234295  0.36892854  1
  Hf  Hf9  1  0.39354782  0.19760832  -0.00636798  1
  Hf  Hf10  1  0.70415073  0.89539899  0.86488747  1
  Hf  Hf11  1  0.29583080  0.90375220  0.88007543  1
  Hf  Hf12  1  0.79964549  0.00585467  0.74256650  1
  Hf  Hf13  1  0.90174911  0.89689014  0.86641407  1
  Hf  Hf14  1  0.17863110  0.20597014  0.26395587  1
  Hf  Hf15  1  0.70327432  0.68945250  0.35633486  1
  Hf  Hf16  1  0.10218611  0.90283089  0.61392889  1
  Hf  Hf17  1  0.21773426  0.40361387  0.00981205  1
  Hf  Hf18  1  0.79039842  0.38794131  -0.00612358  1
  Hf  Hf19  1  0.88753439  0.49944143  0.13117817  1
  Hf  Hf20  1  0.00861133  0.00685290  0.25353544  1
  Hf  Hf21  1  0.59404169  0.38884428  0.52119032  1
  Hf  Hf22  1  0.67934996  0.29942878  0.37906796  1
  Hf  Hf23  1  0.40948794  0.01336817  0.75168051  1
  Hf  Hf24  1  0.19869615  0.79897314  0.49184123  1
  Hf  Hf25  1  0.30089876  0.10216709  0.14413893  1
  Hf  Hf26  1  0.59354825  0.20285178  0.23960339  1
  Hf  Hf27  1  0.19880562  0.39861466  0.24707839  1
  Hf  Hf28  1  0.19052393  0.21155813  0.49943568  1
  Hf  Hf29  1  0.30830756  0.90218044  0.38166199  1
  Hf  Hf30  1  0.59742368  0.59820341  0.75966712  1
  Hf  Hf31  1  0.30408747  0.49915766  0.38293484  1
  Hf  Hf32  1  0.90222876  0.69921451  0.36137263  1
  Hf  Hf33  1  0.60849658  0.61088208  0.51851247  1
  Hf  Hf34  1  0.80566261  0.59170302  0.49752612  1
  Hf  Hf35  1  0.00913863  0.80763333  0.01283533  1
  Hf  Hf36  1  0.89916293  0.31209220  0.63657543  1
  Hf  Hf37  1  0.29861865  0.30306610  0.84805481  1
  Hf  Hf38  1  0.59522297  0.78732674  0.74286468  1
  Hf  Hf39  1  0.20476917  0.00741629  0.74409292  1
  Zr  Zr40  1  0.30973332  0.70002243  0.37301278  1
  Zr  Zr41  1  0.00388531  0.00719513  0.49385428  1
  Zr  Zr42  1  0.50356021  0.90292008  0.87888523  1
  Zr  Zr43  1  0.39352189  0.60282165  0.75452311  1
  Zr  Zr44  1  0.10607945  0.10690762  0.87772776  1
  Zr  Zr45  1  0.71006235  0.09660211  0.12764812  1
  Zr  Zr46  1  0.39969841  0.79594807  0.74836955  1
  Zr  Zr47  1  0.49596540  0.09589417  0.12248923  1
  Zr  Zr48  1  0.79753478  -0.00186488  0.50781741  1
  Zr  Zr49  1  0.89613931  0.89392165  0.37393197  1
  Zr  Zr50  1  0.30496435  0.69142021  0.12703993  1
  Zr  Zr51  1  0.00469187  0.00709987  0.00260450  1
  Zr  Zr52  1  0.79352872  0.20222454  0.51099627  1
  Zr  Zr53  1  0.18236972  0.39975865  0.72632795  1
  Zr  Zr54  1  0.61230173  0.20493473  0.00358111  1
  Zr  Zr55  1  -0.01150517  0.39229885  -0.00003220  1
  Zr  Zr56  1  0.90323660  0.68804353  0.63838118  1
  Zr  Zr57  1  0.51065941  0.48879679  0.38405813  1
  Zr  Zr58  1  0.80027130  0.40202849  0.48978316  1
  Zr  Zr59  1  0.80035289  0.01055145  -0.01058378  1
  Zr  Zr60  1  0.30804953  0.30287910  0.38009986  1
  Zr  Zr61  1  0.89604692  0.69476821  0.12717547  1
  Zr  Zr62  1  0.68195836  0.88499499  0.37344287  1
  Zr  Zr63  1  0.90482236  0.49721317  0.34825210  1
  Zr  Zr64  1  0.00368627  0.60621751  -0.00396651  1
  Zr  Zr65  1  0.00465618  0.00448800  0.74935674  1
  Zr  Zr66  1  0.28937799  0.50503543  0.61101917  1
  Zr  Zr67  1  0.10892155  0.49947939  0.88554004  1
  Zr  Zr68  1  0.19530546  0.60744234  0.75940782  1
  Zr  Zr69  1  0.89439096  0.91266689  0.12933806  1
  Zr  Zr70  1  0.30972024  0.91081695  0.60609270  1
  Zr  Zr71  1  0.10396383  0.50446740  0.12035255  1
  Zr  Zr72  1  0.60913588  0.57779050  0.23491848  1
  Zr  Zr73  1  0.69545649  0.09900723  0.37849851  1
  Zr  Zr74  1  0.51440377  0.70971360  0.36506169  1
  Zr  Zr75  1  0.20546378  0.79707325  0.74431644  1
  Zr  Zr76  1  0.49555971  0.29063514  0.86681974  1
  Zr  Zr77  1  0.50020343  0.11720195  0.39758905  1
  Zr  Zr78  1  0.20187183  0.60106929  0.25161441  1
  Zr  Zr79  1  0.10067558  0.29558941  0.87616847  1
  Ta  Ta80  1  0.30502902  0.10962354  0.60910175  1
  Ta  Ta81  1  0.69359274  0.10403127  0.86393869  1
  Ta  Ta82  1  0.19806901  0.80785579  0.24499965  1
  Ta  Ta83  1  0.00783388  0.20892590  0.73749119  1
  Ta  Ta84  1  0.00168924  0.59091446  0.49334901  1
  Ta  Ta85  1  0.30202161  0.69906463  0.60343321  1
  Ta  Ta86  1  0.69507196  0.90043984  0.13035412  1
  Ta  Ta87  1  0.59714906  0.39292745  0.22932173  1
  Ta  Ta88  1  0.01295384  0.80264313  0.23922070  1
  Ta  Ta89  1  0.60237172  0.58915517  -0.00602160  1
  Ta  Ta90  1  0.49016504  0.49124618  0.87956457  1
  Ta  Ta91  1  0.79867737  0.59286709  0.76903209  1
  Ta  Ta92  1  0.19635440  0.80503563  0.01963422  1
  Ta  Ta93  1  0.90521055  0.10575711  0.62583945  1
  Ta  Ta94  1  0.30370533  0.91155066  0.13744688  1
  Ta  Ta95  1  0.40952744  0.80712495  0.24622317  1
  Ta  Ta96  1  0.69788826  0.89440143  0.63299230  1
  Ta  Ta97  1  0.77609138  0.40436291  0.24791471  1
  Ta  Ta98  1  0.80278960  0.19861974  0.75072594  1
  Ta  Ta99  1  0.41063415  0.60133043  0.50176021  1
  Ta  Ta100  1  0.50276291  0.69192945  0.12069734  1
  Ta  Ta101  1  0.19845441  0.00445125  0.26487154  1
  Ta  Ta102  1  0.90048716  0.89319756  0.63039963  1
  Ta  Ta103  1  0.20544865  0.00458328  0.01016232  1
  Ta  Ta104  1  0.29972554  0.10146291  0.39049864  1
  Ta  Ta105  1  -0.00328047  0.79234428  0.50381521  1
  Ta  Ta106  1  0.49362539  0.30245126  0.11515677  1
  Ta  Ta107  1  0.70408652  0.68886347  0.12182648  1
  Ta  Ta108  1  0.09664584  0.70045168  0.37617680  1
  Ta  Ta109  1  0.20337390  0.20400621  0.01327029  1
  Ta  Ta110  1  0.49239889  0.49861551  0.63131118  1
  Ta  Ta111  1  0.49341254  0.69236228  0.89612822  1
  Ta  Ta112  1  0.90218168  0.30129361  0.35808718  1
  Ta  Ta113  1  0.10682733  0.68248162  0.60553916  1
  Ta  Ta114  1  0.09913801  0.10729036  0.12684737  1
  Ta  Ta115  1  0.59935583  -0.00284516  0.51302013  1
  Ta  Ta116  1  0.40558703  0.00319888  0.27215595  1
  Ta  Ta117  1  0.30571712  0.29799133  0.13844766  1
  Ta  Ta118  1  0.79571295  0.79864664  0.23732873  1
  Ta  Ta119  1  0.69975074  0.29266425  0.86368504  1
  Ti  Ti120  1  0.59267946  -0.00447789  0.26115857  1
  Ti  Ti121  1  0.79538551  -0.00135464  0.25839614  1
  Ti  Ti122  1  0.10761653  0.89811058  0.87809365  1
  Ti  Ti123  1  0.01102583  0.38087683  0.23754345  1
  Ti  Ti124  1  0.88808126  0.29395073  0.13565521  1
  Ti  Ti125  1  -0.00219488  0.40164643  0.49692688  1
  Ti  Ti126  1  0.89779289  0.11180060  0.13333017  1
  Ti  Ti127  1  -0.00123585  0.21161947  0.50041405  1
  Ti  Ti128  1  0.79920550  0.80075991  0.00889362  1
  Ti  Ti129  1  0.90370354  0.11551025  0.87022622  1
  Ti  Ti130  1  0.10354868  0.10560494  0.61744492  1
  Ti  Ti131  1  0.59212804  0.18638107  0.74208744  1
  Ti  Ti132  1  0.09994727  0.90027757  0.37907109  1
  Ti  Ti133  1  0.49585906  0.10342799  0.61158928  1
  Ti  Ti134  1  0.49760501  0.49486765  0.10611384  1
  Ti  Ti135  1  0.70287626  0.70084756  0.87647232  1
  Ti  Ti136  1  0.39644332  0.00971557  -0.01073719  1
  Ti  Ti137  1  0.39970682  0.39141739  0.51342358  1
  Ti  Ti138  1  0.42095896  0.79845477  0.49793166  1
  Ti  Ti139  1  0.39636311  0.39695762  -0.00070680  1
  Ti  Ti140  1  0.38644315  0.58371969  -0.00397975  1
  Ti  Ti141  1  0.40932744  0.40125242  0.24575895  1
  Ti  Ti142  1  0.29669133  0.11295029  0.86338389  1
  Ti  Ti143  1  0.50212008  0.89948386  0.61741083  1
  Ti  Ti144  1  0.79457477  0.58683100  -0.01762444  1
  Ti  Ti145  1  0.18303349  0.40192844  0.50263109  1
  Ti  Ti146  1  0.00751002  0.58930063  0.76098910  1
  Ti  Ti147  1  0.69823699  0.29245507  0.64175701  1
  Ti  Ti148  1  -0.00884812  0.20552812  0.00939200  1
  Ti  Ti149  1  0.59792003  0.00383052  0.73960409  1
  Ti  Ti150  1  0.60142235  0.00519737  -0.00823078  1
  Ti  Ti151  1  0.80650688  0.40239745  0.77455890  1
  Ti  Ti152  1  0.09774130  0.49817006  0.37327861  1
  Ti  Ti153  1  0.29146866  0.69861266  0.89370258  1
  Ti  Ti154  1  0.91037200  0.49754445  0.64190109  1
  Ti  Ti155  1  0.79084756  0.20894622  0.25307423  1
  Ti  Ti156  1  0.01007954  0.60522402  0.24277609  1
  Ti  Ti157  1  0.48184526  0.29284945  0.64185212  1
  Ti  Ti158  1  0.40971192  0.59034982  0.24805777  1
  Ti  Ti159  1  0.40435475  0.20599107  0.25939597  1
  Mo  Mo160  1  0.50402765  0.09772322  0.87529091  1
  Mo  Mo161  1  0.90178676  0.29405350  0.86119767  1
  Mo  Mo162  1  0.69662340  0.49406042  0.10183741  1
  Mo  Mo163  1  0.70202743  0.29881487  0.12718852  1
  Mo  Mo164  1  0.79788258  0.59267598  0.24984511  1
  Mo  Mo165  1  0.90166244  0.49863556  0.87089809  1
  Mo  Mo166  1  0.10491227  0.70609507  0.12732468  1
  Mo  Mo167  1  0.29663837  0.30137957  0.62325289  1
  Mo  Mo168  1  0.70498424  0.69502441  0.64646735  1
  Mo  Mo169  1  0.69378429  0.09879193  0.63796664  1
  Mo  Mo170  1  0.19838079  0.19927478  0.72195778  1
  Mo  Mo171  1  -0.00734182  0.20585473  0.23738130  1
  Mo  Mo172  1  0.49671539  0.30477655  0.37357420  1
  Mo  Mo173  1  0.40711894  0.00270776  0.49654368  1
  Mo  Mo174  1  0.50373290  0.90240357  0.38005117  1
  Mo  Mo175  1  0.49599628  0.69799075  0.61865012  1
  Mo  Mo176  1  0.19779182  0.00817461  0.48665918  1
  Mo  Mo177  1  0.69541244  0.49477163  0.87860508  1
  Mo  Mo178  1  0.81105431  0.20277176  -0.01918392  1
  Mo  Mo179  1  0.10788681  0.70862257  0.89537913  1
  Mo  Mo180  1  0.11070751  0.91240009  0.13408668  1
  Mo  Mo181  1  0.31773486  0.49301357  0.13902599  1
  Mo  Mo182  1  0.09749379  0.10703484  0.37823599  1
  Mo  Mo183  1  0.60013333  0.80026932  0.52151529  1
  Mo  Mo184  1  0.79969842  0.79459757  0.74283717  1
  Mo  Mo185  1  0.39603640  0.40367053  0.73766035  1
  Mo  Mo186  1  0.39512838  0.19379654  0.73798170  1
  Mo  Mo187  1  0.20918346  0.60397803  -0.00202861  1
  Mo  Mo188  1  0.30719921  0.49464394  0.86749558  1
  Mo  Mo189  1  0.59379877  0.39801847  0.00015255  1
  Mo  Mo190  1  0.08349231  0.31128199  0.38628925  1
  Mo  Mo191  1  0.59973770  0.79489929  0.22548616  1
  Mo  Mo192  1  0.10106953  0.29504979  0.11067724  1
  Mo  Mo193  1  0.39992206  0.21067079  0.51264133  1
  Mo  Mo194  1  0.19745706  0.59666894  0.48249789  1
  Mo  Mo195  1  -0.00625676  0.40535061  0.75803851  1
  Mo  Mo196  1  0.69771549  0.49200955  0.38433446  1
  Mo  Mo197  1  0.59781848  0.20390909  0.53010333  1
  Mo  Mo198  1  0.08806056  0.30409957  0.61216424  1
  Mo  Mo199  1  0.08502726  0.50403101  0.61472237  1
