# generated using pymatgen
data_HfZrTaTiMo
_symmetry_space_group_name_H-M   'P 1'
_cell_length_a   15.92284391
_cell_length_b   15.93566481
_cell_length_c   15.19922887
_cell_angle_alpha   89.91931670
_cell_angle_beta   89.94605389
_cell_angle_gamma   90.07393744
_symmetry_Int_Tables_number   1
_chemical_formula_structural   HfZrTaTiMo
_chemical_formula_sum   'Hf40 Zr40 Ta40 Ti40 Mo40'
_cell_volume   3856.66035308
_cell_formula_units_Z   40
loop_
 _symmetry_equiv_pos_site_id
 _symmetry_equiv_pos_as_xyz
  1  'x, y, z'
loop_
 _atom_site_type_symbol
 _atom_site_label
 _atom_site_symmetry_multiplicity
 _atom_site_fract_x
 _atom_site_fract_y
 _atom_site_fract_z
 _atom_site_occupancy
  Hf  Hf0  1  0.50221236  0.89578399  0.12794704  1
  Hf  Hf1  1  0.08972502  0.72297894  0.63630374  1
  Hf  Hf2  1  0.88986758  0.50673746  0.12608377  1
  Hf  Hf3  1  0.79236511  0.20983140  0.51004002  1
  Hf  Hf4  1  0.51120132  0.70780649  0.62579235  1
  Hf  Hf5  1  0.10678377  0.10450735  0.61626083  1
  Hf  Hf6  1  0.10624586  0.09439270  0.36915576  1
  Hf  Hf7  1  0.79802180  0.20122502  0.73463110  1
  Hf  Hf8  1  0.30260946  0.30504358  0.13717594  1
  Hf  Hf9  1  0.51465777  0.50487108  0.39136882  1
  Hf  Hf10  1  0.61233181  0.00891323  0.24540593  1
  Hf  Hf11  1  -0.00753924  0.40896704  0.25295400  1
  Hf  Hf12  1  0.09829654  0.29496918  0.13225472  1
  Hf  Hf13  1  -0.00717988  0.39726074  0.76265727  1
  Hf  Hf14  1  0.30490785  0.10700190  0.87503603  1
  Hf  Hf15  1  0.40005871  0.60626770  0.73611793  1
  Hf  Hf16  1  0.69876359  0.29469796  0.87800580  1
  Hf  Hf17  1  0.59510805  0.20162517  0.51918844  1
  Hf  Hf18  1  0.79591681  0.57666464  0.49445359  1
  Hf  Hf19  1  0.19408573  0.79738846  0.00256336  1
  Hf  Hf20  1  0.89505333  0.09089041  0.12143786  1
  Hf  Hf21  1  0.39085562  0.59912434  0.51230919  1
  Hf  Hf22  1  0.89787916  0.07866103  0.61180341  1
  Hf  Hf23  1  0.40089286  -0.00144437  -0.00260232  1
  Hf  Hf24  1  0.20367110  0.40668277  0.48904432  1
  Hf  Hf25  1  0.00547979  0.79269988  0.22467068  1
  Hf  Hf26  1  0.70824533  0.69256756  0.10845329  1
  Hf  Hf27  1  0.17916067  0.82296062  0.49613663  1
  Hf  Hf28  1  0.00254221  0.60315984  -0.00661837  1
  Hf  Hf29  1  0.39516110  0.39524470  -0.01140556  1
  Hf  Hf30  1  0.39546101  0.79601644  0.25181244  1
  Hf  Hf31  1  0.29756884  0.91260868  0.36722805  1
  Hf  Hf32  1  0.19451729  0.59820352  -0.00918320  1
  Hf  Hf33  1  -0.00710221  0.60421721  0.50431425  1
  Hf  Hf34  1  0.49925839  0.28943840  0.86863331  1
  Hf  Hf35  1  0.01755951  -0.02834592  0.49479231  1
  Hf  Hf36  1  0.30192773  0.49306391  0.85451846  1
  Hf  Hf37  1  0.50772502  0.49599198  0.85369644  1
  Hf  Hf38  1  0.39034869  0.59987191  0.26167477  1
  Hf  Hf39  1  0.41943137  0.00743823  0.75431186  1
  Zr  Zr40  1  0.19425243  0.00972983  0.75203609  1
  Zr  Zr41  1  0.90398946  0.09483370  0.89753757  1
  Zr  Zr42  1  0.39572284  0.80923954  0.50601179  1
  Zr  Zr43  1  0.80755462  -0.00287880  0.76164359  1
  Zr  Zr44  1  0.09776559  0.28990729  0.36674373  1
  Zr  Zr45  1  0.28999293  0.89860879  0.64359830  1
  Zr  Zr46  1  0.72101134  0.90158671  0.11451040  1
  Zr  Zr47  1  0.70182395  0.69342177  0.63558658  1
  Zr  Zr48  1  0.50371144  0.30770191  0.13295829  1
  Zr  Zr49  1  0.60825667  0.79620595  0.24672511  1
  Zr  Zr50  1  0.61327495  0.81978465  0.49698773  1
  Zr  Zr51  1  0.90445703  0.89006775  0.35850711  1
  Zr  Zr52  1  0.19669097  0.61465399  0.24208678  1
  Zr  Zr53  1  0.59718630  0.18369337  0.73734893  1
  Zr  Zr54  1  0.09019539  0.91174834  0.88314114  1
  Zr  Zr55  1  0.10023064  0.30771015  0.61671358  1
  Zr  Zr56  1  0.79320671  0.40318532  0.00226833  1
  Zr  Zr57  1  0.18878203  0.60529337  0.75138288  1
  Zr  Zr58  1  0.89520502  0.69435654  0.63666346  1
  Zr  Zr59  1  0.50411531  0.29788457  0.37040971  1
  Zr  Zr60  1  0.62291805  0.39858373  0.51234260  1
  Zr  Zr61  1  0.09753671  0.52030406  0.37595756  1
  Zr  Zr62  1  0.20947467  0.41221369  0.26419591  1
  Zr  Zr63  1  0.89548504  0.09325950  0.36763692  1
  Zr  Zr64  1  0.19752260  0.40219031  -0.00984965  1
  Zr  Zr65  1  0.59436374  -0.00141101  -0.00802290  1
  Zr  Zr66  1  0.40727001  0.00403261  0.51290907  1
  Zr  Zr67  1  0.50011084  0.10298754  0.37408839  1
  Zr  Zr68  1  -0.00935216  0.20453648  0.50071203  1
  Zr  Zr69  1  -0.01826872  0.40743283  0.49224218  1
  Zr  Zr70  1  0.00115783  0.40696886  -0.00293181  1
  Zr  Zr71  1  0.30222973  0.71401296  0.86274461  1
  Zr  Zr72  1  0.60144646  0.59675199  0.24447130  1
  Zr  Zr73  1  0.09100151  0.10683056  0.89191582  1
  Zr  Zr74  1  0.49467333  0.49813850  0.12775577  1
  Zr  Zr75  1  0.40170224  0.39046571  0.50696149  1
  Zr  Zr76  1  0.50138640  0.70311451  0.39049123  1
  Zr  Zr77  1  0.70306205  0.69230574  0.38347302  1
  Zr  Zr78  1  0.40029079  0.60225697  -0.00988548  1
  Zr  Zr79  1  -0.00666681  0.19823251  0.74120783  1
  Ta  Ta80  1  0.39529301  0.40935069  0.27563512  1
  Ta  Ta81  1  0.19464734  0.60961226  0.51504900  1
  Ta  Ta82  1  0.71275283  0.89484902  0.63841620  1
  Ta  Ta83  1  0.60875635  0.20064988  0.23557583  1
  Ta  Ta84  1  0.69174151  0.07176596  0.61232249  1
  Ta  Ta85  1  0.50340402  0.90818287  0.36418513  1
  Ta  Ta86  1  0.20122222  0.21043877  0.76033149  1
  Ta  Ta87  1  0.70504541  0.89540436  0.88181984  1
  Ta  Ta88  1  0.39783435  0.00675164  0.23834437  1
  Ta  Ta89  1  0.80522725  0.80077894  0.76677111  1
  Ta  Ta90  1  0.00511326  -0.00428946  0.23751942  1
  Ta  Ta91  1  0.59785272  0.79297434  -0.01098803  1
  Ta  Ta92  1  0.40217482  0.20115382  0.00121943  1
  Ta  Ta93  1  0.70298014  0.10652533  0.89370043  1
  Ta  Ta94  1  0.28394628  0.70424854  0.38681361  1
  Ta  Ta95  1  0.40000655  0.19756398  0.73325158  1
  Ta  Ta96  1  -0.00787005  0.61141946  0.23887019  1
  Ta  Ta97  1  0.89158531  0.29103805  0.35135990  1
  Ta  Ta98  1  0.39011807  0.19262972  0.51759450  1
  Ta  Ta99  1  0.81229626  0.79894292  0.50139474  1
  Ta  Ta100  1  0.20399191  0.00419995  0.01007846  1
  Ta  Ta101  1  -0.00907008  0.79873890  0.00762841  1
  Ta  Ta102  1  0.49960742  0.69906091  0.11326107  1
  Ta  Ta103  1  0.19797458  0.80374413  0.24231904  1
  Ta  Ta104  1  0.20858626  0.20668253  -0.00160924  1
  Ta  Ta105  1  0.09212646  0.50439199  0.63112640  1
  Ta  Ta106  1  0.50167872  0.10600155  0.12029988  1
  Ta  Ta107  1  0.50909705  0.49970668  0.63071232  1
  Ta  Ta108  1  0.29929110  0.90347966  0.87358923  1
  Ta  Ta109  1  0.28962607  0.49389125  0.62941738  1
  Ta  Ta110  1  0.89740738  0.29175478  0.12771947  1
  Ta  Ta111  1  0.21316141  0.01396102  0.50172709  1
  Ta  Ta112  1  0.78793454  0.39728568  0.24827351  1
  Ta  Ta113  1  0.69786970  0.69400628  0.86940549  1
  Ta  Ta114  1  0.60246220  0.59275505  -0.00936961  1
  Ta  Ta115  1  0.69922753  0.49871443  0.85800399  1
  Ta  Ta116  1  -0.00530148  0.59892511  0.76923746  1
  Ta  Ta117  1  -0.00647096  0.80607116  0.77550804  1
  Ta  Ta118  1  0.89740498  0.28729456  0.89544985  1
  Ta  Ta119  1  0.78897428  0.19302182  0.23743232  1
  Ti  Ti120  1  0.28756476  0.29274608  0.62347872  1
  Ti  Ti121  1  0.30163716  0.10486815  0.12047923  1
  Ti  Ti122  1  0.69707507  0.29504938  0.36376706  1
  Ti  Ti123  1  0.90983316  0.88667866  0.62684503  1
  Ti  Ti124  1  0.52802848  0.91596839  0.62814283  1
  Ti  Ti125  1  0.19090833  0.39501147  0.75457554  1
  Ti  Ti126  1  0.41226396  0.81191162  0.75031273  1
  Ti  Ti127  1  0.40681294  0.80355491  -0.00890388  1
  Ti  Ti128  1  0.20700169  0.18980202  0.24937414  1
  Ti  Ti129  1  0.90136480  0.69626693  0.37426036  1
  Ti  Ti130  1  0.30546911  0.70250259  0.11628434  1
  Ti  Ti131  1  0.80404024  0.39466540  0.48428429  1
  Ti  Ti132  1  0.79943577  0.59532674  -0.01507195  1
  Ti  Ti133  1  0.89383965  0.70100267  0.88200815  1
  Ti  Ti134  1  0.81226319  0.78708094  0.23537778  1
  Ti  Ti135  1  0.80002379  0.59611754  0.25618814  1
  Ti  Ti136  1  0.10239547  0.90523701  0.11926742  1
  Ti  Ti137  1  0.70221560  0.09912753  0.38239652  1
  Ti  Ti138  1  0.71225737  0.89985319  0.35852296  1
  Ti  Ti139  1  0.09766128  0.10622864  0.12046354  1
  Ti  Ti140  1  0.10235189  0.50401343  0.13152034  1
  Ti  Ti141  1  0.39956889  0.19596465  0.24707536  1
  Ti  Ti142  1  0.30177289  0.50079323  0.12224972  1
  Ti  Ti143  1  0.69061314  0.49213907  0.12837629  1
  Ti  Ti144  1  0.70339142  0.10311540  0.10501701  1
  Ti  Ti145  1  0.70833676  0.49827469  0.65177919  1
  Ti  Ti146  1  0.59852885  0.40026196  -0.00409172  1
  Ti  Ti147  1  0.30139557  0.28305745  0.37680347  1
  Ti  Ti148  1  0.79467283  -0.01808008  0.49276013  1
  Ti  Ti149  1  0.09011259  0.71637048  0.37932659  1
  Ti  Ti150  1  0.28910348  0.71279266  0.63136777  1
  Ti  Ti151  1  0.60335071  0.38547374  0.73730476  1
  Ti  Ti152  1  0.88965855  0.49302545  0.64517819  1
  Ti  Ti153  1  0.60165873  0.80854663  0.76281083  1
  Ti  Ti154  1  0.09472518  0.29471310  0.88463055  1
  Ti  Ti155  1  0.60526012  -0.00040047  0.77066168  1
  Ti  Ti156  1  0.30228794  0.89793938  0.12050825  1
  Ti  Ti157  1  0.39660954  0.38637566  0.73512308  1
  Ti  Ti158  1  0.20368020  0.00228486  0.23428430  1
  Ti  Ti159  1  0.50580820  0.69908339  0.86778552  1
  Mo  Mo160  1  0.60319563  0.39845973  0.25974487  1
  Mo  Mo161  1  0.61225278  -0.00278507  0.48225113  1
  Mo  Mo162  1  0.10267489  0.70025102  0.11377391  1
  Mo  Mo163  1  0.19333183  0.80605003  0.76789639  1
  Mo  Mo164  1  0.79701382  0.20255936  0.01446183  1
  Mo  Mo165  1  0.60695891  0.59126934  0.52496554  1
  Mo  Mo166  1  0.89829916  0.89830902  0.89663601  1
  Mo  Mo167  1  0.50397251  0.10473466  0.89040679  1
  Mo  Mo168  1  0.69736930  0.30216137  0.12276428  1
  Mo  Mo169  1  0.80035767  0.79304146  -0.01394724  1
  Mo  Mo170  1  0.50055726  0.89040816  0.87118430  1
  Mo  Mo171  1  0.89163432  0.31434050  0.62378825  1
  Mo  Mo172  1  0.80477460  0.59671904  0.76773961  1
  Mo  Mo173  1  0.49705714  0.30118229  0.63258856  1
  Mo  Mo174  1  0.89263886  0.50246687  0.35487195  1
  Mo  Mo175  1  0.00350168  -0.00444945  0.02697535  1
  Mo  Mo176  1  -0.00528827  -0.00567425  0.73757693  1
  Mo  Mo177  1  0.89233485  0.69575043  0.11119996  1
  Mo  Mo178  1  0.09903588  0.49830476  0.85797700  1
  Mo  Mo179  1  -0.00539438  0.79493939  0.49362523  1
  Mo  Mo180  1  0.30000502  0.29670887  0.86215778  1
  Mo  Mo181  1  0.79991851  -0.00339551  -0.01015008  1
  Mo  Mo182  1  -0.00393980  0.19578318  0.24035757  1
  Mo  Mo183  1  0.30100688  0.51198765  0.39837865  1
  Mo  Mo184  1  0.89351903  0.49830914  0.87472146  1
  Mo  Mo185  1  0.70806245  0.30987953  0.63727963  1
  Mo  Mo186  1  0.79805426  0.00235638  0.25675941  1
  Mo  Mo187  1  0.70058604  0.49001206  0.36440829  1
  Mo  Mo188  1  0.90034224  0.89779383  0.12069735  1
  Mo  Mo189  1  0.50527117  0.09447565  0.61726751  1
  Mo  Mo190  1  0.60062361  0.59865488  0.75064868  1
  Mo  Mo191  1  0.00429619  0.20429757  0.01892364  1
  Mo  Mo192  1  0.08878493  0.90591279  0.64354558  1
  Mo  Mo193  1  0.59925182  0.20425303  0.01199207  1
  Mo  Mo194  1  0.30197074  0.10254122  0.35921576  1
  Mo  Mo195  1  0.09233515  0.70667043  0.87502216  1
  Mo  Mo196  1  0.10733478  0.90346805  0.34689666  1
  Mo  Mo197  1  0.29793697  0.10592252  0.63882464  1
  Mo  Mo198  1  0.80411227  0.39422295  0.76552979  1
  Mo  Mo199  1  0.21071647  0.19775615  0.48942038  1
