# generated using pymatgen
data_HfZrTaTiMo
_symmetry_space_group_name_H-M   'P 1'
_cell_length_a   15.92577149
_cell_length_b   15.93250170
_cell_length_c   15.22934853
_cell_angle_alpha   90.00598062
_cell_angle_beta   90.01826186
_cell_angle_gamma   89.89861754
_symmetry_Int_Tables_number   1
_chemical_formula_structural   HfZrTaTiMo
_chemical_formula_sum   'Hf40 Zr40 Ta40 Ti40 Mo40'
_cell_volume   3864.24874818
_cell_formula_units_Z   40
loop_
 _symmetry_equiv_pos_site_id
 _symmetry_equiv_pos_as_xyz
  1  'x, y, z'
loop_
 _atom_site_type_symbol
 _atom_site_label
 _atom_site_symmetry_multiplicity
 _atom_site_fract_x
 _atom_site_fract_y
 _atom_site_fract_z
 _atom_site_occupancy
  Hf  Hf0  1  0.20493588  0.22181148  0.00651741  1
  Hf  Hf1  1  0.60951654  0.60266482  0.50871971  1
  Hf  Hf2  1  0.09583098  0.34128721  0.11094021  1
  Hf  Hf3  1  -0.00231252  0.21662669  0.24582616  1
  Hf  Hf4  1  0.30799588  0.50694446  0.86290882  1
  Hf  Hf5  1  0.50493939  0.68444725  0.85765598  1
  Hf  Hf6  1  0.59229954  0.21797754  0.75891158  1
  Hf  Hf7  1  0.59077711  0.20038339  0.00343666  1
  Hf  Hf8  1  0.39210421  0.18978804  0.50552690  1
  Hf  Hf9  1  0.69844137  0.88703572  0.11761640  1
  Hf  Hf10  1  0.30371194  0.90160747  0.62451554  1
  Hf  Hf11  1  0.50817326  0.30941891  0.61953896  1
  Hf  Hf12  1  0.18906989  0.40485014  0.74856714  1
  Hf  Hf13  1  0.31161755  0.49945222  0.63684272  1
  Hf  Hf14  1  0.28686779  0.09302471  0.36040480  1
  Hf  Hf15  1  0.81104570  0.38667716  -0.00219515  1
  Hf  Hf16  1  0.69243607  0.50530486  0.85997912  1
  Hf  Hf17  1  0.59441217  0.19508457  0.49754883  1
  Hf  Hf18  1  0.10090827  0.10345334  0.89576207  1
  Hf  Hf19  1  0.90091541  0.49677334  0.86519196  1
  Hf  Hf20  1  0.10113400  0.50622383  0.88394841  1
  Hf  Hf21  1  0.49803250  0.89657795  0.87948406  1
  Hf  Hf22  1  0.50921934  0.69955512  0.37045158  1
  Hf  Hf23  1  0.09507441  0.10178569  0.12044805  1
  Hf  Hf24  1  0.41153372  0.80346736  0.24598436  1
  Hf  Hf25  1  0.00649515  0.59852883  0.50574082  1
  Hf  Hf26  1  -0.01902229  0.22417471  0.00461904  1
  Hf  Hf27  1  0.39779885  0.80100411  0.74779429  1
  Hf  Hf28  1  0.40482656  0.40467856  0.49113588  1
  Hf  Hf29  1  0.70344701  0.89425613  0.63169651  1
  Hf  Hf30  1  0.79721255  0.20575126  0.25170596  1
  Hf  Hf31  1  0.79442732  0.00293263  0.49424310  1
  Hf  Hf32  1  0.80204430  -0.00211980  0.24853618  1
  Hf  Hf33  1  0.78977757  0.19978113  0.50141791  1
  Hf  Hf34  1  0.00104595  0.00099762  0.76941036  1
  Hf  Hf35  1  0.90710136  0.90360107  0.62153455  1
  Hf  Hf36  1  0.59705108  0.41871025  0.00224803  1
  Hf  Hf37  1  0.69340058  0.88989845  0.87816568  1
  Hf  Hf38  1  0.07744812  0.29466898  0.63313997  1
  Hf  Hf39  1  0.69180699  0.69516005  0.13627645  1
  Zr  Zr40  1  0.78606069  0.59011863  0.01086587  1
  Zr  Zr41  1  0.69840162  0.10137374  0.11992516  1
  Zr  Zr42  1  0.00978467  0.81138399  0.25110805  1
  Zr  Zr43  1  0.91062657  0.91165042  0.37367254  1
  Zr  Zr44  1  0.89210201  0.30639061  0.62220957  1
  Zr  Zr45  1  0.49297314  0.51160485  0.14281492  1
  Zr  Zr46  1  0.91636156  0.10749425  0.62381390  1
  Zr  Zr47  1  0.00723183  0.58542628  0.25856108  1
  Zr  Zr48  1  0.31578714  0.68906497  0.12769337  1
  Zr  Zr49  1  0.30116743  0.90313123  0.88817385  1
  Zr  Zr50  1  0.80820487  0.40325377  0.25837412  1
  Zr  Zr51  1  0.58699383  -0.00899713  0.23694229  1
  Zr  Zr52  1  0.67858585  0.08890884  0.63840389  1
  Zr  Zr53  1  0.90239157  0.70763476  0.62840659  1
  Zr  Zr54  1  0.92184410  0.48325493  0.11643742  1
  Zr  Zr55  1  0.12139477  0.68997907  0.36225386  1
  Zr  Zr56  1  0.80562244  -0.00532398  0.76443866  1
  Zr  Zr57  1  0.50916810  0.91206017  0.63129985  1
  Zr  Zr58  1  0.79393923  0.19833753  0.75178537  1
  Zr  Zr59  1  0.49089376  0.09480767  0.36692415  1
  Zr  Zr60  1  0.28852101  0.29110856  0.37822836  1
  Zr  Zr61  1  0.30391704  0.29568443  0.63304282  1
  Zr  Zr62  1  0.49164979  0.09869087  0.86709100  1
  Zr  Zr63  1  0.79692865  0.79131434  0.49087318  1
  Zr  Zr64  1  0.30280372  0.10005407  0.88044964  1
  Zr  Zr65  1  0.89930494  0.70059868  0.12916835  1
  Zr  Zr66  1  0.38988072  0.39441397  0.25794378  1
  Zr  Zr67  1  0.19289098  0.19443203  0.74923276  1
  Zr  Zr68  1  0.49761698  0.30766547  0.12571434  1
  Zr  Zr69  1  0.09966918  0.09623445  0.35658730  1
  Zr  Zr70  1  0.20193072  0.79968104  0.50443748  1
  Zr  Zr71  1  0.10787055  0.70065658  0.12206595  1
  Zr  Zr72  1  0.29684990  0.70380870  0.87962766  1
  Zr  Zr73  1  0.90200280  0.69382626  0.87389958  1
  Zr  Zr74  1  0.80239482  -0.00250289  -0.01050419  1
  Zr  Zr75  1  0.39056044  -0.00724967  0.23251582  1
  Zr  Zr76  1  0.00876456  0.79998988  0.48814177  1
  Zr  Zr77  1  0.19478673  -0.00385788  0.74340204  1
  Zr  Zr78  1  0.18895524  0.40143134  0.50587348  1
  Zr  Zr79  1  0.29085871  0.51658287  0.37065851  1
  Ta  Ta80  1  0.40389192  0.60497560  0.50564113  1
  Ta  Ta81  1  0.50161585  0.69831433  0.62956988  1
  Ta  Ta82  1  0.20095970  0.60324323  0.52328427  1
  Ta  Ta83  1  0.90344436  0.89994613  0.12055373  1
  Ta  Ta84  1  0.21295314  0.80863134  0.24403240  1
  Ta  Ta85  1  0.49984821  0.88219290  0.09945133  1
  Ta  Ta86  1  0.39278651  0.40019924  -0.00670540  1
  Ta  Ta87  1  0.40598225  0.79613767  0.50368551  1
  Ta  Ta88  1  0.01073866  0.80371951  0.76400961  1
  Ta  Ta89  1  0.00844434  0.59723580  0.73667143  1
  Ta  Ta90  1  0.20029902  0.00742845  0.51125237  1
  Ta  Ta91  1  0.68864509  0.89296026  0.36905440  1
  Ta  Ta92  1  0.41744323  0.59438524  -0.00176954  1
  Ta  Ta93  1  0.78923727  0.39219163  0.75016463  1
  Ta  Ta94  1  0.69443276  0.09717559  0.36458314  1
  Ta  Ta95  1  0.69888966  0.48459917  0.62422877  1
  Ta  Ta96  1  0.90195846  0.10371237  0.37139573  1
  Ta  Ta97  1  0.70258883  0.30503580  0.12084267  1
  Ta  Ta98  1  0.19868584  0.22045714  0.23117719  1
  Ta  Ta99  1  -0.00160137  -0.00513606  0.00087980  1
  Ta  Ta100  1  0.69660605  0.30029832  0.88887691  1
  Ta  Ta101  1  -0.00464640  0.40465093  0.48704116  1
  Ta  Ta102  1  0.28883803  0.49047305  0.12272312  1
  Ta  Ta103  1  0.30236166  0.90045287  0.38264755  1
  Ta  Ta104  1  0.69983114  0.69211589  0.86188391  1
  Ta  Ta105  1  0.89775570  0.10286439  0.12114247  1
  Ta  Ta106  1  0.29876534  0.88929136  0.09950872  1
  Ta  Ta107  1  0.50407689  0.50492494  0.37171952  1
  Ta  Ta108  1  0.79889009  0.59726721  0.73084345  1
  Ta  Ta109  1  0.60870796  0.39986447  0.25828765  1
  Ta  Ta110  1  0.59554866  0.20395399  0.24681917  1
  Ta  Ta111  1  0.19359864  0.60908895  0.73680215  1
  Ta  Ta112  1  0.50621479  0.50029939  0.63732383  1
  Ta  Ta113  1  0.39404718  0.19666440  0.23211308  1
  Ta  Ta114  1  0.30978380  0.70317732  0.37114189  1
  Ta  Ta115  1  0.49899400  0.89579506  0.38760153  1
  Ta  Ta116  1  0.11147830  0.89294412  0.89419580  1
  Ta  Ta117  1  0.00665852  0.40168702  0.28155287  1
  Ta  Ta118  1  0.70309430  0.69655282  0.36290134  1
  Ta  Ta119  1  0.80172774  0.80009943  0.25608327  1
  Ti  Ti120  1  0.08553867  0.30841454  0.87134854  1
  Ti  Ti121  1  0.01373166  0.00938923  0.50210288  1
  Ti  Ti122  1  0.41709484  0.38534043  0.76367056  1
  Ti  Ti123  1  0.11301654  0.91139515  0.37088501  1
  Ti  Ti124  1  0.80381886  0.79205650  -0.00542369  1
  Ti  Ti125  1  0.89397875  0.30172141  0.38790142  1
  Ti  Ti126  1  0.89579520  0.69012653  0.37068304  1
  Ti  Ti127  1  0.29168773  0.10127226  0.12046728  1
  Ti  Ti128  1  0.19335734  -0.01382429  0.22532090  1
  Ti  Ti129  1  0.39843015  0.00223914  0.50463225  1
  Ti  Ti130  1  0.69608617  0.29968922  0.37865841  1
  Ti  Ti131  1  0.00732117  0.20237057  0.48260717  1
  Ti  Ti132  1  0.60720977  0.79208445  0.74457593  1
  Ti  Ti133  1  0.80186735  0.59469054  0.50877620  1
  Ti  Ti134  1  0.80341001  0.59052124  0.24766794  1
  Ti  Ti135  1  0.10680935  0.70237875  0.87659184  1
  Ti  Ti136  1  0.60462413  0.79552429  0.50625582  1
  Ti  Ti137  1  0.80813100  0.79805917  0.75894155  1
  Ti  Ti138  1  0.70807418  0.50370064  0.38086119  1
  Ti  Ti139  1  0.69296522  0.10068083  0.87761474  1
  Ti  Ti140  1  0.40498494  0.00928205  0.01735676  1
  Ti  Ti141  1  0.30209709  0.70171508  0.63162154  1
  Ti  Ti142  1  0.90123798  0.49034807  0.62558909  1
  Ti  Ti143  1  0.50382507  0.50122453  0.85639922  1
  Ti  Ti144  1  0.59402802  0.00168565  0.00163961  1
  Ti  Ti145  1  0.20756454  0.59622082  0.00484470  1
  Ti  Ti146  1  0.00134270  0.60228637  0.00234581  1
  Ti  Ti147  1  0.30683303  0.29817533  0.86828913  1
  Ti  Ti148  1  0.18944910  0.18875613  0.51242256  1
  Ti  Ti149  1  0.60642690  0.59331358  0.25345483  1
  Ti  Ti150  1  0.59474960  0.77109221  -0.00501780  1
  Ti  Ti151  1  0.89764514  0.11331884  0.88602783  1
  Ti  Ti152  1  0.48596447  0.09911133  0.64648413  1
  Ti  Ti153  1  0.00159629  0.80103331  -0.00369941  1
  Ti  Ti154  1  0.60456737  0.40242011  0.48640168  1
  Ti  Ti155  1  0.09729201  0.89669684  0.62748936  1
  Ti  Ti156  1  0.18289327  0.41242139  0.26049877  1
  Ti  Ti157  1  0.59800245  0.00032249  0.49162277  1
  Ti  Ti158  1  0.49968331  0.29694533  0.36944188  1
  Ti  Ti159  1  0.39645220  0.20642366  0.01414414  1
  Mo  Mo160  1  0.00050401  0.40499970  -0.02253759  1
  Mo  Mo161  1  0.09434064  0.49999869  0.62371723  1
  Mo  Mo162  1  0.19183858  0.79721864  0.74514425  1
  Mo  Mo163  1  0.09550867  0.09916597  0.61986165  1
  Mo  Mo164  1  0.50744965  0.69763332  0.13067278  1
  Mo  Mo165  1  0.10227697  0.89992338  0.11108197  1
  Mo  Mo166  1  0.59614351  0.59880175  0.00459844  1
  Mo  Mo167  1  0.10375250  0.50136494  0.39392446  1
  Mo  Mo168  1  0.10045577  0.29713236  0.38099690  1
  Mo  Mo169  1  0.60030589  -0.00060158  0.76776133  1
  Mo  Mo170  1  0.10171316  0.70763866  0.63678004  1
  Mo  Mo171  1  0.79436339  0.40560257  0.49236225  1
  Mo  Mo172  1  0.60109716  0.39857612  0.76102618  1
  Mo  Mo173  1  0.30186129  0.09530296  0.62751581  1
  Mo  Mo174  1  0.89978476  0.30146261  0.13632606  1
  Mo  Mo175  1  0.69290320  0.30783107  0.61187321  1
  Mo  Mo176  1  0.90754542  0.89077600  0.88977327  1
  Mo  Mo177  1  -0.00343470  0.00581944  0.22745297  1
  Mo  Mo178  1  0.40261834  0.60027160  0.26187590  1
  Mo  Mo179  1  0.49222313  0.30551410  0.89166761  1
  Mo  Mo180  1  0.89376896  0.50623527  0.39024958  1
  Mo  Mo181  1  0.39688178  0.00177656  0.74337903  1
  Mo  Mo182  1  0.20616722  0.59625622  0.23768771  1
  Mo  Mo183  1  0.60268568  0.80004322  0.25143937  1
  Mo  Mo184  1  0.79349327  0.20093085  -0.00262324  1
  Mo  Mo185  1  0.89666954  0.29921540  0.85376538  1
  Mo  Mo186  1  0.60638474  0.59889930  0.72907004  1
  Mo  Mo187  1  0.29526148  0.30901232  0.12438174  1
  Mo  Mo188  1  0.70269081  0.69903557  0.63607827  1
  Mo  Mo189  1  0.19891643  0.79314268  0.00961073  1
  Mo  Mo190  1  0.20919402  0.40481759  -0.02448098  1
  Mo  Mo191  1  -0.00424547  0.19841055  0.77042248  1
  Mo  Mo192  1  0.10883435  0.50828075  0.10942399  1
  Mo  Mo193  1  0.39838785  0.20455423  0.74277886  1
  Mo  Mo194  1  0.49374321  0.09972125  0.12384049  1
  Mo  Mo195  1  0.20027165  0.00144312  0.01368745  1
  Mo  Mo196  1  0.40173552  0.60073635  0.73723686  1
  Mo  Mo197  1  0.70010666  0.49425796  0.14081870  1
  Mo  Mo198  1  -0.00669564  0.40304248  0.75594888  1
  Mo  Mo199  1  0.40810268  0.78689606  -0.00404930  1
