# generated using pymatgen
data_HfZrTaTiMo
_symmetry_space_group_name_H-M   'P 1'
_cell_length_a   15.93770123
_cell_length_b   15.92743615
_cell_length_c   15.20698055
_cell_angle_alpha   89.97984678
_cell_angle_beta   89.99029700
_cell_angle_gamma   90.00388476
_symmetry_Int_Tables_number   1
_chemical_formula_structural   HfZrTaTiMo
_chemical_formula_sum   'Hf40 Zr40 Ta40 Ti40 Mo40'
_cell_volume   3860.24181320
_cell_formula_units_Z   40
loop_
 _symmetry_equiv_pos_site_id
 _symmetry_equiv_pos_as_xyz
  1  'x, y, z'
loop_
 _atom_site_type_symbol
 _atom_site_label
 _atom_site_symmetry_multiplicity
 _atom_site_fract_x
 _atom_site_fract_y
 _atom_site_fract_z
 _atom_site_occupancy
  Hf  Hf0  1  0.49744444  0.49253924  0.10639220  1
  Hf  Hf1  1  0.69188894  0.29943402  0.88430658  1
  Hf  Hf2  1  0.60367615  0.21121368  0.23497648  1
  Hf  Hf3  1  0.19782794  0.40519660  0.75333620  1
  Hf  Hf4  1  0.29137662  0.10640260  0.86026154  1
  Hf  Hf5  1  0.39198432  0.80066795  0.51693354  1
  Hf  Hf6  1  0.28950691  0.30154062  0.88229485  1
  Hf  Hf7  1  0.60554930  0.39872296  0.24607463  1
  Hf  Hf8  1  0.00747245  0.00271158  0.49098674  1
  Hf  Hf9  1  0.69588408  0.90470314  0.38020635  1
  Hf  Hf10  1  0.79724193  0.41002006  0.76428999  1
  Hf  Hf11  1  0.71527098  0.89023118  0.63139204  1
  Hf  Hf12  1  0.90379138  0.11046316  0.62156313  1
  Hf  Hf13  1  0.79286589  0.80247742  0.23966397  1
  Hf  Hf14  1  0.59806809  -0.00126851  0.24250104  1
  Hf  Hf15  1  0.91829849  0.91257105  0.13899173  1
  Hf  Hf16  1  0.49605462  0.09762208  0.11448936  1
  Hf  Hf17  1  0.39609074  0.19580060  0.48891567  1
  Hf  Hf18  1  0.59456457  0.80091024  0.24148511  1
  Hf  Hf19  1  0.39674518  0.60706329  -0.00727152  1
  Hf  Hf20  1  -0.01708683  0.59987572  0.50757173  1
  Hf  Hf21  1  0.29604071  0.67967863  0.63371793  1
  Hf  Hf22  1  0.40227577  0.39461330  0.25729120  1
  Hf  Hf23  1  0.79765197  0.19898368  0.75418214  1
  Hf  Hf24  1  0.19472030  0.60013278  0.23474121  1
  Hf  Hf25  1  0.01450226  0.80699944  0.00276020  1
  Hf  Hf26  1  0.79737666  0.42021569  0.50359880  1
  Hf  Hf27  1  0.40761278  0.79623714  0.74065898  1
  Hf  Hf28  1  0.29349055  0.10001292  0.12536818  1
  Hf  Hf29  1  -0.00668770  0.40413865  0.49135400  1
  Hf  Hf30  1  0.59827998  0.00927985  0.52491812  1
  Hf  Hf31  1  0.39718240  0.59254425  0.24622741  1
  Hf  Hf32  1  0.29449607  0.89370872  0.85254122  1
  Hf  Hf33  1  0.01460017  0.78845680  0.24883810  1
  Hf  Hf34  1  0.89099303  0.49003366  0.10866051  1
  Hf  Hf35  1  0.41609423  0.00596836  0.74127995  1
  Hf  Hf36  1  0.59457071  0.18552114  0.74838933  1
  Hf  Hf37  1  0.40108323  0.20056399  0.25818614  1
  Hf  Hf38  1  0.79623000  0.00945554  0.24611724  1
  Hf  Hf39  1  0.90237431  0.10383495  0.88988968  1
  Zr  Zr40  1  -0.00276682  0.20587073  0.24526928  1
  Zr  Zr41  1  0.29866965  0.11090720  0.63897536  1
  Zr  Zr42  1  0.89747976  0.70974790  0.88083490  1
  Zr  Zr43  1  0.70129101  0.69592495  0.38119474  1
  Zr  Zr44  1  0.78342590  0.61341279  0.75416273  1
  Zr  Zr45  1  0.89981967  0.70092717  0.11736694  1
  Zr  Zr46  1  0.39121547  -0.00508312  -0.01292185  1
  Zr  Zr47  1  0.69873964  0.89320647  0.88077161  1
  Zr  Zr48  1  0.89653240  0.30094396  0.89775493  1
  Zr  Zr49  1  -0.00207533  0.59646140  0.75426723  1
  Zr  Zr50  1  0.00118187  0.80444896  0.74283435  1
  Zr  Zr51  1  0.30021795  0.30038908  0.11177638  1
  Zr  Zr52  1  0.61188382  0.78006874  0.74589841  1
  Zr  Zr53  1  0.41037955  0.79406895  0.25244584  1
  Zr  Zr54  1  0.10716311  0.30713233  0.36930721  1
  Zr  Zr55  1  0.60937792  0.39048818  0.50279896  1
  Zr  Zr56  1  0.49664050  0.69072290  0.39431722  1
  Zr  Zr57  1  0.61807665  0.58796423  0.52302835  1
  Zr  Zr58  1  0.40337646  -0.00821985  0.50856037  1
  Zr  Zr59  1  0.90499927  0.30738785  0.62840316  1
  Zr  Zr60  1  0.79819990  0.00600431  0.75616230  1
  Zr  Zr61  1  0.19043335  -0.00528368  -0.00502547  1
  Zr  Zr62  1  0.09651911  0.09285554  0.13566806  1
  Zr  Zr63  1  0.10248071  0.11132358  0.62329205  1
  Zr  Zr64  1  0.09795736  0.50593352  0.37393842  1
  Zr  Zr65  1  0.20412263  0.79990956  0.00474486  1
  Zr  Zr66  1  0.29687426  0.29848148  0.63597619  1
  Zr  Zr67  1  0.51150772  0.09808023  0.37840915  1
  Zr  Zr68  1  0.90616116  0.90392985  0.62322775  1
  Zr  Zr69  1  0.10412417  0.50005652  0.62624450  1
  Zr  Zr70  1  0.59289926  0.60211679  0.23640490  1
  Zr  Zr71  1  0.80818555  -0.00517679  0.00773883  1
  Zr  Zr72  1  0.48176523  0.49133156  0.62016660  1
  Zr  Zr73  1  -0.00347465  0.40140706  0.23771490  1
  Zr  Zr74  1  0.79814519  0.00954520  0.49481173  1
  Zr  Zr75  1  0.29357673  0.88620200  0.37344731  1
  Zr  Zr76  1  0.89498627  0.10949059  0.36742369  1
  Zr  Zr77  1  0.59017034  0.80747103  0.51497017  1
  Zr  Zr78  1  0.11008251  0.70241510  0.38836995  1
  Zr  Zr79  1  0.89579077  0.68595140  0.36665054  1
  Ta  Ta80  1  0.78848963  0.59414080  -0.00659981  1
  Ta  Ta81  1  0.78662870  0.21666037  0.50181126  1
  Ta  Ta82  1  0.69182575  0.70187023  0.10626153  1
  Ta  Ta83  1  0.00936390  0.60090395  0.00243201  1
  Ta  Ta84  1  -0.00086335  0.20807084  0.48495115  1
  Ta  Ta85  1  0.30229247  0.70427896  0.12766974  1
  Ta  Ta86  1  0.51143778  0.29727905  0.38729167  1
  Ta  Ta87  1  0.40402726  -0.00535540  0.25855653  1
  Ta  Ta88  1  0.69889141  0.10532537  0.11080833  1
  Ta  Ta89  1  0.79107593  0.59374833  0.22691967  1
  Ta  Ta90  1  0.40083195  0.19826805  -0.01458805  1
  Ta  Ta91  1  0.50783899  0.89781095  0.87640163  1
  Ta  Ta92  1  0.59959179  0.59740160  -0.01026837  1
  Ta  Ta93  1  0.39936775  0.58800838  0.76578159  1
  Ta  Ta94  1  0.49680360  0.89697848  0.10547171  1
  Ta  Ta95  1  0.20750491  0.00010120  0.49866527  1
  Ta  Ta96  1  0.10548590  0.49970674  0.88543517  1
  Ta  Ta97  1  0.29858520  0.49848036  0.38268159  1
  Ta  Ta98  1  0.50146544  0.49578279  0.38524984  1
  Ta  Ta99  1  0.10473620  0.70039910  0.62611241  1
  Ta  Ta100  1  0.19851708  0.60388792  0.00435093  1
  Ta  Ta101  1  0.59146572  0.39732484  0.75538244  1
  Ta  Ta102  1  0.00595223  0.00842509  0.75800386  1
  Ta  Ta103  1  0.79393307  0.21580775  0.23132709  1
  Ta  Ta104  1  0.90634269  0.89599524  0.36780469  1
  Ta  Ta105  1  0.11127888  0.69780817  0.86273834  1
  Ta  Ta106  1  0.20416972  0.19863048  0.48113304  1
  Ta  Ta107  1  0.00110732  0.79958759  0.50156284  1
  Ta  Ta108  1  0.00887336  0.39893392  0.00407244  1
  Ta  Ta109  1  0.40106229  0.39682751  0.76471951  1
  Ta  Ta110  1  0.49807782  0.30483207  0.09871149  1
  Ta  Ta111  1  0.10464790  0.89645701  0.37744017  1
  Ta  Ta112  1  0.29599364  0.69146341  0.38086327  1
  Ta  Ta113  1  0.70910600  0.50337533  0.36415402  1
  Ta  Ta114  1  0.69681609  0.30288045  0.63934340  1
  Ta  Ta115  1  0.59368487  0.59029488  0.75673516  1
  Ta  Ta116  1  0.49271216  0.28976101  0.62797145  1
  Ta  Ta117  1  0.30311990  0.90028342  0.13752713  1
  Ta  Ta118  1  0.00645576  0.20830212  0.76256146  1
  Ta  Ta119  1  0.00472112  0.39664105  0.76888945  1
  Ti  Ti120  1  0.19258808  -0.00112853  0.73875341  1
  Ti  Ti121  1  0.70722285  0.31688415  0.09813796  1
  Ti  Ti122  1  0.50384809  0.70275266  0.87912025  1
  Ti  Ti123  1  0.50752760  0.09435322  0.88464490  1
  Ti  Ti124  1  0.10292193  0.10913544  0.87463461  1
  Ti  Ti125  1  0.29556891  0.49996119  0.88639944  1
  Ti  Ti126  1  0.49587617  0.68433406  0.62449857  1
  Ti  Ti127  1  0.90146390  0.10806048  0.12121990  1
  Ti  Ti128  1  0.89537027  0.50320661  0.63962433  1
  Ti  Ti129  1  0.29762762  0.49261818  0.10899335  1
  Ti  Ti130  1  0.10328329  0.09878636  0.36924536  1
  Ti  Ti131  1  0.90311120  0.90086397  0.87063649  1
  Ti  Ti132  1  0.09844361  0.29687513  0.61985750  1
  Ti  Ti133  1  0.80693422  0.79362201  0.49290704  1
  Ti  Ti134  1  -0.00162996  0.59169457  0.23168810  1
  Ti  Ti135  1  0.20643177  0.39629846  0.50364003  1
  Ti  Ti136  1  0.00900986  0.20189608  0.00892913  1
  Ti  Ti137  1  0.88765149  0.70884212  0.62823837  1
  Ti  Ti138  1  0.68976253  0.90300167  0.10888735  1
  Ti  Ti139  1  0.90276892  0.50295568  0.88702582  1
  Ti  Ti140  1  0.88465989  0.30873661  0.37227637  1
  Ti  Ti141  1  0.11329776  0.90149954  0.14952881  1
  Ti  Ti142  1  0.69626143  0.12232192  0.37561088  1
  Ti  Ti143  1  0.39230272  0.39304450  0.49198622  1
  Ti  Ti144  1  0.79618115  0.40054371  0.24429805  1
  Ti  Ti145  1  0.29319984  0.69778628  0.86069393  1
  Ti  Ti146  1  0.60320408  -0.00088917  0.73928320  1
  Ti  Ti147  1  0.20599505  0.00166599  0.26561342  1
  Ti  Ti148  1  0.39804430  0.79777904  -0.00607055  1
  Ti  Ti149  1  0.11351381  0.29778085  0.11745214  1
  Ti  Ti150  1  0.20614902  0.59193751  0.50436124  1
  Ti  Ti151  1  0.00845552  -0.00343018  -0.00946446  1
  Ti  Ti152  1  0.59694267  0.20170989  0.00056916  1
  Ti  Ti153  1  0.10987417  0.89791576  0.61679753  1
  Ti  Ti154  1  0.79871805  0.80117381  0.00435208  1
  Ti  Ti155  1  0.10269819  0.89670628  0.85901554  1
  Ti  Ti156  1  0.21109268  0.20334143  0.26496427  1
  Ti  Ti157  1  0.49935353  0.48812625  0.88483303  1
  Ti  Ti158  1  0.69682034  0.09589696  0.89802821  1
  Ti  Ti159  1  0.20548519  0.40390432  0.24244389  1
  Mo  Mo160  1  0.30161586  0.49304181  0.61656687  1
  Mo  Mo161  1  0.50577007  0.89775421  0.64773247  1
  Mo  Mo162  1  0.70449422  0.10821606  0.62204102  1
  Mo  Mo163  1  0.89606001  0.29757888  0.11171379  1
  Mo  Mo164  1  0.80506992  0.79971920  0.76186051  1
  Mo  Mo165  1  0.60333664  0.20200189  0.51737022  1
  Mo  Mo166  1  0.70830540  0.69828155  0.61439558  1
  Mo  Mo167  1  0.19719109  0.40622527  0.00470661  1
  Mo  Mo168  1  0.79741784  0.40819759  -0.01154229  1
  Mo  Mo169  1  0.19384700  0.19782114  -0.00418463  1
  Mo  Mo170  1  0.50048358  0.10752209  0.62350567  1
  Mo  Mo171  1  0.70512282  0.30094402  0.36878278  1
  Mo  Mo172  1  0.69046215  0.50069998  0.87031148  1
  Mo  Mo173  1  0.69395581  0.70006314  0.89480834  1
  Mo  Mo174  1  0.29538897  0.09611195  0.36809514  1
  Mo  Mo175  1  0.30217872  0.30656506  0.37331907  1
  Mo  Mo176  1  0.79683649  0.20091708  0.01416884  1
  Mo  Mo177  1  0.19914452  0.79854593  0.51873018  1
  Mo  Mo178  1  0.20418721  0.59555111  0.76337282  1
  Mo  Mo179  1  0.39810541  0.40145598  -0.01614543  1
  Mo  Mo180  1  0.29192454  0.90057428  0.63402705  1
  Mo  Mo181  1  0.39485801  0.59228665  0.49300574  1
  Mo  Mo182  1  0.10291482  0.49605597  0.11385406  1
  Mo  Mo183  1  0.80300654  0.60048944  0.51580020  1
  Mo  Mo184  1  0.18274068  0.20886237  0.76154387  1
  Mo  Mo185  1  0.09885036  0.29854892  0.89177045  1
  Mo  Mo186  1  0.59814298  0.00085742  0.00104983  1
  Mo  Mo187  1  0.49388927  0.70163358  0.10252989  1
  Mo  Mo188  1  0.69689224  0.50007055  0.12042866  1
  Mo  Mo189  1  0.69709344  0.49377777  0.65011674  1
  Mo  Mo190  1  0.49701481  0.29528465  0.87850040  1
  Mo  Mo191  1  0.20581851  0.79645258  0.24032608  1
  Mo  Mo192  1  0.88939969  0.50228912  0.35412642  1
  Mo  Mo193  1  0.60016052  0.40232489  -0.01139722  1
  Mo  Mo194  1  0.10341486  0.69668419  0.11972795  1
  Mo  Mo195  1  0.20031942  0.79980519  0.73680710  1
  Mo  Mo196  1  0.40956377  0.20478844  0.76868761  1
  Mo  Mo197  1  0.00712122  -0.00408729  0.27005738  1
  Mo  Mo198  1  0.59159780  0.79693350  0.00165226  1
  Mo  Mo199  1  0.50131258  0.90111584  0.37232036  1
