# generated using pymatgen
data_HfZrTaTiMo
_symmetry_space_group_name_H-M   'P 1'
_cell_length_a   15.92246603
_cell_length_b   15.92153098
_cell_length_c   15.20866893
_cell_angle_alpha   89.98268086
_cell_angle_beta   90.04717036
_cell_angle_gamma   89.93189158
_symmetry_Int_Tables_number   1
_chemical_formula_structural   HfZrTaTiMo
_chemical_formula_sum   'Hf40 Zr40 Ta40 Ti40 Mo40'
_cell_volume   3855.54600300
_cell_formula_units_Z   40
loop_
 _symmetry_equiv_pos_site_id
 _symmetry_equiv_pos_as_xyz
  1  'x, y, z'
loop_
 _atom_site_type_symbol
 _atom_site_label
 _atom_site_symmetry_multiplicity
 _atom_site_fract_x
 _atom_site_fract_y
 _atom_site_fract_z
 _atom_site_occupancy
  Hf  Hf0  1  0.08229107  0.88104857  0.63572817  1
  Hf  Hf1  1  0.59445136  0.40581110  -0.01416042  1
  Hf  Hf2  1  0.40691873  0.20546883  0.00692671  1
  Hf  Hf3  1  0.90171356  0.10634148  0.13385336  1
  Hf  Hf4  1  0.01521380  0.79091643  0.23432877  1
  Hf  Hf5  1  0.50916965  0.08912260  0.61492348  1
  Hf  Hf6  1  0.19011601  0.00794754  0.73407711  1
  Hf  Hf7  1  0.29636644  0.69792744  0.37110949  1
  Hf  Hf8  1  0.39885977  0.79562902  0.24389627  1
  Hf  Hf9  1  0.80770264  0.00774388  0.73325721  1
  Hf  Hf10  1  0.18177675  0.77760282  0.50056161  1
  Hf  Hf11  1  0.69624781  0.29482655  0.12169522  1
  Hf  Hf12  1  0.30192141  0.28616804  0.86680548  1
  Hf  Hf13  1  0.80357629  0.40483077  0.00084379  1
  Hf  Hf14  1  0.38362045  0.41048387  0.74553959  1
  Hf  Hf15  1  0.29895234  0.68755385  0.64164963  1
  Hf  Hf16  1  0.60984092  0.22063539  0.27979249  1
  Hf  Hf17  1  0.09549145  0.29387143  0.62548581  1
  Hf  Hf18  1  0.29689463  0.89821865  0.38692483  1
  Hf  Hf19  1  0.30524564  0.50186116  0.11976098  1
  Hf  Hf20  1  0.19392907  0.39604784  0.48960659  1
  Hf  Hf21  1  0.21070425  0.18191360  0.01409760  1
  Hf  Hf22  1  0.39032915  0.00232527  0.24717408  1
  Hf  Hf23  1  0.89916566  0.30247588  0.38337740  1
  Hf  Hf24  1  0.80555134  0.20795816  0.72991394  1
  Hf  Hf25  1  0.79388425  0.59294958  -0.00550622  1
  Hf  Hf26  1  0.69372100  0.69798642  0.13511311  1
  Hf  Hf27  1  0.09981095  0.49539551  0.63397762  1
  Hf  Hf28  1  0.40302955  0.19963645  0.25107311  1
  Hf  Hf29  1  0.80956904  0.01090049  0.28078886  1
  Hf  Hf30  1  0.81370924  0.01304154  -0.01552317  1
  Hf  Hf31  1  0.09712065  0.50891932  0.36040808  1
  Hf  Hf32  1  0.68852153  0.90944652  0.61472882  1
  Hf  Hf33  1  0.20266991  0.39026971  -0.00389659  1
  Hf  Hf34  1  0.59021870  0.81580038  0.74794289  1
  Hf  Hf35  1  0.70614925  0.90623310  0.12925658  1
  Hf  Hf36  1  0.29181810  0.89265924  0.62350226  1
  Hf  Hf37  1  0.90270130  0.69565532  0.86594447  1
  Hf  Hf38  1  0.59666363  0.79504962  0.26854911  1
  Hf  Hf39  1  0.29929589  0.69476556  0.88676340  1
  Zr  Zr40  1  0.60873834  -0.00017317  0.27253425  1
  Zr  Zr41  1  0.89971154  0.51911987  0.63238141  1
  Zr  Zr42  1  0.10282015  0.08606307  0.88660633  1
  Zr  Zr43  1  0.69799744  0.30802339  0.86164104  1
  Zr  Zr44  1  0.89667915  0.69728830  0.12055746  1
  Zr  Zr45  1  0.08764376  0.28762434  0.12562063  1
  Zr  Zr46  1  0.39938053  0.80303695  0.75305459  1
  Zr  Zr47  1  0.09688843  0.69091362  0.66473758  1
  Zr  Zr48  1  -0.00189660  0.39877141  0.76609330  1
  Zr  Zr49  1  0.80088154  0.80452510  -0.00582886  1
  Zr  Zr50  1  0.59489251  0.00526044  -0.01716165  1
  Zr  Zr51  1  0.19816481  0.18705549  0.25705332  1
  Zr  Zr52  1  -0.00075679  0.18461400  0.27455124  1
  Zr  Zr53  1  0.00411490  0.18935713  0.74942653  1
  Zr  Zr54  1  0.40224576  0.59663666  0.50067674  1
  Zr  Zr55  1  -0.00470798  -0.00971455  0.49495796  1
  Zr  Zr56  1  0.79441684  0.39117836  0.25769855  1
  Zr  Zr57  1  0.09384770  0.49446924  0.11663589  1
  Zr  Zr58  1  0.39936049  0.40170869  0.50793232  1
  Zr  Zr59  1  0.00606644  0.61750824  0.49645357  1
  Zr  Zr60  1  0.90962218  0.69973888  0.36417971  1
  Zr  Zr61  1  0.69408086  0.11003838  0.85233881  1
  Zr  Zr62  1  0.51352333  0.10917259  0.13290234  1
  Zr  Zr63  1  0.59052647  0.40356206  0.49983839  1
  Zr  Zr64  1  0.49535707  0.10399314  0.39683871  1
  Zr  Zr65  1  0.29097039  0.90669880  0.87651169  1
  Zr  Zr66  1  0.50313390  0.89931786  0.12255117  1
  Zr  Zr67  1  0.70035961  0.51372878  0.62206524  1
  Zr  Zr68  1  0.21732348  0.57196776  0.77262200  1
  Zr  Zr69  1  0.10345719  0.88970469  0.36651893  1
  Zr  Zr70  1  0.59780695  0.79820302  -0.01173137  1
  Zr  Zr71  1  0.70360901  0.90485251  0.86046793  1
  Zr  Zr72  1  0.39071732  0.01485570  -0.00014060  1
  Zr  Zr73  1  0.68556220  0.49996653  0.14007387  1
  Zr  Zr74  1  0.70706641  0.10709853  0.13210801  1
  Zr  Zr75  1  0.30115644  0.50294281  0.35664370  1
  Zr  Zr76  1  0.81701419  0.80054222  0.50761325  1
  Zr  Zr77  1  0.30411838  0.29468685  0.37552407  1
  Zr  Zr78  1  0.90913483  0.91210451  0.13578328  1
  Zr  Zr79  1  0.49589996  0.90247150  0.39650503  1
  Ta  Ta80  1  0.10344808  0.69524097  0.09822387  1
  Ta  Ta81  1  0.09692570  0.50088335  0.89159295  1
  Ta  Ta82  1  0.49398778  0.10824036  0.85408298  1
  Ta  Ta83  1  0.30406395  0.30168180  0.13126047  1
  Ta  Ta84  1  0.40937468  0.59661210  -0.00072865  1
  Ta  Ta85  1  0.29236791  0.90267340  0.11810523  1
  Ta  Ta86  1  0.80121604  0.20375772  -0.01119416  1
  Ta  Ta87  1  0.49663668  0.29867220  0.85608684  1
  Ta  Ta88  1  0.70633028  0.69741912  0.62902100  1
  Ta  Ta89  1  0.08927776  0.08103554  0.11989042  1
  Ta  Ta90  1  0.79867152  0.20688400  0.50185156  1
  Ta  Ta91  1  0.59543386  0.40141921  0.73964375  1
  Ta  Ta92  1  0.50374356  0.50844655  0.35614040  1
  Ta  Ta93  1  0.90589675  0.10563317  0.60529553  1
  Ta  Ta94  1  0.69841018  0.50574099  0.37628606  1
  Ta  Ta95  1  0.70348970  0.69677122  0.38279672  1
  Ta  Ta96  1  0.29037668  0.29567921  0.62917919  1
  Ta  Ta97  1  0.10162534  0.69746448  0.88455742  1
  Ta  Ta98  1  0.49631491  0.51291243  0.64207799  1
  Ta  Ta99  1  0.29969798  0.10120349  0.61816740  1
  Ta  Ta100  1  0.41083999  -0.00611263  0.74098116  1
  Ta  Ta101  1  0.80322169  0.59367740  0.25703569  1
  Ta  Ta102  1  0.20082747  0.59028760  0.50546140  1
  Ta  Ta103  1  0.19581574  0.39357819  0.24724915  1
  Ta  Ta104  1  0.40396075  0.78994109  0.51229269  1
  Ta  Ta105  1  0.30034392  0.08939299  0.39847860  1
  Ta  Ta106  1  0.19970393  0.61021130  0.22598919  1
  Ta  Ta107  1  -0.01224463  0.19228974  -0.00893923  1
  Ta  Ta108  1  0.49977303  0.69704661  0.86737962  1
  Ta  Ta109  1  0.40830893  0.39803420  0.24533026  1
  Ta  Ta110  1  0.70115817  0.69844314  0.85124146  1
  Ta  Ta111  1  0.59661364  0.20678020  -0.01394473  1
  Ta  Ta112  1  0.60071227  0.59849747  -0.01769921  1
  Ta  Ta113  1  0.51028207  0.69591170  0.63400120  1
  Ta  Ta114  1  0.49732031  0.50310148  0.86089618  1
  Ta  Ta115  1  0.90298370  0.31124670  0.60957539  1
  Ta  Ta116  1  0.89643210  0.29644967  0.87141461  1
  Ta  Ta117  1  0.19291440  0.19537056  0.49789500  1
  Ta  Ta118  1  -0.01139917  0.39253368  -0.00459188  1
  Ta  Ta119  1  0.00196932  0.80677343  -0.00572273  1
  Ti  Ti120  1  0.40321720  0.80022321  0.00112119  1
  Ti  Ti121  1  0.09954417  0.89688705  0.87451096  1
  Ti  Ti122  1  0.80357118  0.40569464  0.74506256  1
  Ti  Ti123  1  0.80693115  0.80716495  0.73923998  1
  Ti  Ti124  1  0.18900108  -0.00070313  0.50987247  1
  Ti  Ti125  1  0.10157908  0.90430467  0.11710556  1
  Ti  Ti126  1  0.90964384  0.90658083  0.86385818  1
  Ti  Ti127  1  0.89376058  0.29316200  0.13152734  1
  Ti  Ti128  1  0.59682025  0.21647055  0.50403015  1
  Ti  Ti129  1  0.70128248  0.50784780  0.85150019  1
  Ti  Ti130  1  0.40695698  0.39851195  -0.00113034  1
  Ti  Ti131  1  0.20114181  0.80224844  0.00246341  1
  Ti  Ti132  1  0.79577530  0.80315504  0.25953132  1
  Ti  Ti133  1  0.50569781  0.69271016  0.11613016  1
  Ti  Ti134  1  0.90835133  0.89296604  0.36758797  1
  Ti  Ti135  1  0.70175539  0.10687820  0.39770579  1
  Ti  Ti136  1  0.70388581  0.31216998  0.61641094  1
  Ti  Ti137  1  0.50625211  0.50424638  0.13445885  1
  Ti  Ti138  1  0.69771895  0.10278941  0.61113626  1
  Ti  Ti139  1  0.40088153  0.19910633  0.72962449  1
  Ti  Ti140  1  0.60010150  0.79485306  0.49974581  1
  Ti  Ti141  1  0.50926498  0.31087393  0.12984161  1
  Ti  Ti142  1  -0.00691846  0.40059004  0.25036253  1
  Ti  Ti143  1  0.10083579  0.28661310  0.87934835  1
  Ti  Ti144  1  -0.01403148  0.58715352  -0.00133929  1
  Ti  Ti145  1  0.91285479  0.71062401  0.64391302  1
  Ti  Ti146  1  0.40159161  0.20945375  0.51224750  1
  Ti  Ti147  1  0.59654726  0.60697133  0.49302758  1
  Ti  Ti148  1  0.30056000  0.10196640  0.85189353  1
  Ti  Ti149  1  0.80488801  0.41702537  0.49290028  1
  Ti  Ti150  1  0.80234392  -0.00240394  0.49694037  1
  Ti  Ti151  1  0.40470500  0.61149484  0.23717768  1
  Ti  Ti152  1  0.59682865  0.20777360  0.72857982  1
  Ti  Ti153  1  0.00819098  0.19887281  0.48951067  1
  Ti  Ti154  1  0.19485827  0.00124349  0.24935187  1
  Ti  Ti155  1  -0.00521456  0.00248190  0.74005790  1
  Ti  Ti156  1  -0.00258353  0.59471856  0.23443560  1
  Ti  Ti157  1  0.20609026  0.79310674  0.22984747  1
  Ti  Ti158  1  0.19559227  0.38984944  0.76270180  1
  Ti  Ti159  1  0.00098997  0.40971966  0.48841540  1
  Mo  Mo160  1  0.90057101  0.49179570  0.13731728  1
  Mo  Mo161  1  0.30634771  0.70520200  0.10766047  1
  Mo  Mo162  1  0.00081229  0.79358435  0.49692481  1
  Mo  Mo163  1  0.89814287  0.89989286  0.63426305  1
  Mo  Mo164  1  0.19627626  0.80144782  0.77404870  1
  Mo  Mo165  1  0.00397127  0.59496343  0.77232403  1
  Mo  Mo166  1  0.60198112  0.60477308  0.75516576  1
  Mo  Mo167  1  0.29250102  0.49338213  0.61903935  1
  Mo  Mo168  1  0.20255312  0.59706925  0.00241164  1
  Mo  Mo169  1  0.49340994  0.90754895  0.88298577  1
  Mo  Mo170  1  0.59456451  0.40241797  0.26375652  1
  Mo  Mo171  1  0.10819876  0.09130799  0.38885973  1
  Mo  Mo172  1  -0.00102155  0.80404965  0.77639641  1
  Mo  Mo173  1  0.79786345  0.60209221  0.48528475  1
  Mo  Mo174  1  0.49638529  0.30138032  0.63809010  1
  Mo  Mo175  1  0.89821853  0.10106372  0.39654499  1
  Mo  Mo176  1  0.90063125  0.50268800  0.36591958  1
  Mo  Mo177  1  0.30635190  0.48985453  0.90261485  1
  Mo  Mo178  1  0.09772262  0.30524196  0.37437936  1
  Mo  Mo179  1  -0.00109192  -0.00577743  -0.00778699  1
  Mo  Mo180  1  0.40261342  0.59929851  0.75908419  1
  Mo  Mo181  1  0.20248828  0.19832525  0.73789780  1
  Mo  Mo182  1  0.19633260  -0.00741553  0.01068778  1
  Mo  Mo183  1  0.90037227  0.10184440  0.86713866  1
  Mo  Mo184  1  0.61136036  -0.00168509  0.48947559  1
  Mo  Mo185  1  0.49765633  0.89615516  0.60883712  1
  Mo  Mo186  1  0.49678836  0.30792555  0.37548363  1
  Mo  Mo187  1  0.70734019  0.89364606  0.39150965  1
  Mo  Mo188  1  0.09700458  0.09749372  0.60938392  1
  Mo  Mo189  1  0.79799567  0.20006963  0.27976308  1
  Mo  Mo190  1  0.29458149  0.09794774  0.13713096  1
  Mo  Mo191  1  0.39218740  -0.00612941  0.51868200  1
  Mo  Mo192  1  0.59673734  0.60780063  0.26119935  1
  Mo  Mo193  1  0.59373102  0.00720849  0.74943542  1
  Mo  Mo194  1  0.70029511  0.30839016  0.40349957  1
  Mo  Mo195  1  0.80247852  0.60478497  0.75243491  1
  Mo  Mo196  1  0.11073123  0.69078001  0.35045330  1
  Mo  Mo197  1  0.89632497  0.49616666  0.86763680  1
  Mo  Mo198  1  0.00926139  -0.00315698  0.26490985  1
  Mo  Mo199  1  0.49937744  0.69699703  0.38666072  1
