# generated using pymatgen
data_HfZrTaTiMo
_symmetry_space_group_name_H-M   'P 1'
_cell_length_a   15.91846915
_cell_length_b   15.93279609
_cell_length_c   15.17812288
_cell_angle_alpha   89.94095711
_cell_angle_beta   90.02288558
_cell_angle_gamma   90.00395230
_symmetry_Int_Tables_number   1
_chemical_formula_structural   HfZrTaTiMo
_chemical_formula_sum   'Hf40 Zr40 Ta40 Ti40 Mo40'
_cell_volume   3849.56002970
_cell_formula_units_Z   40
loop_
 _symmetry_equiv_pos_site_id
 _symmetry_equiv_pos_as_xyz
  1  'x, y, z'
loop_
 _atom_site_type_symbol
 _atom_site_label
 _atom_site_symmetry_multiplicity
 _atom_site_fract_x
 _atom_site_fract_y
 _atom_site_fract_z
 _atom_site_occupancy
  Hf  Hf0  1  -0.00478194  0.61015122  0.49956706  1
  Hf  Hf1  1  0.10430539  0.49527177  0.61840059  1
  Hf  Hf2  1  0.38487059  0.21305674  0.73895244  1
  Hf  Hf3  1  0.79868552  0.20292781  0.76338071  1
  Hf  Hf4  1  -0.00004641  0.20544195  0.47933022  1
  Hf  Hf5  1  0.68447458  0.30480369  0.62937250  1
  Hf  Hf6  1  0.31065567  0.89880292  0.86684961  1
  Hf  Hf7  1  0.10404650  0.51374188  0.13397893  1
  Hf  Hf8  1  0.30304024  0.29710669  0.89870331  1
  Hf  Hf9  1  0.30285270  0.09758223  0.87894743  1
  Hf  Hf10  1  0.10855969  0.89004846  0.13569883  1
  Hf  Hf11  1  -0.00129697  0.80333375  0.72573918  1
  Hf  Hf12  1  0.40030833  0.40010036  0.48677297  1
  Hf  Hf13  1  0.01110303  0.79663137  0.49940114  1
  Hf  Hf14  1  0.71467157  0.70500981  0.37428160  1
  Hf  Hf15  1  0.49430120  0.29988070  0.11850238  1
  Hf  Hf16  1  0.69925988  0.69573136  0.11459183  1
  Hf  Hf17  1  0.31137417  0.09925452  0.12575739  1
  Hf  Hf18  1  0.41557168  0.58680895  0.75996944  1
  Hf  Hf19  1  0.59971260  0.59806652  0.23834195  1
  Hf  Hf20  1  0.19702308  -0.00041830  0.00376820  1
  Hf  Hf21  1  0.88321826  0.30466098  0.36448053  1
  Hf  Hf22  1  -0.00413005  0.59521455  0.73737304  1
  Hf  Hf23  1  0.69335040  0.51300894  0.38448520  1
  Hf  Hf24  1  0.79300095  0.40444391  0.50439765  1
  Hf  Hf25  1  0.49659634  0.10457617  0.63124288  1
  Hf  Hf26  1  0.01597738  0.02027566  0.75066990  1
  Hf  Hf27  1  0.78788691  0.19639837  -0.00310521  1
  Hf  Hf28  1  0.58802076  0.41731607  0.76095654  1
  Hf  Hf29  1  0.89861142  0.31409353  0.88146383  1
  Hf  Hf30  1  0.89656331  0.88563087  0.37353635  1
  Hf  Hf31  1  0.31210355  0.49365999  0.62593800  1
  Hf  Hf32  1  0.60154347  -0.00553793  0.50585059  1
  Hf  Hf33  1  0.78126204  0.41359848  0.24259207  1
  Hf  Hf34  1  0.70874834  0.91917009  0.11052998  1
  Hf  Hf35  1  0.40608985  0.59917268  0.48788597  1
  Hf  Hf36  1  0.30527959  0.49444492  0.88520677  1
  Hf  Hf37  1  0.79854358  0.59486318  0.74900256  1
  Hf  Hf38  1  0.90232799  0.89846137  0.87218407  1
  Hf  Hf39  1  -0.00170782  0.78482133  0.01834105  1
  Zr  Zr40  1  0.61187797  0.01383418  0.25504470  1
  Zr  Zr41  1  0.38964733  -0.01065375  0.51133560  1
  Zr  Zr42  1  0.09232588  0.49532713  0.87779475  1
  Zr  Zr43  1  0.09745197  0.29520455  0.62256898  1
  Zr  Zr44  1  -0.00831213  0.19510048  0.24313882  1
  Zr  Zr45  1  0.79674704  -0.00753494  0.50594621  1
  Zr  Zr46  1  0.81202618  0.79090237  0.52903165  1
  Zr  Zr47  1  0.39430520  0.79446658  0.50436763  1
  Zr  Zr48  1  0.00108742  0.20172617  0.01575389  1
  Zr  Zr49  1  0.09843305  0.90029502  0.87434791  1
  Zr  Zr50  1  0.80881593  -0.00406853  0.74356355  1
  Zr  Zr51  1  0.50409335  0.89591832  0.37125104  1
  Zr  Zr52  1  0.81062909  0.60107115  -0.00518896  1
  Zr  Zr53  1  0.49619717  0.09811165  0.37581269  1
  Zr  Zr54  1  0.41626397  -0.00554982  0.00359555  1
  Zr  Zr55  1  0.30421043  0.50689509  0.12666247  1
  Zr  Zr56  1  0.41122333  0.78885274  0.24743104  1
  Zr  Zr57  1  0.59135387  0.80807265  -0.00029859  1
  Zr  Zr58  1  0.20816372  0.60738173  0.48837932  1
  Zr  Zr59  1  0.00282641  -0.00841059  0.49292378  1
  Zr  Zr60  1  0.12663060  0.91168548  0.62736306  1
  Zr  Zr61  1  0.80602858  0.80044163  0.00118767  1
  Zr  Zr62  1  0.51234535  0.69383280  0.63042814  1
  Zr  Zr63  1  0.79669776  0.41166903  0.74353739  1
  Zr  Zr64  1  0.20917169  0.60552175  0.75536104  1
  Zr  Zr65  1  0.88783988  0.30140047  0.12934393  1
  Zr  Zr66  1  0.21553757  0.38602505  0.74488188  1
  Zr  Zr67  1  0.40206925  0.20585139  0.25032799  1
  Zr  Zr68  1  0.68099657  0.29209160  0.12291474  1
  Zr  Zr69  1  0.18161868  0.18188516  0.76042583  1
  Zr  Zr70  1  -0.00207017  0.40872372  0.25081690  1
  Zr  Zr71  1  0.20057682  0.79157987  -0.00485185  1
  Zr  Zr72  1  0.10779666  0.30285064  0.36560383  1
  Zr  Zr73  1  0.69340610  0.10698304  0.62996270  1
  Zr  Zr74  1  0.90058145  0.29948703  0.62368532  1
  Zr  Zr75  1  0.00744708  0.79029710  0.25511901  1
  Zr  Zr76  1  0.90685942  0.11077668  0.61840237  1
  Zr  Zr77  1  0.09162973  0.29994850  0.87649161  1
  Zr  Zr78  1  0.29868159  0.09890233  0.36672295  1
  Zr  Zr79  1  0.79873270  -0.00385227  0.26013626  1
  Ta  Ta80  1  0.20841508  0.80160461  0.48007269  1
  Ta  Ta81  1  0.29890205  0.30134435  0.37108926  1
  Ta  Ta82  1  0.59377363  0.40354696  0.48835571  1
  Ta  Ta83  1  0.29162418  0.69648742  0.13269200  1
  Ta  Ta84  1  0.29944634  0.30393193  0.12074748  1
  Ta  Ta85  1  0.28559104  0.08616462  0.62943133  1
  Ta  Ta86  1  0.30714668  0.89233016  0.13180377  1
  Ta  Ta87  1  0.10506817  0.10247200  0.60486380  1
  Ta  Ta88  1  0.39461685  0.20329571  0.50595462  1
  Ta  Ta89  1  0.10135432  0.09569484  0.36532646  1
  Ta  Ta90  1  0.51643110  0.10833289  0.12427286  1
  Ta  Ta91  1  0.19495697  0.60493113  -0.00533781  1
  Ta  Ta92  1  0.59028593  0.20883831  0.76690813  1
  Ta  Ta93  1  0.39463324  0.78831535  0.73961590  1
  Ta  Ta94  1  0.59517718  0.20969825  0.48832118  1
  Ta  Ta95  1  -0.00179958  -0.00537431  0.25000352  1
  Ta  Ta96  1  0.69655108  0.09413300  0.87354557  1
  Ta  Ta97  1  0.77340838  0.18577803  0.25328895  1
  Ta  Ta98  1  0.69244726  0.88640288  0.64804923  1
  Ta  Ta99  1  0.20099565  -0.00361195  0.24871206  1
  Ta  Ta100  1  0.50317202  0.89636228  0.64365381  1
  Ta  Ta101  1  0.59664670  0.59889326  -0.00741032  1
  Ta  Ta102  1  0.49825951  0.89705117  0.85650171  1
  Ta  Ta103  1  -0.00387932  0.40978626  0.48901380  1
  Ta  Ta104  1  0.49697909  0.70281062  0.88019961  1
  Ta  Ta105  1  0.90379770  0.70129187  0.86019256  1
  Ta  Ta106  1  0.88257274  0.08323042  0.11878830  1
  Ta  Ta107  1  0.89157852  0.51351226  0.37760187  1
  Ta  Ta108  1  0.61010355  0.79978682  0.23865932  1
  Ta  Ta109  1  0.59029336  0.40393683  0.25646609  1
  Ta  Ta110  1  0.70026386  0.50037572  0.88749498  1
  Ta  Ta111  1  0.20886799  0.79449438  0.75151824  1
  Ta  Ta112  1  0.19549385  0.19846721  0.01366845  1
  Ta  Ta113  1  0.89385304  0.09998255  0.37377139  1
  Ta  Ta114  1  0.51893389  0.69530797  0.37886503  1
  Ta  Ta115  1  0.49379979  0.30937898  0.62513788  1
  Ta  Ta116  1  0.69752366  0.89610377  0.86535030  1
  Ta  Ta117  1  0.90786419  0.10038565  0.88610723  1
  Ta  Ta118  1  0.80736258  0.79591512  0.23053245  1
  Ta  Ta119  1  0.09787967  0.09428039  0.13244750  1
  Ti  Ti120  1  0.80023311  0.60171937  0.52185670  1
  Ti  Ti121  1  -0.00219796  0.40708820  0.01590801  1
  Ti  Ti122  1  0.59732255  0.00331856  0.75458869  1
  Ti  Ti123  1  0.60126633  0.00558872  -0.01226522  1
  Ti  Ti124  1  0.79485558  0.40819052  0.00893770  1
  Ti  Ti125  1  0.50080727  0.50342358  0.11817600  1
  Ti  Ti126  1  0.51502297  0.50265855  0.61510181  1
  Ti  Ti127  1  0.40492332  0.40658664  0.00649521  1
  Ti  Ti128  1  0.48759768  0.30870618  0.87692591  1
  Ti  Ti129  1  0.59765887  0.40539349  -0.00253359  1
  Ti  Ti130  1  0.29580997  0.49958369  0.36264564  1
  Ti  Ti131  1  0.69326083  0.30697265  0.87748123  1
  Ti  Ti132  1  0.78650284  0.20309994  0.48741750  1
  Ti  Ti133  1  0.30557884  0.89763457  0.35016912  1
  Ti  Ti134  1  0.20297584  0.39711099  0.49452241  1
  Ti  Ti135  1  0.40275597  0.40605168  0.25336029  1
  Ti  Ti136  1  0.58770680  0.19674350  -0.02222929  1
  Ti  Ti137  1  0.69893213  0.89006724  0.37581300  1
  Ti  Ti138  1  0.69219668  0.69403028  0.64443672  1
  Ti  Ti139  1  0.00198309  0.60307420  0.00146701  1
  Ti  Ti140  1  0.00008808  0.60749671  0.26029344  1
  Ti  Ti141  1  0.48825456  0.69522869  0.10928683  1
  Ti  Ti142  1  0.11730583  0.70108888  0.62164206  1
  Ti  Ti143  1  0.50319824  0.90719278  0.13632383  1
  Ti  Ti144  1  0.31365842  0.70005408  0.89072716  1
  Ti  Ti145  1  0.49909200  0.30143562  0.37005526  1
  Ti  Ti146  1  0.18941952  0.39808520  0.01419348  1
  Ti  Ti147  1  0.20229675  -0.00895826  0.47758260  1
  Ti  Ti148  1  -0.00579459  -0.00802099  0.01482884  1
  Ti  Ti149  1  0.80372041  0.60340894  0.23972842  1
  Ti  Ti150  1  0.60720871  0.79620403  0.50668024  1
  Ti  Ti151  1  0.40525540  0.59775568  0.26003454  1
  Ti  Ti152  1  0.20576233  0.19838130  0.49560117  1
  Ti  Ti153  1  0.19649659  0.20297804  0.23630882  1
  Ti  Ti154  1  0.49056884  0.09839353  0.86423035  1
  Ti  Ti155  1  0.90030240  0.50830306  0.12695149  1
  Ti  Ti156  1  0.09417080  0.70029491  0.86601343  1
  Ti  Ti157  1  0.10280517  0.50527866  0.37123434  1
  Ti  Ti158  1  0.20358221  0.39954497  0.24371424  1
  Ti  Ti159  1  -0.01136117  0.40725071  0.74275361  1
  Mo  Mo160  1  0.90437159  0.90107254  0.12800446  1
  Mo  Mo161  1  0.49807580  0.49770635  0.89674364  1
  Mo  Mo162  1  0.79875848  0.79365770  0.75154220  1
  Mo  Mo163  1  0.89647948  0.69218054  0.36324500  1
  Mo  Mo164  1  0.90086221  0.90225248  0.63146358  1
  Mo  Mo165  1  0.40552056  0.20080447  0.00049329  1
  Mo  Mo166  1  0.90363728  0.49923448  0.89050230  1
  Mo  Mo167  1  0.90644578  0.68934640  0.13746687  1
  Mo  Mo168  1  0.20272356  -0.00034076  0.76329331  1
  Mo  Mo169  1  0.69134745  0.49827694  0.10828188  1
  Mo  Mo170  1  0.10963863  0.68840522  0.13594272  1
  Mo  Mo171  1  0.30187458  0.89683147  0.63812313  1
  Mo  Mo172  1  0.09300957  0.09790858  0.90561285  1
  Mo  Mo173  1  0.60528701  0.59942820  0.77610895  1
  Mo  Mo174  1  0.40048747  -0.00079972  0.74156584  1
  Mo  Mo175  1  0.90038938  0.69693133  0.64012788  1
  Mo  Mo176  1  0.29659432  0.29421980  0.60278908  1
  Mo  Mo177  1  0.68683537  0.50988381  0.61252040  1
  Mo  Mo178  1  0.90006090  0.49992535  0.60446335  1
  Mo  Mo179  1  0.20150101  0.60148230  0.26561498  1
  Mo  Mo180  1  0.70040097  0.10311061  0.39511950  1
  Mo  Mo181  1  0.60698564  0.60705126  0.49735813  1
  Mo  Mo182  1  0.40101740  0.79929006  0.01457502  1
  Mo  Mo183  1  0.69023320  0.30355787  0.36969437  1
  Mo  Mo184  1  0.69796812  0.70003470  0.87124869  1
  Mo  Mo185  1  0.49880096  0.50158995  0.36646056  1
  Mo  Mo186  1  0.59809594  0.79452398  0.76573109  1
  Mo  Mo187  1  0.20734913  0.79547754  0.26255936  1
  Mo  Mo188  1  0.10692780  0.69774219  0.37284962  1
  Mo  Mo189  1  0.40396643  -0.00216806  0.23376280  1
  Mo  Mo190  1  -0.00428328  0.20049974  0.76310420  1
  Mo  Mo191  1  0.39852714  0.60395237  -0.00031176  1
  Mo  Mo192  1  0.30001533  0.69868381  0.62766639  1
  Mo  Mo193  1  0.10828789  0.30490416  0.13147551  1
  Mo  Mo194  1  0.10914713  0.90040094  0.36553350  1
  Mo  Mo195  1  0.69208340  0.10216526  0.10153350  1
  Mo  Mo196  1  0.80061938  0.00031947  -0.01941216  1
  Mo  Mo197  1  0.40582474  0.39615352  0.74671428  1
  Mo  Mo198  1  0.30846396  0.69918699  0.35826150  1
  Mo  Mo199  1  0.60013128  0.20635657  0.26477197  1
