# generated using pymatgen
data_HfZrTaTiMo
_symmetry_space_group_name_H-M   'P 1'
_cell_length_a   15.91883899
_cell_length_b   15.92694835
_cell_length_c   15.20416371
_cell_angle_alpha   89.94961801
_cell_angle_beta   90.01922694
_cell_angle_gamma   90.05359971
_symmetry_Int_Tables_number   1
_chemical_formula_structural   HfZrTaTiMo
_chemical_formula_sum   'Hf40 Zr40 Ta40 Ti40 Mo40'
_cell_volume   3854.83787039
_cell_formula_units_Z   40
loop_
 _symmetry_equiv_pos_site_id
 _symmetry_equiv_pos_as_xyz
  1  'x, y, z'
loop_
 _atom_site_type_symbol
 _atom_site_label
 _atom_site_symmetry_multiplicity
 _atom_site_fract_x
 _atom_site_fract_y
 _atom_site_fract_z
 _atom_site_occupancy
  Hf  Hf0  1  0.50147473  0.91712843  0.38167854  1
  Hf  Hf1  1  0.79713261  0.79617131  0.74395137  1
  Hf  Hf2  1  0.00250124  0.59320847  0.76182300  1
  Hf  Hf3  1  0.41058555  0.01120378  0.74428333  1
  Hf  Hf4  1  -0.01083545  0.19904548  0.50964756  1
  Hf  Hf5  1  0.28530169  0.29038024  0.13454990  1
  Hf  Hf6  1  0.61188985  0.59774521  -0.00237022  1
  Hf  Hf7  1  0.79275532  -0.00597922  0.73696825  1
  Hf  Hf8  1  0.00326211  0.79444331  0.49573458  1
  Hf  Hf9  1  0.50423156  0.89418377  0.10998228  1
  Hf  Hf10  1  0.69288327  0.49845673  0.36790389  1
  Hf  Hf11  1  0.87981476  0.09043019  0.38678609  1
  Hf  Hf12  1  0.81838266  0.81140171  0.25245481  1
  Hf  Hf13  1  0.80232526  0.40570220  0.73723470  1
  Hf  Hf14  1  0.40108330  0.59972339  0.75710966  1
  Hf  Hf15  1  0.68510992  0.30035478  0.87003506  1
  Hf  Hf16  1  -0.01024105  0.18485701  -0.00044262  1
  Hf  Hf17  1  0.50691863  0.49251797  0.87773681  1
  Hf  Hf18  1  0.40513497  0.80071420  0.75108155  1
  Hf  Hf19  1  0.19667543  0.00101921  0.50089133  1
  Hf  Hf20  1  0.20004363  0.01215130  0.01112845  1
  Hf  Hf21  1  0.50026501  0.29147361  0.61302742  1
  Hf  Hf22  1  0.09472193  0.90151732  0.88692340  1
  Hf  Hf23  1  0.71422805  0.92104253  0.38343549  1
  Hf  Hf24  1  0.10991837  0.68884807  0.61351522  1
  Hf  Hf25  1  0.50463421  0.70354947  0.62817990  1
  Hf  Hf26  1  0.30121678  0.69825853  0.12895130  1
  Hf  Hf27  1  0.38951702  0.41700649  0.49712889  1
  Hf  Hf28  1  0.18817349  0.20508649  0.74630134  1
  Hf  Hf29  1  -0.00201265  0.79570533  0.75284111  1
  Hf  Hf30  1  0.30214705  0.70123201  0.89628151  1
  Hf  Hf31  1  0.40329054  0.79641001  0.49138225  1
  Hf  Hf32  1  0.11948041  0.48668954  0.37096009  1
  Hf  Hf33  1  0.30398232  0.89351757  0.62293570  1
  Hf  Hf34  1  -0.00520341  0.19571779  0.73485722  1
  Hf  Hf35  1  0.11717881  0.49913345  0.61459477  1
  Hf  Hf36  1  0.40031315  0.80090430  0.25969855  1
  Hf  Hf37  1  0.29195806  0.30844729  0.87601821  1
  Hf  Hf38  1  -0.00989367  0.40953734  -0.00928849  1
  Hf  Hf39  1  0.81376282  0.00651956  0.00179613  1
  Zr  Zr40  1  0.89160571  0.30172305  0.87301948  1
  Zr  Zr41  1  0.50151682  0.50435616  0.62082073  1
  Zr  Zr42  1  0.80897291  0.79397185  -0.00590107  1
  Zr  Zr43  1  0.70482285  0.50084995  0.13013377  1
  Zr  Zr44  1  0.70240667  0.89659905  0.11712970  1
  Zr  Zr45  1  0.08969309  0.30717241  0.13031943  1
  Zr  Zr46  1  0.29646518  0.30981236  0.62177228  1
  Zr  Zr47  1  0.10104764  0.89430791  0.62163114  1
  Zr  Zr48  1  0.79764247  0.39754353  0.51244658  1
  Zr  Zr49  1  0.60982881  0.60691863  0.49273963  1
  Zr  Zr50  1  0.79003919  0.19680986  -0.01349326  1
  Zr  Zr51  1  0.50326967  0.10768681  0.88780067  1
  Zr  Zr52  1  0.70375712  0.11248350  0.13432782  1
  Zr  Zr53  1  0.89673185  0.68047104  0.62313605  1
  Zr  Zr54  1  0.51013493  0.69837108  0.12726745  1
  Zr  Zr55  1  0.28819373  0.88259883  0.11480272  1
  Zr  Zr56  1  0.11693074  0.48979249  0.87630985  1
  Zr  Zr57  1  -0.01005365  -0.00983063  0.24560702  1
  Zr  Zr58  1  -0.01306569  0.19955171  0.26275564  1
  Zr  Zr59  1  0.90217531  0.49815543  0.13472971  1
  Zr  Zr60  1  0.39607280  0.00568337  0.23671127  1
  Zr  Zr61  1  0.30221719  0.90508433  0.88089524  1
  Zr  Zr62  1  0.78561262  0.20038758  0.52389307  1
  Zr  Zr63  1  0.19939882  0.79000019  0.75785220  1
  Zr  Zr64  1  0.50879570  0.90431653  0.88615793  1
  Zr  Zr65  1  0.91359052  0.70132961  0.13035055  1
  Zr  Zr66  1  0.18614394  -0.02048326  0.25413761  1
  Zr  Zr67  1  0.88607497  0.29733304  0.12591988  1
  Zr  Zr68  1  0.60464204  0.79991892  0.49426491  1
  Zr  Zr69  1  0.00482222  0.39536163  0.74764781  1
  Zr  Zr70  1  0.28824445  0.31838450  0.36608914  1
  Zr  Zr71  1  0.30323761  0.10923580  0.62350038  1
  Zr  Zr72  1  0.79082321  0.78745700  0.50176235  1
  Zr  Zr73  1  0.40272881  0.58798739  0.01072802  1
  Zr  Zr74  1  0.30097031  0.09921088  0.37050958  1
  Zr  Zr75  1  0.90585945  0.49569588  0.37234734  1
  Zr  Zr76  1  0.61052926  0.80279463  0.26688565  1
  Zr  Zr77  1  0.38159982  0.19633851  0.00916695  1
  Zr  Zr78  1  0.58397369  0.40061821  0.24144259  1
  Zr  Zr79  1  0.10041138  0.10476649  0.13014700  1
  Ta  Ta80  1  0.11174373  0.69404041  0.37362856  1
  Ta  Ta81  1  0.29910962  0.68838951  0.61374829  1
  Ta  Ta82  1  0.01152968  0.60458141  0.25604627  1
  Ta  Ta83  1  0.69400879  0.09507570  0.86163400  1
  Ta  Ta84  1  0.50961538  0.91089499  0.62161339  1
  Ta  Ta85  1  0.49863395  0.30565461  0.38465872  1
  Ta  Ta86  1  0.50408437  0.10877744  0.38281077  1
  Ta  Ta87  1  0.39857743  0.39942619  0.01484703  1
  Ta  Ta88  1  0.50261394  0.10634267  0.12197072  1
  Ta  Ta89  1  0.30135595  0.68673316  0.36602017  1
  Ta  Ta90  1  0.00738026  0.60604765  -0.00615822  1
  Ta  Ta91  1  0.90487626  0.90514233  0.39481582  1
  Ta  Ta92  1  0.19230654  0.00683258  0.74384654  1
  Ta  Ta93  1  0.09494551  0.09624926  0.87560547  1
  Ta  Ta94  1  0.60868127  0.60149096  0.75616023  1
  Ta  Ta95  1  0.89516274  0.90072216  0.61205211  1
  Ta  Ta96  1  0.90047115  0.08964839  0.85538520  1
  Ta  Ta97  1  0.10207679  0.30595255  0.61099208  1
  Ta  Ta98  1  0.69551132  0.30120091  0.12506362  1
  Ta  Ta99  1  0.69206173  0.29542182  0.37400380  1
  Ta  Ta100  1  0.69365599  0.10517495  0.37178501  1
  Ta  Ta101  1  0.29123557  0.10449738  0.86737489  1
  Ta  Ta102  1  0.59127103  0.20388204  0.25373284  1
  Ta  Ta103  1  0.70769716  0.69699830  0.13268726  1
  Ta  Ta104  1  0.79433773  0.19990337  0.73783245  1
  Ta  Ta105  1  0.79677450  0.38965566  0.25909644  1
  Ta  Ta106  1  0.50891692  0.70821475  0.88384269  1
  Ta  Ta107  1  0.18813502  0.20417546  0.48998734  1
  Ta  Ta108  1  0.39414157  0.00637713  0.01255418  1
  Ta  Ta109  1  0.08832531  0.09404214  0.38252676  1
  Ta  Ta110  1  0.49512917  0.30370152  0.88026939  1
  Ta  Ta111  1  0.40592880  0.20788197  0.25054019  1
  Ta  Ta112  1  0.59866627  0.00705451  0.24668639  1
  Ta  Ta113  1  0.70211241  0.70064272  0.87059286  1
  Ta  Ta114  1  0.59959334  0.40183400  0.73967606  1
  Ta  Ta115  1  0.90733075  0.69987619  0.36935741  1
  Ta  Ta116  1  0.19592590  0.59639932  0.01182498  1
  Ta  Ta117  1  0.09618458  0.50333334  0.13328866  1
  Ta  Ta118  1  0.69674790  0.90241658  0.88114110  1
  Ta  Ta119  1  0.40132051  0.40058799  0.74778984  1
  Ti  Ti120  1  0.02084681  0.80903949  0.26467931  1
  Ti  Ti121  1  0.39539759  0.40808699  0.23304114  1
  Ti  Ti122  1  0.30224226  0.49347339  0.87638961  1
  Ti  Ti123  1  0.00375827  0.39208466  0.49329778  1
  Ti  Ti124  1  0.50278828  0.29407714  0.11067361  1
  Ti  Ti125  1  0.80986879  0.59147794  -0.00705004  1
  Ti  Ti126  1  0.71123476  0.49599161  0.87393862  1
  Ti  Ti127  1  0.89090539  0.29765986  0.37814653  1
  Ti  Ti128  1  0.40150196  0.00619729  0.50618245  1
  Ti  Ti129  1  0.80279656  0.60405533  0.25820415  1
  Ti  Ti130  1  0.49177607  0.50489143  0.36505272  1
  Ti  Ti131  1  0.90423154  0.90358572  0.87471793  1
  Ti  Ti132  1  0.50344416  0.68623435  0.36155699  1
  Ti  Ti133  1  -0.00194725  0.00604326  0.51437757  1
  Ti  Ti134  1  0.60453712  0.01297713  0.50923168  1
  Ti  Ti135  1  0.80501834  0.00327427  0.23618915  1
  Ti  Ti136  1  0.29555585  0.89660819  0.37707700  1
  Ti  Ti137  1  0.60718770  0.39773131  0.50964614  1
  Ti  Ti138  1  0.00797271  0.59605087  0.48464040  1
  Ti  Ti139  1  0.40112322  0.20547007  0.75346080  1
  Ti  Ti140  1  0.10589243  0.71592752  0.12493576  1
  Ti  Ti141  1  0.20528927  0.40524044  0.01820990  1
  Ti  Ti142  1  0.18939277  0.19883719  0.26999767  1
  Ti  Ti143  1  0.60908636  0.01269509  0.00862986  1
  Ti  Ti144  1  0.60129888  0.39907534  0.00663490  1
  Ti  Ti145  1  0.20700254  0.59738171  0.75862301  1
  Ti  Ti146  1  0.79934191  0.60126024  0.48666412  1
  Ti  Ti147  1  0.39586382  0.20258670  0.48775843  1
  Ti  Ti148  1  0.10324523  0.29410596  0.88774174  1
  Ti  Ti149  1  0.39564583  0.60019421  0.49194157  1
  Ti  Ti150  1  0.70678728  0.51830892  0.62884374  1
  Ti  Ti151  1  0.60742439  0.80999946  0.74556296  1
  Ti  Ti152  1  0.68077278  0.09956023  0.63434623  1
  Ti  Ti153  1  0.91096564  0.49930977  0.61217063  1
  Ti  Ti154  1  0.20515945  0.59409538  0.24093643  1
  Ti  Ti155  1  0.58786676  0.19579938  0.74390600  1
  Ti  Ti156  1  0.00081985  0.00106653  0.73371763  1
  Ti  Ti157  1  0.20482341  0.79406822  0.48599186  1
  Ti  Ti158  1  0.89991696  0.69289525  0.87390699  1
  Ti  Ti159  1  0.92567171  0.89492449  0.10473823  1
  Mo  Mo160  1  0.59479683  0.20440392  0.00126750  1
  Mo  Mo161  1  0.60328186  0.60133831  0.25229447  1
  Mo  Mo162  1  0.00270687  0.79160482  -0.01698537  1
  Mo  Mo163  1  0.19195566  0.19971801  -0.01286854  1
  Mo  Mo164  1  0.20300635  0.40196573  0.50372938  1
  Mo  Mo165  1  0.59680678  0.20210930  0.49496519  1
  Mo  Mo166  1  0.89620200  0.50506280  0.88250604  1
  Mo  Mo167  1  0.09461154  0.88483249  0.10750636  1
  Mo  Mo168  1  0.21662164  0.59558126  0.48746622  1
  Mo  Mo169  1  0.29763734  0.10378132  0.14531075  1
  Mo  Mo170  1  0.20772988  0.40417313  0.74163566  1
  Mo  Mo171  1  0.30830902  0.50508789  0.35092474  1
  Mo  Mo172  1  0.70995269  0.69753070  0.35340531  1
  Mo  Mo173  1  0.50140112  0.49465207  0.11832133  1
  Mo  Mo174  1  0.89617025  0.09442370  0.63340282  1
  Mo  Mo175  1  0.69316436  0.90021819  0.61812042  1
  Mo  Mo176  1  0.79075027  0.20227701  0.26156255  1
  Mo  Mo177  1  0.79277594  0.00225064  0.52166957  1
  Mo  Mo178  1  0.80103968  0.59500358  0.76325258  1
  Mo  Mo179  1  0.49808259  0.10387439  0.60765272  1
  Mo  Mo180  1  0.10018204  0.10186328  0.61599047  1
  Mo  Mo181  1  0.30096011  0.50864791  0.63853774  1
  Mo  Mo182  1  0.40628375  0.59269759  0.24545222  1
  Mo  Mo183  1  0.19381437  0.40010327  0.23548871  1
  Mo  Mo184  1  0.59991249  0.00021624  0.74322008  1
  Mo  Mo185  1  0.19703197  0.79260807  0.26591917  1
  Mo  Mo186  1  0.89756069  0.09597560  0.13388427  1
  Mo  Mo187  1  0.61105659  0.79443427  -0.00644995  1
  Mo  Mo188  1  0.69787314  0.69565428  0.64693304  1
  Mo  Mo189  1  0.19453818  0.79187797  -0.00752097  1
  Mo  Mo190  1  0.40577481  0.80079900  -0.00346859  1
  Mo  Mo191  1  0.09139502  0.29880298  0.38311835  1
  Mo  Mo192  1  0.68957155  0.30105569  0.64193049  1
  Mo  Mo193  1  0.09564440  0.89804335  0.39344782  1
  Mo  Mo194  1  0.78785171  0.40620172  -0.00379886  1
  Mo  Mo195  1  0.10355703  0.69399009  0.88319824  1
  Mo  Mo196  1  -0.00377592  0.39978542  0.26392336  1
  Mo  Mo197  1  0.90008704  0.30707197  0.62548715  1
  Mo  Mo198  1  -0.00315614  0.00052263  0.00038996  1
  Mo  Mo199  1  0.29417781  0.49592065  0.13366198  1
