# generated using pymatgen
data_HfZrTaTiMo
_symmetry_space_group_name_H-M   'P 1'
_cell_length_a   15.94230233
_cell_length_b   15.94869820
_cell_length_c   15.16235350
_cell_angle_alpha   90.00295257
_cell_angle_beta   90.01968670
_cell_angle_gamma   89.87006873
_symmetry_Int_Tables_number   1
_chemical_formula_structural   HfZrTaTiMo
_chemical_formula_sum   'Hf40 Zr40 Ta40 Ti40 Mo40'
_cell_volume   3855.15421403
_cell_formula_units_Z   40
loop_
 _symmetry_equiv_pos_site_id
 _symmetry_equiv_pos_as_xyz
  1  'x, y, z'
loop_
 _atom_site_type_symbol
 _atom_site_label
 _atom_site_symmetry_multiplicity
 _atom_site_fract_x
 _atom_site_fract_y
 _atom_site_fract_z
 _atom_site_occupancy
  Hf  Hf0  1  0.39066433  0.19735823  -0.00455528  1
  Hf  Hf1  1  0.70428344  0.69873490  0.62129831  1
  Hf  Hf2  1  0.39940897  0.59121827  0.01082237  1
  Hf  Hf3  1  0.39327676  0.79380169  -0.00242178  1
  Hf  Hf4  1  0.81131640  0.21225047  0.75577441  1
  Hf  Hf5  1  0.18253734  0.58582147  0.50136200  1
  Hf  Hf6  1  0.79546040  0.79818797  0.48334961  1
  Hf  Hf7  1  0.29100647  0.90360319  0.63365260  1
  Hf  Hf8  1  0.69808578  0.50081673  0.87721564  1
  Hf  Hf9  1  0.39033067  0.19866181  0.50047918  1
  Hf  Hf10  1  -0.00167601  0.59213237  0.74130406  1
  Hf  Hf11  1  0.49242919  0.50113130  0.39156625  1
  Hf  Hf12  1  0.59373593  0.20665389  0.48907304  1
  Hf  Hf13  1  0.20788227  0.80201249  0.00472345  1
  Hf  Hf14  1  0.70236160  0.30494334  0.88855494  1
  Hf  Hf15  1  0.88814758  0.92102485  0.36397789  1
  Hf  Hf16  1  0.20311283  0.59493741  0.00793280  1
  Hf  Hf17  1  0.10049981  0.29052074  0.60956973  1
  Hf  Hf18  1  0.60374903  -0.00019622  0.76646407  1
  Hf  Hf19  1  0.10356698  0.09698187  0.61879995  1
  Hf  Hf20  1  -0.00425151  0.80090550  0.76325758  1
  Hf  Hf21  1  0.00636371  0.40781433  0.49242347  1
  Hf  Hf22  1  0.79066412  0.40571639  0.48351530  1
  Hf  Hf23  1  0.89968679  0.90575788  0.62322241  1
  Hf  Hf24  1  0.89726308  0.70095392  0.61874984  1
  Hf  Hf25  1  0.09653704  0.70439209  0.62088275  1
  Hf  Hf26  1  0.20047762  0.80304764  0.24730397  1
  Hf  Hf27  1  0.51439505  0.29017265  0.11271003  1
  Hf  Hf28  1  0.70655549  0.70103139  0.88261797  1
  Hf  Hf29  1  0.79609050  0.79247983  0.26550845  1
  Hf  Hf30  1  0.40263562  0.79654437  0.75039557  1
  Hf  Hf31  1  0.00042325  0.80271086  0.47877857  1
  Hf  Hf32  1  0.60056781  0.80439370  0.75254663  1
  Hf  Hf33  1  0.49820069  0.30423107  0.87706792  1
  Hf  Hf34  1  0.59929396  0.60017244  0.74954552  1
  Hf  Hf35  1  0.31118661  0.49431637  0.62570071  1
  Hf  Hf36  1  0.50264495  0.89872321  0.36277885  1
  Hf  Hf37  1  0.70805059  0.09586985  0.36562049  1
  Hf  Hf38  1  0.70376191  0.10470849  0.62307035  1
  Hf  Hf39  1  0.00232545  0.01400578  0.24204316  1
  Zr  Zr40  1  0.50520380  0.10103290  0.63329916  1
  Zr  Zr41  1  0.50626442  0.48706472  0.61438148  1
  Zr  Zr42  1  0.41066744  -0.01178775  0.51941802  1
  Zr  Zr43  1  0.70280404  0.70384978  0.11511334  1
  Zr  Zr44  1  0.00553939  0.80171833  0.25847205  1
  Zr  Zr45  1  0.39242905  -0.00672748  -0.00638691  1
  Zr  Zr46  1  0.30626128  0.69309833  0.38994883  1
  Zr  Zr47  1  0.89911032  0.90264785  0.12113614  1
  Zr  Zr48  1  0.29565246  0.10441992  0.13188501  1
  Zr  Zr49  1  0.59665270  0.39636954  0.26036442  1
  Zr  Zr50  1  -0.00690150  0.38875434  0.73618627  1
  Zr  Zr51  1  0.58810553  0.81756311  0.51400412  1
  Zr  Zr52  1  0.48836854  0.68334972  0.60887464  1
  Zr  Zr53  1  0.09716445  0.90864221  0.63461127  1
  Zr  Zr54  1  0.50700415  0.08629348  0.37291930  1
  Zr  Zr55  1  0.80578992  0.39590655  0.02561350  1
  Zr  Zr56  1  0.68587234  0.50990615  0.13217688  1
  Zr  Zr57  1  0.39506150  0.40308398  0.01362938  1
  Zr  Zr58  1  0.29014608  0.30430458  0.86855018  1
  Zr  Zr59  1  0.41386426  0.19850079  0.25738362  1
  Zr  Zr60  1  0.09179413  0.28900237  0.88350674  1
  Zr  Zr61  1  0.70709909  0.89723463  0.11417543  1
  Zr  Zr62  1  0.40416852  0.39637573  0.24888756  1
  Zr  Zr63  1  0.19726966  0.59752766  0.74547568  1
  Zr  Zr64  1  0.50861582  0.89455789  0.11668751  1
  Zr  Zr65  1  0.81106832  0.59723203  0.00820128  1
  Zr  Zr66  1  0.19163441  0.80879649  0.48302720  1
  Zr  Zr67  1  0.90205940  0.49081077  0.87728103  1
  Zr  Zr68  1  0.01480749  0.80615063  -0.00129116  1
  Zr  Zr69  1  0.31430368  0.90282657  0.37244143  1
  Zr  Zr70  1  0.39741201  0.78916753  0.22520708  1
  Zr  Zr71  1  0.49716474  0.70165838  0.38741103  1
  Zr  Zr72  1  0.10515692  0.48801881  0.87435662  1
  Zr  Zr73  1  0.19183488  -0.00520957  0.00368575  1
  Zr  Zr74  1  0.89805236  0.90650844  0.88830340  1
  Zr  Zr75  1  0.92343764  0.10197192  0.89195682  1
  Zr  Zr76  1  0.19807299  0.80387084  0.77745309  1
  Zr  Zr77  1  0.69125565  0.30639461  0.62008590  1
  Zr  Zr78  1  0.80491901  0.00867296  0.75639208  1
  Zr  Zr79  1  -0.00184327  0.39675618  0.02636132  1
  Ta  Ta80  1  0.09448607  0.50580094  0.35792111  1
  Ta  Ta81  1  0.28831908  0.29339833  0.13814519  1
  Ta  Ta82  1  0.29257113  0.49295037  0.36920871  1
  Ta  Ta83  1  -0.00110873  0.19351337  0.74443383  1
  Ta  Ta84  1  0.29067213  0.49461768  0.14526758  1
  Ta  Ta85  1  0.90377498  0.50112829  0.36448569  1
  Ta  Ta86  1  0.70135806  0.90665867  0.62341566  1
  Ta  Ta87  1  0.39278053  0.19920010  0.74966858  1
  Ta  Ta88  1  0.28694072  0.29769638  0.35994573  1
  Ta  Ta89  1  0.90334359  0.29657854  0.36913560  1
  Ta  Ta90  1  0.20040601  0.00759115  0.48019097  1
  Ta  Ta91  1  0.00622147  0.00297274  0.48478903  1
  Ta  Ta92  1  0.19908525  0.60557826  0.25063532  1
  Ta  Ta93  1  0.29863631  0.69843723  0.61732500  1
  Ta  Ta94  1  0.60225121  0.39803354  0.75251811  1
  Ta  Ta95  1  0.60563216  0.00480818  -0.01018387  1
  Ta  Ta96  1  0.39359046  0.00318081  0.76064547  1
  Ta  Ta97  1  0.19555990  0.00004801  0.25277086  1
  Ta  Ta98  1  0.69013869  0.91077630  0.37265340  1
  Ta  Ta99  1  0.80173256  0.39720456  0.25124532  1
  Ta  Ta100  1  0.09889527  0.69752961  0.13032395  1
  Ta  Ta101  1  0.00482826  0.59589222  0.01759518  1
  Ta  Ta102  1  0.81007681  0.20519717  0.01168944  1
  Ta  Ta103  1  0.80182846  0.40315517  0.74181034  1
  Ta  Ta104  1  0.90132791  0.10895034  0.37708176  1
  Ta  Ta105  1  0.70024691  0.29319736  0.36264154  1
  Ta  Ta106  1  0.79651808  0.80450561  0.75980535  1
  Ta  Ta107  1  0.51185643  0.10208979  0.11404016  1
  Ta  Ta108  1  0.40245164  0.59714907  0.24207656  1
  Ta  Ta109  1  0.80144031  0.20486783  0.49220470  1
  Ta  Ta110  1  0.60749962  0.00295238  0.23086846  1
  Ta  Ta111  1  0.70424876  0.50187618  0.62390576  1
  Ta  Ta112  1  0.90827093  0.10624945  0.60686977  1
  Ta  Ta113  1  0.60056438  0.20296526  0.76273476  1
  Ta  Ta114  1  0.19862082  0.39813380  0.01887508  1
  Ta  Ta115  1  0.80120340  0.59895542  0.48188784  1
  Ta  Ta116  1  0.49090863  0.49818196  0.86043402  1
  Ta  Ta117  1  0.00271985  0.39610453  0.25027183  1
  Ta  Ta118  1  0.51655396  0.68567078  0.11410658  1
  Ta  Ta119  1  0.30470989  0.49287167  0.86024496  1
  Ti  Ti120  1  0.30119976  0.09881711  0.36428270  1
  Ti  Ti121  1  0.00266539  0.20434616  0.24848060  1
  Ti  Ti122  1  0.09515847  0.68731600  0.88333349  1
  Ti  Ti123  1  0.60048985  0.80228318  -0.01585961  1
  Ti  Ti124  1  0.80116511  0.01111656  0.00641721  1
  Ti  Ti125  1  0.49616476  0.90040830  0.87619446  1
  Ti  Ti126  1  0.90276648  0.50908993  0.15131679  1
  Ti  Ti127  1  0.90255438  0.69638003  0.88247318  1
  Ti  Ti128  1  0.80484566  0.59860248  0.75007786  1
  Ti  Ti129  1  0.91602701  0.68048964  0.37204025  1
  Ti  Ti130  1  0.09912097  0.11364763  0.37568226  1
  Ti  Ti131  1  0.69832598  0.10925637  0.12030138  1
  Ti  Ti132  1  0.10448884  0.10956273  0.12160014  1
  Ti  Ti133  1  0.90053961  0.70484892  0.12591257  1
  Ti  Ti134  1  0.89881610  0.29747815  0.60586329  1
  Ti  Ti135  1  0.50014678  0.10639012  0.87957035  1
  Ti  Ti136  1  0.28214439  0.10177477  0.87480841  1
  Ti  Ti137  1  0.30678349  0.68469835  0.86770532  1
  Ti  Ti138  1  0.79096383  0.60222441  0.26614706  1
  Ti  Ti139  1  0.69642196  0.29094096  0.13018173  1
  Ti  Ti140  1  0.62035184  0.59064337  0.48695747  1
  Ti  Ti141  1  0.19945690  0.39297666  0.72971823  1
  Ti  Ti142  1  0.59885074  0.60511376  0.26624283  1
  Ti  Ti143  1  0.19640713  0.19792469  0.74752818  1
  Ti  Ti144  1  0.20426911  0.20198804  0.48834336  1
  Ti  Ti145  1  0.59135832  0.41618551  0.00438875  1
  Ti  Ti146  1  0.20179980  0.39438398  0.49683668  1
  Ti  Ti147  1  0.80685405  0.19467222  0.23842420  1
  Ti  Ti148  1  0.39156196  0.38301947  0.49412722  1
  Ti  Ti149  1  0.70576302  0.10845265  0.88525531  1
  Ti  Ti150  1  0.10993554  0.29562152  0.13976328  1
  Ti  Ti151  1  0.40187031  -0.00382455  0.23066026  1
  Ti  Ti152  1  -0.00209846  0.20458886  0.02231025  1
  Ti  Ti153  1  0.89653598  0.50369318  0.61029468  1
  Ti  Ti154  1  0.79744534  0.00387396  0.50223660  1
  Ti  Ti155  1  0.60492605  0.79288339  0.25172483  1
  Ti  Ti156  1  0.49134755  0.30167818  0.63228406  1
  Ti  Ti157  1  0.49968819  0.68918063  0.88110865  1
  Ti  Ti158  1  0.08937818  0.93636840  0.86181305  1
  Ti  Ti159  1  0.29257362  0.10100336  0.62941652  1
  Mo  Mo160  1  0.10114352  0.49946300  0.13940505  1
  Mo  Mo161  1  0.09839656  0.91463757  0.36450950  1
  Mo  Mo162  1  0.40165450  0.39203092  0.74316258  1
  Mo  Mo163  1  0.29991772  0.90111316  0.13673654  1
  Mo  Mo164  1  0.60698655  0.19553089  0.25067721  1
  Mo  Mo165  1  -0.00451081  0.59484538  0.50365384  1
  Mo  Mo166  1  0.10298340  0.10853969  0.87816625  1
  Mo  Mo167  1  0.70229685  0.90304220  0.88928845  1
  Mo  Mo168  1  0.19159071  0.19511334  0.26292875  1
  Mo  Mo169  1  0.38272485  0.58659383  0.49320362  1
  Mo  Mo170  1  0.29982342  0.90236065  0.86340454  1
  Mo  Mo171  1  -0.00090928  0.60183070  0.23701180  1
  Mo  Mo172  1  -0.00039662  0.20216901  0.48880809  1
  Mo  Mo173  1  0.29700564  0.29183070  0.62772309  1
  Mo  Mo174  1  0.60640874  0.19522706  -0.01306585  1
  Mo  Mo175  1  0.10380043  0.90384066  0.13625120  1
  Mo  Mo176  1  -0.00069607  0.01062595  0.73676684  1
  Mo  Mo177  1  0.70145026  0.50064117  0.36435045  1
  Mo  Mo178  1  0.61079174  0.00020758  0.50790114  1
  Mo  Mo179  1  0.00723917  0.00877292  0.02361477  1
  Mo  Mo180  1  0.80622366  0.79880743  -0.01522042  1
  Mo  Mo181  1  0.20147736  0.01381912  0.76151783  1
  Mo  Mo182  1  0.90073961  0.10568121  0.12040848  1
  Mo  Mo183  1  0.59969994  0.39595037  0.48673914  1
  Mo  Mo184  1  0.39846606  0.59847904  0.75597691  1
  Mo  Mo185  1  0.89817312  0.29545485  0.87748353  1
  Mo  Mo186  1  0.10109342  0.30081095  0.37559474  1
  Mo  Mo187  1  0.90167458  0.29626029  0.15100356  1
  Mo  Mo188  1  0.29899432  0.69220207  0.12570048  1
  Mo  Mo189  1  0.50080186  0.50459206  0.13693405  1
  Mo  Mo190  1  0.49568033  0.30006502  0.38693553  1
  Mo  Mo191  1  0.49954070  0.90408174  0.65204218  1
  Mo  Mo192  1  0.69485780  0.70311676  0.38234759  1
  Mo  Mo193  1  0.10145184  0.49119117  0.62552147  1
  Mo  Mo194  1  0.39552596  0.79844348  0.52364242  1
  Mo  Mo195  1  0.19370394  0.39870499  0.24870710  1
  Mo  Mo196  1  0.09707870  0.69078680  0.36704129  1
  Mo  Mo197  1  0.59093669  0.59779552  -0.01533612  1
  Mo  Mo198  1  0.19429644  0.20523156  0.00445760  1
  Mo  Mo199  1  0.79526032  0.00848062  0.23648624  1
