# generated using pymatgen
data_HfZrTaTiMo
_symmetry_space_group_name_H-M   'P 1'
_cell_length_a   15.92250110
_cell_length_b   15.93978547
_cell_length_c   15.19718305
_cell_angle_alpha   89.94163937
_cell_angle_beta   90.01427659
_cell_angle_gamma   89.95329895
_symmetry_Int_Tables_number   1
_chemical_formula_structural   HfZrTaTiMo
_chemical_formula_sum   'Hf40 Zr40 Ta40 Ti40 Mo40'
_cell_volume   3857.06067951
_cell_formula_units_Z   40
loop_
 _symmetry_equiv_pos_site_id
 _symmetry_equiv_pos_as_xyz
  1  'x, y, z'
loop_
 _atom_site_type_symbol
 _atom_site_label
 _atom_site_symmetry_multiplicity
 _atom_site_fract_x
 _atom_site_fract_y
 _atom_site_fract_z
 _atom_site_occupancy
  Hf  Hf0  1  0.19500078  0.01056090  0.00268917  1
  Hf  Hf1  1  0.81199103  0.79899158  0.24070037  1
  Hf  Hf2  1  0.10842407  0.29219418  0.37101207  1
  Hf  Hf3  1  0.60060744  0.60043351  0.76121680  1
  Hf  Hf4  1  0.50628668  0.69278840  0.11620239  1
  Hf  Hf5  1  0.09818732  0.50491940  0.12531293  1
  Hf  Hf6  1  0.89978681  0.49653652  0.37319490  1
  Hf  Hf7  1  0.81144796  0.38512242  0.74276933  1
  Hf  Hf8  1  0.50016921  0.69916261  0.36830205  1
  Hf  Hf9  1  0.59577775  0.40653104  0.24683429  1
  Hf  Hf10  1  0.09575064  0.91187990  0.36199796  1
  Hf  Hf11  1  0.70362572  0.69554550  0.10739527  1
  Hf  Hf12  1  0.40092383  0.01401524  0.48956610  1
  Hf  Hf13  1  0.50388911  0.90018133  0.11920226  1
  Hf  Hf14  1  0.90759528  0.29606073  0.14323928  1
  Hf  Hf15  1  0.71081029  0.70198054  0.62659498  1
  Hf  Hf16  1  0.78644633  0.41153510  0.24711415  1
  Hf  Hf17  1  0.59907342  0.80366009  0.51201048  1
  Hf  Hf18  1  -0.00651334  -0.00586992  0.74627361  1
  Hf  Hf19  1  0.80088174  0.19795402  0.00675927  1
  Hf  Hf20  1  0.19608076  0.00069452  0.74007013  1
  Hf  Hf21  1  0.40117596  0.79819576  -0.00502854  1
  Hf  Hf22  1  0.09627835  0.10595269  0.14722897  1
  Hf  Hf23  1  0.39910268  0.60159200  0.50561681  1
  Hf  Hf24  1  -0.00486980  0.60829629  0.25813289  1
  Hf  Hf25  1  0.00713089  0.20051204  -0.00985519  1
  Hf  Hf26  1  0.89946285  0.29264714  0.37483285  1
  Hf  Hf27  1  0.01169605  0.59492978  0.49144994  1
  Hf  Hf28  1  0.60361171  0.01642357  0.02033345  1
  Hf  Hf29  1  0.61007517  0.80241528  0.75810023  1
  Hf  Hf30  1  0.90113331  0.69451058  0.63481340  1
  Hf  Hf31  1  0.40340445  0.40143141  0.50332671  1
  Hf  Hf32  1  0.10089305  0.70393435  0.11125585  1
  Hf  Hf33  1  0.69493867  0.09206103  0.86877387  1
  Hf  Hf34  1  0.49340109  0.10025109  0.63503112  1
  Hf  Hf35  1  0.49460166  0.30084487  0.12714352  1
  Hf  Hf36  1  0.91085868  0.50089931  0.63048771  1
  Hf  Hf37  1  0.90649464  0.69864257  0.87627674  1
  Hf  Hf38  1  0.70604187  0.89861258  0.89782733  1
  Hf  Hf39  1  0.29065473  0.90786718  0.87793286  1
  Zr  Zr40  1  0.40384445  0.58719303  0.24256222  1
  Zr  Zr41  1  0.69393342  0.08916067  0.62285490  1
  Zr  Zr42  1  0.00998157  -0.00558759  0.51200328  1
  Zr  Zr43  1  0.70735033  0.70143959  0.37831609  1
  Zr  Zr44  1  0.59804245  0.39055780  0.73390808  1
  Zr  Zr45  1  0.69787958  0.30119637  0.88811080  1
  Zr  Zr46  1  0.29200165  0.69313576  0.11534541  1
  Zr  Zr47  1  0.40439542  0.80167446  0.75988906  1
  Zr  Zr48  1  0.29930394  0.70301444  0.37991308  1
  Zr  Zr49  1  0.90631211  0.09343799  0.13241632  1
  Zr  Zr50  1  0.50604105  0.91241407  0.88048495  1
  Zr  Zr51  1  0.29637829  0.70323990  0.63415357  1
  Zr  Zr52  1  0.40072209  0.21881655  0.75160161  1
  Zr  Zr53  1  0.71068218  0.90824302  0.38799364  1
  Zr  Zr54  1  0.29376429  0.90306575  0.38056087  1
  Zr  Zr55  1  0.89236669  0.88261005  0.61628262  1
  Zr  Zr56  1  0.00162926  0.39189812  -0.00762441  1
  Zr  Zr57  1  0.69531179  0.29935248  0.37725666  1
  Zr  Zr58  1  0.10743550  0.70632682  0.37121165  1
  Zr  Zr59  1  0.08526782  0.70471462  0.64509980  1
  Zr  Zr60  1  0.88684705  0.10956812  0.61653024  1
  Zr  Zr61  1  0.88924111  0.09366175  0.87125101  1
  Zr  Zr62  1  0.30957007  0.91104881  0.62752724  1
  Zr  Zr63  1  0.18400647  0.81615130  0.51745170  1
  Zr  Zr64  1  0.89499874  0.50142119  0.11617735  1
  Zr  Zr65  1  0.50289066  0.90392336  0.36952878  1
  Zr  Zr66  1  0.19071621  0.58892425  0.75810648  1
  Zr  Zr67  1  0.71010120  0.28214929  0.60885077  1
  Zr  Zr68  1  0.90800971  0.70132693  0.10053201  1
  Zr  Zr69  1  0.61193452  0.80399144  0.24234116  1
  Zr  Zr70  1  0.19551298  0.41234471  0.50238306  1
  Zr  Zr71  1  0.39227649  0.80181171  0.23869486  1
  Zr  Zr72  1  0.49398743  0.47969721  0.87597164  1
  Zr  Zr73  1  0.60006091  0.59533525  0.50404331  1
  Zr  Zr74  1  0.28461914  0.70796824  0.87456636  1
  Zr  Zr75  1  0.39446261  0.00758276  0.24649093  1
  Zr  Zr76  1  0.09777009  0.29755223  0.61833286  1
  Zr  Zr77  1  0.10366938  0.10677428  0.86215075  1
  Zr  Zr78  1  0.19977520  0.39308267  0.00505637  1
  Zr  Zr79  1  0.39589921  0.19964002  0.00058689  1
  Ta  Ta80  1  0.49820576  0.70205043  0.63767821  1
  Ta  Ta81  1  0.80648549  0.59618406  0.49418550  1
  Ta  Ta82  1  0.60008895  0.40028543  0.50333022  1
  Ta  Ta83  1  -0.01532523  0.21680857  0.75049085  1
  Ta  Ta84  1  0.69851858  0.30277680  0.12185515  1
  Ta  Ta85  1  0.61278153  0.58608260  0.24859479  1
  Ta  Ta86  1  0.80341486  0.40103623  0.50404372  1
  Ta  Ta87  1  0.80109969  -0.00762279  0.23749961  1
  Ta  Ta88  1  0.70082040  0.48589364  0.88380210  1
  Ta  Ta89  1  0.50239468  0.49569450  0.37734601  1
  Ta  Ta90  1  0.20455874  0.40565842  0.25199823  1
  Ta  Ta91  1  0.89674879  0.89914683  0.88623805  1
  Ta  Ta92  1  0.49985357  0.10113035  0.86777114  1
  Ta  Ta93  1  -0.00548643  0.80579432  0.24885006  1
  Ta  Ta94  1  0.59875774  0.20226676  0.75341800  1
  Ta  Ta95  1  0.30214892  0.30570647  0.87751646  1
  Ta  Ta96  1  0.00399087  -0.00335283  -0.00632795  1
  Ta  Ta97  1  0.29998784  0.29771955  0.14255724  1
  Ta  Ta98  1  0.30357771  0.29793152  0.37311132  1
  Ta  Ta99  1  0.39697717  0.59399263  -0.01390492  1
  Ta  Ta100  1  0.29889786  0.11200533  0.62234221  1
  Ta  Ta101  1  0.19120709  0.59287029  -0.01720104  1
  Ta  Ta102  1  0.00464777  0.19008283  0.48902881  1
  Ta  Ta103  1  0.89880695  0.08596548  0.37264762  1
  Ta  Ta104  1  0.50760691  0.91151308  0.63739580  1
  Ta  Ta105  1  0.90012802  0.49065198  0.87602858  1
  Ta  Ta106  1  0.20606587  0.39567619  0.74209384  1
  Ta  Ta107  1  0.00735506  0.40056392  0.75334858  1
  Ta  Ta108  1  0.58943306  0.19317517  0.48891134  1
  Ta  Ta109  1  0.79690955  0.59404749  -0.01755780  1
  Ta  Ta110  1  0.29979753  0.50020693  0.37585802  1
  Ta  Ta111  1  0.39536041  0.01200529  0.00649774  1
  Ta  Ta112  1  0.59751369  0.60028803  -0.01925093  1
  Ta  Ta113  1  0.61340295  0.01004504  0.24074119  1
  Ta  Ta114  1  0.09197568  0.90574660  0.13091939  1
  Ta  Ta115  1  0.30311843  0.10511299  0.86424441  1
  Ta  Ta116  1  0.70821411  0.50051766  0.62399009  1
  Ta  Ta117  1  0.79559002  0.59220778  0.76545027  1
  Ta  Ta118  1  0.79270710  0.19028752  0.25218165  1
  Ta  Ta119  1  0.89984112  0.89420602  0.38711451  1
  Ti  Ti120  1  0.49313931  0.29681392  0.37258758  1
  Ti  Ti121  1  0.79875082  0.20326770  0.75690392  1
  Ti  Ti122  1  0.49930255  0.29058555  0.60989909  1
  Ti  Ti123  1  0.79657842  0.60037537  0.25415693  1
  Ti  Ti124  1  0.10343518  0.29310083  0.14513108  1
  Ti  Ti125  1  0.01464070  0.80930460  -0.01536730  1
  Ti  Ti126  1  0.49598235  0.10965882  0.13855919  1
  Ti  Ti127  1  0.29999118  0.29037650  0.60229716  1
  Ti  Ti128  1  0.09798928  0.11063334  0.63161081  1
  Ti  Ti129  1  0.30319805  0.49517581  0.11605422  1
  Ti  Ti130  1  0.20370718  0.20912942  0.74331363  1
  Ti  Ti131  1  0.19765141  0.80584258  0.23831407  1
  Ti  Ti132  1  0.70464268  0.09687632  0.38100001  1
  Ti  Ti133  1  0.71189699  0.89781869  0.10772899  1
  Ti  Ti134  1  0.30073257  0.48746322  0.87598962  1
  Ti  Ti135  1  0.29798569  0.11318033  0.13647112  1
  Ti  Ti136  1  0.20093089  0.20385451  0.00370852  1
  Ti  Ti137  1  0.19273974  0.01590513  0.50670610  1
  Ti  Ti138  1  0.40695788  0.80481987  0.50924799  1
  Ti  Ti139  1  0.19646305  0.59593095  0.50855428  1
  Ti  Ti140  1  0.20163041  0.59409921  0.25265632  1
  Ti  Ti141  1  0.50058418  0.10639936  0.36236110  1
  Ti  Ti142  1  0.79962103  0.79697385  0.76506896  1
  Ti  Ti143  1  0.20235271  0.00471803  0.24778322  1
  Ti  Ti144  1  0.39469915  0.39746576  0.73458313  1
  Ti  Ti145  1  0.30085603  0.50243913  0.62994325  1
  Ti  Ti146  1  0.40110885  0.59840546  0.76197805  1
  Ti  Ti147  1  0.28480082  0.11673301  0.37535797  1
  Ti  Ti148  1  0.78663173  -0.01908611  0.73920634  1
  Ti  Ti149  1  0.50222067  0.49674374  0.10731429  1
  Ti  Ti150  1  0.10805090  0.30323506  0.86401202  1
  Ti  Ti151  1  0.49940029  0.50349230  0.63133007  1
  Ti  Ti152  1  0.00253550  0.39997703  0.49980287  1
  Ti  Ti153  1  0.00931339  0.40496382  0.25698921  1
  Ti  Ti154  1  0.60286357  0.19962469  0.25180450  1
  Ti  Ti155  1  0.50013984  0.30233182  0.89069942  1
  Ti  Ti156  1  0.59807260  0.19929781  0.00585434  1
  Ti  Ti157  1  0.29033903  0.90171921  0.11316974  1
  Ti  Ti158  1  0.39841671  0.40314960  0.25145611  1
  Ti  Ti159  1  0.59692275  0.00120894  0.49880999  1
  Mo  Mo160  1  0.09935551  0.49971766  0.64007601  1
  Mo  Mo161  1  0.39839415  0.00994521  0.75894254  1
  Mo  Mo162  1  0.09433903  0.89905872  0.64001245  1
  Mo  Mo163  1  0.90686406  0.29848944  0.60140182  1
  Mo  Mo164  1  0.90023657  0.29882442  0.87806014  1
  Mo  Mo165  1  0.39447374  0.40025904  0.01170551  1
  Mo  Mo166  1  0.70217309  0.69734020  0.88129277  1
  Mo  Mo167  1  0.09701571  0.70267125  0.87946727  1
  Mo  Mo168  1  0.70022763  0.10835704  0.13516467  1
  Mo  Mo169  1  0.80572591  -0.00079593  0.01694320  1
  Mo  Mo170  1  0.90152018  0.70304783  0.37990306  1
  Mo  Mo171  1  -0.00281563  0.79342445  0.48421240  1
  Mo  Mo172  1  0.00742341  0.59419439  -0.02001933  1
  Mo  Mo173  1  -0.00247552  0.80416072  0.77153482  1
  Mo  Mo174  1  0.20480317  0.20097816  0.25121660  1
  Mo  Mo175  1  0.20047906  0.19390237  0.50149433  1
  Mo  Mo176  1  0.69982653  0.50034393  0.39095735  1
  Mo  Mo177  1  0.09989574  0.49321875  0.86853563  1
  Mo  Mo178  1  0.79934205  -0.00251120  0.50222818  1
  Mo  Mo179  1  0.59862088  0.39959444  0.01296606  1
  Mo  Mo180  1  0.69950912  0.89879444  0.61805106  1
  Mo  Mo181  1  0.40185688  0.20369059  0.26275095  1
  Mo  Mo182  1  0.18849788  0.80869722  0.74690847  1
  Mo  Mo183  1  -0.00453485  0.59221532  0.76874851  1
  Mo  Mo184  1  0.60126005  -0.00088156  0.75083245  1
  Mo  Mo185  1  0.40167535  0.20025367  0.48504365  1
  Mo  Mo186  1  -0.00084907  0.19514520  0.27070719  1
  Mo  Mo187  1  0.80467989  0.79076841  0.49573404  1
  Mo  Mo188  1  0.90533999  0.89800672  0.10543348  1
  Mo  Mo189  1  0.79984749  0.19313552  0.47680050  1
  Mo  Mo190  1  0.09905079  0.89707689  0.86640442  1
  Mo  Mo191  1  0.10000613  0.09810373  0.36598964  1
  Mo  Mo192  1  0.49839635  0.69484571  0.87580874  1
  Mo  Mo193  1  0.69361136  0.50180453  0.10395044  1
  Mo  Mo194  1  0.19395559  0.80964083  0.00980852  1
  Mo  Mo195  1  0.60295042  0.79605673  -0.00313528  1
  Mo  Mo196  1  0.10542794  0.49912682  0.35917878  1
  Mo  Mo197  1  0.79968230  0.39908322  0.01293822  1
  Mo  Mo198  1  0.80664277  0.79778070  -0.00098547  1
  Mo  Mo199  1  -0.00920841  -0.00868644  0.25399789  1
