# generated using pymatgen
data_HfZrTaTiMo
_symmetry_space_group_name_H-M   'P 1'
_cell_length_a   15.92594714
_cell_length_b   15.93739790
_cell_length_c   15.21787407
_cell_angle_alpha   90.03434316
_cell_angle_beta   89.97204704
_cell_angle_gamma   90.05541648
_symmetry_Int_Tables_number   1
_chemical_formula_structural   HfZrTaTiMo
_chemical_formula_sum   'Hf40 Zr40 Ta40 Ti40 Mo40'
_cell_volume   3862.56978317
_cell_formula_units_Z   40
loop_
 _symmetry_equiv_pos_site_id
 _symmetry_equiv_pos_as_xyz
  1  'x, y, z'
loop_
 _atom_site_type_symbol
 _atom_site_label
 _atom_site_symmetry_multiplicity
 _atom_site_fract_x
 _atom_site_fract_y
 _atom_site_fract_z
 _atom_site_occupancy
  Hf  Hf0  1  0.90823650  0.50560126  0.60616467  1
  Hf  Hf1  1  0.01751615  -0.00266780  0.75485179  1
  Hf  Hf2  1  0.80255951  0.60848451  0.73613985  1
  Hf  Hf3  1  0.80468316  0.21032322  0.75086486  1
  Hf  Hf4  1  0.70542516  0.69702060  0.87846350  1
  Hf  Hf5  1  0.18940816  0.80325476  0.74711308  1
  Hf  Hf6  1  0.51041566  0.28794352  0.87940243  1
  Hf  Hf7  1  0.61685741  -0.01065633  0.24857853  1
  Hf  Hf8  1  0.80225541  0.39198239  0.26458087  1
  Hf  Hf9  1  0.39794220  0.41620033  -0.01377765  1
  Hf  Hf10  1  0.80458453  0.00389705  0.25417168  1
  Hf  Hf11  1  0.60345109  0.41143909  -0.00947254  1
  Hf  Hf12  1  0.28869058  0.68943458  0.87003682  1
  Hf  Hf13  1  0.40204437  0.18709008  0.74897655  1
  Hf  Hf14  1  0.28540912  0.69085626  0.36047701  1
  Hf  Hf15  1  0.50089029  0.70004728  0.61349814  1
  Hf  Hf16  1  0.70084759  0.50126832  0.14152725  1
  Hf  Hf17  1  0.09532056  0.89987124  0.38402964  1
  Hf  Hf18  1  0.49963549  0.50425683  0.37531044  1
  Hf  Hf19  1  0.89833409  0.49874800  0.13696823  1
  Hf  Hf20  1  0.49154831  0.90267582  0.36279797  1
  Hf  Hf21  1  0.50261923  0.30337579  0.11154158  1
  Hf  Hf22  1  0.19232335  0.18112951  0.74447936  1
  Hf  Hf23  1  0.89274630  0.89783985  0.11616976  1
  Hf  Hf24  1  -0.00170683  0.00540122  0.24338884  1
  Hf  Hf25  1  0.10630194  0.10795329  0.39335273  1
  Hf  Hf26  1  0.00165359  0.38014731  0.25908436  1
  Hf  Hf27  1  0.70324607  0.71566716  0.12690190  1
  Hf  Hf28  1  0.29516212  0.29375269  0.62394984  1
  Hf  Hf29  1  0.20379763  0.59473009  0.01093045  1
  Hf  Hf30  1  0.09946398  0.29864862  0.10485778  1
  Hf  Hf31  1  0.20488630  0.79244668  0.49815975  1
  Hf  Hf32  1  0.08448160  0.28613377  0.87404817  1
  Hf  Hf33  1  0.59824908  0.39384983  0.25943548  1
  Hf  Hf34  1  0.49563717  0.09750870  0.36251868  1
  Hf  Hf35  1  0.49684734  0.70207377  0.36995990  1
  Hf  Hf36  1  0.58835250  0.00353679  0.50157013  1
  Hf  Hf37  1  0.50386669  0.29666564  0.62598273  1
  Hf  Hf38  1  0.70573390  0.29734259  0.10891902  1
  Hf  Hf39  1  0.79350003  0.80556758  0.26928303  1
  Zr  Zr40  1  0.19686248  0.41104977  0.50915658  1
  Zr  Zr41  1  0.28934035  0.28968397  0.87632271  1
  Zr  Zr42  1  -0.00189347  0.79922608  0.74801445  1
  Zr  Zr43  1  0.40086292  0.79988556  0.75379333  1
  Zr  Zr44  1  0.61344119  0.19870750  0.24713164  1
  Zr  Zr45  1  0.38546545  0.60034477  0.50013207  1
  Zr  Zr46  1  0.29170346  0.50744152  0.64342673  1
  Zr  Zr47  1  0.69697318  0.09641111  0.63861153  1
  Zr  Zr48  1  0.49394098  0.08952870  0.88445166  1
  Zr  Zr49  1  0.10597862  0.49481992  0.14141384  1
  Zr  Zr50  1  0.90216657  0.50103312  0.38627564  1
  Zr  Zr51  1  0.91140179  0.10784661  0.40017909  1
  Zr  Zr52  1  0.70289265  0.30218099  0.39997546  1
  Zr  Zr53  1  -0.00488685  0.62267162  0.25421905  1
  Zr  Zr54  1  0.18607828  0.20109143  0.24205968  1
  Zr  Zr55  1  -0.00699810  0.40650701  -0.01032027  1
  Zr  Zr56  1  0.40225115  0.20266633  0.23905756  1
  Zr  Zr57  1  0.81360041  0.20155547  0.24938819  1
  Zr  Zr58  1  0.29200319  0.28498400  0.38545285  1
  Zr  Zr59  1  0.39691402  0.79857745  0.00827280  1
  Zr  Zr60  1  0.18967993  -0.00387594  0.23737961  1
  Zr  Zr61  1  0.60497535  0.40214514  0.74837873  1
  Zr  Zr62  1  0.50611415  0.09181767  0.11634704  1
  Zr  Zr63  1  0.40175419  0.40567098  0.76285695  1
  Zr  Zr64  1  0.69997454  0.50366588  0.60337282  1
  Zr  Zr65  1  0.22596628  0.00133341  0.50049753  1
  Zr  Zr66  1  0.80423250  0.80204984  0.74923546  1
  Zr  Zr67  1  0.59432505  0.59856505  0.00611283  1
  Zr  Zr68  1  0.10611268  0.51215156  0.37478071  1
  Zr  Zr69  1  0.70844828  0.10062838  0.39477420  1
  Zr  Zr70  1  0.90183805  0.50759544  0.86068524  1
  Zr  Zr71  1  0.80511719  0.59878346  0.00794516  1
  Zr  Zr72  1  0.39681222  0.16547442  0.51621240  1
  Zr  Zr73  1  0.49722936  0.69588448  0.87927011  1
  Zr  Zr74  1  0.29302831  0.30844378  0.12043386  1
  Zr  Zr75  1  0.60525787  0.80296589  0.75483768  1
  Zr  Zr76  1  0.91782865  0.11061608  0.87609638  1
  Zr  Zr77  1  0.90045549  0.90905943  0.60904780  1
  Zr  Zr78  1  0.10467672  0.51356657  0.85754532  1
  Zr  Zr79  1  0.80012496  -0.00830316  0.77224397  1
  Ta  Ta80  1  0.10671618  0.90029382  0.89052280  1
  Ta  Ta81  1  0.29929732  0.90655387  0.87881582  1
  Ta  Ta82  1  -0.00243372  0.39333748  0.73554883  1
  Ta  Ta83  1  0.50031352  0.89853227  0.61904456  1
  Ta  Ta84  1  0.39831539  0.40095080  0.49543299  1
  Ta  Ta85  1  0.11083712  0.09495662  0.89347265  1
  Ta  Ta86  1  0.39638870  0.59503675  0.01177706  1
  Ta  Ta87  1  0.29316490  0.49824338  0.35870905  1
  Ta  Ta88  1  0.29889504  0.09472207  0.11766950  1
  Ta  Ta89  1  0.39835870  -0.00609313  0.74292654  1
  Ta  Ta90  1  0.90966926  0.10218158  0.62938835  1
  Ta  Ta91  1  0.10251890  0.09369634  0.61185225  1
  Ta  Ta92  1  0.09388808  0.29636987  0.39882603  1
  Ta  Ta93  1  0.10103709  0.90090875  0.60921962  1
  Ta  Ta94  1  0.90830609  0.70042468  0.88361594  1
  Ta  Ta95  1  0.60148097  -0.01175968  -0.01147781  1
  Ta  Ta96  1  0.89887688  0.10131748  0.10433938  1
  Ta  Ta97  1  0.29998274  0.49383952  0.14557789  1
  Ta  Ta98  1  0.80583039  0.20620791  -0.01821684  1
  Ta  Ta99  1  0.50836261  0.89253777  0.12949595  1
  Ta  Ta100  1  0.69734330  0.89973468  0.61104803  1
  Ta  Ta101  1  0.59495776  -0.00964652  0.76207885  1
  Ta  Ta102  1  0.40083366  0.39445916  0.26472177  1
  Ta  Ta103  1  0.30768646  0.08448811  0.35287265  1
  Ta  Ta104  1  0.69818862  0.50878447  0.38202213  1
  Ta  Ta105  1  0.70976779  0.09519777  0.09875439  1
  Ta  Ta106  1  0.39745472  0.79532243  0.23865337  1
  Ta  Ta107  1  0.80189123  0.39910322  0.73739976  1
  Ta  Ta108  1  0.69800868  0.70377272  0.60546191  1
  Ta  Ta109  1  0.09574278  0.70262082  0.88727152  1
  Ta  Ta110  1  0.79645984  0.80466262  0.48695919  1
  Ta  Ta111  1  0.80215151  0.20939421  0.53031446  1
  Ta  Ta112  1  0.49765933  0.29287339  0.39289075  1
  Ta  Ta113  1  0.30307690  0.89577157  0.35623730  1
  Ta  Ta114  1  0.49609545  0.50010918  0.14147822  1
  Ta  Ta115  1  0.20231068  0.40832264  -0.01915897  1
  Ta  Ta116  1  0.60258777  0.80223864  0.48279138  1
  Ta  Ta117  1  0.09466719  0.70843542  0.11840415  1
  Ta  Ta118  1  0.39473481  0.19457097  0.00148759  1
  Ta  Ta119  1  0.59851454  0.59989194  0.74230409  1
  Ti  Ti120  1  0.59839534  0.80476820  -0.01002117  1
  Ti  Ti121  1  0.39422995  0.80818659  0.49617785  1
  Ti  Ti122  1  0.90171890  0.90927096  0.39107415  1
  Ti  Ti123  1  0.70093922  0.29823166  0.87216012  1
  Ti  Ti124  1  0.90897690  0.30347435  0.41206538  1
  Ti  Ti125  1  0.79870895  0.61368736  0.48469197  1
  Ti  Ti126  1  0.20059668  0.79943257  0.00403207  1
  Ti  Ti127  1  0.29627472  0.08645351  0.88549306  1
  Ti  Ti128  1  0.00418330  0.61081637  0.73645716  1
  Ti  Ti129  1  0.18440682  0.79406077  0.24827868  1
  Ti  Ti130  1  -0.00187202  0.19543993  0.23997168  1
  Ti  Ti131  1  -0.00341698  -0.00734648  -0.00438317  1
  Ti  Ti132  1  0.39931585  0.60103595  0.24155867  1
  Ti  Ti133  1  0.59518543  0.40094953  0.50138210  1
  Ti  Ti134  1  -0.00145157  0.60417400  0.01147037  1
  Ti  Ti135  1  0.09531873  0.69431107  0.60483039  1
  Ti  Ti136  1  0.19121728  0.39916840  0.75129860  1
  Ti  Ti137  1  0.80386269  0.81033903  -0.01646930  1
  Ti  Ti138  1  0.20435489  -0.00889180  0.01043425  1
  Ti  Ti139  1  0.30214779  0.89864998  0.13253926  1
  Ti  Ti140  1  0.70208398  0.90176701  0.10800902  1
  Ti  Ti141  1  0.09422079  0.29598068  0.61831239  1
  Ti  Ti142  1  0.80296021  0.40116882  -0.01709042  1
  Ti  Ti143  1  0.09455513  0.10217179  0.10058982  1
  Ti  Ti144  1  0.09368401  0.89412057  0.11832138  1
  Ti  Ti145  1  0.60759789  0.61156456  0.25568688  1
  Ti  Ti146  1  0.50609688  0.70197752  0.13280753  1
  Ti  Ti147  1  -0.00418646  0.79889756  -0.00042238  1
  Ti  Ti148  1  -0.00937460  0.80275501  0.25563519  1
  Ti  Ti149  1  0.70240230  0.50501660  0.86369536  1
  Ti  Ti150  1  0.80362758  0.61522991  0.26145805  1
  Ti  Ti151  1  0.29717640  0.69958363  0.63214169  1
  Ti  Ti152  1  0.40522740  0.59628131  0.75550260  1
  Ti  Ti153  1  0.29219099  0.69751303  0.13388338  1
  Ti  Ti154  1  0.59771164  0.19581832  0.51678416  1
  Ti  Ti155  1  0.30012814  0.89862414  0.63189227  1
  Ti  Ti156  1  0.49769182  0.50341855  0.61656432  1
  Ti  Ti157  1  0.90081460  0.29686095  0.11038175  1
  Ti  Ti158  1  0.90425234  0.70555035  0.59910069  1
  Ti  Ti159  1  0.69291071  0.10629993  0.87953057  1
  Mo  Mo160  1  0.19809846  0.60643572  0.23278457  1
  Mo  Mo161  1  0.69790467  0.69784562  0.37857835  1
  Mo  Mo162  1  0.50199628  0.50743379  0.86807790  1
  Mo  Mo163  1  0.20133236  0.19243711  -0.00106400  1
  Mo  Mo164  1  0.00538268  0.60888297  0.49218744  1
  Mo  Mo165  1  0.90045365  0.71132229  0.11243238  1
  Mo  Mo166  1  0.20279758  0.19713733  0.51249102  1
  Mo  Mo167  1  0.29681178  0.50573212  0.86300662  1
  Mo  Mo168  1  0.59711124  0.60309240  0.49694181  1
  Mo  Mo169  1  0.39982827  -0.01413168  0.51190485  1
  Mo  Mo170  1  0.50432037  0.09079706  0.64482857  1
  Mo  Mo171  1  0.90228295  0.30642708  0.62554814  1
  Mo  Mo172  1  0.60696695  0.19654978  -0.00722838  1
  Mo  Mo173  1  0.09729402  0.70651811  0.37870732  1
  Mo  Mo174  1  -0.00262146  0.19881501  0.00753289  1
  Mo  Mo175  1  0.39839938  -0.00777469  0.22869880  1
  Mo  Mo176  1  0.09607096  0.50686905  0.63504033  1
  Mo  Mo177  1  0.49506266  0.90021590  0.87985932  1
  Mo  Mo178  1  0.00137283  0.20385166  0.52134520  1
  Mo  Mo179  1  0.00502154  0.00077769  0.50664525  1
  Mo  Mo180  1  0.70015493  0.89990192  0.88594801  1
  Mo  Mo181  1  0.79952937  0.00161716  -0.01267639  1
  Mo  Mo182  1  0.89607638  0.30627964  0.86299974  1
  Mo  Mo183  1  0.90216113  0.70964415  0.38852109  1
  Mo  Mo184  1  0.00392780  0.40186845  0.51128959  1
  Mo  Mo185  1  0.29615877  0.08624544  0.64362971  1
  Mo  Mo186  1  0.60530917  0.19408576  0.75316409  1
  Mo  Mo187  1  0.60023846  0.79877006  0.25496732  1
  Mo  Mo188  1  0.70003721  0.90503058  0.38945147  1
  Mo  Mo189  1  0.20253530  -0.00834547  0.75448500  1
  Mo  Mo190  1  0.69705184  0.30311068  0.62300246  1
  Mo  Mo191  1  0.18778154  0.61480738  0.73586217  1
  Mo  Mo192  1  0.19807646  0.60470466  0.51286395  1
  Mo  Mo193  1  0.19867517  0.39538489  0.26607962  1
  Mo  Mo194  1  0.90960255  0.89763776  0.88863141  1
  Mo  Mo195  1  0.39471425  -0.00862995  0.01244659  1
  Mo  Mo196  1  0.79851168  0.40191760  0.50204560  1
  Mo  Mo197  1  0.00572298  0.19829710  0.73359511  1
  Mo  Mo198  1  -0.00085592  0.79965464  0.49427078  1
  Mo  Mo199  1  0.79863253  0.00431231  0.50443985  1
