# generated using pymatgen
data_HfZrTaTiMo
_symmetry_space_group_name_H-M   'P 1'
_cell_length_a   15.92086307
_cell_length_b   15.93776917
_cell_length_c   15.21339000
_cell_angle_alpha   90.05500371
_cell_angle_beta   90.05194608
_cell_angle_gamma   90.04407113
_symmetry_Int_Tables_number   1
_chemical_formula_structural   HfZrTaTiMo
_chemical_formula_sum   'Hf40 Zr40 Ta40 Ti40 Mo40'
_cell_volume   3860.28732677
_cell_formula_units_Z   40
loop_
 _symmetry_equiv_pos_site_id
 _symmetry_equiv_pos_as_xyz
  1  'x, y, z'
loop_
 _atom_site_type_symbol
 _atom_site_label
 _atom_site_symmetry_multiplicity
 _atom_site_fract_x
 _atom_site_fract_y
 _atom_site_fract_z
 _atom_site_occupancy
  Hf  Hf0  1  0.50748065  0.10828859  0.11732525  1
  Hf  Hf1  1  0.20091480  -0.00795039  0.00326158  1
  Hf  Hf2  1  0.00088733  0.00230350  -0.01397742  1
  Hf  Hf3  1  0.49558089  0.30638635  0.62347604  1
  Hf  Hf4  1  0.88781908  0.09889329  0.84877227  1
  Hf  Hf5  1  0.10101494  0.71503785  0.37377594  1
  Hf  Hf6  1  0.40828885  0.19363463  0.27267332  1
  Hf  Hf7  1  0.59185991  0.00230045  0.25727922  1
  Hf  Hf8  1  0.40323575  0.19705971  0.49705530  1
  Hf  Hf9  1  0.60621100  0.59715626  0.01640222  1
  Hf  Hf10  1  0.39932390  0.60725599  -0.00026194  1
  Hf  Hf11  1  0.30289498  0.48345254  0.11096155  1
  Hf  Hf12  1  0.59734908  -0.00522579  -0.00323297  1
  Hf  Hf13  1  0.40194201  0.40664042  0.47598622  1
  Hf  Hf14  1  0.90424445  0.49159757  0.11713551  1
  Hf  Hf15  1  0.30090375  0.49189997  0.88000960  1
  Hf  Hf16  1  0.50263550  0.49038129  0.88386185  1
  Hf  Hf17  1  0.27796806  0.09714368  0.38329330  1
  Hf  Hf18  1  0.50334494  0.29739577  0.87048035  1
  Hf  Hf19  1  0.48832864  0.30231708  0.13718553  1
  Hf  Hf20  1  0.80412081  0.79408731  0.25438698  1
  Hf  Hf21  1  0.69978801  0.29210677  0.87182270  1
  Hf  Hf22  1  0.80489733  0.00159396  0.24496940  1
  Hf  Hf23  1  0.10087146  0.31221152  0.62810369  1
  Hf  Hf24  1  0.90289890  0.50668412  0.61496575  1
  Hf  Hf25  1  0.10074894  0.10946443  0.13229780  1
  Hf  Hf26  1  0.50387048  0.69448718  0.62268148  1
  Hf  Hf27  1  0.09920850  0.50436414  0.37712324  1
  Hf  Hf28  1  0.19426056  0.60398797  -0.00732781  1
  Hf  Hf29  1  0.00410454  0.41215259  0.76886079  1
  Hf  Hf30  1  0.19820122  0.81182668  0.22896593  1
  Hf  Hf31  1  0.60349571  0.39318804  0.01814342  1
  Hf  Hf32  1  0.90580675  0.09717588  0.39636040  1
  Hf  Hf33  1  0.69699799  0.10426136  0.86390361  1
  Hf  Hf34  1  0.19389174  0.19463520  0.74635664  1
  Hf  Hf35  1  0.20399507  0.40691363  0.25869291  1
  Hf  Hf36  1  0.61768121  0.59655023  0.49313149  1
  Hf  Hf37  1  0.49934930  0.69974636  0.13427049  1
  Hf  Hf38  1  0.18959537  0.58858260  0.75766261  1
  Hf  Hf39  1  0.90509240  0.70036344  0.64510229  1
  Zr  Zr40  1  0.61059686  0.79365191  0.50135756  1
  Zr  Zr41  1  0.19185126  0.19680392  -0.02263162  1
  Zr  Zr42  1  0.00109283  0.20602364  -0.02604592  1
  Zr  Zr43  1  0.50215089  0.09359770  0.86610232  1
  Zr  Zr44  1  0.90108561  0.11132150  0.11956764  1
  Zr  Zr45  1  -0.00878714  0.61731681  0.49017742  1
  Zr  Zr46  1  0.39525661  0.57763191  0.26499443  1
  Zr  Zr47  1  0.00374179  -0.00006362  0.24888233  1
  Zr  Zr48  1  0.80791576  0.77725541  0.49713311  1
  Zr  Zr49  1  0.79806878  -0.00302032  -0.00487505  1
  Zr  Zr50  1  0.70562109  0.90203724  0.38168496  1
  Zr  Zr51  1  0.70621339  0.48589394  0.88952907  1
  Zr  Zr52  1  0.79916083  0.39877005  0.73562714  1
  Zr  Zr53  1  0.70802487  0.70477419  0.87715610  1
  Zr  Zr54  1  0.39428331  -0.00629692  0.25749784  1
  Zr  Zr55  1  0.79157591  0.40258976  0.50529753  1
  Zr  Zr56  1  0.50229319  0.70734476  0.87034092  1
  Zr  Zr57  1  0.59871793  0.80686606  -0.00203072  1
  Zr  Zr58  1  0.30543703  0.69729367  0.62504204  1
  Zr  Zr59  1  0.69227269  0.28946300  0.14005781  1
  Zr  Zr60  1  0.40016911  0.79854086  0.25634753  1
  Zr  Zr61  1  0.29629469  0.49523283  0.61886097  1
  Zr  Zr62  1  0.09812730  0.30090332  0.13442893  1
  Zr  Zr63  1  0.00226950  0.80325309  0.23979359  1
  Zr  Zr64  1  0.20020326  0.80185897  0.00556381  1
  Zr  Zr65  1  0.60188392  0.20219575  0.50164202  1
  Zr  Zr66  1  0.90784310  0.90038168  0.39204528  1
  Zr  Zr67  1  0.70479662  0.10261355  0.37651852  1
  Zr  Zr68  1  0.39471080  0.20729508  -0.00655705  1
  Zr  Zr69  1  -0.00803852  0.60488684  -0.02047746  1
  Zr  Zr70  1  0.09818177  0.90065514  0.85643617  1
  Zr  Zr71  1  0.60294026  0.40157997  0.49272449  1
  Zr  Zr72  1  0.29382586  0.69451628  0.38157907  1
  Zr  Zr73  1  0.60039966  0.00543374  0.51693341  1
  Zr  Zr74  1  0.30069127  0.10673837  0.12881517  1
  Zr  Zr75  1  0.40342509  0.59872215  0.75765968  1
  Zr  Zr76  1  0.89297902  0.50050548  0.37535053  1
  Zr  Zr77  1  0.28371443  0.89783382  0.39151369  1
  Zr  Zr78  1  0.30233994  0.08542835  0.86569774  1
  Zr  Zr79  1  0.81731793  0.59226727  0.77990496  1
  Ta  Ta80  1  0.40181406  0.40087195  0.74323595  1
  Ta  Ta81  1  0.29673380  0.30392035  0.62491085  1
  Ta  Ta82  1  -0.00663345  0.39180689  0.25933879  1
  Ta  Ta83  1  0.80110976  0.60021000  0.23841162  1
  Ta  Ta84  1  -0.00180647  0.60079635  0.24541429  1
  Ta  Ta85  1  0.09961098  0.69927688  0.63860395  1
  Ta  Ta86  1  0.90120531  0.90437380  0.63174458  1
  Ta  Ta87  1  0.80385983  0.39694286  0.24192042  1
  Ta  Ta88  1  0.30130150  0.71714671  0.86372528  1
  Ta  Ta89  1  0.29385800  0.29771724  0.37367625  1
  Ta  Ta90  1  0.39359649  0.80954881  0.00652515  1
  Ta  Ta91  1  0.39870033  0.00136442  0.50816963  1
  Ta  Ta92  1  0.71150237  0.68810925  0.64018136  1
  Ta  Ta93  1  -0.00232400  0.20318430  0.27113550  1
  Ta  Ta94  1  0.19500421  0.60206812  0.50617704  1
  Ta  Ta95  1  0.19223125  0.38772815  -0.01298124  1
  Ta  Ta96  1  0.60808873  0.59091045  0.74907630  1
  Ta  Ta97  1  0.81366477  0.20670523  0.25668487  1
  Ta  Ta98  1  0.89700541  0.89751557  0.11654431  1
  Ta  Ta99  1  0.40160983  0.79892871  0.50144600  1
  Ta  Ta100  1  0.10299212  0.29120045  0.37901314  1
  Ta  Ta101  1  0.19282914  -0.00264276  0.24295885  1
  Ta  Ta102  1  0.80282222  0.20822065  0.51141334  1
  Ta  Ta103  1  0.60057406  0.20001512  0.72960687  1
  Ta  Ta104  1  0.09789819  0.49770483  0.11868038  1
  Ta  Ta105  1  0.49974799  0.50504936  0.61660837  1
  Ta  Ta106  1  0.70448599  0.30178097  0.36230409  1
  Ta  Ta107  1  0.39181926  -0.00869026  0.72832241  1
  Ta  Ta108  1  0.69832644  0.89811502  0.13186476  1
  Ta  Ta109  1  0.69642255  0.10341725  0.12865805  1
  Ta  Ta110  1  0.60487623  0.80115124  0.74080401  1
  Ta  Ta111  1  0.30148675  0.30368223  0.85395482  1
  Ta  Ta112  1  0.49933850  0.89867803  0.39025057  1
  Ta  Ta113  1  0.00104948  0.80720058  0.00163772  1
  Ta  Ta114  1  0.00879167  0.80875728  0.51786725  1
  Ta  Ta115  1  0.49822127  0.89407974  0.62307676  1
  Ta  Ta116  1  0.60239312  0.79780094  0.26057622  1
  Ta  Ta117  1  0.21087585  0.81235695  0.73672681  1
  Ta  Ta118  1  0.39949027  0.19547554  0.73577906  1
  Ta  Ta119  1  0.70131873  0.90707815  0.85475694  1
  Ti  Ti120  1  -0.00249247  0.38955611  0.48832091  1
  Ti  Ti121  1  0.00146711  0.00617684  0.73441922  1
  Ti  Ti122  1  -0.00074809  0.20309069  0.74896714  1
  Ti  Ti123  1  0.59967202  -0.00348433  0.73294630  1
  Ti  Ti124  1  0.19473304  0.80385764  0.52140627  1
  Ti  Ti125  1  0.50329230  0.69228904  0.37860024  1
  Ti  Ti126  1  0.88719728  0.30244013  0.87056459  1
  Ti  Ti127  1  0.60287117  0.40428803  0.73615366  1
  Ti  Ti128  1  0.39769364  -0.01365466  0.00158712  1
  Ti  Ti129  1  0.80071898  0.81237168  0.74666150  1
  Ti  Ti130  1  0.80365691  0.80802864  -0.00662754  1
  Ti  Ti131  1  0.80270149  0.00172158  0.52486141  1
  Ti  Ti132  1  0.29728898  0.29844491  0.13874999  1
  Ti  Ti133  1  0.09389222  0.50238430  0.61540387  1
  Ti  Ti134  1  0.19821347  0.40016234  0.49142602  1
  Ti  Ti135  1  0.19274003  0.20086515  0.50934032  1
  Ti  Ti136  1  0.29789945  0.10158911  0.61986401  1
  Ti  Ti137  1  0.70274269  0.70669311  0.12680273  1
  Ti  Ti138  1  0.10260729  0.71159317  0.86071647  1
  Ti  Ti139  1  0.89868786  0.70225151  0.11705656  1
  Ti  Ti140  1  0.00623049  0.19406218  0.50760155  1
  Ti  Ti141  1  0.90519541  0.29727154  0.62462261  1
  Ti  Ti142  1  0.79751967  0.20688769  0.00714051  1
  Ti  Ti143  1  0.09894180  0.91649747  0.39204509  1
  Ti  Ti144  1  0.09281359  0.69462903  0.12256427  1
  Ti  Ti145  1  0.59025842  0.40523355  0.25903829  1
  Ti  Ti146  1  0.79706574  0.59414938  0.01097068  1
  Ti  Ti147  1  0.49992133  0.89838818  0.13136421  1
  Ti  Ti148  1  0.71326060  0.10305525  0.63749810  1
  Ti  Ti149  1  0.48758479  0.89669295  0.85536845  1
  Ti  Ti150  1  0.49391898  0.49306851  0.13010341  1
  Ti  Ti151  1  0.19434422  0.59948526  0.24325347  1
  Ti  Ti152  1  0.00264733  0.59674745  0.77057993  1
  Ti  Ti153  1  0.91195191  0.73334894  0.86448835  1
  Ti  Ti154  1  0.70306700  0.50230544  0.35678208  1
  Ti  Ti155  1  0.00059501  0.39204789  -0.01073532  1
  Ti  Ti156  1  0.19951764  -0.00127845  0.73430233  1
  Ti  Ti157  1  0.30071450  0.69541221  0.12981021  1
  Ti  Ti158  1  0.18093307  0.00680945  0.52482259  1
  Ti  Ti159  1  0.60570336  0.59875709  0.24842873  1
  Mo  Mo160  1  0.50552877  0.30048107  0.36338575  1
  Mo  Mo161  1  0.89611924  0.90024141  0.85856954  1
  Mo  Mo162  1  0.79494893  0.60213949  0.49363861  1
  Mo  Mo163  1  0.09993956  0.49930811  0.89480038  1
  Mo  Mo164  1  0.30784080  0.89645603  0.86605807  1
  Mo  Mo165  1  0.69879676  0.29907062  0.63147448  1
  Mo  Mo166  1  0.79697507  -0.00138915  0.73682026  1
  Mo  Mo167  1  0.19876218  0.39881758  0.75526227  1
  Mo  Mo168  1  0.70422685  0.89535870  0.63421488  1
  Mo  Mo169  1  0.89522097  0.48303891  0.90166985  1
  Mo  Mo170  1  0.50810716  0.50486696  0.37070685  1
  Mo  Mo171  1  0.09614906  0.10576704  0.63012122  1
  Mo  Mo172  1  0.09933684  0.30237622  0.85767554  1
  Mo  Mo173  1  0.19769976  0.20008065  0.26195195  1
  Mo  Mo174  1  0.40337218  0.80670259  0.73744626  1
  Mo  Mo175  1  0.60470655  0.19394953  -0.00175766  1
  Mo  Mo176  1  0.90356346  0.30021608  0.12445958  1
  Mo  Mo177  1  0.10005644  0.09874034  0.38616997  1
  Mo  Mo178  1  0.70249404  0.68934231  0.35443794  1
  Mo  Mo179  1  0.29804954  0.90324217  0.60831158  1
  Mo  Mo180  1  0.80351837  0.20586390  0.73025672  1
  Mo  Mo181  1  0.09348557  0.09506178  0.84805789  1
  Mo  Mo182  1  0.40722218  0.60062141  0.48690487  1
  Mo  Mo183  1  0.30432474  0.90288357  0.12709793  1
  Mo  Mo184  1  0.49622824  0.09259583  0.38735995  1
  Mo  Mo185  1  0.39911017  0.39428746  0.26503564  1
  Mo  Mo186  1  0.09561723  0.90652599  0.11232595  1
  Mo  Mo187  1  0.69938336  0.50724348  0.63330030  1
  Mo  Mo188  1  0.90086275  0.29592471  0.39046752  1
  Mo  Mo189  1  0.00140400  0.00449825  0.52180575  1
  Mo  Mo190  1  0.90178556  0.10583061  0.62442886  1
  Mo  Mo191  1  0.49733564  0.09686753  0.63231957  1
  Mo  Mo192  1  0.80658659  0.38585345  0.02004971  1
  Mo  Mo193  1  0.00487773  0.80500905  0.73816112  1
  Mo  Mo194  1  0.39474370  0.39246090  -0.00182526  1
  Mo  Mo195  1  0.09984992  0.90289083  0.63122981  1
  Mo  Mo196  1  0.70074379  0.49835657  0.13929508  1
  Mo  Mo197  1  0.28955072  0.50095702  0.38961197  1
  Mo  Mo198  1  0.90423291  0.69653382  0.36129694  1
  Mo  Mo199  1  0.60257659  0.19668457  0.26974815  1
