# generated using pymatgen
data_HfZrTaTiMo
_symmetry_space_group_name_H-M   'P 1'
_cell_length_a   15.92220610
_cell_length_b   15.92636890
_cell_length_c   15.20087110
_cell_angle_alpha   90.06508129
_cell_angle_beta   90.00840480
_cell_angle_gamma   89.97762893
_symmetry_Int_Tables_number   1
_chemical_formula_structural   HfZrTaTiMo
_chemical_formula_sum   'Hf40 Zr40 Ta40 Ti40 Mo40'
_cell_volume   3854.67858014
_cell_formula_units_Z   40
loop_
 _symmetry_equiv_pos_site_id
 _symmetry_equiv_pos_as_xyz
  1  'x, y, z'
loop_
 _atom_site_type_symbol
 _atom_site_label
 _atom_site_symmetry_multiplicity
 _atom_site_fract_x
 _atom_site_fract_y
 _atom_site_fract_z
 _atom_site_occupancy
  Hf  Hf0  1  0.71506595  0.49186428  0.38948110  1
  Hf  Hf1  1  0.10360748  0.70431790  0.61167242  1
  Hf  Hf2  1  0.49377484  0.69665942  0.60993395  1
  Hf  Hf3  1  0.40688701  0.79724002  0.25367301  1
  Hf  Hf4  1  0.20354015  0.80299783  0.75499424  1
  Hf  Hf5  1  0.20447161  0.19052493  0.24044371  1
  Hf  Hf6  1  0.60285742  0.81339537  0.49078411  1
  Hf  Hf7  1  -0.00026707  0.01260437  0.47746966  1
  Hf  Hf8  1  0.08977506  0.49760499  0.86753609  1
  Hf  Hf9  1  0.59462488  0.40408403  0.74405108  1
  Hf  Hf10  1  0.80343819  0.79340430  0.75032404  1
  Hf  Hf11  1  0.69708567  0.50631058  0.88436758  1
  Hf  Hf12  1  0.70436378  0.69396859  0.59972026  1
  Hf  Hf13  1  0.09348029  0.30229547  0.87806737  1
  Hf  Hf14  1  0.31184152  0.30029038  0.11781652  1
  Hf  Hf15  1  0.80513527  0.40863737  0.00649705  1
  Hf  Hf16  1  0.58451920  0.40307616  -0.00891903  1
  Hf  Hf17  1  0.69805815  0.89000125  0.89114833  1
  Hf  Hf18  1  0.09131593  0.29534083  0.36320009  1
  Hf  Hf19  1  0.29197817  0.49685636  0.86998712  1
  Hf  Hf20  1  0.68730972  0.09628230  0.36535819  1
  Hf  Hf21  1  0.30739964  0.69250497  0.12935229  1
  Hf  Hf22  1  0.70747804  0.28898060  0.38119439  1
  Hf  Hf23  1  -0.00560886  0.59540610  0.24706148  1
  Hf  Hf24  1  0.80264868  -0.00007633  0.24046916  1
  Hf  Hf25  1  0.69256182  0.50094761  0.13016694  1
  Hf  Hf26  1  0.89742861  0.31922485  0.35891573  1
  Hf  Hf27  1  0.40193982  0.39538999  0.26565572  1
  Hf  Hf28  1  0.49126681  0.50204560  0.14103315  1
  Hf  Hf29  1  0.20865224  0.19841254  -0.00417429  1
  Hf  Hf30  1  0.89729384  0.29970638  0.13380353  1
  Hf  Hf31  1  0.21225505  0.20265068  0.76195569  1
  Hf  Hf32  1  -0.00705390  0.81611105  0.48500718  1
  Hf  Hf33  1  0.71154175  0.69828073  0.89297541  1
  Hf  Hf34  1  0.20061272  0.00182117  0.22725285  1
  Hf  Hf35  1  0.48988184  0.90874610  0.87379376  1
  Hf  Hf36  1  0.10167144  0.91140101  0.62590315  1
  Hf  Hf37  1  0.30500714  0.70338678  0.60740226  1
  Hf  Hf38  1  0.00564559  0.00177456  0.23760846  1
  Hf  Hf39  1  0.59998689  0.59946234  0.74231585  1
  Zr  Zr40  1  0.10450118  0.69653062  0.37240336  1
  Zr  Zr41  1  0.09129199  0.70416225  0.88948052  1
  Zr  Zr42  1  0.00642303  0.00392981  0.01528936  1
  Zr  Zr43  1  0.79259208  0.39778765  0.75005641  1
  Zr  Zr44  1  0.10161554  0.09767455  0.64272320  1
  Zr  Zr45  1  0.20604440  0.81354740  0.48340422  1
  Zr  Zr46  1  0.29798120  0.70955966  0.88804446  1
  Zr  Zr47  1  0.29557684  0.29607888  0.37806410  1
  Zr  Zr48  1  0.19635362  0.39702148  0.73588704  1
  Zr  Zr49  1  0.40611318  0.58895396  -0.00993910  1
  Zr  Zr50  1  0.59884580  0.39572325  0.26522114  1
  Zr  Zr51  1  0.88298262  0.49900153  0.61703156  1
  Zr  Zr52  1  0.89263369  0.12325710  0.35244122  1
  Zr  Zr53  1  -0.00279221  0.80381561  0.75331465  1
  Zr  Zr54  1  0.60521555  -0.00314706  0.75269509  1
  Zr  Zr55  1  0.30473083  0.90802326  0.62442610  1
  Zr  Zr56  1  0.69901280  0.10497802  0.88028214  1
  Zr  Zr57  1  0.80003393  -0.00816219  0.47896885  1
  Zr  Zr58  1  0.20232234  0.80445810  0.24537115  1
  Zr  Zr59  1  0.19211603  0.59658586  0.01151451  1
  Zr  Zr60  1  0.79569915  0.79433596  0.25631347  1
  Zr  Zr61  1  0.00488057  0.58470654  0.49856199  1
  Zr  Zr62  1  0.39227105  0.18860459  0.49941514  1
  Zr  Zr63  1  0.89493322  0.50708299  0.86593831  1
  Zr  Zr64  1  0.71261154  0.09323442  0.62923668  1
  Zr  Zr65  1  0.70510310  0.29919763  0.61351889  1
  Zr  Zr66  1  0.50627659  0.70919953  0.88086980  1
  Zr  Zr67  1  0.41183174  0.40922625  0.49598357  1
  Zr  Zr68  1  0.89163362  0.68890219  0.38508094  1
  Zr  Zr69  1  0.18830915  0.40119081  0.50688720  1
  Zr  Zr70  1  0.20599507  0.01955825  0.47509356  1
  Zr  Zr71  1  0.52020287  0.91132943  0.35221953  1
  Zr  Zr72  1  -0.02184928  0.59826262  0.01651397  1
  Zr  Zr73  1  0.30771388  0.50945139  0.61962964  1
  Zr  Zr74  1  0.89719941  0.91063859  0.62727914  1
  Zr  Zr75  1  -0.00158083  0.20189880  0.50910709  1
  Zr  Zr76  1  0.79944898  0.00291088  0.01205485  1
  Zr  Zr77  1  0.58345268  0.01259781  0.01021485  1
  Zr  Zr78  1  0.40951240  0.00067491  0.49215245  1
  Zr  Zr79  1  -0.00905116  0.61025198  0.73995120  1
  Ta  Ta80  1  0.30184933  0.49535363  0.13229662  1
  Ta  Ta81  1  0.69095433  0.89484331  0.13333713  1
  Ta  Ta82  1  0.10459128  0.90045818  0.89502884  1
  Ta  Ta83  1  0.90107384  0.88671610  0.89802081  1
  Ta  Ta84  1  0.69561651  0.30080284  0.12101477  1
  Ta  Ta85  1  0.09144963  0.70720717  0.12811852  1
  Ta  Ta86  1  0.79732610  0.59283957  0.25018654  1
  Ta  Ta87  1  0.49436504  0.29423287  0.62990209  1
  Ta  Ta88  1  0.49223549  0.09696892  0.64515008  1
  Ta  Ta89  1  0.49996810  0.29779560  0.12013211  1
  Ta  Ta90  1  0.00065164  -0.00070277  0.77740509  1
  Ta  Ta91  1  0.19747157  0.60502982  0.74280726  1
  Ta  Ta92  1  0.19830764  0.39965724  0.24123622  1
  Ta  Ta93  1  0.60084311  0.20340615  0.74769012  1
  Ta  Ta94  1  0.39827198  0.39552590  0.75340048  1
  Ta  Ta95  1  0.30791582  0.69148698  0.37461848  1
  Ta  Ta96  1  0.81227665  -0.00452993  0.77423086  1
  Ta  Ta97  1  0.40227338  0.59933203  0.75608647  1
  Ta  Ta98  1  0.60380406  0.79602357  0.74162678  1
  Ta  Ta99  1  0.10272855  0.10106274  0.88487538  1
  Ta  Ta100  1  0.90769624  0.10990794  0.88715656  1
  Ta  Ta101  1  0.19919737  0.59353826  0.24807571  1
  Ta  Ta102  1  0.59584988  0.60076738  0.00603348  1
  Ta  Ta103  1  0.49541855  0.29019693  0.86619256  1
  Ta  Ta104  1  0.20337363  -0.00126038  0.77518694  1
  Ta  Ta105  1  0.32089565  0.09138011  0.87862446  1
  Ta  Ta106  1  0.90331542  0.30097824  0.87981104  1
  Ta  Ta107  1  0.40238146  0.79874491  0.74980095  1
  Ta  Ta108  1  0.00047984  0.40182316  0.01436146  1
  Ta  Ta109  1  0.00872952  0.19041662  0.22444708  1
  Ta  Ta110  1  0.19340007  0.19885704  0.50369641  1
  Ta  Ta111  1  0.50221092  0.10331907  0.35810213  1
  Ta  Ta112  1  0.20070972  0.40027698  0.00644233  1
  Ta  Ta113  1  0.50509170  0.69777905  0.13370197  1
  Ta  Ta114  1  0.50031145  0.89751441  0.63240167  1
  Ta  Ta115  1  0.80208316  0.20288659  0.00708947  1
  Ta  Ta116  1  0.69972113  0.29893635  0.88456071  1
  Ta  Ta117  1  -0.00010008  0.39390794  0.51676112  1
  Ta  Ta118  1  0.90231575  0.88416419  0.12164780  1
  Ta  Ta119  1  0.59101698  0.18806242  0.51108260  1
  Ti  Ti120  1  0.29838839  0.50445959  0.36780981  1
  Ti  Ti121  1  0.59482954  0.20227934  0.24147820  1
  Ti  Ti122  1  0.90166504  0.29611949  0.63753225  1
  Ti  Ti123  1  0.40013619  0.00821354  0.23518999  1
  Ti  Ti124  1  0.59752095  0.40062164  0.50851200  1
  Ti  Ti125  1  0.30329957  0.90458857  0.89232251  1
  Ti  Ti126  1  0.80268097  0.19809102  0.76172954  1
  Ti  Ti127  1  0.69806140  0.69789941  0.12527836  1
  Ti  Ti128  1  0.59562812  0.20199873  0.00028582  1
  Ti  Ti129  1  0.08983268  0.48488295  0.36288570  1
  Ti  Ti130  1  0.30191293  0.09700758  0.64171554  1
  Ti  Ti131  1  0.59469818  0.60663194  0.26433954  1
  Ti  Ti132  1  0.90192302  0.09627904  0.64381050  1
  Ti  Ti133  1  0.39857950  0.39563417  -0.01551914  1
  Ti  Ti134  1  0.40146935  0.19773947  0.25022063  1
  Ti  Ti135  1  0.41563558  0.19041470  -0.00677567  1
  Ti  Ti136  1  0.89388041  0.70436863  0.60256538  1
  Ti  Ti137  1  0.60050777  0.00202342  0.50921803  1
  Ti  Ti138  1  0.79142128  0.60544575  0.73893493  1
  Ti  Ti139  1  0.80841171  0.19476636  0.50662004  1
  Ti  Ti140  1  0.79596608  0.81144363  0.48050460  1
  Ti  Ti141  1  0.30931665  0.90931606  0.36137409  1
  Ti  Ti142  1  0.40912083  0.80379558  0.48065577  1
  Ti  Ti143  1  0.59533320  0.79926890  0.01647756  1
  Ti  Ti144  1  0.40327453  0.80925082  0.01569779  1
  Ti  Ti145  1  0.69658521  0.10870086  0.13046656  1
  Ti  Ti146  1  0.70498705  0.89844833  0.62971980  1
  Ti  Ti147  1  0.00044283  0.20181684  0.75359188  1
  Ti  Ti148  1  0.10118436  0.90760773  0.36258744  1
  Ti  Ti149  1  0.10222504  0.29916559  0.11797869  1
  Ti  Ti150  1  0.31200864  0.09405274  0.10761483  1
  Ti  Ti151  1  0.09845408  0.49555225  0.13041966  1
  Ti  Ti152  1  0.20061153  0.81261545  0.02056221  1
  Ti  Ti153  1  0.30289995  0.29377222  0.62024055  1
  Ti  Ti154  1  0.19927677  0.59091089  0.49262088  1
  Ti  Ti155  1  -0.00271866  0.80190421  0.25081621  1
  Ti  Ti156  1  0.50054346  0.90357801  0.13317396  1
  Ti  Ti157  1  0.58559068  0.58518641  0.49458937  1
  Ti  Ti158  1  0.50791305  0.28965986  0.38759786  1
  Ti  Ti159  1  0.69076061  0.69608121  0.38071030  1
  Mo  Mo160  1  0.79827495  0.79494889  0.02196415  1
  Mo  Mo161  1  0.79431862  0.60250385  0.02655056  1
  Mo  Mo162  1  0.49631994  0.11331468  0.13805616  1
  Mo  Mo163  1  -0.00183635  0.39154059  0.73412111  1
  Mo  Mo164  1  0.89280809  0.69872168  0.13183114  1
  Mo  Mo165  1  0.49493813  0.49741534  0.86050898  1
  Mo  Mo166  1  0.10003972  0.89382714  0.11864823  1
  Mo  Mo167  1  0.30623695  0.09738408  0.35567817  1
  Mo  Mo168  1  0.70103238  0.90048272  0.35661506  1
  Mo  Mo169  1  0.60015625  0.00730853  0.22860201  1
  Mo  Mo170  1  0.49745379  0.49818682  0.63267397  1
  Mo  Mo171  1  0.10721861  0.10512814  0.10371793  1
  Mo  Mo172  1  0.88744049  0.70617710  0.89466299  1
  Mo  Mo173  1  0.50398883  0.69820935  0.37889904  1
  Mo  Mo174  1  0.79613721  0.40236631  0.23921483  1
  Mo  Mo175  1  0.89753745  0.10382632  0.11816782  1
  Mo  Mo176  1  0.09611675  0.50177835  0.63531552  1
  Mo  Mo177  1  0.49792519  0.10666843  0.86063919  1
  Mo  Mo178  1  0.40255723  -0.00105409  0.01291907  1
  Mo  Mo179  1  0.00850608  0.39820595  0.23200843  1
  Mo  Mo180  1  0.79538581  0.59779193  0.49246976  1
  Mo  Mo181  1  0.30543000  0.29905694  0.88945153  1
  Mo  Mo182  1  0.69306850  0.50184529  0.60510781  1
  Mo  Mo183  1  0.40419707  0.59984670  0.47925580  1
  Mo  Mo184  1  0.60194295  0.79242089  0.24414663  1
  Mo  Mo185  1  0.50604197  0.50201844  0.36884972  1
  Mo  Mo186  1  0.89590879  0.49419415  0.14530280  1
  Mo  Mo187  1  0.00084365  0.20675070  0.00630216  1
  Mo  Mo188  1  0.39873883  0.59727042  0.26297051  1
  Mo  Mo189  1  0.39385274  -0.00523385  0.74859983  1
  Mo  Mo190  1  -0.00010695  0.79783092  0.00775708  1
  Mo  Mo191  1  0.90292873  0.48982801  0.36964359  1
  Mo  Mo192  1  0.39854224  0.20120592  0.74921003  1
  Mo  Mo193  1  0.20874860  -0.00195195  -0.00268783  1
  Mo  Mo194  1  0.80876600  0.38915584  0.50877228  1
  Mo  Mo195  1  0.30997637  0.89948176  0.11971787  1
  Mo  Mo196  1  0.78949552  0.20264908  0.23162420  1
  Mo  Mo197  1  0.10262317  0.10904289  0.36603982  1
  Mo  Mo198  1  0.90630640  0.89969677  0.35442470  1
  Mo  Mo199  1  0.09614783  0.29589003  0.63635043  1
