# generated using pymatgen
data_HfZrTaTiMo
_symmetry_space_group_name_H-M   'P 1'
_cell_length_a   15.92792100
_cell_length_b   15.92975350
_cell_length_c   15.20991129
_cell_angle_alpha   89.99296309
_cell_angle_beta   89.90086369
_cell_angle_gamma   90.06900244
_symmetry_Int_Tables_number   1
_chemical_formula_structural   HfZrTaTiMo
_chemical_formula_sum   'Hf40 Zr40 Ta40 Ti40 Mo40'
_cell_volume   3859.16956473
_cell_formula_units_Z   40
loop_
 _symmetry_equiv_pos_site_id
 _symmetry_equiv_pos_as_xyz
  1  'x, y, z'
loop_
 _atom_site_type_symbol
 _atom_site_label
 _atom_site_symmetry_multiplicity
 _atom_site_fract_x
 _atom_site_fract_y
 _atom_site_fract_z
 _atom_site_occupancy
  Hf  Hf0  1  0.69955941  0.30332492  0.36508417  1
  Hf  Hf1  1  0.50341084  0.90142789  0.36342752  1
  Hf  Hf2  1  0.40204624  0.59641864  -0.01512462  1
  Hf  Hf3  1  0.39575147  0.20758697  0.75808819  1
  Hf  Hf4  1  0.90260666  0.30358060  0.37794399  1
  Hf  Hf5  1  0.90008483  0.09868269  0.62187080  1
  Hf  Hf6  1  0.80950537  0.20075903  0.00697741  1
  Hf  Hf7  1  0.59461179  0.80029050  0.00969888  1
  Hf  Hf8  1  0.90603819  0.09446201  0.37263694  1
  Hf  Hf9  1  0.18381024  0.80057981  0.49900560  1
  Hf  Hf10  1  0.40078915  0.79232694  0.24269554  1
  Hf  Hf11  1  0.18519865  -0.00670823  -0.01289555  1
  Hf  Hf12  1  0.00156307  0.79423892  0.49714811  1
  Hf  Hf13  1  0.20161133  -0.01312141  0.76718374  1
  Hf  Hf14  1  0.50562567  0.10422466  0.88631671  1
  Hf  Hf15  1  0.90303466  0.49710853  0.87725412  1
  Hf  Hf16  1  0.10980736  0.09411591  0.62005690  1
  Hf  Hf17  1  0.29351346  0.89898011  0.11728126  1
  Hf  Hf18  1  0.29232667  0.49451013  0.85659220  1
  Hf  Hf19  1  0.60735049  0.60861418  0.26438027  1
  Hf  Hf20  1  0.50946500  0.70993335  0.37983629  1
  Hf  Hf21  1  0.69426826  0.09842115  0.63795477  1
  Hf  Hf22  1  0.29555462  0.90774286  0.61550931  1
  Hf  Hf23  1  0.49883952  0.50393282  0.62032295  1
  Hf  Hf24  1  0.08936849  0.10353960  0.85965842  1
  Hf  Hf25  1  0.29678151  0.71881306  0.87949660  1
  Hf  Hf26  1  0.10824042  0.50012935  0.13624481  1
  Hf  Hf27  1  0.69362717  0.29879350  0.62712902  1
  Hf  Hf28  1  0.39024243  0.40222268  0.49283278  1
  Hf  Hf29  1  0.10446384  0.50263274  0.85836485  1
  Hf  Hf30  1  0.88751589  0.69276540  0.61561481  1
  Hf  Hf31  1  -0.00050406  0.60004802  0.73578308  1
  Hf  Hf32  1  0.88663959  0.89468816  0.61989050  1
  Hf  Hf33  1  0.50238495  0.30889082  0.87609597  1
  Hf  Hf34  1  0.39941203  -0.00729162  0.76820672  1
  Hf  Hf35  1  0.91077106  0.90230141  0.87498898  1
  Hf  Hf36  1  0.69949639  0.70269038  0.62037513  1
  Hf  Hf37  1  0.90490433  0.29584065  0.86169471  1
  Hf  Hf38  1  0.80863599  0.59799367  0.25664217  1
  Hf  Hf39  1  0.58745030  0.79987745  0.75689482  1
  Zr  Zr40  1  0.79634352  0.79979163  0.75714904  1
  Zr  Zr41  1  0.10363494  0.30892364  0.85458684  1
  Zr  Zr42  1  0.00788809  0.59632714  0.49668927  1
  Zr  Zr43  1  0.29592090  0.90596908  0.37598701  1
  Zr  Zr44  1  0.50143600  0.10144402  0.63091586  1
  Zr  Zr45  1  0.69553189  0.29948772  0.86923365  1
  Zr  Zr46  1  0.58988412  0.41920523  0.26019741  1
  Zr  Zr47  1  0.78332931  -0.00200626  0.49346302  1
  Zr  Zr48  1  0.10848983  0.70733351  0.87126700  1
  Zr  Zr49  1  0.70083485  0.10506562  0.87604618  1
  Zr  Zr50  1  0.70149884  0.10150025  0.11863822  1
  Zr  Zr51  1  -0.00258325  0.79697030  0.26148799  1
  Zr  Zr52  1  0.50214874  0.68618472  0.12145960  1
  Zr  Zr53  1  0.09863107  0.28493483  0.14602383  1
  Zr  Zr54  1  0.40407380  0.80161039  0.50254121  1
  Zr  Zr55  1  0.00152677  0.18990202  0.00484603  1
  Zr  Zr56  1  -0.00492544  0.40834482  0.25969391  1
  Zr  Zr57  1  0.30187292  0.69888254  0.63488861  1
  Zr  Zr58  1  0.30366299  0.10009291  0.62109428  1
  Zr  Zr59  1  0.80286365  0.40747890  0.74357743  1
  Zr  Zr60  1  0.01285540  -0.01537993  0.49262218  1
  Zr  Zr61  1  0.69294002  0.50536544  0.11352605  1
  Zr  Zr62  1  0.19842557  0.19053877  0.27243384  1
  Zr  Zr63  1  0.60175881  -0.00054307  0.23318182  1
  Zr  Zr64  1  0.48956736  0.30921978  0.13282127  1
  Zr  Zr65  1  0.40999647  0.60487968  0.76131144  1
  Zr  Zr66  1  0.69918656  0.91053554  0.88971812  1
  Zr  Zr67  1  0.80745782  0.80482837  0.01114528  1
  Zr  Zr68  1  0.70260039  0.50911560  0.62148528  1
  Zr  Zr69  1  0.60211032  0.19215487  0.48552479  1
  Zr  Zr70  1  0.28795646  0.10329469  0.12138569  1
  Zr  Zr71  1  0.20684172  0.59395092  0.50497504  1
  Zr  Zr72  1  0.69658081  0.89057106  0.36016767  1
  Zr  Zr73  1  0.70090252  0.69370115  0.88738884  1
  Zr  Zr74  1  0.20617938  0.39621635  0.00438732  1
  Zr  Zr75  1  0.89786213  0.50076966  0.12146352  1
  Zr  Zr76  1  0.00237621  0.39265606  0.00727905  1
  Zr  Zr77  1  0.79505763  0.18880335  0.25604571  1
  Zr  Zr78  1  0.20736839  0.60255544  0.25570702  1
  Zr  Zr79  1  0.19569631  0.79775097  0.25290794  1
  Ta  Ta80  1  0.89832239  0.09562709  0.85809279  1
  Ta  Ta81  1  0.79846191  0.39303769  0.00210311  1
  Ta  Ta82  1  0.59721512  0.59952356  0.76605325  1
  Ta  Ta83  1  0.89359718  0.29772133  0.14645994  1
  Ta  Ta84  1  0.69914899  0.31039852  0.13297225  1
  Ta  Ta85  1  0.59455673  -0.00861216  0.75712190  1
  Ta  Ta86  1  0.38781292  0.21148611  -0.00268669  1
  Ta  Ta87  1  0.60256237  0.60027232  0.48861834  1
  Ta  Ta88  1  0.80033113  0.39895528  0.49807104  1
  Ta  Ta89  1  0.39173260  0.00770051  0.24892328  1
  Ta  Ta90  1  0.10526765  0.49177637  0.37914950  1
  Ta  Ta91  1  0.48706638  0.10580910  0.12292404  1
  Ta  Ta92  1  0.39849937  0.20372623  0.48511030  1
  Ta  Ta93  1  0.31320527  0.49394458  0.13756391  1
  Ta  Ta94  1  0.40669682  0.00998151  0.48536537  1
  Ta  Ta95  1  0.79720735  0.19738987  0.49547667  1
  Ta  Ta96  1  0.10005580  0.70107957  0.11934685  1
  Ta  Ta97  1  0.50678207  0.69835723  0.61727236  1
  Ta  Ta98  1  0.91059043  0.69944481  0.88346435  1
  Ta  Ta99  1  0.20897708  0.20406570  0.49337521  1
  Ta  Ta100  1  0.20392790  0.59749079  0.00705361  1
  Ta  Ta101  1  0.50095947  0.10171992  0.35887994  1
  Ta  Ta102  1  0.81693065  0.00623973  0.01318388  1
  Ta  Ta103  1  0.19880542  0.20365860  -0.00885637  1
  Ta  Ta104  1  0.20761049  0.21034768  0.74534272  1
  Ta  Ta105  1  0.59476258  0.20939580  0.01594839  1
  Ta  Ta106  1  0.29796074  0.30572894  0.14302080  1
  Ta  Ta107  1  0.00904918  0.60121678  -0.00156968  1
  Ta  Ta108  1  0.40884015  0.58622880  0.26541784  1
  Ta  Ta109  1  0.90288695  0.29866621  0.61077572  1
  Ta  Ta110  1  0.49893900  0.29961268  0.62214704  1
  Ta  Ta111  1  0.00349671  0.60588306  0.26541751  1
  Ta  Ta112  1  0.90778443  0.90432827  0.13367309  1
  Ta  Ta113  1  0.49514232  0.30255068  0.36821566  1
  Ta  Ta114  1  0.00674638  0.79985111  0.73826374  1
  Ta  Ta115  1  0.90963529  0.69822141  0.11621149  1
  Ta  Ta116  1  0.79633680  0.79382651  0.23451442  1
  Ta  Ta117  1  0.10449362  0.30011516  0.61265979  1
  Ta  Ta118  1  0.59625756  0.40176846  0.49262375  1
  Ta  Ta119  1  0.10078990  0.30356470  0.38581011  1
  Ti  Ti120  1  0.89952085  0.49681389  0.60523402  1
  Ti  Ti121  1  0.80359669  0.20046587  0.74157549  1
  Ti  Ti122  1  0.80562189  0.59730542  -0.00376702  1
  Ti  Ti123  1  0.39460426  0.00140549  -0.00185288  1
  Ti  Ti124  1  0.01396744  0.80949858  0.00300686  1
  Ti  Ti125  1  0.09461089  0.90973594  0.13646669  1
  Ti  Ti126  1  0.18559986  0.00529176  0.26437462  1
  Ti  Ti127  1  0.92417433  0.09686650  0.14821766  1
  Ti  Ti128  1  0.88896313  0.69991025  0.38626349  1
  Ti  Ti129  1  0.89177338  0.89440296  0.36972982  1
  Ti  Ti130  1  0.70801197  0.70932748  0.38560604  1
  Ti  Ti131  1  0.50003572  0.49769788  0.10998563  1
  Ti  Ti132  1  0.70206819  0.69466780  0.11736132  1
  Ti  Ti133  1  0.20612513  0.40235379  0.50768537  1
  Ti  Ti134  1  0.59765046  0.00045660  0.49562793  1
  Ti  Ti135  1  0.48384662  0.88889324  0.89554424  1
  Ti  Ti136  1  0.79452695  -0.00509966  0.74837163  1
  Ti  Ti137  1  0.80225294  -0.00641484  0.24286889  1
  Ti  Ti138  1  0.30177259  0.69502438  0.11607199  1
  Ti  Ti139  1  0.68885674  0.49255018  0.88786523  1
  Ti  Ti140  1  0.00459258  0.40220460  0.72218788  1
  Ti  Ti141  1  0.00153670  0.20278195  0.73154260  1
  Ti  Ti142  1  0.39996352  0.59454495  0.49173133  1
  Ti  Ti143  1  0.00209290  -0.00949332  0.73896518  1
  Ti  Ti144  1  0.60989047  0.81373729  0.51247769  1
  Ti  Ti145  1  0.59539485  0.19916317  0.24425066  1
  Ti  Ti146  1  0.39527801  0.40052440  -0.00800085  1
  Ti  Ti147  1  0.59211242  0.40729526  0.74678060  1
  Ti  Ti148  1  0.39090949  0.39555324  0.73865610  1
  Ti  Ti149  1  0.79892500  0.59870450  0.76215705  1
  Ti  Ti150  1  0.00582317  0.19803420  0.49651948  1
  Ti  Ti151  1  0.30423624  0.69812595  0.37983767  1
  Ti  Ti152  1  0.29735151  0.10578876  0.88147924  1
  Ti  Ti153  1  0.39279115  0.20141270  0.26196446  1
  Ti  Ti154  1  0.59700552  0.00006237  0.01102436  1
  Ti  Ti155  1  0.71246000  0.49992318  0.38158445  1
  Ti  Ti156  1  0.49986118  0.90454037  0.62267058  1
  Ti  Ti157  1  0.39924415  0.80748297  0.75175156  1
  Ti  Ti158  1  0.00054002  0.00180897  0.00126779  1
  Ti  Ti159  1  0.49223381  0.90207475  0.12454398  1
  Mo  Mo160  1  0.10106372  0.69470867  0.37247102  1
  Mo  Mo161  1  0.59569925  0.59460287  -0.01792737  1
  Mo  Mo162  1  0.59857522  0.39787656  0.00507773  1
  Mo  Mo163  1  0.49810145  0.70476090  0.88220463  1
  Mo  Mo164  1  0.09833748  0.08958497  0.12523953  1
  Mo  Mo165  1  0.68502750  0.90476868  0.63154921  1
  Mo  Mo166  1  0.00338234  0.19701052  0.26520298  1
  Mo  Mo167  1  0.00393326  0.39750219  0.50395180  1
  Mo  Mo168  1  0.30317986  0.29773750  0.61227611  1
  Mo  Mo169  1  0.29714756  0.30489318  0.37040519  1
  Mo  Mo170  1  0.59337171  0.20257145  0.74730987  1
  Mo  Mo171  1  0.69565088  0.09652393  0.36550587  1
  Mo  Mo172  1  0.29980423  0.30081805  0.87312964  1
  Mo  Mo173  1  0.39638115  0.40341299  0.26527394  1
  Mo  Mo174  1  0.70627608  0.89930802  0.12264000  1
  Mo  Mo175  1  0.00420364  -0.00213137  0.26055770  1
  Mo  Mo176  1  0.09623374  0.90108332  0.36188893  1
  Mo  Mo177  1  0.10213820  0.10034457  0.39565942  1
  Mo  Mo178  1  0.10415941  0.49457743  0.62501671  1
  Mo  Mo179  1  0.20495496  0.39710449  0.72216283  1
  Mo  Mo180  1  0.10219888  0.89806169  0.63756569  1
  Mo  Mo181  1  0.39593912  0.80125344  0.01329886  1
  Mo  Mo182  1  0.50322044  0.49331581  0.87351849  1
  Mo  Mo183  1  0.20254024  0.00347868  0.48680336  1
  Mo  Mo184  1  0.79601089  0.40172247  0.24992118  1
  Mo  Mo185  1  0.19921606  0.59977202  0.73346729  1
  Mo  Mo186  1  0.50140490  0.50486170  0.39327378  1
  Mo  Mo187  1  0.19240804  0.79893186  0.01885384  1
  Mo  Mo188  1  0.89847674  0.50033770  0.38525909  1
  Mo  Mo189  1  0.09458212  0.89515241  0.86557003  1
  Mo  Mo190  1  0.30222093  0.49698736  0.63740866  1
  Mo  Mo191  1  0.30412598  0.09949156  0.37898204  1
  Mo  Mo192  1  0.20335127  0.39853122  0.26071215  1
  Mo  Mo193  1  0.29948962  0.49762807  0.36524549  1
  Mo  Mo194  1  0.79650592  0.80089679  0.49525695  1
  Mo  Mo195  1  0.60744847  0.79684495  0.22524322  1
  Mo  Mo196  1  0.19996631  0.80340543  0.73769141  1
  Mo  Mo197  1  0.10203594  0.69884784  0.63749878  1
  Mo  Mo198  1  0.79914999  0.59704166  0.48390914  1
  Mo  Mo199  1  0.30123164  0.89505819  0.89336166  1
