# generated using pymatgen
data_HfZrTaTiMo
_symmetry_space_group_name_H-M   'P 1'
_cell_length_a   15.92656325
_cell_length_b   15.92822871
_cell_length_c   15.19814539
_cell_angle_alpha   89.95354155
_cell_angle_beta   89.99658793
_cell_angle_gamma   90.10045544
_symmetry_Int_Tables_number   1
_chemical_formula_structural   HfZrTaTiMo
_chemical_formula_sum   'Hf40 Zr40 Ta40 Ti40 Mo40'
_cell_volume   3855.48783737
_cell_formula_units_Z   40
loop_
 _symmetry_equiv_pos_site_id
 _symmetry_equiv_pos_as_xyz
  1  'x, y, z'
loop_
 _atom_site_type_symbol
 _atom_site_label
 _atom_site_symmetry_multiplicity
 _atom_site_fract_x
 _atom_site_fract_y
 _atom_site_fract_z
 _atom_site_occupancy
  Hf  Hf0  1  0.09523946  0.10079772  0.86067495  1
  Hf  Hf1  1  0.00155782  -0.00105043  0.49811144  1
  Hf  Hf2  1  0.60669685  0.20537688  0.75360982  1
  Hf  Hf3  1  0.10914583  0.30042823  0.11507961  1
  Hf  Hf4  1  0.10803549  0.69720260  0.15141092  1
  Hf  Hf5  1  0.29982144  0.90070474  0.12093417  1
  Hf  Hf6  1  0.10398335  0.89914844  0.62786754  1
  Hf  Hf7  1  0.11522039  0.11047704  0.37827544  1
  Hf  Hf8  1  0.78919265  0.78931282  0.77028246  1
  Hf  Hf9  1  0.88937088  0.09900027  0.63265080  1
  Hf  Hf10  1  0.49295695  0.69917921  0.38420969  1
  Hf  Hf11  1  0.49346183  0.52061982  0.88334575  1
  Hf  Hf12  1  0.00269322  0.60507948  0.50108341  1
  Hf  Hf13  1  0.59472887  0.79814012  0.25048037  1
  Hf  Hf14  1  -0.00134381  -0.02709461  0.24972010  1
  Hf  Hf15  1  0.08854303  0.30610914  0.86631000  1
  Hf  Hf16  1  0.31926908  0.69426050  0.86824491  1
  Hf  Hf17  1  0.19498047  0.39763650  0.49156568  1
  Hf  Hf18  1  0.59097642  0.19544628  0.51607654  1
  Hf  Hf19  1  0.92424993  0.69686596  0.87658314  1
  Hf  Hf20  1  0.81131728  -0.00315601  0.00704909  1
  Hf  Hf21  1  0.00647423  0.40136493  0.25415460  1
  Hf  Hf22  1  0.00794540  0.20509420  0.50436743  1
  Hf  Hf23  1  0.47783343  0.29398286  0.37538966  1
  Hf  Hf24  1  0.89427061  0.51401645  0.13652830  1
  Hf  Hf25  1  0.41185097  0.00001535  0.24340486  1
  Hf  Hf26  1  0.10220121  0.09449803  0.12711569  1
  Hf  Hf27  1  0.50146006  0.89865191  0.38801837  1
  Hf  Hf28  1  0.29905298  0.08744587  0.86080292  1
  Hf  Hf29  1  0.79563456  0.60216082  -0.01019081  1
  Hf  Hf30  1  0.20477420  0.60508322  0.50474320  1
  Hf  Hf31  1  0.30218079  0.89680136  0.64503297  1
  Hf  Hf32  1  0.37831355  0.19442612  0.53238156  1
  Hf  Hf33  1  0.19836318  0.79175916  -0.00728145  1
  Hf  Hf34  1  0.89615865  0.89532147  0.62425791  1
  Hf  Hf35  1  0.38983451  0.39938559  0.51864174  1
  Hf  Hf36  1  0.19565960  -0.00511766  -0.00586845  1
  Hf  Hf37  1  0.30530786  0.10982984  0.11685699  1
  Hf  Hf38  1  0.80422753  0.79850997  -0.00161031  1
  Hf  Hf39  1  0.90650363  0.49388582  0.87669030  1
  Zr  Zr40  1  0.59570879  0.40135476  0.49770843  1
  Zr  Zr41  1  0.68675638  0.09258407  0.11905236  1
  Zr  Zr42  1  0.60102487  0.61609731  0.73649299  1
  Zr  Zr43  1  0.29766864  0.50691039  0.13941696  1
  Zr  Zr44  1  0.09437169  0.50493193  0.85510196  1
  Zr  Zr45  1  0.49696134  0.09817797  0.38259012  1
  Zr  Zr46  1  0.00230937  0.40878710  0.49294620  1
  Zr  Zr47  1  0.49662761  0.08738218  0.87817277  1
  Zr  Zr48  1  0.09890414  0.89628870  0.86298738  1
  Zr  Zr49  1  0.20054878  0.39453002  0.25786814  1
  Zr  Zr50  1  0.80098134  0.20155203  0.00620285  1
  Zr  Zr51  1  0.79988461  0.60641994  0.49164195  1
  Zr  Zr52  1  0.79100951  0.59769603  0.75185832  1
  Zr  Zr53  1  0.89112902  0.30189863  0.37702879  1
  Zr  Zr54  1  0.49093360  0.30009118  0.10688008  1
  Zr  Zr55  1  -0.00493681  0.18856421  0.00104578  1
  Zr  Zr56  1  0.58590390  0.19955874  0.24382314  1
  Zr  Zr57  1  0.70630391  0.88700140  0.62294640  1
  Zr  Zr58  1  0.20514484  0.60137806  -0.00843402  1
  Zr  Zr59  1  0.78248101  0.40000598  0.24085429  1
  Zr  Zr60  1  0.61190342  0.00085541  0.50762780  1
  Zr  Zr61  1  0.50254609  0.30858718  0.87675324  1
  Zr  Zr62  1  0.89016589  0.09004210  0.36492170  1
  Zr  Zr63  1  0.60713795  0.41629836  0.75523218  1
  Zr  Zr64  1  0.19712381  0.40970237  -0.00574907  1
  Zr  Zr65  1  0.89979226  0.30343698  0.12441955  1
  Zr  Zr66  1  0.00478240  0.19788858  0.25187043  1
  Zr  Zr67  1  0.78792844  0.18761767  0.49667243  1
  Zr  Zr68  1  0.10266265  0.31706750  0.64111685  1
  Zr  Zr69  1  0.68990943  0.29606279  0.37483640  1
  Zr  Zr70  1  -0.00211218  0.60091445  0.71953609  1
  Zr  Zr71  1  0.20132803  -0.00317633  0.25570836  1
  Zr  Zr72  1  0.80072506  0.39425016  0.75803642  1
  Zr  Zr73  1  0.60363552  -0.02073594  0.75681758  1
  Zr  Zr74  1  0.70587632  0.69433506  0.13791623  1
  Zr  Zr75  1  0.69785949  0.09840429  0.88349941  1
  Zr  Zr76  1  0.49943560  0.09412492  0.09507281  1
  Zr  Zr77  1  0.21220802  0.01049399  0.50789488  1
  Zr  Zr78  1  0.31014236  0.50729166  0.36777158  1
  Zr  Zr79  1  0.49475796  0.49958043  0.36943769  1
  Ta  Ta80  1  0.89460066  0.50613638  0.36456659  1
  Ta  Ta81  1  0.70580898  0.49668782  0.60801165  1
  Ta  Ta82  1  0.40126554  0.80226780  0.24127344  1
  Ta  Ta83  1  0.39724433  0.20288209  0.75113080  1
  Ta  Ta84  1  0.49732897  0.88782181  0.88871500  1
  Ta  Ta85  1  0.39831514  0.60379894  0.52296181  1
  Ta  Ta86  1  0.10304886  0.70578348  0.36766664  1
  Ta  Ta87  1  0.90826927  0.69902105  0.35512893  1
  Ta  Ta88  1  0.31480906  0.89475970  0.86896062  1
  Ta  Ta89  1  0.79491897  0.19309283  0.23536909  1
  Ta  Ta90  1  0.70599629  0.30223239  0.62284671  1
  Ta  Ta91  1  0.20280308  0.60560831  0.74331948  1
  Ta  Ta92  1  0.00683163  0.80056031  0.01387514  1
  Ta  Ta93  1  0.60173982  0.60607606  0.50229772  1
  Ta  Ta94  1  0.89813731  0.09867074  0.85943240  1
  Ta  Ta95  1  0.80174041  0.79950321  0.47269800  1
  Ta  Ta96  1  0.58904055  0.40408109  0.24212907  1
  Ta  Ta97  1  0.01200973  0.60257839  0.01607915  1
  Ta  Ta98  1  0.40206825  0.60522377  0.72651195  1
  Ta  Ta99  1  0.39555758  0.40961427  0.74896255  1
  Ta  Ta100  1  0.90644751  0.90031051  0.87451553  1
  Ta  Ta101  1  0.40340083  0.79174829  0.01588531  1
  Ta  Ta102  1  0.31092958  0.10634134  0.37059196  1
  Ta  Ta103  1  0.31107794  0.90088391  0.38096808  1
  Ta  Ta104  1  -0.01245860  0.20644396  0.74221800  1
  Ta  Ta105  1  0.00091795  0.79947866  0.48797097  1
  Ta  Ta106  1  0.20373765  0.80211496  0.49284840  1
  Ta  Ta107  1  0.90715729  0.70388318  0.14179442  1
  Ta  Ta108  1  0.49826614  0.50705917  0.11847280  1
  Ta  Ta109  1  0.38652223  0.41262801  -0.00863271  1
  Ta  Ta110  1  0.29206058  0.30862635  0.86250971  1
  Ta  Ta111  1  0.49889936  0.30324892  0.63886267  1
  Ta  Ta112  1  0.40062991  -0.00088464  0.51945220  1
  Ta  Ta113  1  0.38809097  0.20640217  -0.02273538  1
  Ta  Ta114  1  0.69980878  0.90029070  0.13066571  1
  Ta  Ta115  1  0.49585239  0.09166720  0.64464926  1
  Ta  Ta116  1  -0.00449750  -0.00133175  0.74298570  1
  Ta  Ta117  1  0.81355579  0.81400249  0.25462907  1
  Ta  Ta118  1  0.10387894  0.10271277  0.63724134  1
  Ta  Ta119  1  0.79478711  0.40534372  0.00063898  1
  Ti  Ti120  1  0.70445338  0.09838887  0.64409568  1
  Ti  Ti121  1  0.60093487  0.59790492  0.25518279  1
  Ti  Ti122  1  0.00010965  0.79642783  0.74320224  1
  Ti  Ti123  1  0.68590012  0.29959689  0.11378375  1
  Ti  Ti124  1  0.39299071  0.38239208  0.23551812  1
  Ti  Ti125  1  0.10093292  0.51810670  0.35866178  1
  Ti  Ti126  1  0.29117927  0.28320287  0.38339639  1
  Ti  Ti127  1  0.60293141  0.79194709  0.75767403  1
  Ti  Ti128  1  0.70004623  0.50135935  0.37607561  1
  Ti  Ti129  1  0.50520950  0.89141558  0.61874478  1
  Ti  Ti130  1  0.90042943  0.29855420  0.87709232  1
  Ti  Ti131  1  0.41039384  0.61380370  0.23730437  1
  Ti  Ti132  1  0.69192756  0.50424847  0.12266534  1
  Ti  Ti133  1  0.29996213  0.70143394  0.13515553  1
  Ti  Ti134  1  0.88951345  0.30175408  0.61945863  1
  Ti  Ti135  1  0.30348233  0.70474172  0.36722166  1
  Ti  Ti136  1  0.28412225  0.49356853  0.63672200  1
  Ti  Ti137  1  0.70319685  0.30210937  0.88497364  1
  Ti  Ti138  1  0.88707933  0.71088937  0.61935144  1
  Ti  Ti139  1  0.50397354  0.70050053  0.89316732  1
  Ti  Ti140  1  0.19866705  0.81344915  0.26395081  1
  Ti  Ti141  1  0.20526181  0.20313807  0.74153808  1
  Ti  Ti142  1  0.79788760  -0.01103425  0.76447602  1
  Ti  Ti143  1  0.50419220  0.50158417  0.62329473  1
  Ti  Ti144  1  0.89417526  0.48693818  0.61732694  1
  Ti  Ti145  1  0.61554080  0.79108241  0.49174404  1
  Ti  Ti146  1  0.79745225  -0.00694060  0.49253356  1
  Ti  Ti147  1  0.20090837  0.20199577  -0.01296267  1
  Ti  Ti148  1  0.20073475  0.78918260  0.75961929  1
  Ti  Ti149  1  0.10771330  0.70988763  0.62101590  1
  Ti  Ti150  1  0.50828293  0.90143617  0.11131627  1
  Ti  Ti151  1  0.42031464  0.79055201  0.74215347  1
  Ti  Ti152  1  -0.00258291  -0.00787774  0.01006228  1
  Ti  Ti153  1  0.21201634  0.20831294  0.24288171  1
  Ti  Ti154  1  -0.00018865  0.41131580  0.01375354  1
  Ti  Ti155  1  0.39188658  0.79363649  0.51365727  1
  Ti  Ti156  1  0.60627765  0.79180792  0.00606947  1
  Ti  Ti157  1  0.60365329  0.41312212  -0.00253781  1
  Ti  Ti158  1  0.70309595  0.90790077  0.35655804  1
  Ti  Ti159  1  0.69342870  0.08822912  0.35092195  1
  Mo  Mo160  1  0.60562324  -0.02432489  -0.01075581  1
  Mo  Mo161  1  0.29955083  0.29952524  0.10178829  1
  Mo  Mo162  1  0.59956817  0.60222805  0.00936146  1
  Mo  Mo163  1  0.38814487  0.20324105  0.24452597  1
  Mo  Mo164  1  0.69982752  0.89058723  0.88719144  1
  Mo  Mo165  1  0.69552466  0.49937932  0.88984267  1
  Mo  Mo166  1  0.20936127  0.60989327  0.26716942  1
  Mo  Mo167  1  0.40745767  -0.01383569  0.74331325  1
  Mo  Mo168  1  0.50387227  0.70959132  0.60758634  1
  Mo  Mo169  1  0.89922591  0.89849273  0.38556592  1
  Mo  Mo170  1  0.79812886  0.40321882  0.49733009  1
  Mo  Mo171  1  0.39811388  -0.01031181  -0.00141242  1
  Mo  Mo172  1  0.39960888  0.60651479  0.01602093  1
  Mo  Mo173  1  -0.00994261  0.39825031  0.73745762  1
  Mo  Mo174  1  0.10387303  0.89265741  0.11792839  1
  Mo  Mo175  1  0.50096674  0.69961613  0.12395050  1
  Mo  Mo176  1  0.29833268  0.09576019  0.65151060  1
  Mo  Mo177  1  0.68353099  0.69607112  0.89096732  1
  Mo  Mo178  1  0.59632097  0.21404169  -0.01344445  1
  Mo  Mo179  1  0.10921588  0.29577415  0.37789824  1
  Mo  Mo180  1  0.29786662  0.30561776  0.64612628  1
  Mo  Mo181  1  0.79948460  0.20259554  0.75477479  1
  Mo  Mo182  1  0.29925630  0.70555877  0.63537638  1
  Mo  Mo183  1  0.20024486  0.40912889  0.75838264  1
  Mo  Mo184  1  0.90003859  0.09046856  0.14000369  1
  Mo  Mo185  1  0.70425746  0.70224681  0.60773568  1
  Mo  Mo186  1  0.20124208  0.20202460  0.51856361  1
  Mo  Mo187  1  0.10220714  0.50787258  0.62750063  1
  Mo  Mo188  1  0.10128580  0.70091795  0.86428346  1
  Mo  Mo189  1  0.19862899  -0.00375095  0.75233971  1
  Mo  Mo190  1  0.59869394  -0.00958599  0.25102640  1
  Mo  Mo191  1  0.79392984  0.60397392  0.26395649  1
  Mo  Mo192  1  0.30669480  0.50646951  0.85837432  1
  Mo  Mo193  1  0.00583222  0.80212106  0.25661335  1
  Mo  Mo194  1  0.80069716  -0.00284737  0.23502073  1
  Mo  Mo195  1  0.00303009  0.59943652  0.24992634  1
  Mo  Mo196  1  0.90289582  0.89235022  0.11414698  1
  Mo  Mo197  1  0.09679064  0.50586549  0.13651130  1
  Mo  Mo198  1  0.10775006  0.89837795  0.39352054  1
  Mo  Mo199  1  0.69911183  0.70150032  0.36515310  1
