# generated using pymatgen
data_HfZrTaTiMo
_symmetry_space_group_name_H-M   'P 1'
_cell_length_a   15.91166458
_cell_length_b   15.93575780
_cell_length_c   15.21101884
_cell_angle_alpha   89.99571298
_cell_angle_beta   90.06445040
_cell_angle_gamma   89.98628212
_symmetry_Int_Tables_number   1
_chemical_formula_structural   HfZrTaTiMo
_chemical_formula_sum   'Hf40 Zr40 Ta40 Ti40 Mo40'
_cell_volume   3856.97080415
_cell_formula_units_Z   40
loop_
 _symmetry_equiv_pos_site_id
 _symmetry_equiv_pos_as_xyz
  1  'x, y, z'
loop_
 _atom_site_type_symbol
 _atom_site_label
 _atom_site_symmetry_multiplicity
 _atom_site_fract_x
 _atom_site_fract_y
 _atom_site_fract_z
 _atom_site_occupancy
  Hf  Hf0  1  0.80266282  0.60911252  0.00409882  1
  Hf  Hf1  1  0.20623946  0.40208585  0.23385982  1
  Hf  Hf2  1  -0.00128111  0.80375682  0.49483485  1
  Hf  Hf3  1  0.20273744  0.19806511  0.49969925  1
  Hf  Hf4  1  0.40910853  0.00740800  0.25198265  1
  Hf  Hf5  1  0.49415153  0.09654341  0.87138843  1
  Hf  Hf6  1  0.19947451  0.79407572  0.00712112  1
  Hf  Hf7  1  0.09001882  0.70198219  0.85949232  1
  Hf  Hf8  1  0.00808047  0.19890691  0.26456891  1
  Hf  Hf9  1  0.29869057  0.49858962  0.87752833  1
  Hf  Hf10  1  0.79013336  0.19567262  0.26361378  1
  Hf  Hf11  1  0.49944479  0.91058864  0.11604537  1
  Hf  Hf12  1  0.89348631  0.30023264  0.12629154  1
  Hf  Hf13  1  0.11877145  0.09579180  0.85221382  1
  Hf  Hf14  1  0.90332876  0.50449904  0.13066441  1
  Hf  Hf15  1  0.59308446  0.60299446  0.00902958  1
  Hf  Hf16  1  0.89251372  0.69916438  0.63136680  1
  Hf  Hf17  1  0.79885952  0.19250400  -0.01722437  1
  Hf  Hf18  1  0.00747439  0.40766363  0.00910627  1
  Hf  Hf19  1  0.50676923  0.49651354  0.37885003  1
  Hf  Hf20  1  0.80183772  0.39913729  0.75242538  1
  Hf  Hf21  1  0.01578320  0.21509614  0.73524520  1
  Hf  Hf22  1  0.19776902  0.60302514  0.00110546  1
  Hf  Hf23  1  0.11184841  0.90525677  0.61021386  1
  Hf  Hf24  1  0.70652547  0.91033535  0.12845160  1
  Hf  Hf25  1  0.89835293  0.88959663  0.86932664  1
  Hf  Hf26  1  0.90740291  0.70397039  0.14726893  1
  Hf  Hf27  1  0.00597964  0.00334864  -0.00324295  1
  Hf  Hf28  1  0.59330077  -0.01047921  0.75480483  1
  Hf  Hf29  1  0.89605387  0.08764649  0.14415871  1
  Hf  Hf30  1  -0.00504610  0.80798713  0.72905683  1
  Hf  Hf31  1  0.10310961  0.90233419  0.86655542  1
  Hf  Hf32  1  0.60237293  0.19945017  0.49280873  1
  Hf  Hf33  1  0.29859811  0.08081840  0.62581015  1
  Hf  Hf34  1  0.59356255  0.39211883  0.23818325  1
  Hf  Hf35  1  0.48660640  0.69327181  0.63370158  1
  Hf  Hf36  1  0.59663808  0.79692074  0.00157832  1
  Hf  Hf37  1  0.69555757  0.69402761  0.86263688  1
  Hf  Hf38  1  0.28762503  0.48661483  0.39004333  1
  Hf  Hf39  1  0.20180155  0.60681930  0.74885815  1
  Zr  Zr40  1  0.11895019  0.31797121  0.38595754  1
  Zr  Zr41  1  0.00693284  0.40317567  0.25163924  1
  Zr  Zr42  1  0.91454821  0.30926796  0.87992821  1
  Zr  Zr43  1  0.39643236  0.38733852  0.25274995  1
  Zr  Zr44  1  0.49976963  0.69855113  0.36731749  1
  Zr  Zr45  1  0.51062524  0.29363028  0.63157850  1
  Zr  Zr46  1  0.00486867  0.19202152  0.00495744  1
  Zr  Zr47  1  0.90115902  0.10202028  0.61809841  1
  Zr  Zr48  1  0.58867644  0.80201449  0.74781947  1
  Zr  Zr49  1  0.10180792  0.50810849  0.61884011  1
  Zr  Zr50  1  0.89965720  0.50671008  0.62910104  1
  Zr  Zr51  1  -0.00725822  0.79263927  0.00356879  1
  Zr  Zr52  1  0.00080433  0.40965551  0.49310769  1
  Zr  Zr53  1  0.79844632  0.60408846  0.49216062  1
  Zr  Zr54  1  0.61777857  0.39590967  0.74799437  1
  Zr  Zr55  1  0.70318720  0.49709387  0.12231374  1
  Zr  Zr56  1  0.79135126  0.21114925  0.75708855  1
  Zr  Zr57  1  0.40921180  0.41162907  -0.00032676  1
  Zr  Zr58  1  0.40091071  0.39938516  0.75568140  1
  Zr  Zr59  1  0.19375347  0.37761187  0.73965044  1
  Zr  Zr60  1  0.59740100  0.80604450  0.23901538  1
  Zr  Zr61  1  0.09375045  0.89543382  0.13525342  1
  Zr  Zr62  1  0.69623561  0.70313457  0.36823817  1
  Zr  Zr63  1  0.29372789  0.90597755  0.88480677  1
  Zr  Zr64  1  0.09720179  0.49293204  0.87116917  1
  Zr  Zr65  1  0.32131152  0.28321167  0.10775913  1
  Zr  Zr66  1  0.21251172  0.20105246  0.25553142  1
  Zr  Zr67  1  0.19659292  -0.00337227  0.26208002  1
  Zr  Zr68  1  0.80138042  -0.01082582  0.74384446  1
  Zr  Zr69  1  0.49124977  0.09756812  0.63371343  1
  Zr  Zr70  1  0.20986773  0.16300337  0.01185367  1
  Zr  Zr71  1  0.51370043  0.29916037  0.88718686  1
  Zr  Zr72  1  0.68887064  0.09911462  0.12624404  1
  Zr  Zr73  1  0.69113753  0.29653959  0.10781342  1
  Zr  Zr74  1  0.69030454  0.30771035  0.37954192  1
  Zr  Zr75  1  0.38105200  0.01833298  0.00958271  1
  Zr  Zr76  1  0.30663479  0.50746631  0.62571908  1
  Zr  Zr77  1  0.80224681  -0.00046314  -0.01377739  1
  Zr  Zr78  1  0.59716594  0.00296419  0.49582362  1
  Zr  Zr79  1  0.69423595  0.10872847  0.63359452  1
  Ta  Ta80  1  0.48299063  0.89881943  0.60844334  1
  Ta  Ta81  1  0.79500836  0.79522883  0.01172235  1
  Ta  Ta82  1  0.40513599  0.39689900  0.50725080  1
  Ta  Ta83  1  0.00313837  0.60907395  0.48211802  1
  Ta  Ta84  1  0.00213611  -0.00140947  0.73134863  1
  Ta  Ta85  1  0.38827580  0.20046121  0.76118220  1
  Ta  Ta86  1  0.79852113  0.00072707  0.49482416  1
  Ta  Ta87  1  0.50185792  0.50403676  0.62800297  1
  Ta  Ta88  1  0.29729094  0.89614952  0.13230014  1
  Ta  Ta89  1  0.70021451  0.88976446  0.87435829  1
  Ta  Ta90  1  0.90195901  0.51115641  0.87036386  1
  Ta  Ta91  1  0.39084890  0.59417690  0.26064281  1
  Ta  Ta92  1  0.90028234  0.70519333  0.36333043  1
  Ta  Ta93  1  0.89834235  0.30064201  0.38131561  1
  Ta  Ta94  1  0.79637219  0.40506389  0.49128279  1
  Ta  Ta95  1  0.89539500  0.30235435  0.60763375  1
  Ta  Ta96  1  0.79981824  0.40182941  0.26368841  1
  Ta  Ta97  1  0.69095368  0.50533814  0.37175492  1
  Ta  Ta98  1  0.59739429  0.60261236  0.51174311  1
  Ta  Ta99  1  0.49733186  0.89881958  0.38369096  1
  Ta  Ta100  1  0.30574847  0.29104448  0.61645055  1
  Ta  Ta101  1  0.79386815  0.60177738  0.25067524  1
  Ta  Ta102  1  0.10385264  0.09776139  0.61693290  1
  Ta  Ta103  1  0.60199733  0.00932484  0.26746605  1
  Ta  Ta104  1  0.10489005  0.70208829  0.36352857  1
  Ta  Ta105  1  0.48936714  0.69518771  0.13651136  1
  Ta  Ta106  1  0.59688686  0.79622393  0.50752122  1
  Ta  Ta107  1  0.29214288  0.29091081  0.88909312  1
  Ta  Ta108  1  0.30258680  0.89374975  0.37691459  1
  Ta  Ta109  1  0.29835712  0.70630184  0.62170243  1
  Ta  Ta110  1  0.91205649  0.09803472  0.85448552  1
  Ta  Ta111  1  0.29903958  0.69942194  0.14165455  1
  Ta  Ta112  1  0.10155284  0.69563169  0.14969213  1
  Ta  Ta113  1  0.69984860  0.89998759  0.37987842  1
  Ta  Ta114  1  0.30922843  0.09939929  0.37885741  1
  Ta  Ta115  1  0.70056191  0.89360519  0.61722917  1
  Ta  Ta116  1  0.89087529  0.69867008  0.85537595  1
  Ta  Ta117  1  0.39573681  0.60316912  0.48901706  1
  Ta  Ta118  1  0.49468760  0.50485878  0.13334875  1
  Ta  Ta119  1  0.00345736  0.19969522  0.49312891  1
  Ti  Ti120  1  0.49365360  0.12764365  0.11409284  1
  Ti  Ti121  1  0.09772284  0.09123978  0.14091689  1
  Ti  Ti122  1  0.90011868  0.50725110  0.36493617  1
  Ti  Ti123  1  0.30472954  0.70379570  0.86639588  1
  Ti  Ti124  1  0.10191747  0.51198179  0.12926574  1
  Ti  Ti125  1  0.89404147  0.90272674  0.38035549  1
  Ti  Ti126  1  0.40365653  0.19330612  0.49461469  1
  Ti  Ti127  1  0.39427983  0.79430689  0.49315040  1
  Ti  Ti128  1  0.00581316  0.81125244  0.26846522  1
  Ti  Ti129  1  0.39470318  0.80782548  0.75071169  1
  Ti  Ti130  1  0.20315421  0.79412157  0.48668219  1
  Ti  Ti131  1  0.50969562  0.51508259  0.86086936  1
  Ti  Ti132  1  0.00194460  -0.00093569  0.27971928  1
  Ti  Ti133  1  0.79839300  0.80678888  0.24855579  1
  Ti  Ti134  1  0.11059906  0.29735462  0.11549407  1
  Ti  Ti135  1  0.69562837  0.69785059  0.63377179  1
  Ti  Ti136  1  0.39436951  0.80131055  0.25350994  1
  Ti  Ti137  1  0.19915479  0.60864717  0.49251501  1
  Ti  Ti138  1  0.58266487  0.19631556  0.26099759  1
  Ti  Ti139  1  0.89824006  0.09715439  0.38169798  1
  Ti  Ti140  1  0.69570380  0.49780451  0.61371785  1
  Ti  Ti141  1  0.60175610  0.00136554  -0.01751208  1
  Ti  Ti142  1  0.20192932  0.59668076  0.25996782  1
  Ti  Ti143  1  0.30172442  0.50802801  0.11915401  1
  Ti  Ti144  1  0.00121335  0.40088364  0.73876019  1
  Ti  Ti145  1  0.39856647  0.61094246  -0.00242633  1
  Ti  Ti146  1  0.39989588  0.79654913  0.00265568  1
  Ti  Ti147  1  0.90028089  0.90439881  0.13736908  1
  Ti  Ti148  1  0.11401931  0.29614787  0.89272296  1
  Ti  Ti149  1  0.20065131  -0.00285070  0.48256902  1
  Ti  Ti150  1  0.69892637  0.49244297  0.88946944  1
  Ti  Ti151  1  0.79844812  0.80227649  0.50331491  1
  Ti  Ti152  1  0.49258145  0.69870143  0.86576806  1
  Ti  Ti153  1  0.49354881  0.30014239  0.38621353  1
  Ti  Ti154  1  0.20949050  0.80847743  0.73814795  1
  Ti  Ti155  1  0.10088058  0.69972425  0.62111485  1
  Ti  Ti156  1  0.39286175  -0.01580947  0.75683396  1
  Ti  Ti157  1  0.00090654  0.60751149  -0.00169978  1
  Ti  Ti158  1  0.79803825  0.20037991  0.49316306  1
  Ti  Ti159  1  0.78696682  0.59037114  0.74931180  1
  Mo  Mo160  1  0.20551541  0.79606622  0.25653832  1
  Mo  Mo161  1  0.39904006  0.60878863  0.76335645  1
  Mo  Mo162  1  0.70079994  0.70293145  0.13471794  1
  Mo  Mo163  1  0.60110932  0.59316472  0.73985665  1
  Mo  Mo164  1  0.20246540  -0.00954265  0.73170258  1
  Mo  Mo165  1  0.60414115  0.19755302  0.76470895  1
  Mo  Mo166  1  0.19396638  -0.00624884  0.02072936  1
  Mo  Mo167  1  0.30444437  0.88935533  0.60437323  1
  Mo  Mo168  1  0.59573917  0.59777767  0.23644098  1
  Mo  Mo169  1  0.10428728  0.51089951  0.37800414  1
  Mo  Mo170  1  0.80118877  -0.00585622  0.27236375  1
  Mo  Mo171  1  0.10091772  0.89783532  0.38639862  1
  Mo  Mo172  1  0.30619988  0.09659015  0.15163196  1
  Mo  Mo173  1  0.20635449  0.19784590  0.73445904  1
  Mo  Mo174  1  0.70433089  0.30642568  0.89537651  1
  Mo  Mo175  1  0.89517080  0.90217977  0.60418371  1
  Mo  Mo176  1  0.29948836  0.69721166  0.37067896  1
  Mo  Mo177  1  -0.00089592  0.00360264  0.49371443  1
  Mo  Mo178  1  0.09872362  0.09752436  0.38908368  1
  Mo  Mo179  1  0.00221285  0.60094654  0.26566849  1
  Mo  Mo180  1  0.09862392  0.29954541  0.60929020  1
  Mo  Mo181  1  0.69556616  0.09826709  0.86296539  1
  Mo  Mo182  1  0.20680585  0.39969926  0.52007721  1
  Mo  Mo183  1  0.59849305  0.40930934  0.00580270  1
  Mo  Mo184  1  0.50757595  0.29506514  0.11097943  1
  Mo  Mo185  1  0.79184256  0.79750418  0.73790165  1
  Mo  Mo186  1  0.20025015  0.40105010  0.01622869  1
  Mo  Mo187  1  0.29598397  0.09617283  0.85238913  1
  Mo  Mo188  1  0.49411692  0.89525798  0.89175275  1
  Mo  Mo189  1  0.41205253  0.19952791  0.26646285  1
  Mo  Mo190  1  0.59967186  0.40687880  0.51088841  1
  Mo  Mo191  1  0.31193035  0.29700933  0.39645731  1
  Mo  Mo192  1  0.40009022  0.19753702  -0.01882842  1
  Mo  Mo193  1  0.49899198  0.10375409  0.38082293  1
  Mo  Mo194  1  -0.00263090  0.60382510  0.75181268  1
  Mo  Mo195  1  0.70975257  0.30544415  0.60589637  1
  Mo  Mo196  1  0.70216079  0.09926416  0.37256475  1
  Mo  Mo197  1  0.80465486  0.40465840  -0.01609872  1
  Mo  Mo198  1  0.60290412  0.18922734  -0.01583279  1
  Mo  Mo199  1  0.39546151  -0.00415075  0.48494216  1
