# generated using pymatgen
data_HfZrTaTiMo
_symmetry_space_group_name_H-M   'P 1'
_cell_length_a   15.93569445
_cell_length_b   15.92156163
_cell_length_c   15.21629840
_cell_angle_alpha   90.00229231
_cell_angle_beta   90.07392340
_cell_angle_gamma   89.93317799
_symmetry_Int_Tables_number   1
_chemical_formula_structural   HfZrTaTiMo
_chemical_formula_sum   'Hf40 Zr40 Ta40 Ti40 Mo40'
_cell_volume   3860.69075528
_cell_formula_units_Z   40
loop_
 _symmetry_equiv_pos_site_id
 _symmetry_equiv_pos_as_xyz
  1  'x, y, z'
loop_
 _atom_site_type_symbol
 _atom_site_label
 _atom_site_symmetry_multiplicity
 _atom_site_fract_x
 _atom_site_fract_y
 _atom_site_fract_z
 _atom_site_occupancy
  Hf  Hf0  1  0.89367222  0.09565626  0.36828373  1
  Hf  Hf1  1  0.10120672  0.49839634  0.13146394  1
  Hf  Hf2  1  0.69384204  0.91110263  0.88732946  1
  Hf  Hf3  1  0.49660585  0.29627817  0.63481237  1
  Hf  Hf4  1  0.19898125  0.19818983  0.77438789  1
  Hf  Hf5  1  0.30355173  0.10273009  0.61475247  1
  Hf  Hf6  1  0.59593270  0.60434507  0.25174303  1
  Hf  Hf7  1  0.50333233  0.10533506  0.63150848  1
  Hf  Hf8  1  0.30096442  0.67862108  0.63746656  1
  Hf  Hf9  1  0.61377870  0.59969650  0.74975070  1
  Hf  Hf10  1  0.59648841  0.21050396  0.00112109  1
  Hf  Hf11  1  0.70612577  0.90891135  0.37004494  1
  Hf  Hf12  1  0.39098669  0.80005591  0.01448683  1
  Hf  Hf13  1  -0.00098864  0.20205076  0.24713684  1
  Hf  Hf14  1  0.59801435  0.81244433  0.74474693  1
  Hf  Hf15  1  0.40383691  0.20276042  0.47971439  1
  Hf  Hf16  1  0.90127985  0.70231505  0.88113314  1
  Hf  Hf17  1  0.29409788  0.89445380  0.87847555  1
  Hf  Hf18  1  0.20453434  0.19288072  0.24963104  1
  Hf  Hf19  1  0.29646511  0.29889626  0.63353145  1
  Hf  Hf20  1  0.20803096  0.60623024  0.47500407  1
  Hf  Hf21  1  0.90725482  0.90537440  0.87546187  1
  Hf  Hf22  1  0.40807537  0.59228990  0.01227568  1
  Hf  Hf23  1  0.19749639  -0.00952912  0.02042733  1
  Hf  Hf24  1  -0.00383104  0.19316312  0.01883206  1
  Hf  Hf25  1  0.19537195  -0.01646323  0.24720710  1
  Hf  Hf26  1  0.91281997  0.09807021  0.62001096  1
  Hf  Hf27  1  0.78945304  0.01326276  0.50431585  1
  Hf  Hf28  1  0.70516823  0.69947494  0.61002086  1
  Hf  Hf29  1  0.20933998  0.38865708  -0.00085598  1
  Hf  Hf30  1  0.00148111  0.60092961  0.26613479  1
  Hf  Hf31  1  0.80520852  0.80682471  0.01202174  1
  Hf  Hf32  1  0.80250897  0.40361902  0.75756915  1
  Hf  Hf33  1  0.70027617  0.49709496  0.36964111  1
  Hf  Hf34  1  0.90848276  0.70091411  0.12306992  1
  Hf  Hf35  1  0.00703009  0.40168716  0.48333735  1
  Hf  Hf36  1  0.89843756  0.09896182  0.88330239  1
  Hf  Hf37  1  0.31433503  0.49407392  0.86083164  1
  Hf  Hf38  1  0.51073391  0.29968325  0.34740461  1
  Hf  Hf39  1  0.38396732  0.78934653  0.50356218  1
  Zr  Zr40  1  0.18549528  0.39751710  0.76769416  1
  Zr  Zr41  1  0.10028130  0.11702350  0.61732676  1
  Zr  Zr42  1  0.38841664  0.00074867  0.24285052  1
  Zr  Zr43  1  0.50758377  0.90455165  0.11435982  1
  Zr  Zr44  1  0.30512734  0.69745597  0.85942919  1
  Zr  Zr45  1  0.08779385  0.07946603  0.87845993  1
  Zr  Zr46  1  0.58916101  0.80188340  0.48984695  1
  Zr  Zr47  1  0.59010328  0.01548618  0.48851164  1
  Zr  Zr48  1  0.48801292  0.50466838  0.63871298  1
  Zr  Zr49  1  0.20064747  0.59016243  -0.00579368  1
  Zr  Zr50  1  0.08117923  0.91422306  0.61692016  1
  Zr  Zr51  1  0.19886230  -0.00304563  0.50310036  1
  Zr  Zr52  1  0.38739884  0.20372076  -0.01391480  1
  Zr  Zr53  1  0.59466744  0.40363838  0.49449619  1
  Zr  Zr54  1  0.10661166  0.70697593  0.87318116  1
  Zr  Zr55  1  0.00540613  0.59218503  0.75719249  1
  Zr  Zr56  1  0.39916172  0.40385540  0.48706605  1
  Zr  Zr57  1  0.69517877  0.30973513  0.13125469  1
  Zr  Zr58  1  0.11255737  0.50595814  0.62059299  1
  Zr  Zr59  1  0.70684781  0.70234403  0.87636322  1
  Zr  Zr60  1  0.39701232  -0.01089547  0.75249063  1
  Zr  Zr61  1  0.20708370  0.39610177  0.48254238  1
  Zr  Zr62  1  0.61608359  0.40159950  0.75191806  1
  Zr  Zr63  1  0.20236099  0.18844446  0.00732107  1
  Zr  Zr64  1  0.70442010  0.70164075  0.38116466  1
  Zr  Zr65  1  0.89958122  0.50243392  0.61277940  1
  Zr  Zr66  1  0.70432821  0.10789930  0.89220357  1
  Zr  Zr67  1  0.49860472  0.31003664  0.86373117  1
  Zr  Zr68  1  0.39772239  0.80066963  0.25172485  1
  Zr  Zr69  1  0.81884310  0.80956344  0.25641529  1
  Zr  Zr70  1  0.29152732  0.69151707  0.13668489  1
  Zr  Zr71  1  -0.00625040  0.79824188  0.73459647  1
  Zr  Zr72  1  0.79360981  0.00209727  0.73876194  1
  Zr  Zr73  1  0.80067854  0.20799856  0.74364688  1
  Zr  Zr74  1  0.49428523  0.11904046  0.13233567  1
  Zr  Zr75  1  0.71081869  0.50086724  0.13179064  1
  Zr  Zr76  1  0.49922983  0.70520604  0.87028313  1
  Zr  Zr77  1  0.20451030  0.80958339  0.72316036  1
  Zr  Zr78  1  -0.00591556  0.39112241  0.75810440  1
  Zr  Zr79  1  0.70168711  0.29750078  0.61164366  1
  Ta  Ta80  1  0.00344525  0.59864923  0.00088937  1
  Ta  Ta81  1  0.29359846  0.89396705  0.39023874  1
  Ta  Ta82  1  0.49608520  0.69974495  0.62987288  1
  Ta  Ta83  1  0.09182713  0.08958156  0.14027262  1
  Ta  Ta84  1  0.88640120  0.29648426  0.90226779  1
  Ta  Ta85  1  0.89695778  0.50056596  0.89191648  1
  Ta  Ta86  1  0.69710835  0.11096196  0.35114144  1
  Ta  Ta87  1  0.80326821  0.00086655  0.02067311  1
  Ta  Ta88  1  0.70514045  0.29980849  0.36083548  1
  Ta  Ta89  1  0.39394983  0.19086596  0.76817649  1
  Ta  Ta90  1  0.60356802  0.60201527  0.00787254  1
  Ta  Ta91  1  0.00021990  0.79444118  0.48965702  1
  Ta  Ta92  1  -0.00917791  -0.01924502  0.25475133  1
  Ta  Ta93  1  0.80550258  0.39815994  0.48707520  1
  Ta  Ta94  1  0.48963239  0.90306750  0.61468465  1
  Ta  Ta95  1  0.80284519  0.20376874  0.23854358  1
  Ta  Ta96  1  0.50523731  0.08850973  0.88003054  1
  Ta  Ta97  1  0.09648679  0.70306772  0.13028157  1
  Ta  Ta98  1  0.19999427  0.00189840  0.74289775  1
  Ta  Ta99  1  0.38853105  0.00713107  0.00444436  1
  Ta  Ta100  1  0.31166879  0.29525731  0.14040804  1
  Ta  Ta101  1  0.59373021  0.00241849  0.25308140  1
  Ta  Ta102  1  0.70083661  0.70535120  0.13574188  1
  Ta  Ta103  1  0.69992931  0.90510530  0.13478962  1
  Ta  Ta104  1  0.40515981  0.39841159  0.01255592  1
  Ta  Ta105  1  0.89698315  0.29870017  0.36825064  1
  Ta  Ta106  1  0.09910142  0.30306152  0.12942733  1
  Ta  Ta107  1  0.00619903  0.60086963  0.47670069  1
  Ta  Ta108  1  0.30791555  0.49966308  0.35057092  1
  Ta  Ta109  1  0.69650017  0.09969977  0.12928961  1
  Ta  Ta110  1  0.29942619  0.09712201  0.37884366  1
  Ta  Ta111  1  0.89233340  0.89649643  0.60626379  1
  Ta  Ta112  1  -0.00238689  0.20665943  0.75828972  1
  Ta  Ta113  1  0.09688603  0.09436258  0.37314694  1
  Ta  Ta114  1  0.50095198  0.90414348  0.88870499  1
  Ta  Ta115  1  0.81245823  0.60140373  0.25980817  1
  Ta  Ta116  1  0.69413215  0.90143131  0.61317234  1
  Ta  Ta117  1  0.89670321  0.69635076  0.60403803  1
  Ta  Ta118  1  0.50491683  0.50422311  0.87449232  1
  Ta  Ta119  1  0.89584733  0.31364381  0.12497056  1
  Ti  Ti120  1  0.50813589  0.70250958  0.12625140  1
  Ti  Ti121  1  0.49070210  0.69620448  0.37403848  1
  Ti  Ti122  1  0.10101376  0.69523076  0.61415916  1
  Ti  Ti123  1  0.00083279  0.40440136  0.00217310  1
  Ti  Ti124  1  0.51179792  0.49012338  0.13288582  1
  Ti  Ti125  1  0.60215500  0.00311746  0.74296079  1
  Ti  Ti126  1  0.30017160  0.49360444  0.13607037  1
  Ti  Ti127  1  0.90021050  0.49728766  0.12391395  1
  Ti  Ti128  1  0.60530402  0.79751661  0.00485891  1
  Ti  Ti129  1  0.40035385  0.59359323  0.48496117  1
  Ti  Ti130  1  0.09511792  0.89740295  0.86744834  1
  Ti  Ti131  1  -0.00126741  0.40325267  0.25883466  1
  Ti  Ti132  1  0.10074034  0.29677506  0.61643740  1
  Ti  Ti133  1  0.00356430  0.79740721  0.26930307  1
  Ti  Ti134  1  0.58743770  0.59768263  0.49440470  1
  Ti  Ti135  1  0.19763589  0.79657671  0.25944261  1
  Ti  Ti136  1  0.40685884  0.40131296  0.24276016  1
  Ti  Ti137  1  0.08734987  0.29416925  0.89505928  1
  Ti  Ti138  1  0.79617628  0.20115466  0.49433759  1
  Ti  Ti139  1  0.59922719  0.40645974  -0.00343418  1
  Ti  Ti140  1  0.10632277  0.29468834  0.36691674  1
  Ti  Ti141  1  0.48598202  0.90994688  0.38104256  1
  Ti  Ti142  1  0.09818584  0.89590593  0.38573930  1
  Ti  Ti143  1  0.29988181  0.49648279  0.64267207  1
  Ti  Ti144  1  0.19546589  0.60164933  0.26293992  1
  Ti  Ti145  1  0.70944054  0.50816381  0.60566947  1
  Ti  Ti146  1  0.20142972  0.39558587  0.25350557  1
  Ti  Ti147  1  0.00402305  0.20205295  0.48359327  1
  Ti  Ti148  1  0.60891245  0.19697256  0.76142122  1
  Ti  Ti149  1  0.40484483  0.59811397  0.24578263  1
  Ti  Ti150  1  0.18868549  0.80404201  0.01510685  1
  Ti  Ti151  1  0.79990008  0.60191906  0.00957439  1
  Ti  Ti152  1  0.79796989  0.80149076  0.73909937  1
  Ti  Ti153  1  0.70617870  0.50058712  0.89007931  1
  Ti  Ti154  1  0.59511112  0.80527475  0.25712939  1
  Ti  Ti155  1  0.00088881  -0.01972962  0.02511642  1
  Ti  Ti156  1  0.90895277  0.29661054  0.60892895  1
  Ti  Ti157  1  0.80604352  0.59962434  0.74918123  1
  Ti  Ti158  1  0.89569760  0.09179135  0.13611723  1
  Ti  Ti159  1  0.60392530  0.19836106  0.48817171  1
  Mo  Mo160  1  0.59839868  0.00304556  0.01201238  1
  Mo  Mo161  1  0.60209772  0.40644629  0.25030390  1
  Mo  Mo162  1  0.90052250  0.49739874  0.37688971  1
  Mo  Mo163  1  0.10669275  0.49626146  0.35897818  1
  Mo  Mo164  1  0.10510567  0.70828591  0.37019900  1
  Mo  Mo165  1  0.30436728  0.30163467  0.35342705  1
  Mo  Mo166  1  0.40835370  0.59766397  0.75555395  1
  Mo  Mo167  1  0.29984179  0.29853300  0.87003938  1
  Mo  Mo168  1  0.90110194  0.90155802  0.39215466  1
  Mo  Mo169  1  0.40684610  0.80230513  0.73288244  1
  Mo  Mo170  1  0.30335960  0.69721442  0.35973510  1
  Mo  Mo171  1  0.29476555  0.89278525  0.11792666  1
  Mo  Mo172  1  0.70460640  0.30724804  0.89256068  1
  Mo  Mo173  1  0.80273671  0.20097109  0.02513208  1
  Mo  Mo174  1  0.79827142  0.00334841  0.23957416  1
  Mo  Mo175  1  -0.00198827  0.00329991  0.75033340  1
  Mo  Mo176  1  0.49634580  0.50702059  0.36011222  1
  Mo  Mo177  1  -0.00540528  0.00110039  0.47898283  1
  Mo  Mo178  1  0.19367930  0.79386209  0.50083631  1
  Mo  Mo179  1  0.81213133  0.40257858  0.26178159  1
  Mo  Mo180  1  0.49628534  0.31184348  0.12867037  1
  Mo  Mo181  1  0.19787304  0.59646967  0.75508171  1
  Mo  Mo182  1  0.19874705  0.20355106  0.47614711  1
  Mo  Mo183  1  0.90121237  0.70038631  0.38790357  1
  Mo  Mo184  1  0.79911172  0.40560643  -0.00521216  1
  Mo  Mo185  1  0.49993763  0.10195079  0.36027676  1
  Mo  Mo186  1  0.29784603  0.08608916  0.87021147  1
  Mo  Mo187  1  0.39750443  0.20057176  0.26019273  1
  Mo  Mo188  1  0.80482929  0.59792147  0.48548069  1
  Mo  Mo189  1  0.60304487  0.20160236  0.24072676  1
  Mo  Mo190  1  0.39844159  0.39353715  0.74836605  1
  Mo  Mo191  1  0.90427801  0.89740139  0.12405364  1
  Mo  Mo192  1  0.39835111  -0.00023850  0.49259223  1
  Mo  Mo193  1  0.09285727  0.88401032  0.14123648  1
  Mo  Mo194  1  0.30003175  0.89906668  0.61294201  1
  Mo  Mo195  1  0.09434105  0.49477366  0.89439074  1
  Mo  Mo196  1  0.69223068  0.10616574  0.62507425  1
  Mo  Mo197  1  0.29532925  0.09849858  0.13607008  1
  Mo  Mo198  1  0.80029868  0.80531516  0.49919196  1
  Mo  Mo199  1  0.00927848  0.80040241  0.00141856  1
