# generated using pymatgen
data_HfZrTaTiMo
_symmetry_space_group_name_H-M   'P 1'
_cell_length_a   16.38071409
_cell_length_b   16.39002158
_cell_length_c   14.31219713
_cell_angle_alpha   90.09903906
_cell_angle_beta   90.36217198
_cell_angle_gamma   89.32487423
_symmetry_Int_Tables_number   1
_chemical_formula_structural   HfZrTaTiMo
_chemical_formula_sum   'Hf40 Zr40 Ta40 Ti40 Mo40'
_cell_volume   3842.19359916
_cell_formula_units_Z   40
loop_
 _symmetry_equiv_pos_site_id
 _symmetry_equiv_pos_as_xyz
  1  'x, y, z'
loop_
 _atom_site_type_symbol
 _atom_site_label
 _atom_site_symmetry_multiplicity
 _atom_site_fract_x
 _atom_site_fract_y
 _atom_site_fract_z
 _atom_site_occupancy
  Hf  Hf0  1  0.29350646  0.49457630  0.86776832  1
  Hf  Hf1  1  0.70994508  0.70295858  0.61692845  1
  Hf  Hf2  1  0.60292560  0.80095169  0.74322872  1
  Hf  Hf3  1  0.38928176  0.40673400  0.48657959  1
  Hf  Hf4  1  0.40226011  0.80262639  0.49790112  1
  Hf  Hf5  1  0.59866754  0.79896700  0.26889670  1
  Hf  Hf6  1  0.79036299  0.39503371  0.75654748  1
  Hf  Hf7  1  0.91103829  0.70099362  0.11960309  1
  Hf  Hf8  1  0.70384365  0.09329106  0.14148286  1
  Hf  Hf9  1  0.39876258  0.00437421  0.49610566  1
  Hf  Hf10  1  0.39864161  0.00597079  0.26173405  1
  Hf  Hf11  1  0.18850195  0.81834952  -0.00276013  1
  Hf  Hf12  1  0.81286987  -0.00602471  0.49377985  1
  Hf  Hf13  1  0.19596389  0.00420635  0.26033636  1
  Hf  Hf14  1  0.68221696  0.91378282  0.87060001  1
  Hf  Hf15  1  0.19852522  0.80400027  0.25713841  1
  Hf  Hf16  1  0.29688268  0.70074159  0.12448760  1
  Hf  Hf17  1  0.10440235  0.69868704  0.37965622  1
  Hf  Hf18  1  0.49985193  0.29918154  0.61110215  1
  Hf  Hf19  1  0.08524460  0.71296226  0.87387425  1
  Hf  Hf20  1  0.29495938  0.30636744  0.62066891  1
  Hf  Hf21  1  0.29845520  0.08695287  0.86934256  1
  Hf  Hf22  1  0.91085380  0.50076636  0.88036340  1
  Hf  Hf23  1  0.59993487  0.60350849  0.25345602  1
  Hf  Hf24  1  0.80326219  0.59698045  0.24959563  1
  Hf  Hf25  1  0.60540225  0.59345890  0.76029473  1
  Hf  Hf26  1  0.61203594  0.20175004  0.74920553  1
  Hf  Hf27  1  0.29606239  0.90896734  0.85814004  1
  Hf  Hf28  1  0.70640341  0.10026082  0.37209996  1
  Hf  Hf29  1  0.80392300  0.81286806  -0.00328230  1
  Hf  Hf30  1  0.70024249  0.70790972  0.12099755  1
  Hf  Hf31  1  0.40037174  0.18824815  0.72883938  1
  Hf  Hf32  1  0.49666686  0.29885647  0.13129150  1
  Hf  Hf33  1  0.80759245  0.00488536  0.76167723  1
  Hf  Hf34  1  0.00019462  0.59437422  0.51277075  1
  Hf  Hf35  1  0.29577721  0.29782086  0.87097574  1
  Hf  Hf36  1  0.19364970  0.20088549  0.50226782  1
  Hf  Hf37  1  0.91042233  0.30051014  0.88429265  1
  Hf  Hf38  1  0.81196772  0.19959217  0.24542823  1
  Hf  Hf39  1  0.29196725  0.10171622  0.12179151  1
  Zr  Zr40  1  0.80575778  0.00489146  -0.01036479  1
  Zr  Zr41  1  0.08610703  0.28128995  0.11270578  1
  Zr  Zr42  1  0.60260613  0.39952030  -0.00456181  1
  Zr  Zr43  1  0.50534042  0.07708064  0.84933022  1
  Zr  Zr44  1  0.39847118  0.59662323  -0.00485209  1
  Zr  Zr45  1  0.18918965  0.19790390  0.26109787  1
  Zr  Zr46  1  0.50202157  0.89646063  0.13383024  1
  Zr  Zr47  1  0.19796699  0.39299796  0.25099791  1
  Zr  Zr48  1  0.19161961  0.59901472  -0.01154237  1
  Zr  Zr49  1  0.70030942  0.29784809  0.36935516  1
  Zr  Zr50  1  0.48666918  0.89871209  0.86599744  1
  Zr  Zr51  1  0.90718772  0.70121209  0.87813933  1
  Zr  Zr52  1  0.60899418  0.39789147  0.75283430  1
  Zr  Zr53  1  0.92747989  0.10658544  0.12237124  1
  Zr  Zr54  1  0.49152120  0.30096950  0.86724751  1
  Zr  Zr55  1  0.49572247  0.50081660  0.62067862  1
  Zr  Zr56  1  0.59100263  -0.00200183  0.49268085  1
  Zr  Zr57  1  0.19235987  0.19347717  0.74181111  1
  Zr  Zr58  1  0.00505773  0.19027698  0.74774658  1
  Zr  Zr59  1  0.79943724  0.19567805  -0.00987108  1
  Zr  Zr60  1  0.60385018  0.19100721  -0.00433384  1
  Zr  Zr61  1  0.49383692  0.70209788  0.62958054  1
  Zr  Zr62  1  0.47897416  0.51685484  0.36669007  1
  Zr  Zr63  1  0.39830884  0.79874995  0.26768483  1
  Zr  Zr64  1  0.90573555  0.89543603  0.62791985  1
  Zr  Zr65  1  0.29803833  0.71221760  0.86380454  1
  Zr  Zr66  1  0.49481494  0.70805872  0.87590319  1
  Zr  Zr67  1  0.11876498  0.50356394  0.39110878  1
  Zr  Zr68  1  0.30355071  0.67088793  0.38586866  1
  Zr  Zr69  1  0.59623198  0.60828924  0.48643403  1
  Zr  Zr70  1  0.80104722  0.19901810  0.75600977  1
  Zr  Zr71  1  0.80979618  0.80609033  0.25814389  1
  Zr  Zr72  1  0.00703002  0.39707448  0.51630104  1
  Zr  Zr73  1  0.69862981  0.09399375  0.62133579  1
  Zr  Zr74  1  0.90517431  0.29755666  0.37481857  1
  Zr  Zr75  1  0.90719115  0.70289173  0.38272864  1
  Zr  Zr76  1  0.60271481  0.59399800  -0.00206991  1
  Zr  Zr77  1  0.40633332  0.18918642  0.00030446  1
  Zr  Zr78  1  0.79703147  0.59577517  0.75432041  1
  Zr  Zr79  1  0.00631394  0.39692495  0.25552943  1
  Ta  Ta80  1  0.49604643  0.69837271  0.12832052  1
  Ta  Ta81  1  0.90839541  0.10059574  0.38109094  1
  Ta  Ta82  1  0.59670778  0.40270634  0.25517743  1
  Ta  Ta83  1  0.59333482  0.00479080  0.01904570  1
  Ta  Ta84  1  0.09727454  0.50499137  0.11703085  1
  Ta  Ta85  1  0.90600784  0.49780096  0.12107366  1
  Ta  Ta86  1  0.90405776  0.30241339  0.11768905  1
  Ta  Ta87  1  0.90134977  0.70239878  0.62912672  1
  Ta  Ta88  1  0.29594044  0.49607181  0.12724548  1
  Ta  Ta89  1  0.39382748  0.39972106  0.00710031  1
  Ta  Ta90  1  0.60118942  0.40092846  0.48536740  1
  Ta  Ta91  1  0.59732487  0.80645131  0.49277306  1
  Ta  Ta92  1  0.49329915  0.49834333  0.13205222  1
  Ta  Ta93  1  0.92955882  0.89429412  0.86998434  1
  Ta  Ta94  1  0.39171393  0.20223463  0.25904623  1
  Ta  Ta95  1  0.79848957  0.40227308  0.00411356  1
  Ta  Ta96  1  0.18262012  0.40472552  0.74242012  1
  Ta  Ta97  1  0.19146299  0.80725430  0.73326853  1
  Ta  Ta98  1  0.70857963  0.90190911  0.37586995  1
  Ta  Ta99  1  0.29427339  0.29627182  0.11626766  1
  Ta  Ta100  1  0.70813602  0.49658632  0.37531664  1
  Ta  Ta101  1  0.79908741  0.59427657  0.00349676  1
  Ta  Ta102  1  0.00498109  0.00098588  0.26341420  1
  Ta  Ta103  1  0.80762838  0.59237338  0.50105058  1
  Ta  Ta104  1  0.69951046  0.49733348  0.60817770  1
  Ta  Ta105  1  0.19436907  0.39726659  -0.00345959  1
  Ta  Ta106  1  0.70512958  0.89590618  0.61915836  1
  Ta  Ta107  1  0.39175149  0.39696099  0.24961607  1
  Ta  Ta108  1  0.39029792  0.59764181  0.74584960  1
  Ta  Ta109  1  0.20009626  0.80320298  0.50970020  1
  Ta  Ta110  1  0.70269348  0.70641583  0.88334860  1
  Ta  Ta111  1  0.70139935  0.30253087  0.13068036  1
  Ta  Ta112  1  0.80661147  0.20385419  0.51267613  1
  Ta  Ta113  1  0.90703452  0.90972405  0.13222359  1
  Ta  Ta114  1  0.70465604  0.90810888  0.13898643  1
  Ta  Ta115  1  0.40215423  -0.00131506  0.01618055  1
  Ta  Ta116  1  0.80247223  0.39871031  0.50664046  1
  Ta  Ta117  1  0.18882196  0.19213761  -0.01241631  1
  Ta  Ta118  1  0.09500613  0.70286678  0.12534210  1
  Ta  Ta119  1  0.80199684  0.80452660  0.75883477  1
  Ti  Ti120  1  0.00243504  0.20204608  0.50950395  1
  Ti  Ti121  1  0.29714079  0.69999998  0.62645580  1
  Ti  Ti122  1  0.90971249  0.09490492  0.62272763  1
  Ti  Ti123  1  0.19251810  0.60050967  0.74598583  1
  Ti  Ti124  1  0.49558692  0.29855820  0.37370427  1
  Ti  Ti125  1  0.00948074  -0.00260237  0.50567849  1
  Ti  Ti126  1  0.00476350  0.59535652  0.25010105  1
  Ti  Ti127  1  0.29000369  0.90663969  0.39062219  1
  Ti  Ti128  1  0.39361598  0.40407268  0.74207197  1
  Ti  Ti129  1  0.59261814  0.19824078  0.24801725  1
  Ti  Ti130  1  0.01484594  -0.00668435  -0.00494352  1
  Ti  Ti131  1  0.59230266  0.00136164  0.25921712  1
  Ti  Ti132  1  0.09813380  0.70086141  0.62487455  1
  Ti  Ti133  1  0.89993899  0.49540353  0.63796819  1
  Ti  Ti134  1  0.39519957  0.80757366  0.00838394  1
  Ti  Ti135  1  0.60185251  0.20350881  0.50059929  1
  Ti  Ti136  1  0.00277689  0.80351519  0.50374225  1
  Ti  Ti137  1  0.59879898  0.80754308  0.00391397  1
  Ti  Ti138  1  0.71199545  0.70309491  0.38637192  1
  Ti  Ti139  1  0.10469528  0.07772519  0.87449318  1
  Ti  Ti140  1  0.69990798  0.49552802  0.13116112  1
  Ti  Ti141  1  0.09624371  0.90850006  0.13113198  1
  Ti  Ti142  1  0.00992382  0.59148655  0.74473569  1
  Ti  Ti143  1  0.09909733  0.90078176  0.38838925  1
  Ti  Ti144  1  0.29579237  0.09270635  0.60980657  1
  Ti  Ti145  1  0.29444325  0.29940689  0.38138343  1
  Ti  Ti146  1  0.29554385  0.90550653  0.12647815  1
  Ti  Ti147  1  0.18819634  -0.00330272  0.71648288  1
  Ti  Ti148  1  0.09669456  0.30602388  0.86961668  1
  Ti  Ti149  1  0.19916132  0.59537842  0.24072094  1
  Ti  Ti150  1  0.90321085  0.30261908  0.63555958  1
  Ti  Ti151  1  0.00464495  0.80932860  0.25418774  1
  Ti  Ti152  1  0.09433447  0.10033812  0.38884018  1
  Ti  Ti153  1  0.49515835  0.90805693  0.63551456  1
  Ti  Ti154  1  0.49102694  0.49574073  0.87117660  1
  Ti  Ti155  1  0.28707892  0.50492099  0.61603021  1
  Ti  Ti156  1  0.90029530  0.49670236  0.37346970  1
  Ti  Ti157  1  0.00844215  0.40495491  -0.00088268  1
  Ti  Ti158  1  0.80238971  0.40069136  0.24340338  1
  Ti  Ti159  1  0.49523162  0.11571417  0.38027259  1
  Mo  Mo160  1  0.80003261  0.79795330  0.49892889  1
  Mo  Mo161  1  0.00532888  0.19416913  0.27114629  1
  Mo  Mo162  1  0.00420052  0.81280562  0.01899408  1
  Mo  Mo163  1  0.09973204  0.29735877  0.39299507  1
  Mo  Mo164  1  0.19929384  -0.00158625  0.01002424  1
  Mo  Mo165  1  0.91403524  0.90319357  0.37498358  1
  Mo  Mo166  1  -0.00001906  0.39970634  0.74784552  1
  Mo  Mo167  1  0.09628190  0.30072362  0.62851397  1
  Mo  Mo168  1  0.59917835  -0.00212852  0.72445372  1
  Mo  Mo169  1  0.10225437  0.09023694  0.11487182  1
  Mo  Mo170  1  0.09776027  0.50034306  0.87222320  1
  Mo  Mo171  1  0.19780966  0.60531955  0.52310597  1
  Mo  Mo172  1  0.50300450  0.90286783  0.37597777  1
  Mo  Mo173  1  0.19587367  -0.00024436  0.49518319  1
  Mo  Mo174  1  0.09939410  0.89793263  0.61536506  1
  Mo  Mo175  1  0.70060284  0.30304780  0.60302288  1
  Mo  Mo176  1  0.29794930  0.89937254  0.62072019  1
  Mo  Mo177  1  0.09428276  0.09399820  0.61041670  1
  Mo  Mo178  1  0.38844816  0.80247904  0.73039420  1
  Mo  Mo179  1  0.19998324  0.40018821  0.50717086  1
  Mo  Mo180  1  0.49932187  0.10053393  0.14705417  1
  Mo  Mo181  1  0.10253345  0.90370870  0.85419220  1
  Mo  Mo182  1  0.00804639  0.19143052  -0.02616537  1
  Mo  Mo183  1  0.70452923  0.30060612  0.89530101  1
  Mo  Mo184  1  0.39515009  0.59786077  0.22855657  1
  Mo  Mo185  1  0.81238442  -0.00025987  0.26065367  1
  Mo  Mo186  1  0.38992207  -0.00037089  0.72052795  1
  Mo  Mo187  1  0.69103726  0.09512827  0.87072432  1
  Mo  Mo188  1  0.10324102  0.50539994  0.63342592  1
  Mo  Mo189  1  0.49685057  0.70247557  0.37605875  1
  Mo  Mo190  1  0.29941942  0.10500383  0.38102235  1
  Mo  Mo191  1  0.91920133  0.09082112  0.87708079  1
  Mo  Mo192  1  0.49887702  0.10492713  0.61407954  1
  Mo  Mo193  1  0.39638643  0.20113271  0.48983349  1
  Mo  Mo194  1  0.29542448  0.49704971  0.36812723  1
  Mo  Mo195  1  0.70677422  0.50273760  0.88895623  1
  Mo  Mo196  1  0.39133798  0.60004438  0.52250412  1
  Mo  Mo197  1  -0.00010878  0.59919494  0.00929311  1
  Mo  Mo198  1  0.00836425  -0.00303877  0.74720127  1
  Mo  Mo199  1  0.00332847  0.79455669  0.73046394  1
