# generated using pymatgen
data_HfZrTaTiMo
_symmetry_space_group_name_H-M   'P 1'
_cell_length_a   15.92720407
_cell_length_b   15.93680953
_cell_length_c   15.20551167
_cell_angle_alpha   89.97530435
_cell_angle_beta   89.98785110
_cell_angle_gamma   89.90291479
_symmetry_Int_Tables_number   1
_chemical_formula_structural   HfZrTaTiMo
_chemical_formula_sum   'Hf40 Zr40 Ta40 Ti40 Mo40'
_cell_volume   3859.59106488
_cell_formula_units_Z   40
loop_
 _symmetry_equiv_pos_site_id
 _symmetry_equiv_pos_as_xyz
  1  'x, y, z'
loop_
 _atom_site_type_symbol
 _atom_site_label
 _atom_site_symmetry_multiplicity
 _atom_site_fract_x
 _atom_site_fract_y
 _atom_site_fract_z
 _atom_site_occupancy
  Hf  Hf0  1  0.89584375  0.69582158  0.88240616  1
  Hf  Hf1  1  0.31262349  0.51315584  0.37567833  1
  Hf  Hf2  1  0.19605970  0.79744819  0.00342579  1
  Hf  Hf3  1  0.79229063  0.79669402  0.75628675  1
  Hf  Hf4  1  0.48924617  0.90315095  0.63032547  1
  Hf  Hf5  1  0.09421359  0.51651072  0.37832217  1
  Hf  Hf6  1  0.50318113  0.49396229  0.11071237  1
  Hf  Hf7  1  0.20635221  0.20773434  -0.00290822  1
  Hf  Hf8  1  0.31734624  0.08705536  0.11427658  1
  Hf  Hf9  1  0.59596596  0.19756030  -0.02768331  1
  Hf  Hf10  1  0.10472033  0.31268677  0.86591545  1
  Hf  Hf11  1  0.40048846  0.59363361  0.74525675  1
  Hf  Hf12  1  -0.00372040  0.19919662  0.75659817  1
  Hf  Hf13  1  0.89511976  0.90455179  0.64058174  1
  Hf  Hf14  1  0.30487513  0.30280264  0.13561127  1
  Hf  Hf15  1  0.80028739  0.19787846  0.76977139  1
  Hf  Hf16  1  0.59491364  -0.00189759  0.77129321  1
  Hf  Hf17  1  0.40397638  0.19531028  -0.01872107  1
  Hf  Hf18  1  0.20777702  0.19649848  0.25190040  1
  Hf  Hf19  1  0.19993364  0.40934321  0.49307414  1
  Hf  Hf20  1  0.39905724  0.38455187  -0.01861434  1
  Hf  Hf21  1  -0.01092947  0.41095772  0.50503563  1
  Hf  Hf22  1  0.60338106  0.79066295  0.50579747  1
  Hf  Hf23  1  0.30349868  0.50491190  0.11892048  1
  Hf  Hf24  1  0.18879475  0.19122415  0.50690918  1
  Hf  Hf25  1  0.91418086  0.30630856  0.12820608  1
  Hf  Hf26  1  0.70776688  0.50409726  0.87898652  1
  Hf  Hf27  1  0.08630838  0.29503700  0.36662285  1
  Hf  Hf28  1  0.48869007  0.91228194  0.11423868  1
  Hf  Hf29  1  0.68665510  0.10241301  0.11631516  1
  Hf  Hf30  1  0.10667069  0.90088930  0.87587758  1
  Hf  Hf31  1  0.39663106  0.40592138  0.74275873  1
  Hf  Hf32  1  0.69591144  0.69935326  0.12968604  1
  Hf  Hf33  1  0.69300272  0.48795600  0.61670325  1
  Hf  Hf34  1  0.00489937  0.79690734  0.23804386  1
  Hf  Hf35  1  0.40059924  0.60221055  0.51739501  1
  Hf  Hf36  1  0.60172338  0.59861436  0.74853299  1
  Hf  Hf37  1  0.69649006  0.69228894  0.35966284  1
  Hf  Hf38  1  0.59815682  0.79693348  0.76521122  1
  Hf  Hf39  1  -0.00276461  0.58885900  0.00757177  1
  Zr  Zr40  1  0.80086588  0.00881681  0.49033314  1
  Zr  Zr41  1  0.90088389  0.69829777  0.36583283  1
  Zr  Zr42  1  0.69803423  0.50345274  0.12788301  1
  Zr  Zr43  1  0.00215612  0.59308857  0.74375873  1
  Zr  Zr44  1  0.38899146  0.79824966  0.50253137  1
  Zr  Zr45  1  0.29328635  0.08344803  0.87124224  1
  Zr  Zr46  1  0.80490192  0.59968548  0.51177631  1
  Zr  Zr47  1  0.69782347  0.30746549  0.11582373  1
  Zr  Zr48  1  0.40405697  0.20076055  0.75500726  1
  Zr  Zr49  1  0.58605719  0.01288120  0.24792124  1
  Zr  Zr50  1  0.09474608  0.31619853  0.63623504  1
  Zr  Zr51  1  -0.02431535  0.21126421  0.51338717  1
  Zr  Zr52  1  0.40715560  0.40513611  0.25860207  1
  Zr  Zr53  1  0.00022466  0.80677051  0.49629992  1
  Zr  Zr54  1  0.82408377  0.41401755  0.00802767  1
  Zr  Zr55  1  0.19597130  0.18396480  0.73826954  1
  Zr  Zr56  1  0.89685217  0.12016380  0.35742567  1
  Zr  Zr57  1  0.20351746  0.61130849  0.25207494  1
  Zr  Zr58  1  0.70680115  0.31223180  0.88107286  1
  Zr  Zr59  1  0.00454439  0.00324193  0.50990995  1
  Zr  Zr60  1  0.09475130  0.09170681  0.36355335  1
  Zr  Zr61  1  0.79732449  0.80512911  0.50199623  1
  Zr  Zr62  1  0.27996459  0.69194647  0.86501143  1
  Zr  Zr63  1  0.28622715  0.89438264  0.36793013  1
  Zr  Zr64  1  0.51257068  0.28979832  0.12817090  1
  Zr  Zr65  1  0.60864783  -0.00607672  0.50119282  1
  Zr  Zr66  1  0.59380235  0.79852734  -0.00443725  1
  Zr  Zr67  1  0.61734135  0.19720717  0.50843511  1
  Zr  Zr68  1  0.49665304  0.09713322  0.62619728  1
  Zr  Zr69  1  0.70397671  0.89916516  0.35373965  1
  Zr  Zr70  1  0.71660277  0.29066706  0.36791521  1
  Zr  Zr71  1  0.00440489  0.00628399  0.75826367  1
  Zr  Zr72  1  0.80913026  0.38118104  0.50431320  1
  Zr  Zr73  1  0.39879585  0.79408889  -0.01531338  1
  Zr  Zr74  1  0.50490805  0.29631643  0.38836816  1
  Zr  Zr75  1  0.49418827  0.89687800  0.37723204  1
  Zr  Zr76  1  0.41442673  0.18326190  0.25433858  1
  Zr  Zr77  1  0.09741641  0.70203802  0.62833200  1
  Zr  Zr78  1  -0.00726058  -0.00198668  0.00298866  1
  Zr  Zr79  1  0.29921269  0.30287997  0.62080547  1
  Ta  Ta80  1  0.80076970  0.20102789  0.22540727  1
  Ta  Ta81  1  0.39902441  0.79949035  0.75829397  1
  Ta  Ta82  1  0.70523511  0.09262310  0.64819125  1
  Ta  Ta83  1  0.30311225  0.69556589  0.11966869  1
  Ta  Ta84  1  0.49253483  0.69004991  0.36703545  1
  Ta  Ta85  1  0.70161939  0.49948889  0.37888369  1
  Ta  Ta86  1  0.00066048  0.59994618  0.23880915  1
  Ta  Ta87  1  -0.00545462  0.79930158  0.00473163  1
  Ta  Ta88  1  0.69524538  0.90313158  0.12020109  1
  Ta  Ta89  1  0.59528623  0.39787391  0.75315690  1
  Ta  Ta90  1  0.19872881  -0.00768012  0.52212653  1
  Ta  Ta91  1  0.51218035  0.50266220  0.39198999  1
  Ta  Ta92  1  0.91121781  0.31064876  0.87740798  1
  Ta  Ta93  1  0.10173626  0.90215555  0.35672864  1
  Ta  Ta94  1  0.89557621  0.69739159  0.12664108  1
  Ta  Ta95  1  0.10498748  0.30526876  0.12917040  1
  Ta  Ta96  1  0.39209738  0.78883811  0.24882786  1
  Ta  Ta97  1  0.60371810  0.39999013  0.26599879  1
  Ta  Ta98  1  0.10401638  0.49349670  0.12470486  1
  Ta  Ta99  1  0.09912298  0.90298118  0.12909479  1
  Ta  Ta100  1  0.59303205  0.60562107  -0.00908197  1
  Ta  Ta101  1  0.19612669  0.80823108  0.51534166  1
  Ta  Ta102  1  0.20051202  0.40300850  0.26133261  1
  Ta  Ta103  1  -0.00225554  0.80043346  0.76432875  1
  Ta  Ta104  1  0.79760774  0.60089985  0.73789654  1
  Ta  Ta105  1  0.50102612  0.70277358  0.63579221  1
  Ta  Ta106  1  0.00400989  0.20442091  -0.00216083  1
  Ta  Ta107  1  0.20419499  0.00064396  0.23701071  1
  Ta  Ta108  1  0.90922430  0.91371947  0.34970552  1
  Ta  Ta109  1  0.29637050  0.70501873  0.63867884  1
  Ta  Ta110  1  0.88738918  0.09990549  0.63819106  1
  Ta  Ta111  1  0.49453793  0.09639023  0.39698159  1
  Ta  Ta112  1  0.81361961  0.19518490  -0.00048660  1
  Ta  Ta113  1  0.29071144  0.49868304  0.87938071  1
  Ta  Ta114  1  0.10280648  0.10386973  0.12278414  1
  Ta  Ta115  1  0.30218185  0.29561054  0.38233578  1
  Ta  Ta116  1  0.20080769  0.40038984  -0.00234018  1
  Ta  Ta117  1  0.30091465  0.09212347  0.39085547  1
  Ta  Ta118  1  0.58739575  0.79799638  0.23858532  1
  Ta  Ta119  1  0.50160295  0.49707117  0.88064259  1
  Ti  Ti120  1  0.19371227  0.80792693  0.74132194  1
  Ti  Ti121  1  0.49093222  0.69023333  0.12995436  1
  Ti  Ti122  1  0.70521283  0.69723041  0.88839343  1
  Ti  Ti123  1  0.89393183  0.50433292  0.36272342  1
  Ti  Ti124  1  0.80595643  0.80579065  0.01151582  1
  Ti  Ti125  1  0.69987843  0.10497469  0.35777931  1
  Ti  Ti126  1  0.70594983  0.29255436  0.63574944  1
  Ti  Ti127  1  0.20586440  0.61273952  0.50264298  1
  Ti  Ti128  1  0.51316844  0.30757814  0.62069364  1
  Ti  Ti129  1  0.58972844  0.59186541  0.25047656  1
  Ti  Ti130  1  0.80882430  0.40434129  0.74267020  1
  Ti  Ti131  1  0.20263487  -0.00625222  0.01158397  1
  Ti  Ti132  1  0.09737193  0.69303724  0.87777978  1
  Ti  Ti133  1  0.39608640  -0.00300627  0.25897980  1
  Ti  Ti134  1  -0.00314810  0.60142063  0.51164827  1
  Ti  Ti135  1  0.39469462  0.19605120  0.50976324  1
  Ti  Ti136  1  0.89778852  0.70519714  0.63172143  1
  Ti  Ti137  1  0.29947346  0.89223631  0.12890729  1
  Ti  Ti138  1  0.80200498  0.80378241  0.23745819  1
  Ti  Ti139  1  0.80461567  0.40599984  0.24857763  1
  Ti  Ti140  1  0.10459743  0.69495453  0.11638181  1
  Ti  Ti141  1  0.80286626  0.60162437  0.01195570  1
  Ti  Ti142  1  0.10333099  0.50099472  0.88022190  1
  Ti  Ti143  1  0.19961485  0.57813992  0.72966473  1
  Ti  Ti144  1  0.10196348  0.09796187  0.88927005  1
  Ti  Ti145  1  0.70108028  0.90465296  0.63799362  1
  Ti  Ti146  1  0.89126133  0.90383071  0.87647490  1
  Ti  Ti147  1  0.40041349  0.60275924  -0.01573625  1
  Ti  Ti148  1  0.00187681  0.40822763  0.25348787  1
  Ti  Ti149  1  0.11376254  0.71442258  0.37515646  1
  Ti  Ti150  1  0.80340628  -0.00037553  0.00936993  1
  Ti  Ti151  1  0.90943826  0.10080889  0.12800316  1
  Ti  Ti152  1  0.80341336  0.00216316  0.23259642  1
  Ti  Ti153  1  0.70207496  0.90241403  0.89455196  1
  Ti  Ti154  1  0.59950773  0.60316773  0.51052307  1
  Ti  Ti155  1  0.90807745  0.49679424  0.86355245  1
  Ti  Ti156  1  0.29669412  0.90203003  0.86198317  1
  Ti  Ti157  1  0.71035339  0.08774119  0.88299224  1
  Ti  Ti158  1  0.40581287  0.40503730  0.50878070  1
  Ti  Ti159  1  0.59917160  0.20095722  0.76049297  1
  Mo  Mo160  1  0.69836234  0.70062879  0.62800740  1
  Mo  Mo161  1  0.40842076  0.60381013  0.24794625  1
  Mo  Mo162  1  0.50128957  0.30141006  0.85546818  1
  Mo  Mo163  1  0.19700494  0.59665791  0.00689021  1
  Mo  Mo164  1  0.89246940  0.30021982  0.65096760  1
  Mo  Mo165  1  0.90000508  0.10222848  0.89109597  1
  Mo  Mo166  1  0.39569764  -0.00531386  0.75991592  1
  Mo  Mo167  1  0.29806798  0.89909509  0.64084597  1
  Mo  Mo168  1  0.39905160  -0.00859068  -0.01936277  1
  Mo  Mo169  1  0.49942848  0.09392705  0.87311508  1
  Mo  Mo170  1  0.29603525  0.50454357  0.61156910  1
  Mo  Mo171  1  0.79952567  0.59728959  0.24906162  1
  Mo  Mo172  1  0.89346405  0.89715428  0.12917959  1
  Mo  Mo173  1  0.59991382  -0.00099935  -0.00965142  1
  Mo  Mo174  1  0.89863963  0.50065019  0.63585338  1
  Mo  Mo175  1  0.19910027  0.80111541  0.23027496  1
  Mo  Mo176  1  0.20101539  0.41254465  0.75321595  1
  Mo  Mo177  1  0.09619694  0.89861119  0.64207902  1
  Mo  Mo178  1  0.79697218  -0.00329001  0.77059508  1
  Mo  Mo179  1  0.79627319  0.19163160  0.52218813  1
  Mo  Mo180  1  0.29654766  0.70354852  0.37305136  1
  Mo  Mo181  1  0.19787242  -0.00619505  0.73166714  1
  Mo  Mo182  1  0.90513428  0.50507899  0.14269872  1
  Mo  Mo183  1  0.00071330  0.00119446  0.23337314  1
  Mo  Mo184  1  0.30239233  0.08984007  0.61523728  1
  Mo  Mo185  1  0.00391520  0.20231271  0.22869847  1
  Mo  Mo186  1  0.50537364  0.49431423  0.61200197  1
  Mo  Mo187  1  0.60506673  0.39929838  0.49336328  1
  Mo  Mo188  1  0.59837685  0.40347271  -0.02083158  1
  Mo  Mo189  1  0.60407941  0.19836409  0.25749894  1
  Mo  Mo190  1  0.90227073  0.30788063  0.34699102  1
  Mo  Mo191  1  0.29179018  0.30716857  0.85899049  1
  Mo  Mo192  1  0.10103211  0.50765527  0.60514057  1
  Mo  Mo193  1  -0.00200548  0.40821533  0.74510987  1
  Mo  Mo194  1  0.09220506  0.09954684  0.61945999  1
  Mo  Mo195  1  0.49056237  0.90056185  0.87606894  1
  Mo  Mo196  1  0.38930532  0.00073048  0.50001120  1
  Mo  Mo197  1  0.50105249  0.09366288  0.09988555  1
  Mo  Mo198  1  0.49829769  0.69250506  0.86237326  1
  Mo  Mo199  1  0.01251170  0.40248182  0.00062120  1
