# generated using pymatgen
data_HfZrTaTiMo
_symmetry_space_group_name_H-M   'P 1'
_cell_length_a   15.92179855
_cell_length_b   15.93352531
_cell_length_c   15.19316300
_cell_angle_alpha   89.99477631
_cell_angle_beta   89.94714755
_cell_angle_gamma   90.06969223
_symmetry_Int_Tables_number   1
_chemical_formula_structural   HfZrTaTiMo
_chemical_formula_sum   'Hf40 Zr40 Ta40 Ti40 Mo40'
_cell_volume   3854.35478947
_cell_formula_units_Z   40
loop_
 _symmetry_equiv_pos_site_id
 _symmetry_equiv_pos_as_xyz
  1  'x, y, z'
loop_
 _atom_site_type_symbol
 _atom_site_label
 _atom_site_symmetry_multiplicity
 _atom_site_fract_x
 _atom_site_fract_y
 _atom_site_fract_z
 _atom_site_occupancy
  Hf  Hf0  1  0.40947975  0.19553838  0.26919437  1
  Hf  Hf1  1  0.60679337  0.40478479  0.75881995  1
  Hf  Hf2  1  -0.00639065  0.00905300  0.00582646  1
  Hf  Hf3  1  0.90521416  0.69216795  0.89253870  1
  Hf  Hf4  1  0.51407057  0.89544551  0.37807278  1
  Hf  Hf5  1  0.78929718  0.39459144  0.25979094  1
  Hf  Hf6  1  0.31410719  0.49301253  0.63932227  1
  Hf  Hf7  1  0.89760129  0.09888680  0.63969098  1
  Hf  Hf8  1  0.88585205  0.29189168  0.12036400  1
  Hf  Hf9  1  0.80076017  0.58633701  0.76056486  1
  Hf  Hf10  1  0.59990573  0.00623634  -0.00370688  1
  Hf  Hf11  1  0.01131269  0.00221050  0.75771028  1
  Hf  Hf12  1  0.59686923  0.59837628  0.00095357  1
  Hf  Hf13  1  0.09377899  0.49025156  0.61273195  1
  Hf  Hf14  1  0.29519738  0.71486075  0.89904870  1
  Hf  Hf15  1  0.79179321  0.78147152  0.26002582  1
  Hf  Hf16  1  0.20335603  0.38088093  0.48115987  1
  Hf  Hf17  1  0.80367721  0.79103759  0.75089305  1
  Hf  Hf18  1  0.19308540  0.40101994  0.01700695  1
  Hf  Hf19  1  -0.00155313  0.38161502  0.48253058  1
  Hf  Hf20  1  0.69776825  0.69731681  0.62288042  1
  Hf  Hf21  1  0.50708573  0.51152382  0.36848435  1
  Hf  Hf22  1  0.89798388  0.49601734  0.60786894  1
  Hf  Hf23  1  0.30310020  0.70918475  0.61385199  1
  Hf  Hf24  1  0.41559401  0.80646638  0.24035628  1
  Hf  Hf25  1  0.00100030  -0.00199328  0.49228509  1
  Hf  Hf26  1  0.60562442  0.40728245  -0.00790049  1
  Hf  Hf27  1  0.19317399  0.60435235  0.74492973  1
  Hf  Hf28  1  0.61528535  0.61047742  0.23451593  1
  Hf  Hf29  1  0.69725917  0.49806615  0.62021346  1
  Hf  Hf30  1  0.50402734  0.71101856  0.61570212  1
  Hf  Hf31  1  0.21895906  -0.00217581  0.74553343  1
  Hf  Hf32  1  0.90165765  0.89591455  0.62931215  1
  Hf  Hf33  1  0.10198398  0.89951519  0.62063040  1
  Hf  Hf34  1  0.29648092  0.50478982  0.87543138  1
  Hf  Hf35  1  0.88453961  0.69765299  0.10735688  1
  Hf  Hf36  1  0.39788220  0.00938977  0.48165413  1
  Hf  Hf37  1  0.39779516  0.19217376  0.76395857  1
  Hf  Hf38  1  0.40145267  0.39592409  0.25962767  1
  Hf  Hf39  1  0.09816255  0.69507998  0.12824221  1
  Zr  Zr40  1  0.79973488  0.80272303  0.49510296  1
  Zr  Zr41  1  0.00370002  0.18889300  0.48853864  1
  Zr  Zr42  1  0.40277200  0.21087983  0.48138975  1
  Zr  Zr43  1  0.78863092  0.37762143  0.49906129  1
  Zr  Zr44  1  0.11545146  0.10554993  0.89148951  1
  Zr  Zr45  1  0.48960057  0.31320903  0.63501081  1
  Zr  Zr46  1  0.20006039  0.80780751  0.48887851  1
  Zr  Zr47  1  0.39480709  0.40944980  0.48249942  1
  Zr  Zr48  1  0.11330967  0.89341986  0.89212488  1
  Zr  Zr49  1  0.09243146  0.69335589  0.36962461  1
  Zr  Zr50  1  0.79991350  0.01829545  0.23251715  1
  Zr  Zr51  1  0.40349573  0.62576143  0.76120075  1
  Zr  Zr52  1  0.20384505  0.80144746  0.74306258  1
  Zr  Zr53  1  0.30336849  0.90805583  0.12003035  1
  Zr  Zr54  1  0.60627675  0.01468361  0.50506748  1
  Zr  Zr55  1  0.89966777  0.89645996  0.87540030  1
  Zr  Zr56  1  0.30096789  0.10171936  0.12738651  1
  Zr  Zr57  1  0.20831446  0.79036280  0.24174566  1
  Zr  Zr58  1  0.69272802  0.88289831  0.12247498  1
  Zr  Zr59  1  0.10337341  0.69367628  0.89433278  1
  Zr  Zr60  1  0.60817247  0.20745499  0.25812681  1
  Zr  Zr61  1  0.29988695  0.10719054  0.61906628  1
  Zr  Zr62  1  0.79581455  0.59250627  0.25209770  1
  Zr  Zr63  1  0.69530233  0.90637467  0.64013794  1
  Zr  Zr64  1  0.89658374  0.89325101  0.12525456  1
  Zr  Zr65  1  -0.00298997  0.58954667  0.75383026  1
  Zr  Zr66  1  0.50459138  0.29558059  0.11761365  1
  Zr  Zr67  1  0.70415579  0.90939996  0.37071802  1
  Zr  Zr68  1  0.20980855  0.58752886  0.49425149  1
  Zr  Zr69  1  0.59468919  0.01019758  0.24295925  1
  Zr  Zr70  1  0.39911643  0.40668533  0.00690851  1
  Zr  Zr71  1  0.28991963  0.29537949  0.88288595  1
  Zr  Zr72  1  0.40433963  0.60940176  0.23543803  1
  Zr  Zr73  1  0.19261908  0.39330802  0.74834385  1
  Zr  Zr74  1  0.48815480  0.90800501  0.63106965  1
  Zr  Zr75  1  0.70421531  0.70101914  0.88602268  1
  Zr  Zr76  1  -0.01059545  0.38955330  0.25507031  1
  Zr  Zr77  1  0.70844894  0.29157726  0.87615413  1
  Zr  Zr78  1  0.19511980  0.01301490  0.48430745  1
  Zr  Zr79  1  0.10273164  0.49804874  0.35809182  1
  Ta  Ta80  1  0.60237735  0.19973656  0.74633320  1
  Ta  Ta81  1  0.29705238  0.29553778  0.13473605  1
  Ta  Ta82  1  0.79688463  0.00402967  -0.00674269  1
  Ta  Ta83  1  0.59450705  0.80564545  -0.01291970  1
  Ta  Ta84  1  0.40403462  0.60323312  0.49299005  1
  Ta  Ta85  1  0.49356613  0.50460206  0.86525734  1
  Ta  Ta86  1  0.09742185  0.28443835  0.62514022  1
  Ta  Ta87  1  0.09741368  0.29896774  0.88507705  1
  Ta  Ta88  1  0.00478315  0.78670427  0.74578440  1
  Ta  Ta89  1  0.19507150  0.19993067  0.26035888  1
  Ta  Ta90  1  0.30758823  0.69628399  0.36985582  1
  Ta  Ta91  1  0.39734135  0.80669920  0.48690451  1
  Ta  Ta92  1  0.10454225  0.10019466  0.12835847  1
  Ta  Ta93  1  0.50069068  0.51004405  0.63492466  1
  Ta  Ta94  1  0.40339986  0.60432661  0.01103742  1
  Ta  Ta95  1  0.30122680  0.90366930  0.35737488  1
  Ta  Ta96  1  0.00239791  0.20245808  0.00792950  1
  Ta  Ta97  1  0.90252316  0.90114601  0.36499362  1
  Ta  Ta98  1  -0.00151453  0.00295725  0.24361862  1
  Ta  Ta99  1  0.61448842  0.21253160  0.51479642  1
  Ta  Ta100  1  -0.00970489  0.18937904  0.24575517  1
  Ta  Ta101  1  0.90283465  0.68980739  0.60758624  1
  Ta  Ta102  1  0.58598263  0.79595793  0.76710276  1
  Ta  Ta103  1  0.09772539  0.49404790  0.88561239  1
  Ta  Ta104  1  0.10328985  0.90390736  0.12918288  1
  Ta  Ta105  1  0.40257614  0.19842457  -0.00724924  1
  Ta  Ta106  1  0.89669990  0.50987781  0.38956551  1
  Ta  Ta107  1  0.80836754  0.39835428  0.75683824  1
  Ta  Ta108  1  0.70831042  0.09554360  0.85790484  1
  Ta  Ta109  1  0.49985534  0.10621233  0.62896625  1
  Ta  Ta110  1  0.90721349  0.29351415  0.87275675  1
  Ta  Ta111  1  0.09629480  0.90029545  0.35323198  1
  Ta  Ta112  1  0.90215253  0.29422242  0.63767664  1
  Ta  Ta113  1  0.49119430  0.90626820  0.87451976  1
  Ta  Ta114  1  0.71661741  0.12244048  0.38485171  1
  Ta  Ta115  1  -0.00270267  0.39608785  0.00597274  1
  Ta  Ta116  1  0.08973218  0.69613014  0.60819758  1
  Ta  Ta117  1  0.69744181  0.90411815  0.86792703  1
  Ta  Ta118  1  -0.00134298  0.58051835  0.01289260  1
  Ta  Ta119  1  0.60658337  0.40429808  0.25299009  1
  Ti  Ti120  1  0.59528930  0.59897106  0.50241849  1
  Ti  Ti121  1  -0.00118107  0.39598064  0.75821554  1
  Ti  Ti122  1  0.80384671  0.40334413  -0.01369962  1
  Ti  Ti123  1  0.68621280  0.70291428  0.39253391  1
  Ti  Ti124  1  0.00330330  0.79972778  0.00838106  1
  Ti  Ti125  1  0.70052508  0.30214051  0.11061658  1
  Ti  Ti126  1  0.00522059  0.19794859  0.75971763  1
  Ti  Ti127  1  0.58966054  0.00853532  0.75638866  1
  Ti  Ti128  1  0.49945032  0.10356519  0.11705510  1
  Ti  Ti129  1  0.29907773  0.90744455  0.89815550  1
  Ti  Ti130  1  0.10010946  0.29589960  0.13531288  1
  Ti  Ti131  1  0.59268162  0.39602932  0.49768593  1
  Ti  Ti132  1  0.51624773  0.71687456  0.11819163  1
  Ti  Ti133  1  0.09785622  0.49703578  0.14211365  1
  Ti  Ti134  1  0.19308406  0.19458676  0.74568867  1
  Ti  Ti135  1  -0.00987124  0.79436042  0.25074148  1
  Ti  Ti136  1  0.40971052  0.00790292  0.26017487  1
  Ti  Ti137  1  0.79165691  0.57879708  0.00010056  1
  Ti  Ti138  1  0.87490135  0.27068191  0.37199643  1
  Ti  Ti139  1  0.81174914  0.18560718  -0.01362372  1
  Ti  Ti140  1  -0.00400889  0.79820954  0.48684062  1
  Ti  Ti141  1  0.49480921  0.30485237  0.87156302  1
  Ti  Ti142  1  0.38943124  0.81957516  0.75557310  1
  Ti  Ti143  1  0.40774661  0.80437178  0.00977614  1
  Ti  Ti144  1  0.40871746  0.00766695  -0.00610805  1
  Ti  Ti145  1  0.19557634  0.19848634  0.47459934  1
  Ti  Ti146  1  0.89115818  0.49138310  0.12365720  1
  Ti  Ti147  1  0.50694709  0.49656641  0.13108756  1
  Ti  Ti148  1  0.29674170  0.29937812  0.63004202  1
  Ti  Ti149  1  0.80110295  0.00901022  0.50666279  1
  Ti  Ti150  1  0.89291406  0.09341327  0.37354677  1
  Ti  Ti151  1  0.50797350  0.70728806  0.37794396  1
  Ti  Ti152  1  0.59411330  0.19437895  -0.02067902  1
  Ti  Ti153  1  0.69930564  0.50334316  0.39127744  1
  Ti  Ti154  1  0.70312747  0.11910906  0.11092840  1
  Ti  Ti155  1  0.29377167  0.50003237  0.14263127  1
  Ti  Ti156  1  0.59944849  0.60623595  0.76370586  1
  Ti  Ti157  1  -0.01579091  0.60079848  0.24556499  1
  Ti  Ti158  1  0.20400957  0.59580696  0.02001718  1
  Ti  Ti159  1  0.29865465  0.09569310  0.89137450  1
  Mo  Mo160  1  0.79617943  0.20236783  0.23843756  1
  Mo  Mo161  1  0.30504453  0.69791418  0.11283020  1
  Mo  Mo162  1  0.80400278  0.20068853  0.74714426  1
  Mo  Mo163  1  0.79288982  0.59878733  0.49265523  1
  Mo  Mo164  1  0.59713104  0.79996085  0.50365349  1
  Mo  Mo165  1  0.70240031  0.29871702  0.64429516  1
  Mo  Mo166  1  0.20170853  0.00235177  0.00861998  1
  Mo  Mo167  1  0.19955192  0.39506672  0.24304962  1
  Mo  Mo168  1  0.70038848  0.10293592  0.64214454  1
  Mo  Mo169  1  0.19988170  0.20504008  0.02381545  1
  Mo  Mo170  1  0.49309573  0.70665625  0.88780435  1
  Mo  Mo171  1  0.51446668  0.10396492  0.39141304  1
  Mo  Mo172  1  0.69565425  0.30176115  0.37873487  1
  Mo  Mo173  1  0.49873957  0.90800456  0.10937223  1
  Mo  Mo174  1  0.09269182  0.29185716  0.35762650  1
  Mo  Mo175  1  -0.00073386  0.59672305  0.49423541  1
  Mo  Mo176  1  0.70286618  0.48719069  0.11631677  1
  Mo  Mo177  1  0.20476785  0.59649277  0.24301202  1
  Mo  Mo178  1  0.80096045  -0.00180937  0.76044481  1
  Mo  Mo179  1  0.79825259  0.19196128  0.52328365  1
  Mo  Mo180  1  0.60167542  0.79441889  0.24412829  1
  Mo  Mo181  1  0.29850436  0.09913602  0.36044910  1
  Mo  Mo182  1  0.90498362  0.48938202  0.88789999  1
  Mo  Mo183  1  0.70116175  0.49897861  0.87096581  1
  Mo  Mo184  1  0.10112823  0.10739927  0.63387204  1
  Mo  Mo185  1  0.50331621  0.10307877  0.87035705  1
  Mo  Mo186  1  0.90096957  0.69754632  0.38470838  1
  Mo  Mo187  1  0.90177660  0.10430020  0.87071117  1
  Mo  Mo188  1  0.89965745  0.10192731  0.11313204  1
  Mo  Mo189  1  0.39840181  0.00240327  0.76652807  1
  Mo  Mo190  1  0.09421091  0.09521430  0.35109933  1
  Mo  Mo191  1  0.40124276  0.39990863  0.75849890  1
  Mo  Mo192  1  0.30596808  0.90263191  0.61085673  1
  Mo  Mo193  1  0.29364790  0.30186710  0.35689023  1
  Mo  Mo194  1  0.19816827  0.00036151  0.25275670  1
  Mo  Mo195  1  0.30015153  0.50908378  0.35514660  1
  Mo  Mo196  1  0.20261496  0.80008195  0.01994397  1
  Mo  Mo197  1  0.51125244  0.30735717  0.38316797  1
  Mo  Mo198  1  0.79701065  0.80629896  -0.01311870  1
  Mo  Mo199  1  0.70046098  0.69656195  0.10409509  1
