# generated using pymatgen
data_HfZrTaTiMo
_symmetry_space_group_name_H-M   'P 1'
_cell_length_a   15.91836842
_cell_length_b   15.93702812
_cell_length_c   15.20242678
_cell_angle_alpha   89.95982067
_cell_angle_beta   89.97291550
_cell_angle_gamma   90.04924265
_symmetry_Int_Tables_number   1
_chemical_formula_structural   HfZrTaTiMo
_chemical_formula_sum   'Hf40 Zr40 Ta40 Ti40 Mo40'
_cell_volume   3856.72342446
_cell_formula_units_Z   40
loop_
 _symmetry_equiv_pos_site_id
 _symmetry_equiv_pos_as_xyz
  1  'x, y, z'
loop_
 _atom_site_type_symbol
 _atom_site_label
 _atom_site_symmetry_multiplicity
 _atom_site_fract_x
 _atom_site_fract_y
 _atom_site_fract_z
 _atom_site_occupancy
  Hf  Hf0  1  0.20144891  0.60346246  -0.00430252  1
  Hf  Hf1  1  0.59051859  0.01732698  0.76378794  1
  Hf  Hf2  1  0.51115718  0.30125685  0.88217227  1
  Hf  Hf3  1  0.10141339  0.10748573  0.38825436  1
  Hf  Hf4  1  0.42245020  0.19758584  0.74659100  1
  Hf  Hf5  1  0.81493854  0.79662939  0.76265684  1
  Hf  Hf6  1  0.60158089  0.79747761  -0.01130339  1
  Hf  Hf7  1  0.51196539  0.70846485  0.62251945  1
  Hf  Hf8  1  0.30995893  0.30929644  0.87781488  1
  Hf  Hf9  1  0.89632491  0.90427228  0.12405979  1
  Hf  Hf10  1  -0.00458913  0.19982720  0.25551885  1
  Hf  Hf11  1  0.60746224  -0.00436168  -0.01330326  1
  Hf  Hf12  1  0.79244176  0.39940340  0.00832241  1
  Hf  Hf13  1  0.71077011  0.09141201  0.12092068  1
  Hf  Hf14  1  0.79354731  0.79480838  0.00246751  1
  Hf  Hf15  1  0.69478687  0.29247353  0.60555420  1
  Hf  Hf16  1  0.08293371  0.71619031  0.63510602  1
  Hf  Hf17  1  0.49184291  0.29910613  0.37368131  1
  Hf  Hf18  1  0.70408526  0.71108138  0.61709490  1
  Hf  Hf19  1  0.81358017  0.19705480  0.48974496  1
  Hf  Hf20  1  0.90546994  0.88023474  0.61446299  1
  Hf  Hf21  1  0.19732253  0.79030556  0.00414119  1
  Hf  Hf22  1  0.39924946  0.79687444  0.00370669  1
  Hf  Hf23  1  0.79507882  0.39894235  0.74173059  1
  Hf  Hf24  1  0.50573860  0.69732593  0.86343739  1
  Hf  Hf25  1  0.78923981  -0.01463869  0.76213122  1
  Hf  Hf26  1  0.89645195  0.29946074  0.87014158  1
  Hf  Hf27  1  0.39452545  0.60116833  0.00631561  1
  Hf  Hf28  1  0.30854755  0.10437842  0.87067050  1
  Hf  Hf29  1  0.29985022  0.89880590  0.13560229  1
  Hf  Hf30  1  0.07798319  0.50580478  0.37418956  1
  Hf  Hf31  1  0.39809368  0.59352247  0.74789010  1
  Hf  Hf32  1  -0.00368627  -0.02477526  0.75890021  1
  Hf  Hf33  1  0.10735797  0.48998018  0.11752478  1
  Hf  Hf34  1  0.30152006  0.90427453  0.86897596  1
  Hf  Hf35  1  0.38906167  0.39915703  0.24434264  1
  Hf  Hf36  1  0.19997384  0.40596723  0.75253981  1
  Hf  Hf37  1  -0.01164051  0.60458083  0.75244843  1
  Hf  Hf38  1  0.79865225  -0.00740328  0.48546760  1
  Hf  Hf39  1  0.09341506  0.90064294  0.12942899  1
  Zr  Zr40  1  0.09783230  0.10387404  0.87320911  1
  Zr  Zr41  1  0.10590453  0.90244922  0.36139814  1
  Zr  Zr42  1  0.80093123  0.59520450  0.73934974  1
  Zr  Zr43  1  0.50886678  0.89854263  0.13993096  1
  Zr  Zr44  1  0.28652193  0.31468841  0.10078526  1
  Zr  Zr45  1  0.40970118  0.81529081  0.49856432  1
  Zr  Zr46  1  0.30584006  0.69656396  0.38504511  1
  Zr  Zr47  1  0.18890279  0.39602018  0.49644958  1
  Zr  Zr48  1  0.90459841  0.09270305  0.62660360  1
  Zr  Zr49  1  0.69298262  0.49310678  0.88180752  1
  Zr  Zr50  1  0.09973072  0.29401149  0.10829507  1
  Zr  Zr51  1  0.80488742  0.39896816  0.24184162  1
  Zr  Zr52  1  0.39574941  0.59581042  0.24169316  1
  Zr  Zr53  1  0.80884878  0.59864817  0.50389259  1
  Zr  Zr54  1  0.40920308  0.00612717  0.00952992  1
  Zr  Zr55  1  0.59060750  0.19207762  0.24858960  1
  Zr  Zr56  1  0.18753108  0.60599502  0.49763244  1
  Zr  Zr57  1  0.69233763  0.09323136  0.61487784  1
  Zr  Zr58  1  0.20351635  0.02191486  0.24011640  1
  Zr  Zr59  1  0.39481343  0.39871139  0.50556599  1
  Zr  Zr60  1  0.19719181  0.80971110  0.49706643  1
  Zr  Zr61  1  0.20084083  0.59431134  0.24672941  1
  Zr  Zr62  1  -0.00591954  0.39785110  -0.00473075  1
  Zr  Zr63  1  0.40680927  0.01905731  0.25033944  1
  Zr  Zr64  1  0.69934837  0.89111779  0.13991648  1
  Zr  Zr65  1  0.69505123  0.68618928  0.36882039  1
  Zr  Zr66  1  0.80585228  0.00698299  0.27270600  1
  Zr  Zr67  1  0.50037637  0.49418917  0.88405453  1
  Zr  Zr68  1  0.69899510  0.49681649  0.37764933  1
  Zr  Zr69  1  0.79046850  0.20115032  0.74808012  1
  Zr  Zr70  1  0.29888711  0.70630928  0.62477369  1
  Zr  Zr71  1  0.51721497  0.69904641  0.14103348  1
  Zr  Zr72  1  0.10100508  0.09617486  0.62356731  1
  Zr  Zr73  1  0.19581022  0.60610725  0.75919206  1
  Zr  Zr74  1  0.69801695  0.30399720  0.37743987  1
  Zr  Zr75  1  0.20004836  0.00598350  0.00487466  1
  Zr  Zr76  1  0.60254481  0.00485825  0.27360587  1
  Zr  Zr77  1  0.30559858  0.09383795  0.62660076  1
  Zr  Zr78  1  0.89753037  0.09656949  0.87677723  1
  Zr  Zr79  1  0.20293459  0.21466189  0.26086583  1
  Ta  Ta80  1  0.30767756  0.11161125  0.39011753  1
  Ta  Ta81  1  0.50665840  0.50741873  0.37484913  1
  Ta  Ta82  1  0.00158476  0.39696414  0.24467193  1
  Ta  Ta83  1  0.59609977  0.39075034  0.73292224  1
  Ta  Ta84  1  0.39409248  0.20035709  0.23166307  1
  Ta  Ta85  1  0.09366984  0.50180788  0.62971261  1
  Ta  Ta86  1  -0.00103159  -0.00825730  0.48747168  1
  Ta  Ta87  1  0.80966366  0.79400981  0.47827053  1
  Ta  Ta88  1  0.90388027  0.50873202  0.11903012  1
  Ta  Ta89  1  0.29533768  0.50187969  0.62009168  1
  Ta  Ta90  1  0.80608354  0.78812835  0.25256430  1
  Ta  Ta91  1  0.40619536  0.20197985  0.01349019  1
  Ta  Ta92  1  0.50724398  0.10458737  0.60755083  1
  Ta  Ta93  1  0.50700706  0.91126869  0.63198856  1
  Ta  Ta94  1  0.19026519  0.80881610  0.75678470  1
  Ta  Ta95  1  0.40624645  0.40185132  0.73451137  1
  Ta  Ta96  1  0.19799327  0.40009494  0.26873192  1
  Ta  Ta97  1  0.58748257  0.40217308  0.50878569  1
  Ta  Ta98  1  0.79583704  0.20364054  0.00024382  1
  Ta  Ta99  1  0.20213660  0.78912602  0.24897716  1
  Ta  Ta100  1  0.00064226  0.78860806  0.47487814  1
  Ta  Ta101  1  0.40181003  0.80696556  0.74408455  1
  Ta  Ta102  1  0.60254370  0.58904668  0.73487247  1
  Ta  Ta103  1  0.59253404  0.40216545  0.23900060  1
  Ta  Ta104  1  0.30283389  0.91010019  0.36481111  1
  Ta  Ta105  1  0.40119134  0.79845495  0.26055565  1
  Ta  Ta106  1  0.80418036  0.19386163  0.26288189  1
  Ta  Ta107  1  0.29936224  0.29848062  0.63412375  1
  Ta  Ta108  1  0.09270568  0.50139986  0.87515243  1
  Ta  Ta109  1  0.19831947  0.20661655  0.74942964  1
  Ta  Ta110  1  0.89904359  0.69339501  0.89436101  1
  Ta  Ta111  1  -0.00306029  0.79001387  0.24913624  1
  Ta  Ta112  1  0.59973257  0.19838582  0.00992306  1
  Ta  Ta113  1  -0.00268381  0.00893733  0.25343279  1
  Ta  Ta114  1  0.70041941  0.29272303  0.13341049  1
  Ta  Ta115  1  0.51029016  0.69610215  0.37992194  1
  Ta  Ta116  1  0.59162985  -0.00679245  0.48360932  1
  Ta  Ta117  1  0.70134964  0.68945284  0.86694329  1
  Ta  Ta118  1  -0.00297951  0.40195112  0.74620269  1
  Ta  Ta119  1  0.20247682  0.21238188  0.50429957  1
  Ti  Ti120  1  0.89365303  0.50520445  0.88591841  1
  Ti  Ti121  1  0.09065489  0.69354950  0.13582544  1
  Ti  Ti122  1  0.59942405  0.39080949  0.02230512  1
  Ti  Ti123  1  0.09632818  0.89154883  0.88533980  1
  Ti  Ti124  1  0.69755514  0.50738780  0.12891286  1
  Ti  Ti125  1  0.61106072  0.81124992  0.75845436  1
  Ti  Ti126  1  0.00701002  0.21187838  0.50797443  1
  Ti  Ti127  1  0.41207658  0.59424855  0.51114271  1
  Ti  Ti128  1  0.00250964  0.21289286  0.73627138  1
  Ti  Ti129  1  0.89941099  0.09896067  0.11559830  1
  Ti  Ti130  1  0.49934997  0.49650804  0.11967607  1
  Ti  Ti131  1  0.30229123  0.70690024  0.86543676  1
  Ti  Ti132  1  -0.00383553  0.60419080  0.51042579  1
  Ti  Ti133  1  0.10078232  0.30006032  0.87604168  1
  Ti  Ti134  1  0.40068428  0.20662448  0.50805241  1
  Ti  Ti135  1  0.91225689  0.67986753  0.36116382  1
  Ti  Ti136  1  -0.00124816  0.79337902  0.00240001  1
  Ti  Ti137  1  0.90747227  0.30999191  0.38071387  1
  Ti  Ti138  1  0.40308425  0.00027881  0.49368798  1
  Ti  Ti139  1  0.89716491  0.29191580  0.12465049  1
  Ti  Ti140  1  0.89684191  0.49453395  0.37339261  1
  Ti  Ti141  1  -0.00601256  -0.00426162  -0.00330888  1
  Ti  Ti142  1  0.30306427  0.50069750  0.38761785  1
  Ti  Ti143  1  -0.00397743  0.39149732  0.51493798  1
  Ti  Ti144  1  0.09760770  0.90118429  0.62065289  1
  Ti  Ti145  1  -0.00513014  0.19787115  -0.00234654  1
  Ti  Ti146  1  0.09692916  0.10717591  0.11329886  1
  Ti  Ti147  1  0.19598427  -0.00177662  0.75125066  1
  Ti  Ti148  1  0.49335709  0.90289082  0.86327540  1
  Ti  Ti149  1  0.20574119  0.00008419  0.49958912  1
  Ti  Ti150  1  0.69524434  0.49700013  0.60862207  1
  Ti  Ti151  1  0.00225728  0.60541213  0.00216365  1
  Ti  Ti152  1  0.80562307  0.60078918  0.23558273  1
  Ti  Ti153  1  0.89964649  0.49196283  0.61644236  1
  Ti  Ti154  1  0.69479785  0.88337078  0.37430337  1
  Ti  Ti155  1  0.69741039  0.11285446  0.88132841  1
  Ti  Ti156  1  0.30274469  0.90721815  0.63479174  1
  Ti  Ti157  1  0.69447163  0.89362285  0.61185197  1
  Ti  Ti158  1  0.61289926  0.60516063  0.01011767  1
  Ti  Ti159  1  0.90625797  0.89333729  0.36507319  1
  Mo  Mo160  1  0.29959492  0.29729780  0.37906835  1
  Mo  Mo161  1  0.69560610  0.29948405  0.88779220  1
  Mo  Mo162  1  0.49575563  0.89771994  0.37116772  1
  Mo  Mo163  1  0.70511044  0.69365926  0.14074235  1
  Mo  Mo164  1  0.60081424  0.79423922  0.27216145  1
  Mo  Mo165  1  0.09237216  0.70356038  0.87428727  1
  Mo  Mo166  1  0.69842717  0.89507769  0.87284258  1
  Mo  Mo167  1  0.50359112  0.10498091  0.88924800  1
  Mo  Mo168  1  0.20002145  0.41019769  -0.03012108  1
  Mo  Mo169  1  -0.00046247  0.79646106  0.77277387  1
  Mo  Mo170  1  0.79637673  0.60053922  0.00824929  1
  Mo  Mo171  1  0.50037596  0.50138924  0.62368336  1
  Mo  Mo172  1  0.60110077  0.58791023  0.23906592  1
  Mo  Mo173  1  0.60429072  0.20582352  0.76155230  1
  Mo  Mo174  1  0.80214670  0.00055720  -0.01274118  1
  Mo  Mo175  1  0.40470658  -0.00136603  0.74297234  1
  Mo  Mo176  1  0.09262395  0.69664092  0.36053759  1
  Mo  Mo177  1  0.90206849  0.70223345  0.61077621  1
  Mo  Mo178  1  0.40446236  0.40529814  0.01322549  1
  Mo  Mo179  1  0.19724650  0.20295267  -0.02531766  1
  Mo  Mo180  1  0.49991606  0.30365686  0.12603676  1
  Mo  Mo181  1  0.91031918  0.10227133  0.38728848  1
  Mo  Mo182  1  0.59506211  0.19649781  0.48201863  1
  Mo  Mo183  1  0.50538492  0.10253323  0.11433771  1
  Mo  Mo184  1  0.29753863  0.49798628  0.11094088  1
  Mo  Mo185  1  0.50251865  0.29462516  0.61981717  1
  Mo  Mo186  1  0.90315439  0.69798565  0.11861351  1
  Mo  Mo187  1  -0.00722777  0.59379024  0.23475174  1
  Mo  Mo188  1  0.10061126  0.30247281  0.63644564  1
  Mo  Mo189  1  0.60619347  0.80563191  0.49232324  1
  Mo  Mo190  1  0.90279206  0.30323964  0.62522308  1
  Mo  Mo191  1  0.59484641  0.59683807  0.51468514  1
  Mo  Mo192  1  0.80735454  0.39862750  0.50694880  1
  Mo  Mo193  1  0.49011775  0.10527242  0.39425848  1
  Mo  Mo194  1  0.29485144  0.11406424  0.10899250  1
  Mo  Mo195  1  0.08932394  0.30736644  0.37877335  1
  Mo  Mo196  1  0.69960326  0.10227203  0.38691854  1
  Mo  Mo197  1  0.30157748  0.49972212  0.87959446  1
  Mo  Mo198  1  0.90060311  0.89513164  0.89900727  1
  Mo  Mo199  1  0.30058425  0.70436997  0.13302334  1
