# generated using pymatgen
data_HfZrTaTiMo
_symmetry_space_group_name_H-M   'P 1'
_cell_length_a   15.92180410
_cell_length_b   15.93418241
_cell_length_c   15.21283596
_cell_angle_alpha   90.01278981
_cell_angle_beta   90.01446305
_cell_angle_gamma   90.04654005
_symmetry_Int_Tables_number   1
_chemical_formula_structural   HfZrTaTiMo
_chemical_formula_sum   'Hf40 Zr40 Ta40 Ti40 Mo40'
_cell_volume   3859.50915142
_cell_formula_units_Z   40
loop_
 _symmetry_equiv_pos_site_id
 _symmetry_equiv_pos_as_xyz
  1  'x, y, z'
loop_
 _atom_site_type_symbol
 _atom_site_label
 _atom_site_symmetry_multiplicity
 _atom_site_fract_x
 _atom_site_fract_y
 _atom_site_fract_z
 _atom_site_occupancy
  Hf  Hf0  1  0.70634516  0.70767729  0.86702485  1
  Hf  Hf1  1  0.49098845  0.50567862  0.36902539  1
  Hf  Hf2  1  0.90397447  0.49976834  0.89409483  1
  Hf  Hf3  1  0.87940083  0.70915215  0.38615489  1
  Hf  Hf4  1  0.69588049  0.71035377  0.63381679  1
  Hf  Hf5  1  0.50108331  0.29415211  0.13966416  1
  Hf  Hf6  1  -0.00612293  0.81999852  -0.01285008  1
  Hf  Hf7  1  0.39766051  0.18229863  0.25919538  1
  Hf  Hf8  1  0.59687949  -0.00681201  -0.00634286  1
  Hf  Hf9  1  0.59453821  0.39707404  0.49277116  1
  Hf  Hf10  1  0.70477394  0.09554186  0.87434337  1
  Hf  Hf11  1  0.30852629  0.70969351  0.09513897  1
  Hf  Hf12  1  0.89590936  0.29623132  0.60879838  1
  Hf  Hf13  1  0.31253810  0.90680432  0.10542644  1
  Hf  Hf14  1  0.09335490  0.09568891  0.14118054  1
  Hf  Hf15  1  0.72124972  0.09153649  0.37683313  1
  Hf  Hf16  1  0.39771395  0.59781575  0.75063864  1
  Hf  Hf17  1  0.70166346  0.50891973  0.11751013  1
  Hf  Hf18  1  0.00445583  0.39537658  0.48602620  1
  Hf  Hf19  1  0.60229882  0.40902511  0.24647595  1
  Hf  Hf20  1  0.89697569  0.51418643  0.38142275  1
  Hf  Hf21  1  0.39788737  0.78480810  0.50599007  1
  Hf  Hf22  1  -0.00602112  0.19099683  0.75868175  1
  Hf  Hf23  1  0.89877291  0.29743598  0.13016070  1
  Hf  Hf24  1  0.39795308  0.39702486  0.01541094  1
  Hf  Hf25  1  0.20198525  0.80067947  0.23592197  1
  Hf  Hf26  1  0.39799835  0.20334188  0.49047068  1
  Hf  Hf27  1  0.69861516  0.51007266  0.61066105  1
  Hf  Hf28  1  0.01501447  0.62098909  0.50444081  1
  Hf  Hf29  1  0.90441009  0.10541312  0.60351411  1
  Hf  Hf30  1  0.29793268  0.48761863  0.87799175  1
  Hf  Hf31  1  0.70114758  0.29449660  0.36553611  1
  Hf  Hf32  1  0.59585657  0.19913470  0.00487653  1
  Hf  Hf33  1  0.10275767  0.09692272  0.37955526  1
  Hf  Hf34  1  -0.00824820  0.80818586  0.26051142  1
  Hf  Hf35  1  0.60273927  0.19618879  0.75379570  1
  Hf  Hf36  1  0.60306575  0.80828570  -0.01450500  1
  Hf  Hf37  1  0.38253083  0.59383125  0.23943298  1
  Hf  Hf38  1  0.08382596  0.89370315  0.64021548  1
  Hf  Hf39  1  0.19714538  0.19534983  0.00612295  1
  Zr  Zr40  1  0.20177578  0.60821226  0.74922959  1
  Zr  Zr41  1  0.89440736  0.71257476  0.11839686  1
  Zr  Zr42  1  0.19835715  0.59741210  0.00069910  1
  Zr  Zr43  1  0.90153370  0.08948558  0.14744773  1
  Zr  Zr44  1  0.09504356  0.49389492  0.87992517  1
  Zr  Zr45  1  0.90626731  0.50421145  0.11170547  1
  Zr  Zr46  1  0.60517182  -0.01833409  0.24823006  1
  Zr  Zr47  1  0.10098219  0.50048471  0.62676407  1
  Zr  Zr48  1  0.30008046  0.29295757  0.13279372  1
  Zr  Zr49  1  0.70461719  0.09023118  0.13216254  1
  Zr  Zr50  1  0.00423421  0.40554579  0.25428941  1
  Zr  Zr51  1  0.21405645  0.42482762  0.23214854  1
  Zr  Zr52  1  0.30238685  0.29673186  0.86820099  1
  Zr  Zr53  1  0.90090398  0.30756078  0.89140046  1
  Zr  Zr54  1  0.11656204  0.70706725  0.37306681  1
  Zr  Zr55  1  0.17810356  -0.01056097  -0.00017198  1
  Zr  Zr56  1  0.39743217  0.39710841  0.50284050  1
  Zr  Zr57  1  0.50772480  0.88968888  0.62705540  1
  Zr  Zr58  1  0.30267183  0.09906918  0.61586408  1
  Zr  Zr59  1  0.30108050  0.09238769  0.88467211  1
  Zr  Zr60  1  0.89884306  0.50800015  0.61140187  1
  Zr  Zr61  1  0.39513191  0.79942546  0.26070478  1
  Zr  Zr62  1  0.80072656  0.19310159  0.00060763  1
  Zr  Zr63  1  0.50062362  0.49892672  0.88397506  1
  Zr  Zr64  1  0.50680849  0.08603830  0.38133303  1
  Zr  Zr65  1  0.10355461  0.30423988  0.87952933  1
  Zr  Zr66  1  0.90827844  0.71475227  0.63138798  1
  Zr  Zr67  1  0.09207658  0.28424738  0.61791848  1
  Zr  Zr68  1  0.69850076  0.52356183  0.38049186  1
  Zr  Zr69  1  0.19742142  -0.00744774  0.74676990  1
  Zr  Zr70  1  0.40077369  -0.00689359  0.75053800  1
  Zr  Zr71  1  0.60125421  0.40418661  0.75449920  1
  Zr  Zr72  1  0.70160143  0.29485200  0.61252158  1
  Zr  Zr73  1  0.79957510  0.39838308  0.74949556  1
  Zr  Zr74  1  0.50228315  0.70283241  0.11890617  1
  Zr  Zr75  1  0.00587315  0.60589367  0.25033671  1
  Zr  Zr76  1  0.80739906  0.59978428  0.75881861  1
  Zr  Zr77  1  0.12127425  0.51031582  0.38649104  1
  Zr  Zr78  1  0.49142120  0.29829579  0.63753894  1
  Zr  Zr79  1  0.11698876  0.29729441  0.36528827  1
  Ta  Ta80  1  0.49863031  0.50680317  0.12083149  1
  Ta  Ta81  1  0.80015797  0.61546744  -0.00405585  1
  Ta  Ta82  1  0.80218471  -0.01824944  -0.00433573  1
  Ta  Ta83  1  0.10553454  0.90190566  0.37750649  1
  Ta  Ta84  1  0.40065166  -0.01138925  0.50076342  1
  Ta  Ta85  1  0.50758199  0.09732790  0.61518584  1
  Ta  Ta86  1  0.49616310  0.70668983  0.86596107  1
  Ta  Ta87  1  0.48952232  0.08445034  0.12489393  1
  Ta  Ta88  1  -0.00353487  0.40106386  0.74202578  1
  Ta  Ta89  1  0.89671114  0.90759410  0.63279121  1
  Ta  Ta90  1  0.60128600  0.18951291  0.25078336  1
  Ta  Ta91  1  -0.00087466  -0.00342056  0.49318171  1
  Ta  Ta92  1  0.50241555  0.89000838  0.38182545  1
  Ta  Ta93  1  0.60194205  0.39320037  0.00826796  1
  Ta  Ta94  1  0.80128980  0.19828988  0.75538644  1
  Ta  Ta95  1  0.79078900  0.81549366  0.51095139  1
  Ta  Ta96  1  0.19630105  0.79459237  0.52489984  1
  Ta  Ta97  1  0.80227324  0.40754415  0.25486280  1
  Ta  Ta98  1  0.00154822  0.19049160  -0.00120174  1
  Ta  Ta99  1  0.79842904  0.40138506  0.48306449  1
  Ta  Ta100  1  0.19587992  0.19031431  0.74056619  1
  Ta  Ta101  1  0.70395575  0.89947631  0.85096226  1
  Ta  Ta102  1  0.70430941  0.49732805  0.89644867  1
  Ta  Ta103  1  0.49570282  0.29815042  0.87339904  1
  Ta  Ta104  1  0.60184284  0.00170972  0.74425174  1
  Ta  Ta105  1  0.29377581  0.88377187  0.88672681  1
  Ta  Ta106  1  0.29337705  0.08768984  0.38619144  1
  Ta  Ta107  1  0.50305799  0.69469750  0.63828689  1
  Ta  Ta108  1  0.79435335  0.61181866  0.24283047  1
  Ta  Ta109  1  0.20768887  -0.00645291  0.25058532  1
  Ta  Ta110  1  0.50211534  0.69563342  0.37083492  1
  Ta  Ta111  1  0.21238513  0.39096880  0.51113061  1
  Ta  Ta112  1  0.29006312  0.89431954  0.39264362  1
  Ta  Ta113  1  0.09122313  0.70665828  0.10729902  1
  Ta  Ta114  1  0.09637944  0.30005979  0.12663493  1
  Ta  Ta115  1  0.59845466  0.19610853  0.49094962  1
  Ta  Ta116  1  0.89431263  0.90165207  0.85051835  1
  Ta  Ta117  1  0.70561196  0.09973787  0.61311631  1
  Ta  Ta118  1  0.10676772  0.71999688  0.87618147  1
  Ta  Ta119  1  0.49956092  0.89527739  0.12640474  1
  Ti  Ti120  1  -0.00293944  0.19862793  0.26346283  1
  Ti  Ti121  1  0.49732057  0.09780770  0.87578846  1
  Ti  Ti122  1  0.30444307  0.30818653  0.35946039  1
  Ti  Ti123  1  0.70039042  0.30527343  0.88370346  1
  Ti  Ti124  1  0.88943368  0.90402335  0.13379595  1
  Ti  Ti125  1  0.30929109  0.49304833  0.62884412  1
  Ti  Ti126  1  0.59947297  0.60602383  -0.00579431  1
  Ti  Ti127  1  0.29904597  0.68826645  0.38568551  1
  Ti  Ti128  1  0.19455399  -0.00774863  0.51623793  1
  Ti  Ti129  1  0.30579540  0.08888723  0.11947432  1
  Ti  Ti130  1  0.38562356  0.79899085  0.74417694  1
  Ti  Ti131  1  0.19823300  0.60570468  0.22425400  1
  Ti  Ti132  1  0.39514000  -0.00992387  0.26483941  1
  Ti  Ti133  1  0.60190777  0.59740789  0.75765146  1
  Ti  Ti134  1  0.70658376  0.29835608  0.13698374  1
  Ti  Ti135  1  0.30183211  0.70655524  0.88470187  1
  Ti  Ti136  1  0.60276270  0.79661054  0.49355034  1
  Ti  Ti137  1  -0.00085723  0.81076539  0.49237276  1
  Ti  Ti138  1  0.49955831  0.50372592  0.62536308  1
  Ti  Ti139  1  0.89170661  0.28486593  0.37459008  1
  Ti  Ti140  1  -0.01303739  0.00520710  -0.01643469  1
  Ti  Ti141  1  0.58939492  0.61284475  0.50131527  1
  Ti  Ti142  1  0.09463397  0.09315575  0.87084521  1
  Ti  Ti143  1  0.69847136  0.71386900  0.11773062  1
  Ti  Ti144  1  0.70203618  0.89580118  0.37837737  1
  Ti  Ti145  1  0.20281641  0.20100937  0.50479158  1
  Ti  Ti146  1  0.00250260  0.60881666  0.76190950  1
  Ti  Ti147  1  0.20729943  0.18875686  0.24826890  1
  Ti  Ti148  1  0.80373854  0.01142509  0.74042417  1
  Ti  Ti149  1  0.78099385  0.80563289  0.25232780  1
  Ti  Ti150  1  0.40415707  0.19291293  0.00246709  1
  Ti  Ti151  1  0.49719899  0.30148463  0.35864173  1
  Ti  Ti152  1  0.20256706  0.38926925  0.73194963  1
  Ti  Ti153  1  0.60467032  0.61568658  0.24734834  1
  Ti  Ti154  1  0.39745893  0.19451895  0.74859453  1
  Ti  Ti155  1  0.61296771  -0.01131203  0.50850780  1
  Ti  Ti156  1  0.21545838  0.60669392  0.52597557  1
  Ti  Ti157  1  0.88797851  0.91617045  0.37783820  1
  Ti  Ti158  1  0.30243143  0.50478175  0.38960918  1
  Ti  Ti159  1  0.08486952  0.90489737  0.13658900  1
  Mo  Mo160  1  0.70458566  0.88963040  0.12295833  1
  Mo  Mo161  1  0.29835371  0.89589088  0.61279015  1
  Mo  Mo162  1  0.79864621  0.19944437  0.48823216  1
  Mo  Mo163  1  0.79187477  0.40083633  0.01385680  1
  Mo  Mo164  1  0.29580908  0.29463621  0.63740306  1
  Mo  Mo165  1  0.40666471  0.60128639  -0.01453364  1
  Mo  Mo166  1  0.19645772  0.39797127  0.01766808  1
  Mo  Mo167  1  0.80381974  -0.01380330  0.25053227  1
  Mo  Mo168  1  0.59458393  0.80109265  0.75921351  1
  Mo  Mo169  1  0.30712518  0.69727352  0.62711940  1
  Mo  Mo170  1  0.09725191  0.09548739  0.60853355  1
  Mo  Mo171  1  0.40888498  -0.00213828  -0.01257736  1
  Mo  Mo172  1  0.49736298  0.89817615  0.85653928  1
  Mo  Mo173  1  0.79971001  0.80706948  0.73636421  1
  Mo  Mo174  1  0.70137285  0.90564286  0.63512576  1
  Mo  Mo175  1  0.10339841  0.70443613  0.64492709  1
  Mo  Mo176  1  0.90441840  0.09932468  0.37544512  1
  Mo  Mo177  1  -0.00558960  0.00618668  0.75495632  1
  Mo  Mo178  1  0.79542970  0.61247442  0.50559393  1
  Mo  Mo179  1  0.80178539  0.20202553  0.25173723  1
  Mo  Mo180  1  0.00035129  0.19618436  0.47703454  1
  Mo  Mo181  1  0.79718700  0.81110373  -0.00379770  1
  Mo  Mo182  1  0.09631849  0.90408575  0.86000738  1
  Mo  Mo183  1  0.40359018  0.59846268  0.51235219  1
  Mo  Mo184  1  0.60095979  0.79480635  0.25902086  1
  Mo  Mo185  1  0.20672773  0.79873991  0.74288399  1
  Mo  Mo186  1  -0.00048139  0.61543817  -0.01497447  1
  Mo  Mo187  1  0.40260324  0.40631548  0.24477836  1
  Mo  Mo188  1  0.39695416  0.39929301  0.74236719  1
  Mo  Mo189  1  0.19178684  0.80531984  0.00950041  1
  Mo  Mo190  1  0.30481879  0.50594192  0.10430031  1
  Mo  Mo191  1  0.00452709  0.39468213  0.01734429  1
  Mo  Mo192  1  0.80102618  -0.00659422  0.50985229  1
  Mo  Mo193  1  0.89796873  0.09479416  0.87584719  1
  Mo  Mo194  1  0.90407341  0.70624728  0.87717563  1
  Mo  Mo195  1  0.41022326  0.80639855  -0.01838408  1
  Mo  Mo196  1  0.09773941  0.50246560  0.10722160  1
  Mo  Mo197  1  0.69234356  0.71085163  0.38056683  1
  Mo  Mo198  1  0.00230333  -0.00799726  0.27127508  1
  Mo  Mo199  1  0.00004765  0.80077415  0.76756309  1
