# generated using pymatgen
data_HfZrTaTiMo
_symmetry_space_group_name_H-M   'P 1'
_cell_length_a   15.94209915
_cell_length_b   15.94798970
_cell_length_c   15.16095307
_cell_angle_alpha   90.00623798
_cell_angle_beta   89.95142493
_cell_angle_gamma   90.24655899
_symmetry_Int_Tables_number   1
_chemical_formula_structural   HfZrTaTiMo
_chemical_formula_sum   'Hf40 Zr40 Ta40 Ti40 Mo40'
_cell_volume   3854.55082218
_cell_formula_units_Z   40
loop_
 _symmetry_equiv_pos_site_id
 _symmetry_equiv_pos_as_xyz
  1  'x, y, z'
loop_
 _atom_site_type_symbol
 _atom_site_label
 _atom_site_symmetry_multiplicity
 _atom_site_fract_x
 _atom_site_fract_y
 _atom_site_fract_z
 _atom_site_occupancy
  Hf  Hf0  1  0.28694090  0.68713401  0.13008363  1
  Hf  Hf1  1  0.60111281  0.20175926  0.76001007  1
  Hf  Hf2  1  0.79331336  0.39431014  0.01282329  1
  Hf  Hf3  1  0.50138532  0.09629758  0.63131419  1
  Hf  Hf4  1  0.09150468  0.89799380  0.38430713  1
  Hf  Hf5  1  0.69859846  0.29985011  0.36511109  1
  Hf  Hf6  1  -0.00433118  0.40300734  0.00040842  1
  Hf  Hf7  1  0.08525231  0.69527447  0.61859045  1
  Hf  Hf8  1  0.79344169  0.19942101  0.00335681  1
  Hf  Hf9  1  0.40198869  0.39572082  0.00056670  1
  Hf  Hf10  1  0.29290004  0.27998208  0.88504425  1
  Hf  Hf11  1  0.29940479  0.49613144  0.36501165  1
  Hf  Hf12  1  0.69311087  0.29257087  0.14422098  1
  Hf  Hf13  1  0.30846557  0.09540561  0.61526044  1
  Hf  Hf14  1  0.30851368  0.48773516  0.61639135  1
  Hf  Hf15  1  0.80614462  0.00139699  0.76074565  1
  Hf  Hf16  1  0.20643493  0.20205403  0.25740029  1
  Hf  Hf17  1  0.59871970  0.79963683  0.76769310  1
  Hf  Hf18  1  0.88813731  0.69359403  0.63164510  1
  Hf  Hf19  1  0.39509164  0.79270645  0.00056343  1
  Hf  Hf20  1  0.20367470  0.59785648  0.50081579  1
  Hf  Hf21  1  0.39436600  0.01434007  0.23519182  1
  Hf  Hf22  1  0.89005806  0.89885060  0.60990009  1
  Hf  Hf23  1  0.29481495  0.49443143  0.87541993  1
  Hf  Hf24  1  0.79950443  0.40667390  0.50285996  1
  Hf  Hf25  1  0.70081232  0.89423596  0.63069163  1
  Hf  Hf26  1  0.09326824  0.10560533  0.37884170  1
  Hf  Hf27  1  0.29480349  0.49437765  0.12887404  1
  Hf  Hf28  1  0.59789976  0.79197126  0.01057143  1
  Hf  Hf29  1  0.30518845  0.92273866  0.87574297  1
  Hf  Hf30  1  0.10664763  0.50279232  0.13798605  1
  Hf  Hf31  1  0.09940247  0.69564786  0.37647170  1
  Hf  Hf32  1  0.70096693  0.49489876  0.35499964  1
  Hf  Hf33  1  0.59723884  0.59775853  0.76477187  1
  Hf  Hf34  1  0.81238606  0.41933312  0.74723438  1
  Hf  Hf35  1  0.61039258  0.59773635  0.48894451  1
  Hf  Hf36  1  0.51152031  0.90355361  0.35214857  1
  Hf  Hf37  1  0.70202204  0.30349200  0.62959923  1
  Hf  Hf38  1  -0.00367400  0.80677368  0.75652122  1
  Hf  Hf39  1  0.90514383  0.70872673  0.13278833  1
  Zr  Zr40  1  0.29031670  0.91058403  0.11601712  1
  Zr  Zr41  1  0.19552862  0.21198819  0.51048821  1
  Zr  Zr42  1  0.00044206  0.59891329  0.26103161  1
  Zr  Zr43  1  0.50626005  0.70397564  0.35879194  1
  Zr  Zr44  1  0.70366068  0.50122501  0.89355267  1
  Zr  Zr45  1  0.70007467  0.09051590  0.36348441  1
  Zr  Zr46  1  -0.00220828  0.00548200  0.74741389  1
  Zr  Zr47  1  0.49915007  0.91036281  0.88802843  1
  Zr  Zr48  1  0.19655066  0.79969149  0.74597353  1
  Zr  Zr49  1  0.60066181  0.60045127  0.23045657  1
  Zr  Zr50  1  0.59967455  -0.00953294  0.50266239  1
  Zr  Zr51  1  0.19009897  0.19869307  0.73395415  1
  Zr  Zr52  1  0.61274434  0.79696112  0.49134957  1
  Zr  Zr53  1  0.71834015  0.10022143  0.61918189  1
  Zr  Zr54  1  0.10122199  0.09814495  0.12816294  1
  Zr  Zr55  1  -0.01525636  0.57983408  0.75956841  1
  Zr  Zr56  1  0.60094528  0.20799371  0.50071472  1
  Zr  Zr57  1  0.89212631  0.69442266  0.88397737  1
  Zr  Zr58  1  -0.01556901  -0.00425880  0.26100858  1
  Zr  Zr59  1  0.40578606  0.59610598  0.76262699  1
  Zr  Zr60  1  0.50425552  0.90977415  0.12222970  1
  Zr  Zr61  1  0.19482870  0.00306784  0.74196901  1
  Zr  Zr62  1  0.30494053  0.31238254  0.37952911  1
  Zr  Zr63  1  0.80779001  0.61534825  0.47981565  1
  Zr  Zr64  1  0.70599073  0.70028804  0.89105426  1
  Zr  Zr65  1  0.31231959  0.90415539  0.37785452  1
  Zr  Zr66  1  0.19672493  0.38896443  0.73606380  1
  Zr  Zr67  1  0.40627435  0.60275721  0.49367926  1
  Zr  Zr68  1  0.89924311  0.29741973  0.87207427  1
  Zr  Zr69  1  0.60171395  0.40090866  0.76378557  1
  Zr  Zr70  1  0.40692624  0.39227483  0.75997682  1
  Zr  Zr71  1  0.19533036  0.80623645  0.24843392  1
  Zr  Zr72  1  0.49868752  0.10203174  0.37057970  1
  Zr  Zr73  1  0.20786400  0.79575707  0.50497615  1
  Zr  Zr74  1  0.39978402  0.79793453  0.75861393  1
  Zr  Zr75  1  0.09651307  0.29327901  0.12759577  1
  Zr  Zr76  1  0.19119358  0.79679489  -0.00559489  1
  Zr  Zr77  1  0.90732898  0.10523213  0.12188860  1
  Zr  Zr78  1  0.50739608  0.70149788  0.62276357  1
  Zr  Zr79  1  0.00291492  0.38955507  0.73807752  1
  Ta  Ta80  1  0.90173414  0.49345087  0.13641235  1
  Ta  Ta81  1  0.89413848  0.28811945  0.61419818  1
  Ta  Ta82  1  -0.00246379  0.39834533  0.49534451  1
  Ta  Ta83  1  0.19911441  0.00555411  0.26174045  1
  Ta  Ta84  1  0.19480920  0.39715027  0.00020633  1
  Ta  Ta85  1  0.19418643  0.59457894  0.74493867  1
  Ta  Ta86  1  0.30487484  0.10230057  0.38735636  1
  Ta  Ta87  1  0.40386815  0.59948069  -0.00034995  1
  Ta  Ta88  1  0.60388681  0.00115102  0.76349618  1
  Ta  Ta89  1  0.80002490  0.00415718  0.00840519  1
  Ta  Ta90  1  0.50833003  0.49596203  0.61635717  1
  Ta  Ta91  1  0.00297245  0.79872244  -0.00189067  1
  Ta  Ta92  1  0.40348179  0.79409353  0.23109689  1
  Ta  Ta93  1  0.60809059  0.01839608  0.00339426  1
  Ta  Ta94  1  0.19732737  0.00064583  0.49949512  1
  Ta  Ta95  1  0.80034510  0.59542355  0.02895458  1
  Ta  Ta96  1  0.89580436  0.89862112  0.89388774  1
  Ta  Ta97  1  0.80740886  0.19012889  0.25584221  1
  Ta  Ta98  1  0.70501303  0.90492626  0.12975204  1
  Ta  Ta99  1  0.30848766  0.90448583  0.62057131  1
  Ta  Ta100  1  0.48556005  0.09900409  0.87755729  1
  Ta  Ta101  1  0.09379505  0.49966385  0.60931706  1
  Ta  Ta102  1  0.40858368  0.80605686  0.50120649  1
  Ta  Ta103  1  0.90739409  0.10072841  0.88846897  1
  Ta  Ta104  1  0.09759168  0.90531219  0.88148740  1
  Ta  Ta105  1  -0.02434814  0.78722169  0.48210308  1
  Ta  Ta106  1  0.90341566  0.29788519  0.14444315  1
  Ta  Ta107  1  0.40403572  0.20833932  0.50286068  1
  Ta  Ta108  1  0.09773611  0.29110306  0.88591022  1
  Ta  Ta109  1  0.09017380  0.89796098  0.60484405  1
  Ta  Ta110  1  0.40306699  0.20750576  0.24158703  1
  Ta  Ta111  1  0.30681132  0.69851344  0.35972220  1
  Ta  Ta112  1  0.10171219  0.10828332  0.88668036  1
  Ta  Ta113  1  0.19202798  0.59673549  -0.01272206  1
  Ta  Ta114  1  0.00223000  0.59816551  0.00220113  1
  Ta  Ta115  1  0.00332377  -0.00396965  0.00095325  1
  Ta  Ta116  1  0.00288966  0.39667458  0.26375040  1
  Ta  Ta117  1  0.89764330  0.29772302  0.37328236  1
  Ta  Ta118  1  0.70538066  0.90306583  0.89534478  1
  Ta  Ta119  1  0.40724912  0.59399548  0.23694780  1
  Ti  Ti120  1  0.29573280  0.29934099  0.12304782  1
  Ti  Ti121  1  0.70280300  0.10155150  0.87451515  1
  Ti  Ti122  1  0.40142379  0.19245341  0.00834829  1
  Ti  Ti123  1  0.10866124  0.49204307  0.37972593  1
  Ti  Ti124  1  0.09064931  0.89847087  0.12881386  1
  Ti  Ti125  1  0.89906099  0.89666109  0.12207507  1
  Ti  Ti126  1  0.60644288  0.20627873  -0.00992291  1
  Ti  Ti127  1  0.30540938  0.69810381  0.63022920  1
  Ti  Ti128  1  0.09736443  0.69472797  0.86782886  1
  Ti  Ti129  1  0.49505203  0.90542108  0.63668641  1
  Ti  Ti130  1  0.59009004  0.40225752  0.23945921  1
  Ti  Ti131  1  0.09839952  0.49416737  0.87378527  1
  Ti  Ti132  1  0.50277145  0.29595477  0.88682551  1
  Ti  Ti133  1  0.50010661  0.30544065  0.36849220  1
  Ti  Ti134  1  0.19994720  0.01123899  -0.00476051  1
  Ti  Ti135  1  0.08499916  0.09604787  0.60757696  1
  Ti  Ti136  1  0.79865893  0.80231152  0.76268259  1
  Ti  Ti137  1  0.39536749  0.19796392  0.74867888  1
  Ti  Ti138  1  0.70917530  0.71495434  0.34583961  1
  Ti  Ti139  1  -0.01714476  0.00154393  0.49236283  1
  Ti  Ti140  1  0.80153053  0.59743565  0.24200002  1
  Ti  Ti141  1  0.89992463  0.49636093  0.36945371  1
  Ti  Ti142  1  0.49689786  0.49129920  0.37340784  1
  Ti  Ti143  1  0.70557768  0.70119871  0.63371796  1
  Ti  Ti144  1  0.09741427  0.70045907  0.13298757  1
  Ti  Ti145  1  0.40617831  0.39718339  0.23571080  1
  Ti  Ti146  1  0.70625873  0.51475577  0.62808923  1
  Ti  Ti147  1  0.10201814  0.30779698  0.37907196  1
  Ti  Ti148  1  0.49402084  0.30615934  0.62384846  1
  Ti  Ti149  1  0.51092987  0.49621525  0.10636849  1
  Ti  Ti150  1  0.70587377  0.70899031  0.13108290  1
  Ti  Ti151  1  0.51558842  0.11319401  0.12727709  1
  Ti  Ti152  1  0.70808074  0.90184648  0.34819374  1
  Ti  Ti153  1  -0.01214987  0.19992395  0.49463822  1
  Ti  Ti154  1  0.50391481  0.29705218  0.11930615  1
  Ti  Ti155  1  0.80636535  0.19758125  0.75521149  1
  Ti  Ti156  1  0.29493692  0.10905599  0.11537037  1
  Ti  Ti157  1  -0.00293483  0.19348783  0.73836044  1
  Ti  Ti158  1  0.29321022  0.69387639  0.87289185  1
  Ti  Ti159  1  0.59854901  0.40328714  0.49922116  1
  Mo  Mo160  1  -0.00455841  0.59199116  0.48660674  1
  Mo  Mo161  1  0.79820498  -0.00515665  0.49209256  1
  Mo  Mo162  1  -0.00128685  0.20416943  0.27411053  1
  Mo  Mo163  1  0.20424117  0.59841585  0.26583674  1
  Mo  Mo164  1  0.90112729  0.10306226  0.60924272  1
  Mo  Mo165  1  0.89720826  0.50360047  0.90178228  1
  Mo  Mo166  1  -0.00159502  0.80493617  0.25610892  1
  Mo  Mo167  1  0.19695849  0.39631846  0.24420262  1
  Mo  Mo168  1  0.70101124  0.29401222  0.86655402  1
  Mo  Mo169  1  0.89180186  0.10011050  0.38773208  1
  Mo  Mo170  1  0.41513573  0.39686881  0.49970650  1
  Mo  Mo171  1  0.40232390  -0.00275526  0.50381330  1
  Mo  Mo172  1  0.79356086  0.60013089  0.74542759  1
  Mo  Mo173  1  0.08490466  0.29773573  0.60834358  1
  Mo  Mo174  1  0.88527667  0.90131941  0.38173052  1
  Mo  Mo175  1  0.31313745  0.29770543  0.61894994  1
  Mo  Mo176  1  0.80226390  0.80448808  0.01839965  1
  Mo  Mo177  1  0.90291425  0.50124421  0.60221485  1
  Mo  Mo178  1  0.19527624  0.40076225  0.51040119  1
  Mo  Mo179  1  0.20157495  0.19941163  0.00724356  1
  Mo  Mo180  1  0.60100570  0.59743753  0.01265230  1
  Mo  Mo181  1  0.40286770  0.01901355  0.01529705  1
  Mo  Mo182  1  0.89529197  0.70632305  0.35071154  1
  Mo  Mo183  1  0.59868177  0.38956238  0.00247958  1
  Mo  Mo184  1  0.80133643  0.00201137  0.23384597  1
  Mo  Mo185  1  0.80631097  0.39844571  0.24701940  1
  Mo  Mo186  1  0.80346454  0.20074104  0.48637460  1
  Mo  Mo187  1  0.49483849  0.69578873  0.12085421  1
  Mo  Mo188  1  0.80605540  0.80894424  0.24595765  1
  Mo  Mo189  1  0.30357881  0.10229276  0.88159286  1
  Mo  Mo190  1  0.79445459  0.80231607  0.47918992  1
  Mo  Mo191  1  0.49967658  0.69353220  0.89476874  1
  Mo  Mo192  1  0.60592093  0.80323651  0.23332819  1
  Mo  Mo193  1  0.60306163  0.00689999  0.23035716  1
  Mo  Mo194  1  0.59018100  0.20582130  0.25288803  1
  Mo  Mo195  1  -0.00110670  0.20011479  -0.00505705  1
  Mo  Mo196  1  0.40555181  0.00466466  0.74302040  1
  Mo  Mo197  1  0.50373952  0.49649579  0.90186548  1
  Mo  Mo198  1  0.70140220  0.49499622  0.13124371  1
  Mo  Mo199  1  0.69820444  0.10202441  0.13272157  1
