# generated using pymatgen
data_HfZrTaTiMo
_symmetry_space_group_name_H-M   'P 1'
_cell_length_a   15.93699166
_cell_length_b   15.93922464
_cell_length_c   15.19952989
_cell_angle_alpha   90.05136484
_cell_angle_beta   90.04321406
_cell_angle_gamma   89.87631308
_symmetry_Int_Tables_number   1
_chemical_formula_structural   HfZrTaTiMo
_chemical_formula_sum   'Hf40 Zr40 Ta40 Ti40 Mo40'
_cell_volume   3861.02295271
_cell_formula_units_Z   40
loop_
 _symmetry_equiv_pos_site_id
 _symmetry_equiv_pos_as_xyz
  1  'x, y, z'
loop_
 _atom_site_type_symbol
 _atom_site_label
 _atom_site_symmetry_multiplicity
 _atom_site_fract_x
 _atom_site_fract_y
 _atom_site_fract_z
 _atom_site_occupancy
  Hf  Hf0  1  0.20288399  0.40211645  0.74083735  1
  Hf  Hf1  1  0.80300651  0.61147897  0.25295154  1
  Hf  Hf2  1  0.59461343  0.60127803  -0.00140756  1
  Hf  Hf3  1  0.39522545  0.40427296  0.74415718  1
  Hf  Hf4  1  0.80731213  0.41405836  0.73416882  1
  Hf  Hf5  1  0.10061967  0.09192447  0.87573610  1
  Hf  Hf6  1  -0.00671165  0.79314168  0.25471513  1
  Hf  Hf7  1  0.90475601  0.50774636  0.88702652  1
  Hf  Hf8  1  0.19490771  0.19995526  0.00764006  1
  Hf  Hf9  1  0.68935153  0.91451648  0.13171717  1
  Hf  Hf10  1  0.00318684  0.39192196  0.50219766  1
  Hf  Hf11  1  0.51083524  0.09434891  0.13199093  1
  Hf  Hf12  1  0.21444633  -0.01110019  0.50295665  1
  Hf  Hf13  1  0.40725214  0.19985049  0.76765435  1
  Hf  Hf14  1  0.29122095  0.30591268  0.37340518  1
  Hf  Hf15  1  0.08814948  0.49875783  0.14302630  1
  Hf  Hf16  1  0.49961385  0.28935153  0.62787973  1
  Hf  Hf17  1  0.09473025  0.50863992  0.61290728  1
  Hf  Hf18  1  0.69061582  0.69942777  0.61655670  1
  Hf  Hf19  1  0.31373316  0.09740060  0.62866099  1
  Hf  Hf20  1  0.10792489  0.88567512  0.87645467  1
  Hf  Hf21  1  -0.01182680  -0.00572860  -0.00016712  1
  Hf  Hf22  1  0.29875491  0.30392532  0.88575142  1
  Hf  Hf23  1  0.11866856  0.89501032  0.36046304  1
  Hf  Hf24  1  0.79696796  0.39044844  0.00717263  1
  Hf  Hf25  1  0.79769876  0.60455110  0.74901885  1
  Hf  Hf26  1  0.69834806  0.50053466  0.87928776  1
  Hf  Hf27  1  0.50299439  0.90021309  0.12167282  1
  Hf  Hf28  1  0.90437877  0.69430660  0.61806217  1
  Hf  Hf29  1  0.79164382  0.01432090  0.25727774  1
  Hf  Hf30  1  0.20998061  0.19865978  0.75095159  1
  Hf  Hf31  1  0.30501821  0.51348989  0.89318023  1
  Hf  Hf32  1  0.59071777  0.62155213  0.25422403  1
  Hf  Hf33  1  0.68887414  0.90322574  0.62249067  1
  Hf  Hf34  1  0.01499740  -0.00365575  0.51284413  1
  Hf  Hf35  1  0.50087059  0.50734835  0.61547591  1
  Hf  Hf36  1  0.70072760  0.29402920  0.85115154  1
  Hf  Hf37  1  0.48052252  0.70203912  0.88872258  1
  Hf  Hf38  1  0.19919939  0.19565636  0.49842939  1
  Hf  Hf39  1  0.40506439  0.39540087  0.01221652  1
  Zr  Zr40  1  0.69300629  0.70936007  0.12262876  1
  Zr  Zr41  1  0.70318308  0.90213755  0.86312952  1
  Zr  Zr42  1  0.09075338  0.89343637  0.12363229  1
  Zr  Zr43  1  0.80178012  0.80601065  0.25228025  1
  Zr  Zr44  1  0.39111820  0.81954914  0.50110553  1
  Zr  Zr45  1  0.61451748  0.39729333  0.25256684  1
  Zr  Zr46  1  0.00937940  0.19568274  0.73980690  1
  Zr  Zr47  1  0.70086270  0.50688562  0.37816895  1
  Zr  Zr48  1  0.00408953  0.39150885  -0.00462204  1
  Zr  Zr49  1  0.90409271  0.10548937  0.38986600  1
  Zr  Zr50  1  0.89769751  0.90888453  0.38814939  1
  Zr  Zr51  1  0.79842619  0.19045626  -0.00295782  1
  Zr  Zr52  1  0.90093231  0.29406948  0.85821833  1
  Zr  Zr53  1  0.39122692  0.61255533  0.24386708  1
  Zr  Zr54  1  0.49132746  0.49421569  0.37177709  1
  Zr  Zr55  1  0.01160412  0.79340701  0.49134105  1
  Zr  Zr56  1  0.19167168  0.61583497  0.48649917  1
  Zr  Zr57  1  0.49122742  0.30108521  0.36643179  1
  Zr  Zr58  1  0.19988866  0.40002609  0.01973211  1
  Zr  Zr59  1  0.20287647  0.60092174  0.74568327  1
  Zr  Zr60  1  0.69830440  0.29899510  0.63096144  1
  Zr  Zr61  1  0.29648952  0.49098378  0.36788184  1
  Zr  Zr62  1  0.80639502  0.81423156  0.00710006  1
  Zr  Zr63  1  0.09230335  0.69765444  0.88568961  1
  Zr  Zr64  1  0.20565494  0.19596961  0.24441420  1
  Zr  Zr65  1  0.58388377  0.80095373  0.75351262  1
  Zr  Zr66  1  0.29012649  0.71363817  0.89564269  1
  Zr  Zr67  1  0.39320994  0.61719332  0.48980705  1
  Zr  Zr68  1  0.50677653  0.28894440  0.14162058  1
  Zr  Zr69  1  0.89900443  0.48868835  0.36913914  1
  Zr  Zr70  1  0.90299353  0.50247834  0.12617561  1
  Zr  Zr71  1  0.71899018  0.30514839  0.38709984  1
  Zr  Zr72  1  0.10375229  0.48300908  0.36251421  1
  Zr  Zr73  1  0.39485142  0.60979178  0.73783484  1
  Zr  Zr74  1  0.59737443  0.20244940  -0.02100059  1
  Zr  Zr75  1  0.90868087  0.88944907  0.85983093  1
  Zr  Zr76  1  0.69625203  0.10092172  0.63310045  1
  Zr  Zr77  1  0.49948560  0.50020722  0.13150251  1
  Zr  Zr78  1  0.59713721  0.19554349  0.48865684  1
  Zr  Zr79  1  0.81613807  0.21418838  0.24957757  1
  Ta  Ta80  1  0.10192879  0.09313119  0.36333181  1
  Ta  Ta81  1  0.40503443  -0.00852451  0.76153442  1
  Ta  Ta82  1  0.80595848  -0.00295098  0.73574687  1
  Ta  Ta83  1  0.21173615  -0.00952293  0.75457755  1
  Ta  Ta84  1  0.20762454  -0.00148116  0.23491297  1
  Ta  Ta85  1  0.69576374  0.90717433  0.38379447  1
  Ta  Ta86  1  0.20309260  -0.00635512  0.00924639  1
  Ta  Ta87  1  0.49970551  0.90040866  0.35710306  1
  Ta  Ta88  1  0.60025539  0.40349484  0.50493801  1
  Ta  Ta89  1  0.48927680  0.90045156  0.89190671  1
  Ta  Ta90  1  0.80555007  0.40807275  0.51900554  1
  Ta  Ta91  1  -0.00363657  0.19494735  0.00169796  1
  Ta  Ta92  1  0.30985629  0.09548598  0.11145853  1
  Ta  Ta93  1  0.30496340  0.08836391  0.88828391  1
  Ta  Ta94  1  0.39844313  0.19028139  0.49389399  1
  Ta  Ta95  1  0.69467282  0.71364800  0.38441818  1
  Ta  Ta96  1  0.49880976  0.70850084  0.61649674  1
  Ta  Ta97  1  0.40319811  0.79750819  0.23935575  1
  Ta  Ta98  1  0.39425063  -0.00334568  0.24445566  1
  Ta  Ta99  1  0.90423621  0.29582782  0.62458941  1
  Ta  Ta100  1  0.00842093  -0.00945560  0.73833426  1
  Ta  Ta101  1  0.19681172  0.60872952  0.24497337  1
  Ta  Ta102  1  0.89470889  0.09351293  0.85771744  1
  Ta  Ta103  1  0.08468102  0.29436359  0.14379779  1
  Ta  Ta104  1  0.59219746  0.40757706  0.74914781  1
  Ta  Ta105  1  0.40681237  0.19697311  -0.00550184  1
  Ta  Ta106  1  0.70005353  0.50253647  0.12285849  1
  Ta  Ta107  1  0.79815194  0.80224482  0.50237635  1
  Ta  Ta108  1  0.60473605  0.00918229  -0.01916569  1
  Ta  Ta109  1  0.50628507  0.08877253  0.63949733  1
  Ta  Ta110  1  0.49698440  0.09628951  0.35941597  1
  Ta  Ta111  1  0.09678590  0.70562762  0.63763516  1
  Ta  Ta112  1  0.90231164  0.09731176  0.12830395  1
  Ta  Ta113  1  0.59095719  0.00061711  0.48985928  1
  Ta  Ta114  1  0.09423571  0.09656987  0.12966480  1
  Ta  Ta115  1  0.59407952  0.60156895  0.75703035  1
  Ta  Ta116  1  0.00455847  0.40810378  0.74157081  1
  Ta  Ta117  1  0.91125597  0.69907942  0.10898979  1
  Ta  Ta118  1  -0.00430998  0.59614126  0.75374374  1
  Ta  Ta119  1  0.20380806  0.80409845  0.51535359  1
  Ti  Ti120  1  0.10914282  0.29956972  0.62337753  1
  Ti  Ti121  1  0.20840406  0.80398845  0.73461144  1
  Ti  Ti122  1  0.79679067  0.00594831  -0.00259885  1
  Ti  Ti123  1  0.21006365  0.79634498  0.22620147  1
  Ti  Ti124  1  0.10384401  0.50209695  0.87961649  1
  Ti  Ti125  1  0.69611020  0.10392655  0.12419871  1
  Ti  Ti126  1  0.58646517  0.80796343  0.49448946  1
  Ti  Ti127  1  0.11249895  0.09180103  0.63227023  1
  Ti  Ti128  1  0.80621358  0.19914126  0.50922457  1
  Ti  Ti129  1  0.59932384  0.80312137  -0.00809379  1
  Ti  Ti130  1  0.09068550  0.29039303  0.36212811  1
  Ti  Ti131  1  0.20137291  0.59839484  0.02471554  1
  Ti  Ti132  1  0.10051784  0.30089952  0.86830520  1
  Ti  Ti133  1  0.29068369  0.72400490  0.36557758  1
  Ti  Ti134  1  0.80721810  0.39666580  0.23647081  1
  Ti  Ti135  1  0.90542946  0.89339149  0.62482301  1
  Ti  Ti136  1  0.09373225  0.69668361  0.11786933  1
  Ti  Ti137  1  0.30161456  0.09007345  0.37167506  1
  Ti  Ti138  1  0.80304683  0.60089208  0.49710494  1
  Ti  Ti139  1  0.39268105  0.19530953  0.24711134  1
  Ti  Ti140  1  -0.00581787  -0.00151457  0.24856877  1
  Ti  Ti141  1  0.59227867  0.60785267  0.48654607  1
  Ti  Ti142  1  0.80238527  0.79513814  0.73922636  1
  Ti  Ti143  1  0.39174162  0.80859788  0.73631133  1
  Ti  Ti144  1  0.69219255  0.51032616  0.61969981  1
  Ti  Ti145  1  0.49545789  0.49915762  0.87905223  1
  Ti  Ti146  1  0.79751682  0.60652818  0.00209829  1
  Ti  Ti147  1  -0.00209985  0.61305377  0.26816447  1
  Ti  Ti148  1  0.69871781  0.29411642  0.12532372  1
  Ti  Ti149  1  0.90153293  0.09635781  0.62451177  1
  Ti  Ti150  1  0.30460164  0.89551373  0.89547773  1
  Ti  Ti151  1  0.39458664  0.38899565  0.51127779  1
  Ti  Ti152  1  -0.00148013  0.60404518  0.47962417  1
  Ti  Ti153  1  0.59983176  0.39504170  -0.00328667  1
  Ti  Ti154  1  0.40742207  -0.00042076  0.49468567  1
  Ti  Ti155  1  0.29338802  0.49974478  0.60340930  1
  Ti  Ti156  1  0.90436969  0.70269573  0.88265988  1
  Ti  Ti157  1  0.62287032  0.18697479  0.27091675  1
  Ti  Ti158  1  0.70100183  0.70314001  0.87460843  1
  Ti  Ti159  1  0.00956245  0.19555121  0.50726930  1
  Mo  Mo160  1  0.49761783  0.71175694  0.38797671  1
  Mo  Mo161  1  0.49783963  0.91088181  0.62634319  1
  Mo  Mo162  1  0.19234651  0.39571359  0.23679552  1
  Mo  Mo163  1  0.30124380  0.90021968  0.12289514  1
  Mo  Mo164  1  0.30128260  0.29642705  0.61329938  1
  Mo  Mo165  1  0.80791431  0.19370635  0.73562005  1
  Mo  Mo166  1  0.39523967  0.59999360  0.01896548  1
  Mo  Mo167  1  0.20221325  0.39150172  0.51515864  1
  Mo  Mo168  1  0.60209763  0.00493609  0.26684517  1
  Mo  Mo169  1  0.90720319  0.29488636  0.40273557  1
  Mo  Mo170  1  -0.00226352  0.79875912  0.01115533  1
  Mo  Mo171  1  0.59644009  -0.00009449  0.76636220  1
  Mo  Mo172  1  0.59696612  0.19831565  0.75977376  1
  Mo  Mo173  1  0.00051945  0.18692574  0.25097556  1
  Mo  Mo174  1  0.40394875  0.00212460  -0.00154156  1
  Mo  Mo175  1  0.37970341  0.38989462  0.22701088  1
  Mo  Mo176  1  0.19949671  0.80069882  0.01794717  1
  Mo  Mo177  1  0.70386571  0.09722303  0.39715646  1
  Mo  Mo178  1  0.10809796  0.70340897  0.35713214  1
  Mo  Mo179  1  0.00449150  0.59791315  -0.00709874  1
  Mo  Mo180  1  0.30167904  0.29125895  0.12378549  1
  Mo  Mo181  1  0.29617530  0.70657422  0.62306726  1
  Mo  Mo182  1  0.10564253  0.89688124  0.63867741  1
  Mo  Mo183  1  -0.01623889  0.37355292  0.25894256  1
  Mo  Mo184  1  0.29604739  0.70032010  0.11745976  1
  Mo  Mo185  1  0.79902866  -0.00395867  0.51955238  1
  Mo  Mo186  1  0.90509573  0.50547584  0.61669401  1
  Mo  Mo187  1  0.30496436  0.90738706  0.63580284  1
  Mo  Mo188  1  0.59719933  0.80397473  0.26374652  1
  Mo  Mo189  1  0.50153803  0.09636260  0.86811265  1
  Mo  Mo190  1  -0.00193108  0.79205392  0.74137611  1
  Mo  Mo191  1  0.90245969  0.29216360  0.11639585  1
  Mo  Mo192  1  0.39718157  0.80302180  0.02168979  1
  Mo  Mo193  1  0.49710566  0.70728250  0.10921511  1
  Mo  Mo194  1  0.29460856  0.49767574  0.13594324  1
  Mo  Mo195  1  0.89379031  0.69820745  0.39146896  1
  Mo  Mo196  1  0.30182721  0.90135236  0.35155105  1
  Mo  Mo197  1  0.70556238  0.09522111  0.85340875  1
  Mo  Mo198  1  0.50109187  0.31101955  0.86769134  1
  Mo  Mo199  1  0.89202188  0.90726081  0.13051232  1
