# generated using pymatgen
data_HfZrTaTiMo
_symmetry_space_group_name_H-M   'P 1'
_cell_length_a   15.92727347
_cell_length_b   15.91331840
_cell_length_c   15.19226430
_cell_angle_alpha   89.98056500
_cell_angle_beta   89.97935853
_cell_angle_gamma   90.02216747
_symmetry_Int_Tables_number   1
_chemical_formula_structural   HfZrTaTiMo
_chemical_formula_sum   'Hf40 Zr40 Ta40 Ti40 Mo40'
_cell_volume   3850.56634558
_cell_formula_units_Z   40
loop_
 _symmetry_equiv_pos_site_id
 _symmetry_equiv_pos_as_xyz
  1  'x, y, z'
loop_
 _atom_site_type_symbol
 _atom_site_label
 _atom_site_symmetry_multiplicity
 _atom_site_fract_x
 _atom_site_fract_y
 _atom_site_fract_z
 _atom_site_occupancy
  Hf  Hf0  1  0.59366528  0.80340383  0.75343152  1
  Hf  Hf1  1  -0.00791966  0.40400970  -0.02382329  1
  Hf  Hf2  1  0.70538170  0.49335715  0.39638446  1
  Hf  Hf3  1  0.39436762  0.00839083  0.47894721  1
  Hf  Hf4  1  0.00256076  -0.01859811  0.24480272  1
  Hf  Hf5  1  0.20026027  0.79103896  -0.00355666  1
  Hf  Hf6  1  0.49738515  0.50172337  0.87723691  1
  Hf  Hf7  1  0.09962874  0.50160662  0.39297050  1
  Hf  Hf8  1  0.90856412  0.70269300  0.39840173  1
  Hf  Hf9  1  0.68780246  0.69363108  0.40379736  1
  Hf  Hf10  1  0.30089204  0.09348056  0.89699486  1
  Hf  Hf11  1  0.30896611  0.88564374  0.13608040  1
  Hf  Hf12  1  0.89273704  0.31744796  0.38267455  1
  Hf  Hf13  1  0.39947406  0.19864463  0.49485496  1
  Hf  Hf14  1  0.69425902  0.30320345  0.37377109  1
  Hf  Hf15  1  0.30016127  0.89093246  0.36501157  1
  Hf  Hf16  1  0.20166012  0.80336156  0.74358432  1
  Hf  Hf17  1  0.10514072  0.10536239  0.63525121  1
  Hf  Hf18  1  0.30632362  0.49741172  0.37694244  1
  Hf  Hf19  1  0.30130880  0.29829322  0.35956763  1
  Hf  Hf20  1  0.40524327  0.39672657  0.74783942  1
  Hf  Hf21  1  0.29665683  0.49562226  0.10682749  1
  Hf  Hf22  1  0.40102762  -0.00501564  0.75835592  1
  Hf  Hf23  1  0.89655615  0.50416531  0.12465889  1
  Hf  Hf24  1  0.70041703  0.30872454  0.12069673  1
  Hf  Hf25  1  -0.02385935  0.00725239  0.73683788  1
  Hf  Hf26  1  0.30227652  0.69882775  0.38303333  1
  Hf  Hf27  1  0.80235741  0.40652087  -0.02297383  1
  Hf  Hf28  1  0.69860181  0.29570172  0.63096762  1
  Hf  Hf29  1  0.40243366  0.59289442  0.52138868  1
  Hf  Hf30  1  0.11314274  0.50299017  0.86515505  1
  Hf  Hf31  1  0.16844204  0.78706186  0.25490384  1
  Hf  Hf32  1  0.50747452  0.50566121  0.38580257  1
  Hf  Hf33  1  0.80725501  0.40124381  0.75426444  1
  Hf  Hf34  1  0.50725732  0.11042557  0.35241722  1
  Hf  Hf35  1  0.01195255  0.21073238  0.49141573  1
  Hf  Hf36  1  0.01083452  0.61818077  0.25566444  1
  Hf  Hf37  1  0.00387685  0.60274768  0.73658439  1
  Hf  Hf38  1  0.39777178  0.39393282  0.51837190  1
  Hf  Hf39  1  0.70236766  0.10258400  0.35205042  1
  Zr  Zr40  1  0.79863902  0.59928287  0.25598248  1
  Zr  Zr41  1  0.09362102  0.09255429  0.86881584  1
  Zr  Zr42  1  0.20747917  0.19679003  0.49204114  1
  Zr  Zr43  1  0.68913062  0.09823831  0.63213090  1
  Zr  Zr44  1  0.40639122  0.19311875  0.76171706  1
  Zr  Zr45  1  -0.00359761  0.19020416  0.00208329  1
  Zr  Zr46  1  0.70026823  0.09457432  0.88166723  1
  Zr  Zr47  1  0.49310742  0.70382478  0.88189550  1
  Zr  Zr48  1  0.40560814  0.20953452  0.23551133  1
  Zr  Zr49  1  0.80161699  0.21011592  0.23807850  1
  Zr  Zr50  1  0.18307645  -0.00571840  0.02387027  1
  Zr  Zr51  1  -0.01014344  0.80661384  0.73180927  1
  Zr  Zr52  1  0.10392734  0.31162824  0.10719490  1
  Zr  Zr53  1  0.60897008  0.81164651  -0.01071782  1
  Zr  Zr54  1  0.30420608  0.69610185  0.13399328  1
  Zr  Zr55  1  0.30200000  0.30544336  0.89276368  1
  Zr  Zr56  1  0.81789285  0.17847421  0.74410806  1
  Zr  Zr57  1  0.89298493  0.71773370  0.86555812  1
  Zr  Zr58  1  0.09391190  0.89288109  0.39331684  1
  Zr  Zr59  1  0.69542887  0.29326437  0.86964474  1
  Zr  Zr60  1  -0.00690359  0.60131123  -0.02243198  1
  Zr  Zr61  1  0.00247893  0.41091710  0.25088133  1
  Zr  Zr62  1  0.11144759  0.09768491  0.36068051  1
  Zr  Zr63  1  0.30295688  0.89724856  0.88673376  1
  Zr  Zr64  1  0.90833877  0.71149948  0.11692327  1
  Zr  Zr65  1  0.59590126  0.60915606  0.23935548  1
  Zr  Zr66  1  0.69858890  0.50458620  0.62219660  1
  Zr  Zr67  1  0.30062012  0.90510432  0.61274432  1
  Zr  Zr68  1  0.60100658  -0.00219252  0.48263789  1
  Zr  Zr69  1  0.19708673  0.39166180  0.51026710  1
  Zr  Zr70  1  0.90215968  0.09855863  0.36848502  1
  Zr  Zr71  1  0.79743622  0.80483092  0.26785050  1
  Zr  Zr72  1  0.58649422  -0.00427361  0.76659986  1
  Zr  Zr73  1  0.00947307  0.20979372  0.24488502  1
  Zr  Zr74  1  0.89267160  0.08685244  0.12877312  1
  Zr  Zr75  1  0.19718612  0.59262872  0.25435908  1
  Zr  Zr76  1  0.59508444  0.40741175  0.23807387  1
  Zr  Zr77  1  0.79811409  0.00029192  0.50222142  1
  Zr  Zr78  1  0.89682073  0.50555878  0.40106845  1
  Zr  Zr79  1  0.70476604  0.70753341  0.11870659  1
  Ta  Ta80  1  0.49719205  0.70408235  0.39256858  1
  Ta  Ta81  1  0.29747449  0.09647383  0.63682127  1
  Ta  Ta82  1  0.90768432  0.29684015  0.62596275  1
  Ta  Ta83  1  0.49836534  0.89946704  0.60755497  1
  Ta  Ta84  1  0.29481423  0.28691347  0.64108402  1
  Ta  Ta85  1  0.79449776  0.80233694  0.51104756  1
  Ta  Ta86  1  0.19672577  0.19486014  0.00931626  1
  Ta  Ta87  1  0.79577400  0.60117871  -0.01885831  1
  Ta  Ta88  1  0.50086401  0.89425680  0.12428796  1
  Ta  Ta89  1  0.10550139  0.70285751  0.86500322  1
  Ta  Ta90  1  0.19749412  0.59749963  0.52378788  1
  Ta  Ta91  1  0.09078269  0.89932521  0.86695919  1
  Ta  Ta92  1  0.60464069  0.41007033  -0.00592646  1
  Ta  Ta93  1  0.10192937  0.29597454  0.87017421  1
  Ta  Ta94  1  0.10407500  0.91188983  0.62395793  1
  Ta  Ta95  1  0.30482948  0.09739824  0.12534821  1
  Ta  Ta96  1  0.72942641  0.90279489  0.85675395  1
  Ta  Ta97  1  0.30131395  0.30535955  0.11224420  1
  Ta  Ta98  1  0.50386888  0.30771241  0.37355068  1
  Ta  Ta99  1  0.69612021  0.89773856  0.63327979  1
  Ta  Ta100  1  0.40619091  0.80262304  0.74515915  1
  Ta  Ta101  1  0.10011063  0.29695452  0.65208674  1
  Ta  Ta102  1  0.80094138  0.20075563  0.50357577  1
  Ta  Ta103  1  0.49568054  0.09668612  0.91276043  1
  Ta  Ta104  1  0.10473277  0.50634950  0.10275338  1
  Ta  Ta105  1  0.19752587  0.39746243  0.24790900  1
  Ta  Ta106  1  0.49364291  0.09465271  0.61868822  1
  Ta  Ta107  1  0.30215348  0.50773106  0.87488198  1
  Ta  Ta108  1  0.59370752  0.60592047  0.73784525  1
  Ta  Ta109  1  0.59055468  0.39523442  0.51534363  1
  Ta  Ta110  1  0.69575033  0.51200818  0.85808908  1
  Ta  Ta111  1  0.79855942  0.19472604  0.00620876  1
  Ta  Ta112  1  0.90024367  0.49677093  0.62083347  1
  Ta  Ta113  1  0.50183517  0.29610614  0.89698102  1
  Ta  Ta114  1  0.70292660  0.70293386  0.85925670  1
  Ta  Ta115  1  0.50724824  0.09346700  0.12451359  1
  Ta  Ta116  1  0.60683852  0.60351603  -0.00392337  1
  Ta  Ta117  1  0.30527569  0.70506376  0.62554737  1
  Ta  Ta118  1  0.40411895  0.60494437  0.73922555  1
  Ta  Ta119  1  0.49569363  0.50851078  0.10504579  1
  Ti  Ti120  1  0.19435533  0.79129502  0.50832615  1
  Ti  Ti121  1  0.39324211  0.60900171  -0.00338704  1
  Ti  Ti122  1  0.58637653  0.19177376  0.76117727  1
  Ti  Ti123  1  0.29295447  0.49982658  0.64473311  1
  Ti  Ti124  1  0.80120302  0.81410609  -0.00252895  1
  Ti  Ti125  1  0.61398491  -0.00694968  0.00937861  1
  Ti  Ti126  1  0.60821902  -0.01163554  0.24358792  1
  Ti  Ti127  1  0.59822536  0.80050313  0.25421846  1
  Ti  Ti128  1  0.29839529  0.69407834  0.86226773  1
  Ti  Ti129  1  0.89891823  0.89968241  0.38502809  1
  Ti  Ti130  1  0.50752511  0.71040055  0.60909844  1
  Ti  Ti131  1  0.89078419  0.89245455  0.12641258  1
  Ti  Ti132  1  0.59360898  0.39805955  0.75110880  1
  Ti  Ti133  1  -0.01031655  -0.01517080  0.00347162  1
  Ti  Ti134  1  0.49420002  0.70768758  0.11571947  1
  Ti  Ti135  1  0.59743917  0.19919121  0.49914181  1
  Ti  Ti136  1  0.70409015  0.50364989  0.11667411  1
  Ti  Ti137  1  0.00861461  0.39929543  0.51809818  1
  Ti  Ti138  1  0.40484775  -0.00446846  0.24998943  1
  Ti  Ti139  1  0.09649548  0.69159318  0.10221509  1
  Ti  Ti140  1  0.07810914  0.87484845  0.11840175  1
  Ti  Ti141  1  -0.00203708  0.40117101  0.75363584  1
  Ti  Ti142  1  0.88523340  0.07649126  0.89036814  1
  Ti  Ti143  1  0.80247780  0.61222334  0.73638814  1
  Ti  Ti144  1  0.50105897  0.88784178  0.37471706  1
  Ti  Ti145  1  0.01051002  0.60591189  0.52791793  1
  Ti  Ti146  1  0.20047355  0.19906703  0.23346688  1
  Ti  Ti147  1  0.60442308  0.19703040  0.01458780  1
  Ti  Ti148  1  0.90430958  0.28312645  0.86684757  1
  Ti  Ti149  1  0.19840137  -0.00468743  0.23862734  1
  Ti  Ti150  1  0.40929968  0.60091944  0.24936181  1
  Ti  Ti151  1  0.49761348  0.30844653  0.10606217  1
  Ti  Ti152  1  0.20390540  0.39680364  0.75188235  1
  Ti  Ti153  1  0.50244654  0.28746692  0.62906775  1
  Ti  Ti154  1  0.20457751  0.00753162  0.49075111  1
  Ti  Ti155  1  0.00221519  0.79967322  0.52232970  1
  Ti  Ti156  1  0.40258294  0.40838203  0.23820526  1
  Ti  Ti157  1  0.89635047  0.31272777  0.11949052  1
  Ti  Ti158  1  -0.00012359  0.00740815  0.50703322  1
  Ti  Ti159  1  0.20517259  0.19391657  0.76635434  1
  Mo  Mo160  1  0.40530947  0.40505602  0.00050194  1
  Mo  Mo161  1  0.20771903  0.60307640  0.74245158  1
  Mo  Mo162  1  0.70136405  0.90231303  0.13848017  1
  Mo  Mo163  1  0.00076267  0.20282035  0.75684540  1
  Mo  Mo164  1  0.10229165  0.49262657  0.63713337  1
  Mo  Mo165  1  0.79966432  0.39086944  0.52427102  1
  Mo  Mo166  1  0.69334542  0.09952383  0.12962643  1
  Mo  Mo167  1  0.89397713  0.50868929  0.84934096  1
  Mo  Mo168  1  0.49935270  0.49407660  0.63987503  1
  Mo  Mo169  1  0.90638187  0.10855389  0.60174910  1
  Mo  Mo170  1  0.00359339  0.80554951  -0.01742256  1
  Mo  Mo171  1  0.89941898  0.90380793  0.60139805  1
  Mo  Mo172  1  0.79876986  0.40939184  0.24151246  1
  Mo  Mo173  1  0.20290781  0.60306019  -0.01446547  1
  Mo  Mo174  1  0.10079850  0.09325901  0.13219970  1
  Mo  Mo175  1  0.40223835  0.19835558  0.01616059  1
  Mo  Mo176  1  0.80281233  -0.00651019  0.72956501  1
  Mo  Mo177  1  0.60019410  0.80571159  0.50398277  1
  Mo  Mo178  1  0.79100136  -0.00974263  0.01714514  1
  Mo  Mo179  1  0.39914303  0.80076914  0.49985425  1
  Mo  Mo180  1  0.49413055  0.90586720  0.90151934  1
  Mo  Mo181  1  0.41932462  0.79235330  0.26018260  1
  Mo  Mo182  1  0.80284955  0.60318969  0.51806869  1
  Mo  Mo183  1  0.69615572  0.70582242  0.62909427  1
  Mo  Mo184  1  -0.00535250  0.79778976  0.26107041  1
  Mo  Mo185  1  0.40196382  0.79686142  -0.00058399  1
  Mo  Mo186  1  0.30116784  0.09195420  0.34057032  1
  Mo  Mo187  1  0.89653399  0.69933950  0.61514688  1
  Mo  Mo188  1  0.59696729  0.20467113  0.22800615  1
  Mo  Mo189  1  0.90090337  0.90717428  0.88061726  1
  Mo  Mo190  1  0.59570358  0.60025623  0.52091499  1
  Mo  Mo191  1  0.69568263  0.89634584  0.36677492  1
  Mo  Mo192  1  0.79684435  -0.00774937  0.24754362  1
  Mo  Mo193  1  0.10488199  0.30691512  0.36279742  1
  Mo  Mo194  1  0.09977906  0.69542379  0.40773274  1
  Mo  Mo195  1  0.19846322  0.40118753  -0.01459824  1
  Mo  Mo196  1  0.40330824  -0.00534692  0.02242861  1
  Mo  Mo197  1  0.10649560  0.70448770  0.62692118  1
  Mo  Mo198  1  0.79834608  0.80179366  0.72741461  1
  Mo  Mo199  1  0.19658382  -0.00220467  0.75018286  1
