# generated using pymatgen
data_HfZrTaTiMo
_symmetry_space_group_name_H-M   'P 1'
_cell_length_a   15.93635455
_cell_length_b   15.92616056
_cell_length_c   15.22143712
_cell_angle_alpha   90.02334827
_cell_angle_beta   90.01606369
_cell_angle_gamma   90.10954862
_symmetry_Int_Tables_number   1
_chemical_formula_structural   HfZrTaTiMo
_chemical_formula_sum   'Hf40 Zr40 Ta40 Ti40 Mo40'
_cell_volume   3863.26842134
_cell_formula_units_Z   40
loop_
 _symmetry_equiv_pos_site_id
 _symmetry_equiv_pos_as_xyz
  1  'x, y, z'
loop_
 _atom_site_type_symbol
 _atom_site_label
 _atom_site_symmetry_multiplicity
 _atom_site_fract_x
 _atom_site_fract_y
 _atom_site_fract_z
 _atom_site_occupancy
  Hf  Hf0  1  0.79756016  0.58820599  0.24780720  1
  Hf  Hf1  1  0.19923053  0.60328214  0.49540955  1
  Hf  Hf2  1  0.59970065  0.60023876  0.25549609  1
  Hf  Hf3  1  0.50598100  0.08772362  0.11842471  1
  Hf  Hf4  1  0.39993254  0.40648214  -0.00277190  1
  Hf  Hf5  1  0.49201628  0.50488183  0.63275758  1
  Hf  Hf6  1  0.89799891  0.49705433  0.88931569  1
  Hf  Hf7  1  0.50611390  0.10945196  0.38071833  1
  Hf  Hf8  1  0.42268634  0.21251548  0.50954497  1
  Hf  Hf9  1  0.40616372  -0.01673250  -0.01884115  1
  Hf  Hf10  1  0.19216533  0.60860633  0.25263067  1
  Hf  Hf11  1  0.59641987  0.60433074  0.00460966  1
  Hf  Hf12  1  0.20947094  0.60129274  0.00519965  1
  Hf  Hf13  1  0.88949160  0.49506538  0.60514243  1
  Hf  Hf14  1  0.19601259  0.40053693  0.74085171  1
  Hf  Hf15  1  0.09555232  0.49837694  0.38142054  1
  Hf  Hf16  1  0.80066387  -0.00136803  0.49309775  1
  Hf  Hf17  1  0.20529087  0.20740065  0.26104811  1
  Hf  Hf18  1  0.69992583  0.11447821  0.38352523  1
  Hf  Hf19  1  0.70020407  0.09259075  0.12057311  1
  Hf  Hf20  1  0.60946748  0.81114165  0.49254062  1
  Hf  Hf21  1  0.88247782  0.69199505  0.59049200  1
  Hf  Hf22  1  0.39939714  0.58932542  0.48027766  1
  Hf  Hf23  1  0.20874210  0.59023029  0.74514262  1
  Hf  Hf24  1  0.29925244  0.08825333  0.11204127  1
  Hf  Hf25  1  0.49590776  0.71328249  0.13108750  1
  Hf  Hf26  1  0.49519611  0.49826894  0.13172992  1
  Hf  Hf27  1  0.71679865  0.70285517  0.38702084  1
  Hf  Hf28  1  0.60351873  0.80410058  0.76125483  1
  Hf  Hf29  1  0.91192829  0.69002448  0.38122625  1
  Hf  Hf30  1  -0.00944400  0.39856966  0.73602006  1
  Hf  Hf31  1  0.51028889  0.29963020  0.86535553  1
  Hf  Hf32  1  0.30846618  0.89754591  0.62830223  1
  Hf  Hf33  1  0.79884904  0.60005060  0.75460756  1
  Hf  Hf34  1  0.49568967  0.90697308  0.62518376  1
  Hf  Hf35  1  0.60626316  0.40009053  0.00516076  1
  Hf  Hf36  1  0.77940735  0.37315696  0.49059444  1
  Hf  Hf37  1  0.29989555  0.30598597  0.12473032  1
  Hf  Hf38  1  0.19451712  0.80239716  0.50829235  1
  Hf  Hf39  1  0.70315958  0.90685757  0.62658113  1
  Zr  Zr40  1  0.40291653  0.20006780  0.25160491  1
  Zr  Zr41  1  0.38913992  0.41033725  0.75251188  1
  Zr  Zr42  1  0.09622162  0.49761105  0.88277551  1
  Zr  Zr43  1  0.60634309  0.61373426  0.75883506  1
  Zr  Zr44  1  -0.00102563  -0.01182009  0.50417418  1
  Zr  Zr45  1  0.10223922  0.10002097  0.13200551  1
  Zr  Zr46  1  -0.00321392  0.20873883  0.73636129  1
  Zr  Zr47  1  -0.00258882  0.60063711  0.73829676  1
  Zr  Zr48  1  0.89975538  0.09005588  0.13700090  1
  Zr  Zr49  1  0.39471503  -0.00987102  0.25998320  1
  Zr  Zr50  1  0.31786705  0.69385816  0.62487558  1
  Zr  Zr51  1  0.59479549  0.59037686  0.47888271  1
  Zr  Zr52  1  0.21732605  0.80900121  0.24870603  1
  Zr  Zr53  1  0.00762992  0.79002828  0.24907736  1
  Zr  Zr54  1  0.79664263  0.78789130  0.74090669  1
  Zr  Zr55  1  0.80124201  0.20760145  0.00266983  1
  Zr  Zr56  1  -0.00697223  0.38328128  0.50422794  1
  Zr  Zr57  1  0.69496187  0.50274996  0.61442712  1
  Zr  Zr58  1  0.21221855  0.00420822  0.27229155  1
  Zr  Zr59  1  -0.00091392  0.00244657  -0.00663945  1
  Zr  Zr60  1  0.30776663  0.09836665  0.62735819  1
  Zr  Zr61  1  0.09039559  0.10049988  0.37180058  1
  Zr  Zr62  1  0.00072865  0.40393518  0.24144989  1
  Zr  Zr63  1  0.29464238  0.29561897  0.87381724  1
  Zr  Zr64  1  0.09299421  0.30004431  0.87820203  1
  Zr  Zr65  1  0.19981336  0.79141220  0.74740994  1
  Zr  Zr66  1  0.79002305  -0.01365400  -0.01237216  1
  Zr  Zr67  1  0.90006328  0.88886575  0.86836349  1
  Zr  Zr68  1  -0.01037678  0.19397438  0.50570777  1
  Zr  Zr69  1  0.00296082  0.79335679  0.72846745  1
  Zr  Zr70  1  0.20707058  0.19877566  0.49412198  1
  Zr  Zr71  1  0.09016528  0.69845540  0.88746234  1
  Zr  Zr72  1  0.31689272  0.32772273  0.38210778  1
  Zr  Zr73  1  0.09721177  0.10292237  0.86261488  1
  Zr  Zr74  1  0.89248444  0.69921094  0.12238210  1
  Zr  Zr75  1  0.40689590  0.20081033  -0.00183915  1
  Zr  Zr76  1  0.38502260  0.59432748  0.25358698  1
  Zr  Zr77  1  0.10408131  0.90914344  0.12945939  1
  Zr  Zr78  1  0.59622258  0.82635560  -0.01024150  1
  Zr  Zr79  1  0.50614335  0.70529090  0.61656453  1
  Ta  Ta80  1  0.60141371  -0.00126492  0.26342324  1
  Ta  Ta81  1  0.30374073  0.71281995  0.37918375  1
  Ta  Ta82  1  0.69508085  0.90086989  0.13754697  1
  Ta  Ta83  1  0.39906480  0.79896691  -0.01851265  1
  Ta  Ta84  1  0.10493730  0.70314652  0.11462367  1
  Ta  Ta85  1  0.89393667  0.29254473  0.36388183  1
  Ta  Ta86  1  -0.00150053  0.20511248  0.01131693  1
  Ta  Ta87  1  0.89380159  0.89984270  0.13607226  1
  Ta  Ta88  1  0.49842026  0.50926921  0.87112951  1
  Ta  Ta89  1  0.20038449  -0.00668522  0.75136803  1
  Ta  Ta90  1  -0.00067283  0.20470899  0.24481921  1
  Ta  Ta91  1  0.09901479  0.49843053  0.60973123  1
  Ta  Ta92  1  0.70900374  0.11703899  0.62244215  1
  Ta  Ta93  1  0.71260209  0.70786569  0.90161233  1
  Ta  Ta94  1  0.49841568  0.90292362  0.38310985  1
  Ta  Ta95  1  0.19644305  0.19558873  -0.00003356  1
  Ta  Ta96  1  0.20001777  -0.00351825  0.50064013  1
  Ta  Ta97  1  0.70252938  0.49996883  0.88286582  1
  Ta  Ta98  1  0.69636763  0.71047581  0.12389573  1
  Ta  Ta99  1  -0.00538273  0.39372222  0.01716728  1
  Ta  Ta100  1  -0.00356849  0.59158967  0.02327555  1
  Ta  Ta101  1  0.09920168  0.08939038  0.63280433  1
  Ta  Ta102  1  0.30068386  0.09957337  0.86668499  1
  Ta  Ta103  1  0.69354462  0.10668697  0.87874731  1
  Ta  Ta104  1  0.09741966  0.89794715  0.86709382  1
  Ta  Ta105  1  0.09722641  0.89447639  0.37277058  1
  Ta  Ta106  1  0.89242395  0.09361761  0.63942919  1
  Ta  Ta107  1  0.58349680  0.38204984  0.49052291  1
  Ta  Ta108  1  0.79453001  0.39721504  0.75505837  1
  Ta  Ta109  1  0.60228624  0.80679360  0.26246689  1
  Ta  Ta110  1  0.60152137  0.20420622  0.23455564  1
  Ta  Ta111  1  0.89761048  0.10653535  0.86292662  1
  Ta  Ta112  1  0.79259438  0.00364513  0.75742471  1
  Ta  Ta113  1  0.59937657  0.00944015  0.75366266  1
  Ta  Ta114  1  0.21007810  0.80799927  -0.00568072  1
  Ta  Ta115  1  0.79596124  0.20180596  0.24912520  1
  Ta  Ta116  1  0.40959620  0.19636959  0.74284973  1
  Ta  Ta117  1  -0.00064950  0.80376538  0.00972528  1
  Ta  Ta118  1  0.71097740  0.31848103  0.13534881  1
  Ta  Ta119  1  0.20685216  -0.00739394  -0.02102910  1
  Ti  Ti120  1  0.11018260  0.29579059  0.61512297  1
  Ti  Ti121  1  0.40583535  0.00413384  0.75900795  1
  Ti  Ti122  1  0.89964433  0.90332926  0.63050998  1
  Ti  Ti123  1  0.49528773  0.89808921  0.13661970  1
  Ti  Ti124  1  0.59703191  0.39498967  0.24832744  1
  Ti  Ti125  1  0.00779836  0.79668534  0.50628078  1
  Ti  Ti126  1  0.50724472  0.10353692  0.87760878  1
  Ti  Ti127  1  0.60224594  0.20853744  0.01246314  1
  Ti  Ti128  1  0.40903664  0.79565879  0.77155977  1
  Ti  Ti129  1  0.30688489  0.69221733  0.87124014  1
  Ti  Ti130  1  0.20060926  0.40211173  -0.00054125  1
  Ti  Ti131  1  0.21534844  0.41775032  0.24796222  1
  Ti  Ti132  1  0.89998391  0.09953816  0.36499336  1
  Ti  Ti133  1  0.10556372  0.30225546  0.12587473  1
  Ti  Ti134  1  0.89732526  0.30123282  0.87883294  1
  Ti  Ti135  1  0.39860744  0.60301394  -0.00282325  1
  Ti  Ti136  1  0.00075670  0.59422264  0.23655663  1
  Ti  Ti137  1  0.60412277  0.19682176  0.73954847  1
  Ti  Ti138  1  0.60728032  0.40897269  0.75493641  1
  Ti  Ti139  1  0.59783058  0.01327328  0.50775951  1
  Ti  Ti140  1  0.69674410  0.48395590  0.36889345  1
  Ti  Ti141  1  0.30808627  0.71239551  0.12440415  1
  Ti  Ti142  1  0.51029012  0.30634634  0.64068711  1
  Ti  Ti143  1  0.47938790  0.47042433  0.36238897  1
  Ti  Ti144  1  0.89861669  0.89041019  0.37084409  1
  Ti  Ti145  1  0.70183811  0.29881050  0.86872650  1
  Ti  Ti146  1  0.49490865  0.71131899  0.36962776  1
  Ti  Ti147  1  0.86464670  0.28008268  0.63026089  1
  Ti  Ti148  1  0.79533499  0.80201096  0.25163325  1
  Ti  Ti149  1  0.39773825  0.00601369  0.49426380  1
  Ti  Ti150  1  0.87624065  0.47942504  0.11967955  1
  Ti  Ti151  1  0.30530826  0.30926557  0.61884077  1
  Ti  Ti152  1  0.89689649  0.49330253  0.38174951  1
  Ti  Ti153  1  0.79086340  0.59120019  0.01415617  1
  Ti  Ti154  1  0.79486533  -0.00521593  0.26318811  1
  Ti  Ti155  1  0.10778241  0.49713115  0.12286774  1
  Ti  Ti156  1  0.89564061  0.30082473  0.13451651  1
  Ti  Ti157  1  0.20657504  0.19949541  0.74039257  1
  Ti  Ti158  1  0.89741242  0.69528921  0.89842841  1
  Ti  Ti159  1  0.10005879  0.30640157  0.37557970  1
  Mo  Mo160  1  0.20071777  0.39964716  0.51029355  1
  Mo  Mo161  1  0.31003619  0.89379378  0.10948991  1
  Mo  Mo162  1  0.70108486  0.90640620  0.36752013  1
  Mo  Mo163  1  0.50088574  0.70086126  0.88625400  1
  Mo  Mo164  1  0.79876811  0.80173199  0.01232582  1
  Mo  Mo165  1  0.80788066  0.81400892  0.49987971  1
  Mo  Mo166  1  -0.01069326  -0.00712193  0.26681927  1
  Mo  Mo167  1  0.70098519  0.90501313  0.86053056  1
  Mo  Mo168  1  0.61125804  0.21297106  0.51779029  1
  Mo  Mo169  1  0.69253673  0.29795303  0.35513682  1
  Mo  Mo170  1  0.40098471  0.60432794  0.76721759  1
  Mo  Mo171  1  0.79520356  0.58027303  0.47503200  1
  Mo  Mo172  1  0.29729785  0.49453531  0.60758272  1
  Mo  Mo173  1  0.69857393  0.50218162  0.13051641  1
  Mo  Mo174  1  0.49926261  0.90576858  0.85459344  1
  Mo  Mo175  1  0.79793431  0.39663171  -0.01169977  1
  Mo  Mo176  1  0.29450335  0.50281860  0.11355675  1
  Mo  Mo177  1  0.40421667  0.80360524  0.48876069  1
  Mo  Mo178  1  0.50710116  0.30015112  0.13075038  1
  Mo  Mo179  1  0.30108760  0.50533933  0.88949863  1
  Mo  Mo180  1  0.50843907  0.09862496  0.62664031  1
  Mo  Mo181  1  0.39911149  0.39992920  0.23045798  1
  Mo  Mo182  1  0.09254639  0.69220409  0.60836968  1
  Mo  Mo183  1  0.79753681  0.39789886  0.26436303  1
  Mo  Mo184  1  0.70357462  0.70330228  0.60030527  1
  Mo  Mo185  1  0.29952839  0.89591338  0.85793730  1
  Mo  Mo186  1  0.69181958  0.30234013  0.64089516  1
  Mo  Mo187  1  0.59784076  0.00582627  -0.01522850  1
  Mo  Mo188  1  0.10083074  0.90283897  0.63336790  1
  Mo  Mo189  1  0.00185021  0.59404225  0.49784115  1
  Mo  Mo190  1  0.29482170  0.50071993  0.38106291  1
  Mo  Mo191  1  0.79413912  0.20091898  0.76701246  1
  Mo  Mo192  1  0.30633114  0.10421474  0.39710717  1
  Mo  Mo193  1  0.30369054  0.90054673  0.40100736  1
  Mo  Mo194  1  0.40488350  0.80256161  0.26221646  1
  Mo  Mo195  1  0.40627371  0.40083410  0.51839138  1
  Mo  Mo196  1  -0.00341089  -0.00234733  0.74340774  1
  Mo  Mo197  1  0.50835628  0.30064394  0.36148297  1
  Mo  Mo198  1  0.09940338  0.70342645  0.38168772  1
  Mo  Mo199  1  0.80330813  0.19605233  0.48980989  1
