# generated using pymatgen
data_HfZrTaTiMo
_symmetry_space_group_name_H-M   'P 1'
_cell_length_a   15.93325587
_cell_length_b   15.92461140
_cell_length_c   15.21991939
_cell_angle_alpha   90.03448421
_cell_angle_beta   90.00325396
_cell_angle_gamma   90.10384264
_symmetry_Int_Tables_number   1
_chemical_formula_structural   HfZrTaTiMo
_chemical_formula_sum   'Hf40 Zr40 Ta40 Ti40 Mo40'
_cell_volume   3861.75691949
_cell_formula_units_Z   40
loop_
 _symmetry_equiv_pos_site_id
 _symmetry_equiv_pos_as_xyz
  1  'x, y, z'
loop_
 _atom_site_type_symbol
 _atom_site_label
 _atom_site_symmetry_multiplicity
 _atom_site_fract_x
 _atom_site_fract_y
 _atom_site_fract_z
 _atom_site_occupancy
  Hf  Hf0  1  0.29116055  0.70122842  0.86461467  1
  Hf  Hf1  1  0.80353628  0.20522705  0.75219107  1
  Hf  Hf2  1  0.31433273  0.08767033  0.62633580  1
  Hf  Hf3  1  0.09496617  0.69432708  0.86271350  1
  Hf  Hf4  1  0.19582588  0.59345647  0.01016227  1
  Hf  Hf5  1  0.01250689  0.01060532  0.51328891  1
  Hf  Hf6  1  0.69042704  0.49094241  0.87553989  1
  Hf  Hf7  1  0.48874851  0.71447448  0.62829006  1
  Hf  Hf8  1  0.60404157  0.20317074  0.74719056  1
  Hf  Hf9  1  0.30089512  0.88203882  0.36537129  1
  Hf  Hf10  1  0.78862659  -0.00106167  0.50834492  1
  Hf  Hf11  1  0.70926362  0.11302846  0.11563110  1
  Hf  Hf12  1  0.60231210  0.19401696  0.49653412  1
  Hf  Hf13  1  0.10350042  0.29592302  0.14517483  1
  Hf  Hf14  1  0.60803283  0.40652473  0.50157457  1
  Hf  Hf15  1  0.58900478  0.58791493  0.74677746  1
  Hf  Hf16  1  0.59121130  0.00040292  0.00044658  1
  Hf  Hf17  1  0.60627149  0.39797716  0.72732543  1
  Hf  Hf18  1  0.70105612  0.09388823  0.36660492  1
  Hf  Hf19  1  0.51028088  0.31167417  0.88814681  1
  Hf  Hf20  1  0.79974178  0.60265595  -0.01474287  1
  Hf  Hf21  1  0.19665020  0.39527317  0.72703909  1
  Hf  Hf22  1  0.69091084  0.70740037  0.64624984  1
  Hf  Hf23  1  -0.00113733  0.20530041  0.74279869  1
  Hf  Hf24  1  0.30219383  0.49377980  0.13913665  1
  Hf  Hf25  1  0.89721810  0.52007400  0.14956400  1
  Hf  Hf26  1  0.70459009  0.50905230  0.35211878  1
  Hf  Hf27  1  0.70730593  0.88349785  0.36524459  1
  Hf  Hf28  1  0.18910985  0.59732728  0.23963669  1
  Hf  Hf29  1  0.40632620  -0.00832890  0.24219656  1
  Hf  Hf30  1  0.58050804  0.01021964  0.77333483  1
  Hf  Hf31  1  0.80322997  0.80952368  0.76103109  1
  Hf  Hf32  1  0.60761196  0.79899835  0.49703964  1
  Hf  Hf33  1  0.29613632  0.29250978  0.87536098  1
  Hf  Hf34  1  0.29242251  0.49257135  0.87960111  1
  Hf  Hf35  1  0.80845522  -0.00602509  0.23673903  1
  Hf  Hf36  1  -0.00127952  0.40441991  0.27333086  1
  Hf  Hf37  1  0.70416453  0.31025749  0.36686282  1
  Hf  Hf38  1  0.89734343  0.90006790  0.38621909  1
  Hf  Hf39  1  0.00003959  0.40431990  0.72784354  1
  Zr  Zr40  1  -0.00404530  0.00642238  0.74146148  1
  Zr  Zr41  1  0.10794090  0.50180567  0.37874057  1
  Zr  Zr42  1  0.41200489  0.40235572  0.75111657  1
  Zr  Zr43  1  0.59288326  0.59681575  0.00614235  1
  Zr  Zr44  1  0.40495665  0.40287901  0.01166175  1
  Zr  Zr45  1  -0.00687833  0.60005737  0.49529972  1
  Zr  Zr46  1  0.06763149  0.69388036  0.11898882  1
  Zr  Zr47  1  0.59689227  -0.00152040  0.23571654  1
  Zr  Zr48  1  0.10888730  0.70587103  0.37753058  1
  Zr  Zr49  1  0.49504348  0.90817927  0.62749523  1
  Zr  Zr50  1  0.19510813  -0.01328545  0.72594479  1
  Zr  Zr51  1  0.31200133  0.29124649  0.62239620  1
  Zr  Zr52  1  0.78753710  0.61578370  0.49665048  1
  Zr  Zr53  1  0.39253113  0.59316539  0.74480198  1
  Zr  Zr54  1  0.41869484  0.18811095  0.76210555  1
  Zr  Zr55  1  0.20699270  0.39171701  0.49119721  1
  Zr  Zr56  1  0.59219690  0.19889395  0.25119337  1
  Zr  Zr57  1  0.10630392  0.30345877  0.87913899  1
  Zr  Zr58  1  0.19641572  0.18337920  0.01832921  1
  Zr  Zr59  1  0.80717748  0.00203148  -0.00497388  1
  Zr  Zr60  1  0.08866864  0.49316997  0.87790605  1
  Zr  Zr61  1  0.49087471  0.70656132  0.36878592  1
  Zr  Zr62  1  0.71577135  0.69754356  0.13377897  1
  Zr  Zr63  1  0.40379221  0.19348788  0.47290999  1
  Zr  Zr64  1  0.90786303  0.11249301  0.12532112  1
  Zr  Zr65  1  0.59221347  0.80386898  0.23465908  1
  Zr  Zr66  1  0.89952608  0.70411688  0.63793646  1
  Zr  Zr67  1  0.11235359  0.89722602  0.88197445  1
  Zr  Zr68  1  0.70742142  0.30133094  0.89461190  1
  Zr  Zr69  1  0.70692246  0.31049021  0.13003796  1
  Zr  Zr70  1  0.01560857  0.00747110  0.00901997  1
  Zr  Zr71  1  0.20325864  0.79710490  0.01272716  1
  Zr  Zr72  1  0.10565816  0.10126785  0.86748020  1
  Zr  Zr73  1  0.38698617  0.61154225  0.49719326  1
  Zr  Zr74  1  0.90300137  0.31234976  0.12698224  1
  Zr  Zr75  1  0.29975156  0.08493635  0.87524901  1
  Zr  Zr76  1  0.49215228  0.71071407  0.86971118  1
  Zr  Zr77  1  0.10570188  0.89726071  0.37042524  1
  Zr  Zr78  1  0.19937973  0.18642194  0.48689769  1
  Zr  Zr79  1  0.00283595  0.80527354  0.51037046  1
  Ta  Ta80  1  0.59815765  0.80053401  -0.00064346  1
  Ta  Ta81  1  0.50163408  0.50259814  0.37000368  1
  Ta  Ta82  1  0.81474536  0.41883605  0.00023621  1
  Ta  Ta83  1  0.70734615  0.89426265  0.10902566  1
  Ta  Ta84  1  0.80181371  0.39962787  0.74150373  1
  Ta  Ta85  1  0.39905693  0.19887500  0.00901741  1
  Ta  Ta86  1  -0.00346651  0.40178466  0.49680828  1
  Ta  Ta87  1  0.40706098  0.39521091  0.25513984  1
  Ta  Ta88  1  0.10303943  0.69899445  0.63463109  1
  Ta  Ta89  1  0.30012984  0.29336384  0.14391566  1
  Ta  Ta90  1  0.40020934  0.19384161  0.25700846  1
  Ta  Ta91  1  0.79735569  0.59156649  0.75781084  1
  Ta  Ta92  1  0.90643221  0.87766853  0.10923946  1
  Ta  Ta93  1  0.69571357  0.90090603  0.87626950  1
  Ta  Ta94  1  0.90804703  0.90230848  0.87774165  1
  Ta  Ta95  1  0.00245683  0.20886644  -0.00005039  1
  Ta  Ta96  1  0.49568294  0.49960915  0.60003913  1
  Ta  Ta97  1  0.20512674  -0.01206003  0.50787816  1
  Ta  Ta98  1  0.69201100  0.90629170  0.64702804  1
  Ta  Ta99  1  0.90336220  0.09749109  0.38102321  1
  Ta  Ta100  1  0.70104187  0.10658432  0.88439217  1
  Ta  Ta101  1  0.39856322  0.59958456  0.00308258  1
  Ta  Ta102  1  0.81086815  0.20428589  0.26401615  1
  Ta  Ta103  1  0.89557530  0.11145524  0.61260561  1
  Ta  Ta104  1  0.69354437  0.70398805  0.86700635  1
  Ta  Ta105  1  0.89237112  0.90789417  0.62942616  1
  Ta  Ta106  1  0.09329371  0.89339196  0.12611848  1
  Ta  Ta107  1  0.19881898  -0.00446455  0.23387753  1
  Ta  Ta108  1  0.10244094  0.09255203  0.36417512  1
  Ta  Ta109  1  0.30527153  0.50178254  0.36319844  1
  Ta  Ta110  1  0.00323081  0.20073912  0.27034094  1
  Ta  Ta111  1  0.30928260  0.89268544  0.86866292  1
  Ta  Ta112  1  0.19256389  0.58621056  0.73069311  1
  Ta  Ta113  1  -0.02329492  0.78717802  0.25812723  1
  Ta  Ta114  1  0.09130978  0.28877397  0.60065875  1
  Ta  Ta115  1  0.90870717  0.31578029  0.88388311  1
  Ta  Ta116  1  0.30804019  0.69655092  0.13522175  1
  Ta  Ta117  1  -0.00002127  -0.00546557  0.24445660  1
  Ta  Ta118  1  0.60031552  0.60277693  0.49821649  1
  Ta  Ta119  1  0.89400625  0.50426513  0.62508264  1
  Ti  Ti120  1  0.70760206  0.50085276  0.14371399  1
  Ti  Ti121  1  0.89821869  0.30269647  0.38664964  1
  Ti  Ti122  1  0.08651766  0.49043532  0.12833392  1
  Ti  Ti123  1  0.79965696  0.00974076  0.75888936  1
  Ti  Ti124  1  0.90027697  0.11164811  0.88343816  1
  Ti  Ti125  1  0.71351710  0.29845137  0.61044430  1
  Ti  Ti126  1  0.82508041  0.63458624  0.27480587  1
  Ti  Ti127  1  0.30097584  0.69821666  0.35257089  1
  Ti  Ti128  1  0.50017988  0.09527057  0.61408480  1
  Ti  Ti129  1  -0.01827461  0.58613915  -0.01205983  1
  Ti  Ti130  1  0.89687188  0.30057569  0.60466199  1
  Ti  Ti131  1  0.19592290  0.19503658  0.73064950  1
  Ti  Ti132  1  0.59863194  0.41303269  0.02524283  1
  Ti  Ti133  1  0.49707943  0.89835638  0.37918753  1
  Ti  Ti134  1  0.30498254  0.49437841  0.61164405  1
  Ti  Ti135  1  0.19682364  0.39322611  0.01643368  1
  Ti  Ti136  1  0.49236178  0.10406685  0.11828821  1
  Ti  Ti137  1  0.29924648  0.09698162  0.13288096  1
  Ti  Ti138  1  0.49206244  0.69643735  0.12742431  1
  Ti  Ti139  1  0.80321439  0.41663847  0.49741063  1
  Ti  Ti140  1  0.40079676  0.80271530  0.01083423  1
  Ti  Ti141  1  0.39651752  -0.00751186  0.48617064  1
  Ti  Ti142  1  0.80515859  0.79393536  -0.01553754  1
  Ti  Ti143  1  0.39291775  -0.00543465  0.00859370  1
  Ti  Ti144  1  0.59423528  0.20202657  0.00543690  1
  Ti  Ti145  1  0.59281722  0.60259547  0.24616476  1
  Ti  Ti146  1  0.90841750  0.69778504  0.86219852  1
  Ti  Ti147  1  0.19539724  0.79682868  0.23132558  1
  Ti  Ti148  1  0.31267718  0.88275071  0.63389169  1
  Ti  Ti149  1  0.21677991  0.79078246  0.51654067  1
  Ti  Ti150  1  0.59733886  -0.00054325  0.49403470  1
  Ti  Ti151  1  0.50705854  0.30550743  0.36878868  1
  Ti  Ti152  1  0.40091449  0.39587226  0.47985558  1
  Ti  Ti153  1  0.49772580  0.29787217  0.61068872  1
  Ti  Ti154  1  0.69814808  0.09719061  0.63151986  1
  Ti  Ti155  1  0.49904012  0.30174043  0.13252671  1
  Ti  Ti156  1  0.80006321  0.19758847  0.49072887  1
  Ti  Ti157  1  0.29553329  0.08484577  0.36286686  1
  Ti  Ti158  1  0.00919445  0.81259715  0.74517761  1
  Ti  Ti159  1  0.20160474  0.60001163  0.51302250  1
  Mo  Mo160  1  0.20126248  0.79361504  0.73945632  1
  Mo  Mo161  1  -0.00574384  0.60757240  0.27338569  1
  Mo  Mo162  1  0.69501300  0.70251713  0.36372251  1
  Mo  Mo163  1  0.89594758  0.50522614  0.37686998  1
  Mo  Mo164  1  -0.00199319  0.59747047  0.73990587  1
  Mo  Mo165  1  0.20517586  0.19043227  0.25996077  1
  Mo  Mo166  1  0.50034255  0.49965288  0.88754199  1
  Mo  Mo167  1  0.59809718  0.80977249  0.76948599  1
  Mo  Mo168  1  0.50074802  0.50379264  0.14538290  1
  Mo  Mo169  1  0.29954524  0.89564928  0.13002815  1
  Mo  Mo170  1  0.49763357  0.08615250  0.38126641  1
  Mo  Mo171  1  0.88905330  0.71894745  0.40051811  1
  Mo  Mo172  1  0.70242522  0.50306301  0.62520838  1
  Mo  Mo173  1  0.89895344  0.70004690  0.11095768  1
  Mo  Mo174  1  0.39841099  0.80568053  0.75542785  1
  Mo  Mo175  1  0.21095833  -0.00779424  0.02529276  1
  Mo  Mo176  1  0.09943816  0.29333345  0.37826189  1
  Mo  Mo177  1  0.10335059  0.10506899  0.62051970  1
  Mo  Mo178  1  0.39853947  -0.00323164  0.76035538  1
  Mo  Mo179  1  0.39341488  0.80689657  0.49870288  1
  Mo  Mo180  1  0.39812055  0.80058977  0.23266615  1
  Mo  Mo181  1  0.49764679  0.89679504  0.10663564  1
  Mo  Mo182  1  0.10421114  0.89299641  0.61608667  1
  Mo  Mo183  1  0.09807567  0.49864970  0.60713348  1
  Mo  Mo184  1  0.80218762  0.80557370  0.23884368  1
  Mo  Mo185  1  0.79135834  0.81079497  0.52705700  1
  Mo  Mo186  1  0.29402853  0.69979055  0.63722960  1
  Mo  Mo187  1  0.89747408  0.49782870  0.85711146  1
  Mo  Mo188  1  0.48971689  0.90312158  0.89066621  1
  Mo  Mo189  1  -0.00019252  0.40671225  0.01279045  1
  Mo  Mo190  1  -0.00598471  0.79603077  -0.02167124  1
  Mo  Mo191  1  0.30103742  0.30010644  0.35493688  1
  Mo  Mo192  1  -0.00394061  0.20193074  0.48561933  1
  Mo  Mo193  1  0.40039901  0.59918800  0.25253248  1
  Mo  Mo194  1  0.49752729  0.10810321  0.90259402  1
  Mo  Mo195  1  0.59636373  0.40678216  0.24337630  1
  Mo  Mo196  1  0.20360813  0.39430222  0.25680776  1
  Mo  Mo197  1  0.10056400  0.10052097  0.14784976  1
  Mo  Mo198  1  0.80934183  0.20860305  -0.01273959  1
  Mo  Mo199  1  0.80519525  0.40246211  0.26205093  1
