# generated using pymatgen
data_HfZrTaTiMo
_symmetry_space_group_name_H-M   'P 1'
_cell_length_a   15.93257014
_cell_length_b   15.92564645
_cell_length_c   15.19743815
_cell_angle_alpha   89.91519565
_cell_angle_beta   89.99848631
_cell_angle_gamma   90.08515657
_symmetry_Int_Tables_number   1
_chemical_formula_structural   HfZrTaTiMo
_chemical_formula_sum   'Hf40 Zr40 Ta40 Ti40 Mo40'
_cell_volume   3856.13596078
_cell_formula_units_Z   40
loop_
 _symmetry_equiv_pos_site_id
 _symmetry_equiv_pos_as_xyz
  1  'x, y, z'
loop_
 _atom_site_type_symbol
 _atom_site_label
 _atom_site_symmetry_multiplicity
 _atom_site_fract_x
 _atom_site_fract_y
 _atom_site_fract_z
 _atom_site_occupancy
  Hf  Hf0  1  0.69512868  0.69286685  0.90184944  1
  Hf  Hf1  1  0.09128648  0.69856660  0.87976078  1
  Hf  Hf2  1  0.39528215  0.60169241  0.75163191  1
  Hf  Hf3  1  0.68576060  0.89941781  0.88774329  1
  Hf  Hf4  1  0.29815574  0.90666382  0.88926496  1
  Hf  Hf5  1  0.29801173  0.89824730  0.61615920  1
  Hf  Hf6  1  0.59594090  0.00137007  0.49309562  1
  Hf  Hf7  1  0.50948504  0.11917397  0.36735689  1
  Hf  Hf8  1  0.40671490  -0.00147720  0.24592929  1
  Hf  Hf9  1  0.09196234  0.90943464  0.89884277  1
  Hf  Hf10  1  0.21476273  0.40253401  0.23910965  1
  Hf  Hf11  1  0.70914070  0.50087441  0.61261018  1
  Hf  Hf12  1  0.61478932  0.60343193  0.74079159  1
  Hf  Hf13  1  -0.01561006  0.78969676  0.47998660  1
  Hf  Hf14  1  0.29335354  0.69468228  0.37005310  1
  Hf  Hf15  1  0.61376555  0.19596926  0.75334922  1
  Hf  Hf16  1  0.40395498  0.00323494  0.48532810  1
  Hf  Hf17  1  0.79274395  0.01232487  0.00252049  1
  Hf  Hf18  1  0.00587456  0.41138616  0.50161700  1
  Hf  Hf19  1  0.19547064  0.80292906  0.76073368  1
  Hf  Hf20  1  0.31606633  0.30433622  0.38899072  1
  Hf  Hf21  1  -0.00584798  0.59534172  0.48858135  1
  Hf  Hf22  1  0.29627072  0.09652307  0.11643450  1
  Hf  Hf23  1  0.89094940  0.69368761  0.63577377  1
  Hf  Hf24  1  0.18580687  0.58338437  0.49697194  1
  Hf  Hf25  1  0.29990775  0.49314115  0.88168903  1
  Hf  Hf26  1  0.41326920  0.39868487  0.23308243  1
  Hf  Hf27  1  0.30136692  0.09951653  0.88657229  1
  Hf  Hf28  1  0.80221598  0.20770706  0.74602752  1
  Hf  Hf29  1  0.09376267  0.90393101  0.59908219  1
  Hf  Hf30  1  0.69758813  0.69387391  0.12609147  1
  Hf  Hf31  1  0.60601615  0.21546875  0.23716904  1
  Hf  Hf32  1  0.40281702  0.59270547  0.49831596  1
  Hf  Hf33  1  0.28934795  0.68649607  0.13157274  1
  Hf  Hf34  1  0.29877311  0.89239264  0.13327347  1
  Hf  Hf35  1  0.60174511  0.80388162  0.73589541  1
  Hf  Hf36  1  0.29001640  0.70650299  0.60701900  1
  Hf  Hf37  1  0.69482772  0.49122425  0.38874076  1
  Hf  Hf38  1  0.89642515  0.10744839  0.37237832  1
  Hf  Hf39  1  0.40352878  0.80092043  0.00698197  1
  Zr  Zr40  1  0.30468073  0.09273876  0.62457497  1
  Zr  Zr41  1  0.00474368  0.39790106  0.25263768  1
  Zr  Zr42  1  0.11175555  0.30495598  0.38712320  1
  Zr  Zr43  1  0.70494098  0.49866973  0.11359077  1
  Zr  Zr44  1  0.50877741  0.50149853  0.87552880  1
  Zr  Zr45  1  0.17846003  0.78975676  0.25617465  1
  Zr  Zr46  1  0.70373510  0.70410897  0.36358864  1
  Zr  Zr47  1  0.09342259  0.10353468  0.38865844  1
  Zr  Zr48  1  0.39504337  0.80320938  0.75762171  1
  Zr  Zr49  1  0.89510015  0.69997462  0.87441204  1
  Zr  Zr50  1  0.40183950  0.21604358  0.23045670  1
  Zr  Zr51  1  0.39724518  0.58251690  0.25099859  1
  Zr  Zr52  1  0.19218751  0.20482232  0.23573266  1
  Zr  Zr53  1  0.18851686  0.19156487  0.75486605  1
  Zr  Zr54  1  0.40589462  0.80768792  0.48132821  1
  Zr  Zr55  1  0.08960404  0.70347457  0.62449633  1
  Zr  Zr56  1  -0.00711030  0.20904463  0.01768479  1
  Zr  Zr57  1  0.79636244  0.20676061  0.51215966  1
  Zr  Zr58  1  0.89396049  0.69364184  0.13529789  1
  Zr  Zr59  1  0.90085741  0.90248775  0.88715689  1
  Zr  Zr60  1  0.78950679  0.79753641  0.74745129  1
  Zr  Zr61  1  0.78813660  0.00453017  0.75180178  1
  Zr  Zr62  1  0.59265719  0.58605144  0.25219517  1
  Zr  Zr63  1  0.10940038  0.51017813  0.11015275  1
  Zr  Zr64  1  0.30861421  0.29737687  0.63722660  1
  Zr  Zr65  1  0.19918452  0.39667629  0.75127998  1
  Zr  Zr66  1  0.01718348  0.60755071  0.26877309  1
  Zr  Zr67  1  0.30113006  0.10813062  0.37135115  1
  Zr  Zr68  1  0.50706417  0.70494228  0.88506908  1
  Zr  Zr69  1  0.69664693  0.89933892  0.36157706  1
  Zr  Zr70  1  0.90948594  0.09540584  0.61374877  1
  Zr  Zr71  1  0.49932220  0.30117617  0.87310297  1
  Zr  Zr72  1  0.89316412  0.49741398  0.13418830  1
  Zr  Zr73  1  0.91198623  0.10391893  0.87650203  1
  Zr  Zr74  1  0.19338908  0.00062811  0.74988751  1
  Zr  Zr75  1  0.09391502  0.90378655  0.11800704  1
  Zr  Zr76  1  0.88476200  0.11310526  0.13535026  1
  Zr  Zr77  1  0.49719343  0.70057068  0.61999133  1
  Zr  Zr78  1  0.19485197  0.59869576  0.74978881  1
  Zr  Zr79  1  0.00617657  0.00543639  0.74433015  1
  Ta  Ta80  1  0.50341540  0.47935585  0.39336353  1
  Ta  Ta81  1  0.89400912  0.90526982  0.13518066  1
  Ta  Ta82  1  0.50408600  0.09714200  0.63557204  1
  Ta  Ta83  1  0.19061206  0.00219594  0.25057527  1
  Ta  Ta84  1  0.61633980  0.39683971  0.74989438  1
  Ta  Ta85  1  0.70068329  0.90114809  0.61111292  1
  Ta  Ta86  1  0.68859490  0.29605292  0.39159206  1
  Ta  Ta87  1  0.09372431  0.49425567  0.88106284  1
  Ta  Ta88  1  0.19857874  0.20583012  0.00565635  1
  Ta  Ta89  1  0.20912336  0.20208749  0.51070697  1
  Ta  Ta90  1  0.69940705  0.10574019  0.36921793  1
  Ta  Ta91  1  0.39707950  0.60038060  0.00056379  1
  Ta  Ta92  1  0.41040045  -0.00108379  0.00828186  1
  Ta  Ta93  1  0.71875784  0.29991926  0.11076552  1
  Ta  Ta94  1  0.39998925  0.39578857  0.00813465  1
  Ta  Ta95  1  0.69525308  0.90478405  0.13234162  1
  Ta  Ta96  1  0.50514213  0.49293776  0.63101116  1
  Ta  Ta97  1  0.60095466  0.79960617  0.49981687  1
  Ta  Ta98  1  0.79237768  0.38639729  0.26445216  1
  Ta  Ta99  1  0.40688846  0.19447738  0.75848082  1
  Ta  Ta100  1  -0.01290388  0.59185767  -0.00952919  1
  Ta  Ta101  1  0.80780018  0.60537672  0.48821316  1
  Ta  Ta102  1  0.89524874  0.89791862  0.60846665  1
  Ta  Ta103  1  0.81035039  0.40167526  -0.02255562  1
  Ta  Ta104  1  0.79819791  -0.00357160  0.48908034  1
  Ta  Ta105  1  0.79628732  0.80489421  0.01520415  1
  Ta  Ta106  1  0.89018572  0.89809767  0.36260347  1
  Ta  Ta107  1  0.49718093  0.69784601  0.12543500  1
  Ta  Ta108  1  -0.00487096  0.21068028  0.24414546  1
  Ta  Ta109  1  0.10125666  0.30239383  0.61660019  1
  Ta  Ta110  1  0.61303965  0.19204956  -0.00746753  1
  Ta  Ta111  1  0.09735047  0.29930351  0.88340149  1
  Ta  Ta112  1  0.40814192  0.39525598  0.52094706  1
  Ta  Ta113  1  0.00223824  0.40111979  0.74476935  1
  Ta  Ta114  1  0.60001471  0.39422711  0.24527037  1
  Ta  Ta115  1  0.81476911  0.39575926  0.50123476  1
  Ta  Ta116  1  0.20142818  0.79090259  -0.00153223  1
  Ta  Ta117  1  0.50682495  0.10202628  0.12205281  1
  Ta  Ta118  1  0.42459319  0.20798674  0.51439817  1
  Ta  Ta119  1  0.00025016  0.00566564  0.24938922  1
  Ti  Ti120  1  0.51502794  0.30170716  0.10016555  1
  Ti  Ti121  1  0.09236520  0.90220265  0.37755896  1
  Ti  Ti122  1  0.09780052  0.69311484  0.11051008  1
  Ti  Ti123  1  0.59580567  0.37641071  0.52323722  1
  Ti  Ti124  1  -0.00923988  0.79680632  0.01136151  1
  Ti  Ti125  1  0.10027263  0.09649323  0.90586070  1
  Ti  Ti126  1  0.69505328  0.09350492  0.61707597  1
  Ti  Ti127  1  0.40707201  -0.00014501  0.75812900  1
  Ti  Ti128  1  0.59992534  0.60490114  0.50122415  1
  Ti  Ti129  1  0.30131429  0.29835337  0.87961366  1
  Ti  Ti130  1  0.29917605  0.48717035  0.38548326  1
  Ti  Ti131  1  0.20343770  -0.00371287  0.48249487  1
  Ti  Ti132  1  0.61483569  0.39625384  -0.01543274  1
  Ti  Ti133  1  0.40752574  0.19841160  -0.00234919  1
  Ti  Ti134  1  -0.00943637  0.21901278  0.50243946  1
  Ti  Ti135  1  0.29602288  0.89425018  0.36038273  1
  Ti  Ti136  1  0.90403780  0.50241416  0.63564137  1
  Ti  Ti137  1  0.89373379  0.49852269  0.36410713  1
  Ti  Ti138  1  0.29408408  0.49895249  0.10438918  1
  Ti  Ti139  1  0.00443350  0.20653602  0.73750341  1
  Ti  Ti140  1  0.79954454  0.39789585  0.75418126  1
  Ti  Ti141  1  0.79894014  0.58495864  0.76629351  1
  Ti  Ti142  1  0.51190251  0.08821824  0.87561448  1
  Ti  Ti143  1  0.79493751  0.00463124  0.25256599  1
  Ti  Ti144  1  -0.00673589  0.80075167  0.25609302  1
  Ti  Ti145  1  0.79818327  0.20858998  -0.02021889  1
  Ti  Ti146  1  0.10372521  0.31144191  0.11262594  1
  Ti  Ti147  1  0.30034774  0.49475578  0.62632172  1
  Ti  Ti148  1  0.50511922  0.90380617  0.87931122  1
  Ti  Ti149  1  0.69774732  0.10423830  0.13528485  1
  Ti  Ti150  1  0.50525001  0.89653903  0.35480888  1
  Ti  Ti151  1  0.91001427  0.30423656  0.86322761  1
  Ti  Ti152  1  -0.00352954  0.80969579  0.74690674  1
  Ti  Ti153  1  0.50106129  0.69975882  0.36501537  1
  Ti  Ti154  1  0.50805131  0.49950890  0.10439233  1
  Ti  Ti155  1  0.09661818  0.09966494  0.59930244  1
  Ti  Ti156  1  -0.00750947  0.40028681  -0.00070368  1
  Ti  Ti157  1  0.59664883  -0.00091438  0.01520786  1
  Ti  Ti158  1  0.50018074  0.90861019  0.62650528  1
  Ti  Ti159  1  0.58992229  0.80366596  0.23504825  1
  Mo  Mo160  1  0.79347052  0.20978497  0.26247074  1
  Mo  Mo161  1  0.89181385  0.30901096  0.12868285  1
  Mo  Mo162  1  0.59614473  0.80776821  0.02164621  1
  Mo  Mo163  1  0.89662786  0.30275556  0.37070316  1
  Mo  Mo164  1  0.79516124  0.79821648  0.50507374  1
  Mo  Mo165  1  0.90394666  0.49471638  0.86437887  1
  Mo  Mo166  1  0.50620489  0.29870362  0.65125355  1
  Mo  Mo167  1  0.50865576  0.30752534  0.38070593  1
  Mo  Mo168  1  0.69573940  0.09592147  0.88023099  1
  Mo  Mo169  1  -0.00521417  0.59145297  0.75996703  1
  Mo  Mo170  1  -0.00452895  0.00647685  0.02507630  1
  Mo  Mo171  1  0.09891695  0.70372063  0.38731215  1
  Mo  Mo172  1  0.40685012  0.79430106  0.25400807  1
  Mo  Mo173  1  0.80256195  0.59451016  -0.01240316  1
  Mo  Mo174  1  0.40750321  0.40060813  0.74185849  1
  Mo  Mo175  1  -0.00844552  -0.00572078  0.47832890  1
  Mo  Mo176  1  0.20756019  0.39982184  0.51700619  1
  Mo  Mo177  1  0.79802649  0.59272150  0.27138531  1
  Mo  Mo178  1  0.79832359  0.80365536  0.23179367  1
  Mo  Mo179  1  0.19752949  0.60239106  -0.01614127  1
  Mo  Mo180  1  0.19452017  0.80539143  0.48029148  1
  Mo  Mo181  1  0.90611171  0.30835325  0.63770814  1
  Mo  Mo182  1  0.29672334  0.69795164  0.88936397  1
  Mo  Mo183  1  0.70393487  0.49835333  0.87849602  1
  Mo  Mo184  1  0.19842461  0.39426664  -0.00805548  1
  Mo  Mo185  1  0.30269217  0.30178290  0.10380132  1
  Mo  Mo186  1  0.59592091  0.59763777  0.01111187  1
  Mo  Mo187  1  0.09507611  0.10329845  0.12724897  1
  Mo  Mo188  1  0.20183337  0.00166955  0.01313845  1
  Mo  Mo189  1  0.89116458  0.70131363  0.35808938  1
  Mo  Mo190  1  0.59494076  -0.00360934  0.74203486  1
  Mo  Mo191  1  0.11378321  0.49596298  0.36742916  1
  Mo  Mo192  1  0.70367122  0.69859326  0.60312091  1
  Mo  Mo193  1  0.70674118  0.30033285  0.88046873  1
  Mo  Mo194  1  0.20182520  0.58711273  0.26507651  1
  Mo  Mo195  1  0.09398063  0.50001233  0.64155223  1
  Mo  Mo196  1  0.70667468  0.30668750  0.62214226  1
  Mo  Mo197  1  0.60186152  0.19722478  0.51841579  1
  Mo  Mo198  1  0.60076431  0.00930734  0.24402456  1
  Mo  Mo199  1  0.50142313  0.90089295  0.13187079  1
