# generated using pymatgen
data_HfZrTaTiMo
_symmetry_space_group_name_H-M   'P 1'
_cell_length_a   15.92734078
_cell_length_b   15.93047189
_cell_length_c   15.18576281
_cell_angle_alpha   90.06198736
_cell_angle_beta   89.98324106
_cell_angle_gamma   90.03936467
_symmetry_Int_Tables_number   1
_chemical_formula_structural   HfZrTaTiMo
_chemical_formula_sum   'Hf40 Zr40 Ta40 Ti40 Mo40'
_cell_volume   3853.08110083
_cell_formula_units_Z   40
loop_
 _symmetry_equiv_pos_site_id
 _symmetry_equiv_pos_as_xyz
  1  'x, y, z'
loop_
 _atom_site_type_symbol
 _atom_site_label
 _atom_site_symmetry_multiplicity
 _atom_site_fract_x
 _atom_site_fract_y
 _atom_site_fract_z
 _atom_site_occupancy
  Hf  Hf0  1  0.32326651  0.10228911  0.14371488  1
  Hf  Hf1  1  0.90170226  0.51979372  0.11654183  1
  Hf  Hf2  1  0.79158265  0.40272283  0.00165369  1
  Hf  Hf3  1  0.69446035  0.50819911  0.37809963  1
  Hf  Hf4  1  0.79163970  0.19930155  0.51812987  1
  Hf  Hf5  1  0.59826797  0.59559713  0.22624659  1
  Hf  Hf6  1  0.10376105  0.31876898  0.38807682  1
  Hf  Hf7  1  0.40749792  0.59867425  0.24006243  1
  Hf  Hf8  1  0.49397107  0.49566931  0.88099390  1
  Hf  Hf9  1  0.09658337  0.89906510  0.86152706  1
  Hf  Hf10  1  -0.00263348  0.41099531  0.25068438  1
  Hf  Hf11  1  0.69366084  0.30099045  0.36914519  1
  Hf  Hf12  1  0.19833810  0.00379358  -0.01094846  1
  Hf  Hf13  1  0.90683725  0.70042118  0.61096243  1
  Hf  Hf14  1  0.59752824  0.80302520  0.22957935  1
  Hf  Hf15  1  -0.01271639  0.18506620  0.73876138  1
  Hf  Hf16  1  0.09912429  0.88948479  0.62702701  1
  Hf  Hf17  1  0.89415108  0.30508344  0.37927189  1
  Hf  Hf18  1  -0.00068803  0.60940983  0.76322858  1
  Hf  Hf19  1  0.80696547  0.00809693  0.72660776  1
  Hf  Hf20  1  0.29240851  0.30543912  0.63603253  1
  Hf  Hf21  1  0.10169086  0.49685472  0.61230322  1
  Hf  Hf22  1  0.59447938  0.61620509  0.76199093  1
  Hf  Hf23  1  0.31275339  0.89649046  0.87463640  1
  Hf  Hf24  1  0.20916931  0.79319726  0.47966676  1
  Hf  Hf25  1  0.30073002  0.49131431  0.36748999  1
  Hf  Hf26  1  0.79261405  0.41055384  0.23779336  1
  Hf  Hf27  1  0.40607086  0.79072219  0.49038296  1
  Hf  Hf28  1  0.30267305  0.30505787  0.86342916  1
  Hf  Hf29  1  0.89930892  0.28816182  0.12683283  1
  Hf  Hf30  1  0.21248524  0.18920907  -0.01560820  1
  Hf  Hf31  1  0.21028605  0.78628833  0.75930406  1
  Hf  Hf32  1  0.69615750  0.29180288  0.12094250  1
  Hf  Hf33  1  0.10020062  0.28961399  0.13650729  1
  Hf  Hf34  1  0.60252586  0.60528069  0.00501231  1
  Hf  Hf35  1  0.20068643  0.39945715  0.00988211  1
  Hf  Hf36  1  0.89247477  0.08651671  0.13189024  1
  Hf  Hf37  1  0.10217123  0.89131390  0.14223209  1
  Hf  Hf38  1  0.70128400  0.89977050  0.36595190  1
  Hf  Hf39  1  0.59109733  0.40470400  0.23287668  1
  Zr  Zr40  1  0.79936135  0.40269229  0.74866417  1
  Zr  Zr41  1  0.31136805  0.10134880  0.36825502  1
  Zr  Zr42  1  0.39404825  0.18770935  0.74875868  1
  Zr  Zr43  1  -0.00453435  0.40933304  0.75063065  1
  Zr  Zr44  1  0.20018792  0.60496919  -0.00723691  1
  Zr  Zr45  1  -0.00287882  0.19859985  0.50168201  1
  Zr  Zr46  1  0.20533601  -0.00662165  0.49989284  1
  Zr  Zr47  1  0.58593623  0.00204239  0.25001631  1
  Zr  Zr48  1  0.10589570  0.29955380  0.85522398  1
  Zr  Zr49  1  0.39666263  0.40047701  0.51001124  1
  Zr  Zr50  1  0.11172499  0.09685866  0.14699763  1
  Zr  Zr51  1  0.21096236  0.59789928  0.48288567  1
  Zr  Zr52  1  0.48736437  0.51618483  0.62947440  1
  Zr  Zr53  1  0.00144370  0.39818131  0.00164631  1
  Zr  Zr54  1  0.20425267  0.19454563  0.50682506  1
  Zr  Zr55  1  0.80351950  0.60754798  0.76077781  1
  Zr  Zr56  1  0.49085611  0.27831256  0.11593913  1
  Zr  Zr57  1  0.69563360  0.50968129  0.63218293  1
  Zr  Zr58  1  0.89285591  0.71136382  0.37634898  1
  Zr  Zr59  1  0.81034729  0.81388960  0.00595540  1
  Zr  Zr60  1  0.70358024  0.10166891  0.86442229  1
  Zr  Zr61  1  0.79633407  0.40054222  0.51328680  1
  Zr  Zr62  1  0.30237064  0.29757026  0.36611785  1
  Zr  Zr63  1  0.69927167  0.09753593  0.12443362  1
  Zr  Zr64  1  0.90795813  0.88664184  0.85385309  1
  Zr  Zr65  1  0.59788801  0.39856655  0.51422338  1
  Zr  Zr66  1  0.39788205  0.60462152  0.01032246  1
  Zr  Zr67  1  0.40851631  0.80312941  0.25429941  1
  Zr  Zr68  1  -0.00486866  -0.01593036  0.00806516  1
  Zr  Zr69  1  0.89034573  0.28949960  0.87113376  1
  Zr  Zr70  1  0.91035383  0.89273877  0.62059160  1
  Zr  Zr71  1  0.20169698  0.59916309  0.76332983  1
  Zr  Zr72  1  0.40270856  -0.00822000  0.73679443  1
  Zr  Zr73  1  0.60251208  -0.00899697  -0.00384320  1
  Zr  Zr74  1  0.77149246  0.80285706  0.51645624  1
  Zr  Zr75  1  0.01063766  0.18364587  -0.00977153  1
  Zr  Zr76  1  0.60623153  0.80181868  0.00567720  1
  Zr  Zr77  1  0.29867862  0.28716342  0.14100054  1
  Zr  Zr78  1  0.10102843  0.70005069  0.61325725  1
  Zr  Zr79  1  0.29780470  0.91002909  0.13367242  1
  Ta  Ta80  1  0.09833050  0.70180024  0.35556432  1
  Ta  Ta81  1  0.89794606  0.50353963  0.38042144  1
  Ta  Ta82  1  0.20219180  0.79931145  -0.00210621  1
  Ta  Ta83  1  0.28880715  0.70884678  0.13672057  1
  Ta  Ta84  1  -0.00048707  -0.00370582  0.49113321  1
  Ta  Ta85  1  0.60031704  0.62485636  0.50734032  1
  Ta  Ta86  1  0.69022404  0.29631306  0.86867767  1
  Ta  Ta87  1  0.60909320  -0.00495898  0.51252325  1
  Ta  Ta88  1  0.79900495  0.19137503  -0.00535530  1
  Ta  Ta89  1  0.09434234  0.89567678  0.36627624  1
  Ta  Ta90  1  0.79271574  0.60629029  0.49963499  1
  Ta  Ta91  1  0.49953173  0.09674221  0.87439409  1
  Ta  Ta92  1  0.50631816  0.10035241  0.39649138  1
  Ta  Ta93  1  -0.00390885  0.19599160  0.26828021  1
  Ta  Ta94  1  0.09581502  0.69802981  0.13162498  1
  Ta  Ta95  1  0.49736132  0.29913646  0.37447540  1
  Ta  Ta96  1  0.40543670  -0.00585106  0.50486736  1
  Ta  Ta97  1  0.00467440  0.59853381  0.47657105  1
  Ta  Ta98  1  0.69845287  0.70316536  0.35773982  1
  Ta  Ta99  1  0.69496420  0.49942797  0.87970294  1
  Ta  Ta100  1  0.69796349  0.10052208  0.38179007  1
  Ta  Ta101  1  0.50851394  0.88755542  0.61519530  1
  Ta  Ta102  1  0.50195851  0.50083328  0.38073408  1
  Ta  Ta103  1  0.70549047  0.89887272  0.85863860  1
  Ta  Ta104  1  0.40141791  0.80359654  0.00977922  1
  Ta  Ta105  1  0.39587575  0.39681669  0.00648085  1
  Ta  Ta106  1  0.09607896  0.51494554  0.12858472  1
  Ta  Ta107  1  0.09585628  0.08931768  0.62670709  1
  Ta  Ta108  1  0.41097071  0.79225061  0.74694965  1
  Ta  Ta109  1  0.09940785  0.30520696  0.62542269  1
  Ta  Ta110  1  0.20705748  0.00272769  0.74449709  1
  Ta  Ta111  1  0.59535682  0.40028107  0.75456693  1
  Ta  Ta112  1  0.71784157  0.70003159  0.13394467  1
  Ta  Ta113  1  0.79597594  0.61430580  -0.01219594  1
  Ta  Ta114  1  0.89893295  0.08465133  0.87533435  1
  Ta  Ta115  1  0.59338536  0.19426022  0.25565681  1
  Ta  Ta116  1  0.59560134  -0.00580896  0.74505122  1
  Ta  Ta117  1  0.89070838  0.09527879  0.38138916  1
  Ta  Ta118  1  0.50447796  0.29267741  0.64048499  1
  Ta  Ta119  1  0.19484830  0.40753077  0.24117767  1
  Ti  Ti120  1  0.72499070  0.91185925  0.13795214  1
  Ti  Ti121  1  0.48538285  0.91798378  0.11975980  1
  Ti  Ti122  1  0.19760629  0.59912579  0.25475298  1
  Ti  Ti123  1  0.90260103  0.50882158  0.89151296  1
  Ti  Ti124  1  0.91047372  0.70462156  0.12091184  1
  Ti  Ti125  1  0.50351683  0.09930976  0.62117645  1
  Ti  Ti126  1  0.90724717  0.50641120  0.60860573  1
  Ti  Ti127  1  0.49833696  0.29703525  0.87408023  1
  Ti  Ti128  1  0.59947667  0.20448791  0.50666781  1
  Ti  Ti129  1  0.90119559  0.30325519  0.62614432  1
  Ti  Ti130  1  0.40384915  0.19875911  0.51150080  1
  Ti  Ti131  1  0.49625957  0.71649902  0.88524680  1
  Ti  Ti132  1  0.39336207  0.61289925  0.76665340  1
  Ti  Ti133  1  0.79573989  0.79132586  0.74407648  1
  Ti  Ti134  1  0.80558309  0.60231617  0.25065297  1
  Ti  Ti135  1  0.08232578  0.71234175  0.89354869  1
  Ti  Ti136  1  -0.00811293  0.00016237  0.26316954  1
  Ti  Ti137  1  0.59480123  0.40013034  0.00365581  1
  Ti  Ti138  1  0.10072845  0.49752912  0.88056132  1
  Ti  Ti139  1  0.29842347  0.49441354  0.87367396  1
  Ti  Ti140  1  0.29558358  0.50195285  0.13029355  1
  Ti  Ti141  1  0.30869444  0.90060880  0.36653365  1
  Ti  Ti142  1  0.79573081  0.00128264  0.51063471  1
  Ti  Ti143  1  0.40653133  0.40205882  0.23760024  1
  Ti  Ti144  1  0.40174712  0.40671139  0.74804626  1
  Ti  Ti145  1  0.51247961  0.69822508  0.36867586  1
  Ti  Ti146  1  0.29425036  0.50333712  0.63034141  1
  Ti  Ti147  1  0.20253814  -0.00254456  0.26637996  1
  Ti  Ti148  1  0.19676630  0.18490096  0.74472346  1
  Ti  Ti149  1  -0.00988505  0.79978208  0.24926738  1
  Ti  Ti150  1  0.79720996  0.19330057  0.25686175  1
  Ti  Ti151  1  0.59514774  0.19407241  -0.00972928  1
  Ti  Ti152  1  0.31092266  0.69169633  0.62389074  1
  Ti  Ti153  1  0.89267222  0.90085683  0.37382909  1
  Ti  Ti154  1  0.30278341  0.88809598  0.62331953  1
  Ti  Ti155  1  0.60002654  0.80148564  0.74878897  1
  Ti  Ti156  1  0.68860385  0.11046260  0.63720442  1
  Ti  Ti157  1  0.40317160  0.60671200  0.48567273  1
  Ti  Ti158  1  0.39906967  0.01108479  -0.01215603  1
  Ti  Ti159  1  0.09963473  0.09914618  0.37438834  1
  Mo  Mo160  1  0.49865712  0.70875140  0.11970262  1
  Mo  Mo161  1  0.69492925  0.70448150  0.64088359  1
  Mo  Mo162  1  0.09734756  0.09106799  0.84962077  1
  Mo  Mo163  1  0.49429289  0.70188216  0.62751151  1
  Mo  Mo164  1  -0.00040146  0.60547885  -0.00914988  1
  Mo  Mo165  1  0.00228957  0.78792299  0.74879655  1
  Mo  Mo166  1  0.20075116  0.40133404  0.51353501  1
  Mo  Mo167  1  0.18775912  0.19969657  0.27042440  1
  Mo  Mo168  1  0.40253251  0.19583759  -0.02251910  1
  Mo  Mo169  1  0.49462231  0.49224741  0.10554225  1
  Mo  Mo170  1  0.70332016  0.50484226  0.10508761  1
  Mo  Mo171  1  0.79969750  0.00468491  0.27120369  1
  Mo  Mo172  1  -0.00281624  0.60302745  0.25876085  1
  Mo  Mo173  1  0.41105792  -0.00041515  0.27181025  1
  Mo  Mo174  1  0.90234915  0.70421754  0.88951281  1
  Mo  Mo175  1  0.29935472  0.09558062  0.86528893  1
  Mo  Mo176  1  0.20053935  0.40636702  0.74500414  1
  Mo  Mo177  1  -0.00444922  0.40612268  0.50407699  1
  Mo  Mo178  1  0.20262896  0.79821963  0.25940315  1
  Mo  Mo179  1  0.70229711  0.71057051  0.86698889  1
  Mo  Mo180  1  0.49860575  0.09645055  0.10634629  1
  Mo  Mo181  1  0.30874206  0.70550928  0.88357952  1
  Mo  Mo182  1  0.50729340  0.90193176  0.39521648  1
  Mo  Mo183  1  0.00388942  0.00009556  0.73810276  1
  Mo  Mo184  1  0.90176885  0.90092674  0.14815686  1
  Mo  Mo185  1  0.42180990  0.19376822  0.26486975  1
  Mo  Mo186  1  0.59244498  0.19752456  0.75613027  1
  Mo  Mo187  1  0.29894368  0.09466171  0.61629242  1
  Mo  Mo188  1  0.30400128  0.69542152  0.35404958  1
  Mo  Mo189  1  0.00559540  0.80248057  0.47460670  1
  Mo  Mo190  1  0.80193970  -0.00197288  -0.01194597  1
  Mo  Mo191  1  0.59698435  0.79912874  0.49736498  1
  Mo  Mo192  1  0.09899152  0.50281377  0.36896441  1
  Mo  Mo193  1  0.80342381  0.80212933  0.23962603  1
  Mo  Mo194  1  0.79718992  0.20125598  0.73875964  1
  Mo  Mo195  1  0.50383144  0.89913617  0.87044135  1
  Mo  Mo196  1  0.90030323  0.09603356  0.60115911  1
  Mo  Mo197  1  0.69493394  0.90300422  0.64146765  1
  Mo  Mo198  1  0.00739647  0.79833969  0.02073098  1
  Mo  Mo199  1  0.69149957  0.29313351  0.64938918  1
