# generated using pymatgen
data_HfZrTaTiMo
_symmetry_space_group_name_H-M   'P 1'
_cell_length_a   15.93807334
_cell_length_b   15.92699179
_cell_length_c   15.19892443
_cell_angle_alpha   90.02476346
_cell_angle_beta   90.03227906
_cell_angle_gamma   89.92693051
_symmetry_Int_Tables_number   1
_chemical_formula_structural   HfZrTaTiMo
_chemical_formula_sum   'Hf40 Zr40 Ta40 Ti40 Mo40'
_cell_volume   3858.17542462
_cell_formula_units_Z   40
loop_
 _symmetry_equiv_pos_site_id
 _symmetry_equiv_pos_as_xyz
  1  'x, y, z'
loop_
 _atom_site_type_symbol
 _atom_site_label
 _atom_site_symmetry_multiplicity
 _atom_site_fract_x
 _atom_site_fract_y
 _atom_site_fract_z
 _atom_site_occupancy
  Hf  Hf0  1  0.49248839  0.30686188  0.38448198  1
  Hf  Hf1  1  0.60184767  0.79960587  0.49778973  1
  Hf  Hf2  1  0.19090893  0.58985032  0.50765849  1
  Hf  Hf3  1  0.89505261  0.10232629  0.89477041  1
  Hf  Hf4  1  0.20735998  0.79516693  0.25560390  1
  Hf  Hf5  1  0.08736559  0.90171905  0.36866917  1
  Hf  Hf6  1  0.20240392  0.59096666  0.01052478  1
  Hf  Hf7  1  -0.00027165  0.00637084  0.75265420  1
  Hf  Hf8  1  0.60747876  0.39813546  0.74164208  1
  Hf  Hf9  1  0.18026825  0.58432281  0.74825974  1
  Hf  Hf10  1  0.60197293  -0.00255879  0.49928092  1
  Hf  Hf11  1  0.20831646  0.79977959  -0.00836900  1
  Hf  Hf12  1  -0.02290943  0.01372264  0.51834494  1
  Hf  Hf13  1  0.78897057  0.60994735  0.76258472  1
  Hf  Hf14  1  0.40624937  0.59425035  0.24801910  1
  Hf  Hf15  1  0.20259066  0.20525997  0.48704984  1
  Hf  Hf16  1  0.60804820  0.59342368  0.74279407  1
  Hf  Hf17  1  0.29371718  0.08709080  0.10797038  1
  Hf  Hf18  1  0.70105950  0.09755614  0.88726450  1
  Hf  Hf19  1  0.00799822  0.41066570  0.50375440  1
  Hf  Hf20  1  0.40211718  0.19784012  0.73573939  1
  Hf  Hf21  1  0.89263390  0.92061560  0.37310332  1
  Hf  Hf22  1  0.40347041  0.60142953  0.00636625  1
  Hf  Hf23  1  0.09770071  0.69882334  0.12209358  1
  Hf  Hf24  1  0.49418652  0.09787972  0.12288355  1
  Hf  Hf25  1  0.60580385  0.20157403  0.74590576  1
  Hf  Hf26  1  0.50175300  0.70039519  0.62553862  1
  Hf  Hf27  1  0.50009394  0.49967540  0.40425903  1
  Hf  Hf28  1  0.29246598  0.89230378  0.63819994  1
  Hf  Hf29  1  0.39867973  0.00249323  0.26504144  1
  Hf  Hf30  1  0.40178299  0.00282671  0.50385533  1
  Hf  Hf31  1  0.71577136  0.50209027  0.60314450  1
  Hf  Hf32  1  -0.00656756  0.79911446  0.50297756  1
  Hf  Hf33  1  0.50288378  0.09739435  0.87806654  1
  Hf  Hf34  1  0.81161558  0.40073248  0.47687892  1
  Hf  Hf35  1  0.08805061  0.69308622  0.36274483  1
  Hf  Hf36  1  0.71662288  0.08826901  0.36640012  1
  Hf  Hf37  1  0.21701831  0.39108828  0.24727560  1
  Hf  Hf38  1  0.70727844  0.89213316  0.62833523  1
  Hf  Hf39  1  0.07733589  0.10145637  0.37050432  1
  Zr  Zr40  1  0.90481801  0.90249456  0.88023619  1
  Zr  Zr41  1  0.19772721  0.00118310  0.50214747  1
  Zr  Zr42  1  0.10435426  0.10854531  0.62960269  1
  Zr  Zr43  1  0.78633894  0.80851479  0.00398048  1
  Zr  Zr44  1  0.69731224  0.10815578  0.12526455  1
  Zr  Zr45  1  0.69174922  0.69910312  0.12822094  1
  Zr  Zr46  1  0.89527932  0.30756060  0.62717083  1
  Zr  Zr47  1  0.11050387  0.90526308  0.11660957  1
  Zr  Zr48  1  0.60437476  0.19471072  0.48845673  1
  Zr  Zr49  1  0.50006398  0.49311896  0.87278608  1
  Zr  Zr50  1  0.30054110  0.49338289  0.86663569  1
  Zr  Zr51  1  0.59969890  -0.01748779  0.00697210  1
  Zr  Zr52  1  0.40468250  0.00251359  0.72903871  1
  Zr  Zr53  1  0.69365897  0.49558768  0.11599226  1
  Zr  Zr54  1  0.80535692  0.79595161  0.25105472  1
  Zr  Zr55  1  0.08681431  0.69747439  0.87984235  1
  Zr  Zr56  1  0.38533761  0.20269739  0.26538483  1
  Zr  Zr57  1  0.90170459  0.71113392  0.87741499  1
  Zr  Zr58  1  0.10052323  0.50151357  0.35996054  1
  Zr  Zr59  1  0.00184647  0.20994997  0.76617737  1
  Zr  Zr60  1  0.90679446  0.50712677  0.89640982  1
  Zr  Zr61  1  0.20515263  0.00121453  0.26186007  1
  Zr  Zr62  1  0.29111124  0.69870408  0.63683950  1
  Zr  Zr63  1  0.50377339  0.88956894  0.85051387  1
  Zr  Zr64  1  0.79621567  0.21138036  0.76133590  1
  Zr  Zr65  1  0.19189682  0.19618325  -0.00926883  1
  Zr  Zr66  1  0.19396756  0.79333189  0.49411872  1
  Zr  Zr67  1  0.00207070  0.20870818  0.00712809  1
  Zr  Zr68  1  0.20149864  0.38938831  0.00970400  1
  Zr  Zr69  1  0.59613555  0.22089492  -0.00412461  1
  Zr  Zr70  1  0.19947513  0.19475683  0.25016505  1
  Zr  Zr71  1  0.30840081  0.09196218  0.88443546  1
  Zr  Zr72  1  0.80048701  0.41151958  0.76197817  1
  Zr  Zr73  1  0.30547436  0.69879201  0.85493820  1
  Zr  Zr74  1  0.59817460  0.60326806  0.26307667  1
  Zr  Zr75  1  -0.00060478  0.21299472  0.50372891  1
  Zr  Zr76  1  0.40347685  0.79489877  0.26464554  1
  Zr  Zr77  1  0.40606497  0.39422546  0.01273293  1
  Zr  Zr78  1  0.60593077  0.41128934  0.26956311  1
  Zr  Zr79  1  0.50270949  0.30996124  0.14661102  1
  Ta  Ta80  1  0.09456981  0.30462886  0.35775991  1
  Ta  Ta81  1  0.49905487  0.69638357  0.85818257  1
  Ta  Ta82  1  -0.00554014  0.40097761  0.23467673  1
  Ta  Ta83  1  0.20054289  0.19628823  0.76218497  1
  Ta  Ta84  1  0.80358932  0.59485382  0.25746563  1
  Ta  Ta85  1  0.78871703  0.60390004  -0.00886725  1
  Ta  Ta86  1  0.80075566  0.00879514  0.74312698  1
  Ta  Ta87  1  0.88184000  0.70464008  0.63089677  1
  Ta  Ta88  1  -0.00959088  0.80544639  0.23623378  1
  Ta  Ta89  1  -0.00607454  0.19902614  0.22809712  1
  Ta  Ta90  1  0.19611734  0.00249381  0.76097907  1
  Ta  Ta91  1  0.30588655  0.30218471  0.85976608  1
  Ta  Ta92  1  0.30775580  0.49386792  0.37572286  1
  Ta  Ta93  1  0.39486044  0.19571499  0.50300860  1
  Ta  Ta94  1  0.68997098  0.89753637  0.14603594  1
  Ta  Ta95  1  0.70152087  0.89919997  0.36733463  1
  Ta  Ta96  1  0.30286007  0.89322849  0.86201469  1
  Ta  Ta97  1  0.89927425  0.69655014  0.11108331  1
  Ta  Ta98  1  0.08864704  0.49057410  0.89386189  1
  Ta  Ta99  1  0.30968151  0.89610548  0.11677619  1
  Ta  Ta100  1  0.29511528  0.29765048  0.63030227  1
  Ta  Ta101  1  0.11337831  0.31312625  0.63933996  1
  Ta  Ta102  1  0.40718948  0.58212248  0.72905270  1
  Ta  Ta103  1  0.40154628  0.80284324  0.50799154  1
  Ta  Ta104  1  0.89497900  0.49997745  0.11462491  1
  Ta  Ta105  1  -0.01026257  0.00767836  0.22311006  1
  Ta  Ta106  1  0.81512480  0.18592931  0.48998060  1
  Ta  Ta107  1  0.80452565  0.79925225  0.48928165  1
  Ta  Ta108  1  0.70398201  0.89906374  0.85680890  1
  Ta  Ta109  1  0.89571042  0.89576598  0.63658317  1
  Ta  Ta110  1  0.00652294  0.41467357  0.74457162  1
  Ta  Ta111  1  0.20907763  0.59529877  0.24044767  1
  Ta  Ta112  1  0.70411249  0.30280597  0.13621069  1
  Ta  Ta113  1  -0.01064968  0.59558844  0.73356723  1
  Ta  Ta114  1  0.71040192  0.29503715  0.36750331  1
  Ta  Ta115  1  0.50280878  0.30787409  0.61348943  1
  Ta  Ta116  1  0.70667436  0.69449952  0.38306099  1
  Ta  Ta117  1  0.59258236  -0.00076325  0.25770739  1
  Ta  Ta118  1  -0.00844963  0.60387558  0.51550337  1
  Ta  Ta119  1  0.50223500  0.70355389  0.12016660  1
  Ti  Ti120  1  0.59732299  0.19382789  0.26266986  1
  Ti  Ti121  1  0.28712840  0.48103473  0.63733365  1
  Ti  Ti122  1  0.40506172  -0.01899253  -0.00368275  1
  Ti  Ti123  1  0.90858494  0.29325781  0.36033451  1
  Ti  Ti124  1  0.49850503  0.89009035  0.13394218  1
  Ti  Ti125  1  0.80944406  0.19782774  0.24320613  1
  Ti  Ti126  1  0.50912644  0.10454173  0.61787233  1
  Ti  Ti127  1  0.90771404  0.31579792  0.89018463  1
  Ti  Ti128  1  0.01070290  0.00732567  0.00931605  1
  Ti  Ti129  1  0.90910663  0.51278735  0.36886957  1
  Ti  Ti130  1  0.30724925  0.70550021  0.12551942  1
  Ti  Ti131  1  0.88672023  0.30646680  0.11563334  1
  Ti  Ti132  1  0.09687975  0.89378160  0.63895928  1
  Ti  Ti133  1  0.50086692  0.89903764  0.37928343  1
  Ti  Ti134  1  0.49559893  0.30410353  0.86269327  1
  Ti  Ti135  1  0.39612189  0.20990620  0.00316526  1
  Ti  Ti136  1  0.10133547  0.30199387  0.13476003  1
  Ti  Ti137  1  0.80551166  0.40569610  0.25653360  1
  Ti  Ti138  1  0.09187381  0.70839896  0.63956056  1
  Ti  Ti139  1  0.70250592  0.29957593  0.60031248  1
  Ti  Ti140  1  0.40864760  0.79740471  -0.00582481  1
  Ti  Ti141  1  0.80594977  0.00081926  0.22548017  1
  Ti  Ti142  1  0.71321717  0.10211941  0.61706898  1
  Ti  Ti143  1  0.19982029  0.39719135  0.49175123  1
  Ti  Ti144  1  0.30154038  0.89475327  0.38764583  1
  Ti  Ti145  1  0.39084225  0.59225373  0.51948013  1
  Ti  Ti146  1  -0.00755093  0.59860298  0.23179726  1
  Ti  Ti147  1  0.79942368  -0.00248573  0.01905354  1
  Ti  Ti148  1  0.59745653  0.60169317  -0.01192852  1
  Ti  Ti149  1  0.59464293  0.79620232  0.26564570  1
  Ti  Ti150  1  0.30275274  0.68639150  0.38567643  1
  Ti  Ti151  1  0.09661301  0.89538582  0.87621370  1
  Ti  Ti152  1  0.61648004  0.78489012  0.74191561  1
  Ti  Ti153  1  0.39076934  0.40046253  0.51770703  1
  Ti  Ti154  1  0.60497381  0.00314661  0.73635984  1
  Ti  Ti155  1  0.61059602  0.60097911  0.50386592  1
  Ti  Ti156  1  0.78464411  0.39566693  -0.00888364  1
  Ti  Ti157  1  0.49277668  0.69426916  0.39547048  1
  Ti  Ti158  1  0.59451273  0.79693011  -0.00819234  1
  Ti  Ti159  1  0.31166076  0.49195407  0.13394315  1
  Mo  Mo160  1  0.79816914  0.00008787  0.51433296  1
  Mo  Mo161  1  0.50614893  0.89668529  0.62915018  1
  Mo  Mo162  1  0.60193290  0.40382159  -0.00653219  1
  Mo  Mo163  1  0.70966728  0.50199751  0.38437131  1
  Mo  Mo164  1  -0.00215184  0.80115887  0.73694224  1
  Mo  Mo165  1  0.09913721  0.49810880  0.13162731  1
  Mo  Mo166  1  0.09932259  0.09353002  0.87786396  1
  Mo  Mo167  1  0.70625289  0.69918127  0.60362916  1
  Mo  Mo168  1  0.29631445  0.10435654  0.62154649  1
  Mo  Mo169  1  0.30044445  0.09798411  0.39248394  1
  Mo  Mo170  1  0.69462159  0.30602971  0.88206254  1
  Mo  Mo171  1  -0.00042852  0.80649204  0.01778346  1
  Mo  Mo172  1  0.79663711  0.80238038  0.75647225  1
  Mo  Mo173  1  0.50332456  0.09926275  0.37680577  1
  Mo  Mo174  1  0.30011692  0.30893412  0.39591134  1
  Mo  Mo175  1  0.68568916  0.70655638  0.88371646  1
  Mo  Mo176  1  0.89513106  0.10415020  0.11197161  1
  Mo  Mo177  1  0.90604449  0.69883490  0.36530508  1
  Mo  Mo178  1  0.10097128  0.49918271  0.61992824  1
  Mo  Mo179  1  0.20178014  -0.00826632  -0.02147741  1
  Mo  Mo180  1  0.79722505  0.21517773  0.00078620  1
  Mo  Mo181  1  0.89958497  0.90087639  0.11351343  1
  Mo  Mo182  1  0.89682866  0.10479069  0.35374425  1
  Mo  Mo183  1  0.69621807  0.50236333  0.88849284  1
  Mo  Mo184  1  0.40232014  0.39450591  0.73044246  1
  Mo  Mo185  1  0.61025940  0.39555385  0.49706763  1
  Mo  Mo186  1  0.89283289  0.10400586  0.63877329  1
  Mo  Mo187  1  0.81282894  0.60513396  0.48035267  1
  Mo  Mo188  1  0.50286064  0.51033195  0.11670534  1
  Mo  Mo189  1  0.09912930  0.30909125  0.86578279  1
  Mo  Mo190  1  0.90013672  0.50748241  0.62208500  1
  Mo  Mo191  1  0.30265090  0.29241216  0.11784351  1
  Mo  Mo192  1  0.40632511  0.79330945  0.73677391  1
  Mo  Mo193  1  0.18924379  0.80394444  0.76324555  1
  Mo  Mo194  1  0.09880903  0.09830024  0.12211129  1
  Mo  Mo195  1  0.40200800  0.40689856  0.24978875  1
  Mo  Mo196  1  0.19597880  0.39530511  0.76218064  1
  Mo  Mo197  1  0.50441164  0.49696320  0.61089706  1
  Mo  Mo198  1  -0.00142058  0.59778034  0.01722019  1
  Mo  Mo199  1  0.00196337  0.39924398  0.02253863  1
