# generated using pymatgen
data_HfZrTaTiMo
_symmetry_space_group_name_H-M   'P 1'
_cell_length_a   15.92275650
_cell_length_b   15.93328315
_cell_length_c   15.19298520
_cell_angle_alpha   90.03125016
_cell_angle_beta   89.95862422
_cell_angle_gamma   90.08441874
_symmetry_Int_Tables_number   1
_chemical_formula_structural   HfZrTaTiMo
_chemical_formula_sum   'Hf40 Zr40 Ta40 Ti40 Mo40'
_cell_volume   3854.48174920
_cell_formula_units_Z   40
loop_
 _symmetry_equiv_pos_site_id
 _symmetry_equiv_pos_as_xyz
  1  'x, y, z'
loop_
 _atom_site_type_symbol
 _atom_site_label
 _atom_site_symmetry_multiplicity
 _atom_site_fract_x
 _atom_site_fract_y
 _atom_site_fract_z
 _atom_site_occupancy
  Hf  Hf0  1  0.69237571  0.69715835  0.37040793  1
  Hf  Hf1  1  0.41787339  0.20537439  0.00754108  1
  Hf  Hf2  1  0.60225094  0.20550574  0.27138725  1
  Hf  Hf3  1  0.00001410  0.79259956  0.49718751  1
  Hf  Hf4  1  0.30117862  0.09383608  0.12538498  1
  Hf  Hf5  1  0.70051079  0.49587650  0.13563932  1
  Hf  Hf6  1  0.80272554  0.19497821  0.01190787  1
  Hf  Hf7  1  0.10211040  0.70098294  0.11892548  1
  Hf  Hf8  1  0.19393877  0.19660245  0.24748473  1
  Hf  Hf9  1  0.39646258  0.59956976  0.76196716  1
  Hf  Hf10  1  0.70076147  0.69878706  0.62868791  1
  Hf  Hf11  1  0.39986851  0.59972827  0.25083893  1
  Hf  Hf12  1  0.10369936  0.50275315  0.88345848  1
  Hf  Hf13  1  0.90149618  0.09311356  0.39295240  1
  Hf  Hf14  1  0.89734330  0.09606451  0.62244978  1
  Hf  Hf15  1  0.00028959  0.80194914  0.25519362  1
  Hf  Hf16  1  0.88745509  0.29924176  0.37554280  1
  Hf  Hf17  1  0.58810411  0.00046665  0.74906573  1
  Hf  Hf18  1  -0.00844409  0.40723624  0.49656052  1
  Hf  Hf19  1  0.19276652  0.40976172  0.25367241  1
  Hf  Hf20  1  0.20111450  0.80739299  0.24181704  1
  Hf  Hf21  1  0.31255588  0.71361363  0.62616657  1
  Hf  Hf22  1  0.50337590  0.50091464  0.63001029  1
  Hf  Hf23  1  0.50189038  0.69238318  0.61485751  1
  Hf  Hf24  1  0.89963796  0.69552221  0.12473431  1
  Hf  Hf25  1  0.41516016  0.41444039  0.46674221  1
  Hf  Hf26  1  0.79906437  0.80307759  0.25244639  1
  Hf  Hf27  1  0.80075082  0.79217449  0.49044865  1
  Hf  Hf28  1  0.31048901  0.12010270  0.62733410  1
  Hf  Hf29  1  0.19668106  0.21608800  0.75368883  1
  Hf  Hf30  1  0.89845472  0.49250825  0.35289870  1
  Hf  Hf31  1  0.20911992  0.81421748  0.51127165  1
  Hf  Hf32  1  0.09380645  0.90433860  0.62549551  1
  Hf  Hf33  1  0.80480621  0.59700429  0.75606336  1
  Hf  Hf34  1  0.20199214  0.00106889  0.74805663  1
  Hf  Hf35  1  0.00197474  -0.00147524  0.24231151  1
  Hf  Hf36  1  0.79614336  -0.00558270  -0.00188031  1
  Hf  Hf37  1  0.10749708  0.51099945  0.60657125  1
  Hf  Hf38  1  0.39252116  -0.00739487  0.52130085  1
  Hf  Hf39  1  0.50641939  0.70318560  0.11643540  1
  Zr  Zr40  1  0.89780414  0.48970198  0.88857653  1
  Zr  Zr41  1  0.88993853  0.89193506  0.63943990  1
  Zr  Zr42  1  0.59699742  0.79558815  0.75914384  1
  Zr  Zr43  1  0.40102685  0.80707272  0.23675568  1
  Zr  Zr44  1  0.31043136  0.10843668  0.86875945  1
  Zr  Zr45  1  0.49863408  0.09608502  0.13772808  1
  Zr  Zr46  1  0.30577953  0.51273474  0.60300792  1
  Zr  Zr47  1  0.49875654  0.89621702  0.37846749  1
  Zr  Zr48  1  0.70154281  0.69590823  0.88232606  1
  Zr  Zr49  1  0.89674481  0.10207227  0.86761690  1
  Zr  Zr50  1  0.70759484  0.29832417  0.88488017  1
  Zr  Zr51  1  0.80736850  0.38586863  0.73851035  1
  Zr  Zr52  1  0.30329612  0.50086194  0.12090475  1
  Zr  Zr53  1  0.61160821  0.39476239  0.48089979  1
  Zr  Zr54  1  0.80138316  0.59010479  0.48833915  1
  Zr  Zr55  1  0.50382334  0.70096855  0.38229115  1
  Zr  Zr56  1  0.20012010  0.20568070  0.01091578  1
  Zr  Zr57  1  0.49647818  0.49276306  0.87777586  1
  Zr  Zr58  1  0.79940273  -0.00572360  0.24658189  1
  Zr  Zr59  1  0.68514744  0.09434278  0.11797380  1
  Zr  Zr60  1  0.30872095  0.71007861  0.38801645  1
  Zr  Zr61  1  0.49084799  0.29035395  0.61311955  1
  Zr  Zr62  1  0.30531166  0.31604119  0.89149724  1
  Zr  Zr63  1  0.79459417  0.18974647  0.24973707  1
  Zr  Zr64  1  0.60134045  0.19669057  0.73681383  1
  Zr  Zr65  1  0.20454591  0.41559188  0.75496097  1
  Zr  Zr66  1  0.30075231  0.31159009  0.60169742  1
  Zr  Zr67  1  0.01187457  0.79564789  0.75829603  1
  Zr  Zr68  1  0.00144432  0.39975604  0.74154850  1
  Zr  Zr69  1  0.10968946  0.30446847  0.60429285  1
  Zr  Zr70  1  0.09375053  0.10658727  0.88011726  1
  Zr  Zr71  1  0.11667593  0.68988883  0.37271582  1
  Zr  Zr72  1  0.48836277  0.09055606  0.37646380  1
  Zr  Zr73  1  0.78322638  -0.01612538  0.50429892  1
  Zr  Zr74  1  0.90355612  0.69807934  0.88297682  1
  Zr  Zr75  1  0.00107310  0.19005397  0.24468296  1
  Zr  Zr76  1  0.69628893  0.50159182  0.63113836  1
  Zr  Zr77  1  0.29575986  0.29883351  0.37823107  1
  Zr  Zr78  1  0.89592941  0.30604736  0.13115769  1
  Zr  Zr79  1  0.59088458  0.38991749  0.00803150  1
  Ta  Ta80  1  -0.00474256  0.20261430  0.50536944  1
  Ta  Ta81  1  0.90906656  0.29562157  0.89242829  1
  Ta  Ta82  1  0.69036733  0.89261582  0.11513509  1
  Ta  Ta83  1  0.00242561  0.40168657  0.01532234  1
  Ta  Ta84  1  0.30052668  0.91287321  0.36847881  1
  Ta  Ta85  1  0.20388021  0.80664179  -0.00909625  1
  Ta  Ta86  1  0.69421363  0.10290897  0.87566565  1
  Ta  Ta87  1  0.69742075  0.49483915  0.87854006  1
  Ta  Ta88  1  0.10235560  0.91112424  0.38692784  1
  Ta  Ta89  1  0.09862847  0.10464640  0.61827096  1
  Ta  Ta90  1  0.59953043  0.19212205  0.49384664  1
  Ta  Ta91  1  0.10344467  0.90590875  0.10539682  1
  Ta  Ta92  1  0.19362310  0.00080012  0.24859172  1
  Ta  Ta93  1  0.29920403  0.90753457  0.11003397  1
  Ta  Ta94  1  0.29954787  0.69762738  0.88583755  1
  Ta  Ta95  1  0.50129659  0.90651118  0.11670934  1
  Ta  Ta96  1  0.10118839  0.10012150  0.39338873  1
  Ta  Ta97  1  0.29456400  0.09626688  0.37677234  1
  Ta  Ta98  1  0.20347565  0.00480788  0.51183808  1
  Ta  Ta99  1  0.50015987  0.29184762  0.86613178  1
  Ta  Ta100  1  0.09197002  0.30348642  0.37723086  1
  Ta  Ta101  1  0.30211505  0.70419350  0.10694591  1
  Ta  Ta102  1  0.89615870  0.89739882  0.87139462  1
  Ta  Ta103  1  0.10699396  0.69665077  0.88495535  1
  Ta  Ta104  1  0.60127594  0.59603102  0.00404861  1
  Ta  Ta105  1  -0.00367803  0.60587256  0.49020412  1
  Ta  Ta106  1  0.90039092  0.49879085  0.13529033  1
  Ta  Ta107  1  0.60207081  0.39324205  0.74940908  1
  Ta  Ta108  1  0.90392362  0.69398191  0.63232900  1
  Ta  Ta109  1  0.59299879  -0.00504665  0.52256513  1
  Ta  Ta110  1  0.08989042  0.30373317  0.88893042  1
  Ta  Ta111  1  0.39946095  0.39489714  0.74777394  1
  Ta  Ta112  1  -0.00583616  0.21134726  0.73542767  1
  Ta  Ta113  1  0.28520232  0.51886127  0.37627773  1
  Ta  Ta114  1  0.00919261  0.59961835  0.74576416  1
  Ta  Ta115  1  0.48089119  0.88664492  0.64273223  1
  Ta  Ta116  1  0.90326159  0.89580678  0.11152244  1
  Ta  Ta117  1  0.59117367  -0.00329941  -0.01988427  1
  Ta  Ta118  1  0.40453500  -0.00158327  -0.01422533  1
  Ta  Ta119  1  0.90468124  0.90144215  0.38197444  1
  Ti  Ti120  1  0.60399078  -0.01199722  0.25725226  1
  Ti  Ti121  1  0.30703899  0.90094613  0.86741526  1
  Ti  Ti122  1  0.50269087  0.49597148  0.13764545  1
  Ti  Ti123  1  0.20072576  0.60101683  0.00526415  1
  Ti  Ti124  1  0.19768876  0.61278864  0.74550383  1
  Ti  Ti125  1  -0.00590711  0.00017682  -0.00333677  1
  Ti  Ti126  1  0.09620781  0.50396959  0.12990799  1
  Ti  Ti127  1  0.79658386  0.60412254  0.25353951  1
  Ti  Ti128  1  0.39803869  0.20428517  0.25830495  1
  Ti  Ti129  1  0.69324018  0.29923096  0.12576187  1
  Ti  Ti130  1  0.01014679  0.59708605  0.25733576  1
  Ti  Ti131  1  0.80254089  0.20104445  0.74349173  1
  Ti  Ti132  1  0.09931479  0.09150671  0.10560081  1
  Ti  Ti133  1  0.00231626  0.80357065  -0.00548830  1
  Ti  Ti134  1  0.89871467  0.50258748  0.62090559  1
  Ti  Ti135  1  0.40725181  0.59704767  0.00357345  1
  Ti  Ti136  1  0.19586833  0.40247679  0.01246182  1
  Ti  Ti137  1  0.78624718  -0.00451280  0.74983773  1
  Ti  Ti138  1  0.00039249  0.00422613  0.75377979  1
  Ti  Ti139  1  0.69715953  0.69861718  0.12376119  1
  Ti  Ti140  1  0.71095670  0.29428609  0.60512594  1
  Ti  Ti141  1  0.49824671  0.30648344  0.14718512  1
  Ti  Ti142  1  0.60241861  0.39887359  0.26846221  1
  Ti  Ti143  1  0.49987304  0.69646501  0.88149936  1
  Ti  Ti144  1  0.09529850  0.30370528  0.12751938  1
  Ti  Ti145  1  0.79703703  0.59130626  0.00614217  1
  Ti  Ti146  1  0.59454161  0.57821752  0.47570693  1
  Ti  Ti147  1  0.30309000  0.50127498  0.89303626  1
  Ti  Ti148  1  0.20343404  0.79866569  0.75754835  1
  Ti  Ti149  1  0.79811094  0.79977523  0.00280050  1
  Ti  Ti150  1  0.60756116  0.81644052  0.51172871  1
  Ti  Ti151  1  0.69718818  0.09011888  0.38634774  1
  Ti  Ti152  1  0.70319818  0.89618760  0.87000710  1
  Ti  Ti153  1  0.60359216  0.80278004  0.24402771  1
  Ti  Ti154  1  0.40421051  0.80661957  -0.01085760  1
  Ti  Ti155  1  0.70031966  0.09951036  0.62141078  1
  Ti  Ti156  1  0.59761526  0.80550420  -0.00990907  1
  Ti  Ti157  1  0.00041276  0.59607631  0.00375116  1
  Ti  Ti158  1  0.10310721  0.90617144  0.88322437  1
  Ti  Ti159  1  0.30976413  0.30808324  0.13251106  1
  Mo  Mo160  1  0.70481716  0.49660222  0.35316904  1
  Mo  Mo161  1  0.50369122  0.10358988  0.87695525  1
  Mo  Mo162  1  0.40198406  0.39919074  0.25092901  1
  Mo  Mo163  1  0.90342283  0.69713853  0.36041577  1
  Mo  Mo164  1  0.49836801  0.09901535  0.61361703  1
  Mo  Mo165  1  0.90943804  0.09054587  0.11065643  1
  Mo  Mo166  1  0.20229057  0.60532987  0.22980404  1
  Mo  Mo167  1  0.59946248  0.19588113  -0.00373986  1
  Mo  Mo168  1  0.79148501  0.19386230  0.49988761  1
  Mo  Mo169  1  0.80240924  0.79955240  0.75502457  1
  Mo  Mo170  1  0.40270554  0.20684597  0.75876894  1
  Mo  Mo171  1  0.49327759  0.89739560  0.87366040  1
  Mo  Mo172  1  0.29922824  0.90312536  0.65239374  1
  Mo  Mo173  1  0.69304065  0.89881387  0.37076108  1
  Mo  Mo174  1  0.39008418  -0.00286490  0.24076990  1
  Mo  Mo175  1  0.19571049  0.41075428  0.47365576  1
  Mo  Mo176  1  0.40636275  0.60164428  0.48432386  1
  Mo  Mo177  1  0.19891819  0.61432743  0.51113053  1
  Mo  Mo178  1  0.40220637  0.19665920  0.47914729  1
  Mo  Mo179  1  0.50321235  0.50288352  0.34852432  1
  Mo  Mo180  1  0.78993244  0.39522095  0.24309471  1
  Mo  Mo181  1  0.49863962  0.29520850  0.36974955  1
  Mo  Mo182  1  0.19625135  0.19847317  0.49003650  1
  Mo  Mo183  1  0.10023302  0.50386363  0.37749714  1
  Mo  Mo184  1  0.00181967  -0.00195407  0.50470997  1
  Mo  Mo185  1  0.00030071  0.19980675  0.01508967  1
  Mo  Mo186  1  0.60242546  0.60359257  0.23935871  1
  Mo  Mo187  1  0.80012711  0.40279670  0.01565567  1
  Mo  Mo188  1  0.40337843  0.39810119  0.02024642  1
  Mo  Mo189  1  0.20279898  -0.00515603  -0.01319658  1
  Mo  Mo190  1  0.39657214  0.79518705  0.77492112  1
  Mo  Mo191  1  0.89410726  0.29534400  0.60791503  1
  Mo  Mo192  1  0.00416977  0.40157294  0.24391596  1
  Mo  Mo193  1  0.59946833  0.59196784  0.77017986  1
  Mo  Mo194  1  0.40106112  0.00134741  0.75068323  1
  Mo  Mo195  1  0.69000636  0.89549526  0.64292830  1
  Mo  Mo196  1  0.10246880  0.69921467  0.62461026  1
  Mo  Mo197  1  0.80165445  0.39806015  0.50674278  1
  Mo  Mo198  1  0.70490430  0.29442186  0.38372037  1
  Mo  Mo199  1  0.40574435  0.80998023  0.50252982  1
