# generated using pymatgen
data_HfZrTaTiMo
_symmetry_space_group_name_H-M   'P 1'
_cell_length_a   15.92008930
_cell_length_b   15.93447359
_cell_length_c   15.20927854
_cell_angle_alpha   89.91240685
_cell_angle_beta   90.04199220
_cell_angle_gamma   89.88073697
_symmetry_Int_Tables_number   1
_chemical_formula_structural   HfZrTaTiMo
_chemical_formula_sum   'Hf40 Zr40 Ta40 Ti40 Mo40'
_cell_volume   3858.24913886
_cell_formula_units_Z   40
loop_
 _symmetry_equiv_pos_site_id
 _symmetry_equiv_pos_as_xyz
  1  'x, y, z'
loop_
 _atom_site_type_symbol
 _atom_site_label
 _atom_site_symmetry_multiplicity
 _atom_site_fract_x
 _atom_site_fract_y
 _atom_site_fract_z
 _atom_site_occupancy
  Hf  Hf0  1  0.40609850  0.00190516  0.24907784  1
  Hf  Hf1  1  0.49977337  0.90686135  0.87814000  1
  Hf  Hf2  1  0.88343933  0.10533680  0.86984558  1
  Hf  Hf3  1  0.59571794  0.40863195  0.76697400  1
  Hf  Hf4  1  0.20250844  0.79457398  0.48301101  1
  Hf  Hf5  1  -0.00383500  0.39329984  -0.01849423  1
  Hf  Hf6  1  0.21392178  0.00399006  -0.00555582  1
  Hf  Hf7  1  0.60891114  -0.00506465  0.49397258  1
  Hf  Hf8  1  0.40654920  0.19936685  0.49664944  1
  Hf  Hf9  1  0.09762753  0.09191415  0.38260751  1
  Hf  Hf10  1  0.29403213  0.09152077  0.37212633  1
  Hf  Hf11  1  0.69525446  0.48971023  0.62276358  1
  Hf  Hf12  1  0.88315590  0.51354737  0.35689532  1
  Hf  Hf13  1  0.00420569  0.39733093  0.26054519  1
  Hf  Hf14  1  0.80513958  0.59581770  0.51485031  1
  Hf  Hf15  1  -0.00566954  0.20546579  0.50888573  1
  Hf  Hf16  1  0.31126019  0.50240900  0.89400813  1
  Hf  Hf17  1  0.90216355  0.90804377  0.61244270  1
  Hf  Hf18  1  0.10383476  0.50931650  0.88523134  1
  Hf  Hf19  1  0.90006987  0.70480417  0.63351005  1
  Hf  Hf20  1  0.71414026  0.67165641  0.34870117  1
  Hf  Hf21  1  0.79818527  0.20138306  0.51240114  1
  Hf  Hf22  1  0.40148879  0.39827452  0.75743918  1
  Hf  Hf23  1  0.22839726  -0.00226293  0.75744049  1
  Hf  Hf24  1  0.20052344  0.20016675  0.00158074  1
  Hf  Hf25  1  0.39429402  0.81231676  0.75911839  1
  Hf  Hf26  1  0.69284349  0.70117109  0.12315505  1
  Hf  Hf27  1  0.10171082  0.09354191  0.62749649  1
  Hf  Hf28  1  0.29249051  0.49428150  0.61024566  1
  Hf  Hf29  1  0.81024837  0.79943131  0.25151338  1
  Hf  Hf30  1  0.68634816  0.30224020  0.11641641  1
  Hf  Hf31  1  0.09529672  0.70248943  0.63245850  1
  Hf  Hf32  1  0.18406133  0.60007951  0.47703830  1
  Hf  Hf33  1  0.40971322  0.20872364  0.25404341  1
  Hf  Hf34  1  0.70512993  0.09968544  0.37088381  1
  Hf  Hf35  1  0.69076444  0.69707675  0.88204318  1
  Hf  Hf36  1  0.69869347  0.89290279  0.63268986  1
  Hf  Hf37  1  0.90096455  0.91707455  0.38487309  1
  Hf  Hf38  1  0.80014908  0.39629055  -0.01058026  1
  Hf  Hf39  1  0.79296145  0.20700651  0.24383608  1
  Zr  Zr40  1  0.10793453  0.11004220  0.86092368  1
  Zr  Zr41  1  0.90014830  0.09800651  0.37768019  1
  Zr  Zr42  1  0.69348304  0.26810601  0.88070065  1
  Zr  Zr43  1  0.40365456  0.59779929  0.74466217  1
  Zr  Zr44  1  -0.00223682  0.20628271  -0.00467368  1
  Zr  Zr45  1  0.50390239  0.30180373  0.62521245  1
  Zr  Zr46  1  0.20080278  0.39793321  0.76640093  1
  Zr  Zr47  1  0.20438384  0.59656147  0.24511195  1
  Zr  Zr48  1  0.42530155  0.59096757  0.04110676  1
  Zr  Zr49  1  0.19693792  0.21140474  0.25100269  1
  Zr  Zr50  1  0.60345001  0.80670357  0.26427161  1
  Zr  Zr51  1  0.40320617  0.40855550  0.25096061  1
  Zr  Zr52  1  0.69368322  0.91305086  0.87644762  1
  Zr  Zr53  1  0.90242141  0.90053520  0.11716979  1
  Zr  Zr54  1  0.59985074  0.42741337  -0.01778723  1
  Zr  Zr55  1  -0.00304353  0.00311158  -0.00982642  1
  Zr  Zr56  1  0.49522685  0.71076539  0.61229838  1
  Zr  Zr57  1  0.60278596  0.59895060  0.49559000  1
  Zr  Zr58  1  0.00088881  0.20549415  0.25122569  1
  Zr  Zr59  1  0.30105685  0.69762722  0.88298600  1
  Zr  Zr60  1  0.19795367  0.80542185  0.75472237  1
  Zr  Zr61  1  0.60118914  0.79699214  0.48403338  1
  Zr  Zr62  1  0.09004435  0.50523461  0.62645421  1
  Zr  Zr63  1  0.20461261  0.61026382  0.01947541  1
  Zr  Zr64  1  -0.00266889  0.60890452  0.24353463  1
  Zr  Zr65  1  0.29879942  0.70058681  0.61634717  1
  Zr  Zr66  1  0.20096043  0.20319040  0.50069069  1
  Zr  Zr67  1  0.57113270  0.58420788  0.23677190  1
  Zr  Zr68  1  0.79584334  0.39889151  0.76597632  1
  Zr  Zr69  1  0.51712820  0.09296908  0.87281307  1
  Zr  Zr70  1  0.10535201  0.90101184  0.12471113  1
  Zr  Zr71  1  0.49761655  0.28563120  0.88813469  1
  Zr  Zr72  1  0.10054514  0.48997231  0.11827636  1
  Zr  Zr73  1  -0.00130978  -0.00382258  0.75272149  1
  Zr  Zr74  1  0.89005026  0.69864940  0.87940849  1
  Zr  Zr75  1  0.00239246  0.79057647  0.48206382  1
  Zr  Zr76  1  0.10353988  0.30836635  0.62929788  1
  Zr  Zr77  1  0.39690605  0.79953153  0.00557078  1
  Zr  Zr78  1  -0.00297111  0.41231620  0.48729052  1
  Zr  Zr79  1  0.78977393  0.79694488  0.48410460  1
  Ta  Ta80  1  0.59436246  0.79456135  0.75160847  1
  Ta  Ta81  1  0.10651943  0.91260871  0.37557321  1
  Ta  Ta82  1  0.60277754  0.00613446  0.24421737  1
  Ta  Ta83  1  0.89811961  0.09980445  0.12673470  1
  Ta  Ta84  1  -0.00508165  0.60445440  0.00179411  1
  Ta  Ta85  1  0.69834174  0.90311245  0.12023095  1
  Ta  Ta86  1  0.40269477  0.39963401  0.48827647  1
  Ta  Ta87  1  0.50348780  0.89982200  0.12747577  1
  Ta  Ta88  1  0.70173377  0.09254029  0.63278351  1
  Ta  Ta89  1  0.49654252  0.49849437  0.60991945  1
  Ta  Ta90  1  0.19869444  0.60173780  0.75668271  1
  Ta  Ta91  1  0.60499426  0.19912427  0.50198498  1
  Ta  Ta92  1  0.40387068  0.00383489  0.01493803  1
  Ta  Ta93  1  0.79927105  0.80712976  -0.00312593  1
  Ta  Ta94  1  -0.00680989  0.40365718  0.76544009  1
  Ta  Ta95  1  0.79733922  0.39886709  0.49624649  1
  Ta  Ta96  1  0.89689907  0.31522904  0.63238244  1
  Ta  Ta97  1  0.30360731  0.30150793  0.62056637  1
  Ta  Ta98  1  -0.00296407  0.60187072  0.76384021  1
  Ta  Ta99  1  0.78955332  0.59078121  0.00980130  1
  Ta  Ta100  1  -0.00292082  0.80584432  0.76739244  1
  Ta  Ta101  1  0.59837227  0.60073404  0.74148792  1
  Ta  Ta102  1  0.50329978  0.28947959  0.11038282  1
  Ta  Ta103  1  0.10662908  0.89840056  0.88082121  1
  Ta  Ta104  1  0.29937355  0.90189085  0.37313937  1
  Ta  Ta105  1  0.30785429  0.89914573  0.60272402  1
  Ta  Ta106  1  0.69645159  0.48784562  0.36548392  1
  Ta  Ta107  1  0.00272796  0.80305932  0.26266234  1
  Ta  Ta108  1  0.29856901  0.09889031  0.13757307  1
  Ta  Ta109  1  0.79775567  0.19379229  0.01144029  1
  Ta  Ta110  1  0.29836610  0.49939162  0.37561614  1
  Ta  Ta111  1  0.50332118  0.09138158  0.62588732  1
  Ta  Ta112  1  0.40651498  -0.00087726  0.49413355  1
  Ta  Ta113  1  0.79466226  0.59871481  0.74117616  1
  Ta  Ta114  1  0.30024377  0.89923268  0.13709670  1
  Ta  Ta115  1  0.30370042  0.28817037  0.88169017  1
  Ta  Ta116  1  0.39627695  0.60176112  0.48198729  1
  Ta  Ta117  1  0.39455075  0.18711247  0.74602963  1
  Ta  Ta118  1  0.00391778  0.79575972  -0.01497447  1
  Ta  Ta119  1  0.59364397  0.37686587  0.26754198  1
  Ti  Ti120  1  -0.00466708  0.60491242  0.48033243  1
  Ti  Ti121  1  0.10145963  0.09934688  0.13082775  1
  Ti  Ti122  1  0.40036436  0.79846860  0.25843685  1
  Ti  Ti123  1  0.60095560  0.19251538  0.73711048  1
  Ti  Ti124  1  0.49593897  0.90165000  0.62270693  1
  Ti  Ti125  1  0.19864447  0.79956719  0.25984816  1
  Ti  Ti126  1  0.80053620  0.19918996  0.73719480  1
  Ti  Ti127  1  0.69714767  0.30155360  0.62673455  1
  Ti  Ti128  1  0.50878737  0.10443743  0.37343587  1
  Ti  Ti129  1  0.80025083  0.80462875  0.76107869  1
  Ti  Ti130  1  -0.00675705  0.21156345  0.75025979  1
  Ti  Ti131  1  0.78469966  0.01114023  0.00148109  1
  Ti  Ti132  1  0.89178227  0.50871889  0.87683076  1
  Ti  Ti133  1  0.21349849  0.20147759  0.74911865  1
  Ti  Ti134  1  0.09924929  0.30294451  0.12173449  1
  Ti  Ti135  1  0.80147202  -0.00123946  0.74813621  1
  Ti  Ti136  1  0.20093833  0.80198288  -0.00107085  1
  Ti  Ti137  1  0.89106649  0.30149268  0.37794694  1
  Ti  Ti138  1  0.40206334  0.39613715  0.00488318  1
  Ti  Ti139  1  0.60006198  0.39087933  0.48437141  1
  Ti  Ti140  1  0.30159784  0.30407650  0.12113103  1
  Ti  Ti141  1  0.89937458  0.30462886  0.12546368  1
  Ti  Ti142  1  0.79492040  0.39450047  0.25096444  1
  Ti  Ti143  1  0.00210329  -0.00128165  0.24290982  1
  Ti  Ti144  1  0.69540746  0.49513501  0.13906592  1
  Ti  Ti145  1  0.49767340  0.90374741  0.37373236  1
  Ti  Ti146  1  0.89507535  0.49623456  0.12393209  1
  Ti  Ti147  1  0.30898010  0.70516426  0.14362215  1
  Ti  Ti148  1  0.10559292  0.90266399  0.61394007  1
  Ti  Ti149  1  0.48913305  0.69420793  0.36641808  1
  Ti  Ti150  1  0.59278071  0.79923810  0.00479597  1
  Ti  Ti151  1  0.19840163  0.40038168  0.25834284  1
  Ti  Ti152  1  0.50266909  0.68865704  0.88237311  1
  Ti  Ti153  1  0.30635913  0.09297876  0.61527912  1
  Ti  Ti154  1  0.20311568  0.39114408  -0.00386478  1
  Ti  Ti155  1  0.09551723  0.71187276  0.12680778  1
  Ti  Ti156  1  0.89760384  0.70135552  0.11472566  1
  Ti  Ti157  1  0.79847517  -0.00166761  0.23973933  1
  Ti  Ti158  1  0.39663627  0.18609560  0.00861304  1
  Ti  Ti159  1  0.29593724  0.30573330  0.38236315  1
  Mo  Mo160  1  0.59576378  0.19736023  0.24592659  1
  Mo  Mo161  1  0.79994654  0.59127902  0.22170705  1
  Mo  Mo162  1  0.10342417  0.30440416  0.38537216  1
  Mo  Mo163  1  0.00567649  0.00180064  0.51605081  1
  Mo  Mo164  1  0.50341948  0.29306068  0.38726069  1
  Mo  Mo165  1  0.59781175  -0.00739678  0.73170594  1
  Mo  Mo166  1  0.09787633  0.50053771  0.36529859  1
  Mo  Mo167  1  0.89898706  0.69928081  0.37082480  1
  Mo  Mo168  1  0.10506107  0.30039346  0.86453465  1
  Mo  Mo169  1  0.31849022  0.10507521  0.87684509  1
  Mo  Mo170  1  0.60199465  -0.00061360  0.02020589  1
  Mo  Mo171  1  0.39510395  0.59812048  0.25264361  1
  Mo  Mo172  1  0.40237815  0.80416647  0.47490786  1
  Mo  Mo173  1  0.69944234  0.70304277  0.64478594  1
  Mo  Mo174  1  0.19882028  -0.00236146  0.24078102  1
  Mo  Mo175  1  0.09777008  0.70258292  0.87525615  1
  Mo  Mo176  1  0.30270793  0.48279804  0.12126947  1
  Mo  Mo177  1  0.89773922  0.10675040  0.63775941  1
  Mo  Mo178  1  0.89530234  0.90211821  0.88396761  1
  Mo  Mo179  1  0.79945714  0.00571061  0.51532377  1
  Mo  Mo180  1  0.49617721  0.72143640  0.14297078  1
  Mo  Mo181  1  0.49868936  0.51624612  0.87433336  1
  Mo  Mo182  1  0.60697765  0.17305279  0.01866771  1
  Mo  Mo183  1  0.10060428  0.70448620  0.35597487  1
  Mo  Mo184  1  0.49997833  0.49617939  0.38948313  1
  Mo  Mo185  1  0.70180579  0.52107528  0.86922074  1
  Mo  Mo186  1  0.70585462  0.91289952  0.35744503  1
  Mo  Mo187  1  0.30630057  0.90523468  0.89353625  1
  Mo  Mo188  1  0.89611745  0.29449811  0.86150752  1
  Mo  Mo189  1  0.70305318  0.09880678  0.13919982  1
  Mo  Mo190  1  0.50115528  0.10091558  0.12663273  1
  Mo  Mo191  1  0.40342835  -0.00120692  0.73281749  1
  Mo  Mo192  1  0.30453253  0.70153158  0.36087786  1
  Mo  Mo193  1  0.20474427  -0.00521371  0.50928158  1
  Mo  Mo194  1  0.60027861  0.60646958  0.01735584  1
  Mo  Mo195  1  0.70138158  0.09589294  0.85537686  1
  Mo  Mo196  1  0.90093321  0.50049198  0.63710687  1
  Mo  Mo197  1  0.20113705  0.40009771  0.48322922  1
  Mo  Mo198  1  0.70320804  0.29837447  0.38121406  1
  Mo  Mo199  1  0.51106627  0.46361896  0.12878218  1
