# generated using pymatgen
data_HfZrTaTiMo
_symmetry_space_group_name_H-M   'P 1'
_cell_length_a   15.94238286
_cell_length_b   15.93477974
_cell_length_c   15.20191314
_cell_angle_alpha   89.96888938
_cell_angle_beta   89.96991090
_cell_angle_gamma   89.97391849
_symmetry_Int_Tables_number   1
_chemical_formula_structural   HfZrTaTiMo
_chemical_formula_sum   'Hf40 Zr40 Ta40 Ti40 Mo40'
_cell_volume   3861.86757556
_cell_formula_units_Z   40
loop_
 _symmetry_equiv_pos_site_id
 _symmetry_equiv_pos_as_xyz
  1  'x, y, z'
loop_
 _atom_site_type_symbol
 _atom_site_label
 _atom_site_symmetry_multiplicity
 _atom_site_fract_x
 _atom_site_fract_y
 _atom_site_fract_z
 _atom_site_occupancy
  Hf  Hf0  1  0.69225982  0.30052331  0.63657287  1
  Hf  Hf1  1  0.60132274  0.00807853  0.25264731  1
  Hf  Hf2  1  0.48841271  0.89271872  0.14348301  1
  Hf  Hf3  1  0.39026532  0.40480849  -0.00144949  1
  Hf  Hf4  1  0.90688123  0.69835412  0.39214511  1
  Hf  Hf5  1  -0.00078656  0.59326596  -0.01765229  1
  Hf  Hf6  1  0.20509364  0.38760301  0.51841381  1
  Hf  Hf7  1  0.71059700  0.90169894  0.36942764  1
  Hf  Hf8  1  0.39528596  0.21285427  0.50358023  1
  Hf  Hf9  1  0.59012271  0.00147226  0.75634626  1
  Hf  Hf10  1  0.69306285  0.89524160  0.13716978  1
  Hf  Hf11  1  0.39780982  0.20224368  0.25177226  1
  Hf  Hf12  1  0.38602608  0.60637405  -0.00045158  1
  Hf  Hf13  1  0.79568421  0.60868575  0.73080966  1
  Hf  Hf14  1  0.80556597  0.59827367  0.00929067  1
  Hf  Hf15  1  0.19885451  0.19318273  0.26448097  1
  Hf  Hf16  1  0.00132782  -0.00366877  0.24406268  1
  Hf  Hf17  1  0.89180969  0.29794104  0.63140011  1
  Hf  Hf18  1  0.09145124  0.31273546  0.38313507  1
  Hf  Hf19  1  0.09450229  0.31032140  0.13015933  1
  Hf  Hf20  1  0.81987155  0.79997617  0.25126077  1
  Hf  Hf21  1  0.10628531  0.09349985  0.86194133  1
  Hf  Hf22  1  0.69982580  0.88443999  0.87323976  1
  Hf  Hf23  1  0.28880475  0.09039608  0.10886179  1
  Hf  Hf24  1  0.39753580  0.79593770  -0.00670564  1
  Hf  Hf25  1  0.39658606  -0.00719018  -0.01457933  1
  Hf  Hf26  1  0.31734232  0.70891121  0.61878332  1
  Hf  Hf27  1  0.89770169  0.11280690  0.11132799  1
  Hf  Hf28  1  0.89873552  0.70043658  0.86275559  1
  Hf  Hf29  1  0.49807633  0.10523109  0.11965007  1
  Hf  Hf30  1  0.80011695  0.78766197  0.01167550  1
  Hf  Hf31  1  0.19852004  0.41887331  0.26232507  1
  Hf  Hf32  1  0.90719371  0.89308396  0.86674439  1
  Hf  Hf33  1  0.58815868  0.80551169  0.49012786  1
  Hf  Hf34  1  0.69579209  0.11728817  0.11259376  1
  Hf  Hf35  1  0.59402382  -0.00180244  0.49867890  1
  Hf  Hf36  1  0.89721779  0.31307098  0.11422163  1
  Hf  Hf37  1  0.29840731  0.08954068  0.64387148  1
  Hf  Hf38  1  0.10819887  0.50712990  0.11281292  1
  Hf  Hf39  1  0.09799012  0.70592711  0.39830081  1
  Zr  Zr40  1  0.71090428  0.49129447  0.13100336  1
  Zr  Zr41  1  0.00841794  0.21996573  -0.01799681  1
  Zr  Zr42  1  0.70209191  0.70032439  0.37691899  1
  Zr  Zr43  1  0.40630608  0.20493821  0.75871786  1
  Zr  Zr44  1  0.49949504  0.50258508  0.11922874  1
  Zr  Zr45  1  0.29221500  0.30263373  0.12405947  1
  Zr  Zr46  1  0.59097774  -0.00527809  -0.00715581  1
  Zr  Zr47  1  0.20038371  0.19278837  0.50699462  1
  Zr  Zr48  1  0.01133205  0.58323639  0.26830293  1
  Zr  Zr49  1  0.60779228  0.38826467  0.25660370  1
  Zr  Zr50  1  0.70105630  0.10910645  0.63004582  1
  Zr  Zr51  1  0.70160774  0.50984891  0.87322245  1
  Zr  Zr52  1  0.90465051  0.09582690  0.38991542  1
  Zr  Zr53  1  0.59008820  0.39250707  0.48204257  1
  Zr  Zr54  1  0.29570387  0.89437415  0.36575935  1
  Zr  Zr55  1  0.11775417  0.89574303  0.10697947  1
  Zr  Zr56  1  0.79255090  0.21043795  0.25912478  1
  Zr  Zr57  1  0.39822482  0.20053209  -0.01492920  1
  Zr  Zr58  1  0.79760175  -0.00511502  0.75006610  1
  Zr  Zr59  1  0.79448959  -0.00341772  0.00038269  1
  Zr  Zr60  1  0.70831957  0.50480822  0.37937036  1
  Zr  Zr61  1  -0.00193831  0.19999048  0.25184015  1
  Zr  Zr62  1  0.49976352  0.10190333  0.62624505  1
  Zr  Zr63  1  0.40483732  0.40454009  0.25647729  1
  Zr  Zr64  1  0.41070751  0.60551196  0.75715824  1
  Zr  Zr65  1  0.30762846  0.49858814  0.63272880  1
  Zr  Zr66  1  0.38732567  -0.00892980  0.49747782  1
  Zr  Zr67  1  0.49162255  0.09811553  0.37392700  1
  Zr  Zr68  1  0.19120145  0.00202735  0.26194559  1
  Zr  Zr69  1  0.69289284  0.69432679  0.14924846  1
  Zr  Zr70  1  0.10396865  0.49813034  0.85565283  1
  Zr  Zr71  1  0.60207194  0.78086512  0.74075131  1
  Zr  Zr72  1  0.68992946  0.50126894  0.61606204  1
  Zr  Zr73  1  0.00673083  -0.00089467  -0.00625645  1
  Zr  Zr74  1  0.19771415  0.81404411  0.51675455  1
  Zr  Zr75  1  0.69782203  0.89633363  0.62090887  1
  Zr  Zr76  1  0.89246391  0.10852509  0.86938178  1
  Zr  Zr77  1  0.91086319  0.89221495  0.11627709  1
  Zr  Zr78  1  0.90068825  0.09839516  0.62537402  1
  Zr  Zr79  1  0.28740364  0.69697824  0.13992028  1
  Ta  Ta80  1  0.48832063  0.69646811  0.37282621  1
  Ta  Ta81  1  0.59903796  0.20556675  0.48717460  1
  Ta  Ta82  1  0.49424744  0.70199065  0.14768215  1
  Ta  Ta83  1  0.09943498  0.49820515  0.62493694  1
  Ta  Ta84  1  0.81905328  0.59176482  0.25434250  1
  Ta  Ta85  1  0.51270126  0.29674538  0.11353486  1
  Ta  Ta86  1  0.20466922  0.79572345  0.74196456  1
  Ta  Ta87  1  0.69390967  0.11376081  0.87969556  1
  Ta  Ta88  1  0.29907818  0.89779441  0.85660026  1
  Ta  Ta89  1  0.60504203  0.40202639  -0.00737295  1
  Ta  Ta90  1  0.01229164  0.79775506  0.25353395  1
  Ta  Ta91  1  0.80612989  0.00669652  0.24687608  1
  Ta  Ta92  1  0.59280172  0.79206256  0.00715653  1
  Ta  Ta93  1  0.58725304  0.59017747  0.26431130  1
  Ta  Ta94  1  0.79361734  0.20553124  0.49345810  1
  Ta  Ta95  1  0.19193516  0.39991393  -0.01250284  1
  Ta  Ta96  1  0.89776455  0.31233383  0.86407544  1
  Ta  Ta97  1  0.70293519  0.09900976  0.37990074  1
  Ta  Ta98  1  0.19995856  0.20535948  -0.02046483  1
  Ta  Ta99  1  0.70447334  0.30511122  0.87119827  1
  Ta  Ta100  1  0.29031560  0.31260412  0.86088884  1
  Ta  Ta101  1  0.90889136  0.30430988  0.39278903  1
  Ta  Ta102  1  0.50117761  0.69109817  0.60200751  1
  Ta  Ta103  1  0.10727217  0.69398055  0.85568426  1
  Ta  Ta104  1  -0.00609858  0.59848249  0.73443309  1
  Ta  Ta105  1  0.00248369  0.20434457  0.74883145  1
  Ta  Ta106  1  0.00005200  0.39978773  0.74186362  1
  Ta  Ta107  1  0.30042022  0.69829529  0.38378110  1
  Ta  Ta108  1  0.50141671  0.50489306  0.88704712  1
  Ta  Ta109  1  0.58828036  0.40569241  0.75903294  1
  Ta  Ta110  1  0.10457677  0.89342719  0.86190155  1
  Ta  Ta111  1  0.82334777  0.40457743  0.26959933  1
  Ta  Ta112  1  0.20040308  0.59749470  0.50738851  1
  Ta  Ta113  1  0.20638204  0.78838638  -0.02187760  1
  Ta  Ta114  1  0.10625101  0.10554535  0.10676977  1
  Ta  Ta115  1  0.18960613  -0.00258851  0.50820555  1
  Ta  Ta116  1  0.47511582  0.88483551  0.63674584  1
  Ta  Ta117  1  0.49682020  0.50234517  0.60570679  1
  Ta  Ta118  1  0.80413258  0.39799041  0.49943004  1
  Ta  Ta119  1  0.28958994  0.50870778  0.86463590  1
  Ti  Ti120  1  0.81364723  0.41145525  -0.01711563  1
  Ti  Ti121  1  0.81237664  0.59140097  0.50695395  1
  Ti  Ti122  1  0.59812673  0.20775130  0.26471276  1
  Ti  Ti123  1  0.60065608  0.60597449  0.01049148  1
  Ti  Ti124  1  0.29669016  0.09503697  0.86272844  1
  Ti  Ti125  1  0.79969706  0.41210953  0.74625997  1
  Ti  Ti126  1  0.10350071  0.69696766  0.11965778  1
  Ti  Ti127  1  0.30049733  0.30394960  0.37511699  1
  Ti  Ti128  1  0.49198151  0.89078708  0.35396236  1
  Ti  Ti129  1  0.00374301  0.79813805  0.73561035  1
  Ti  Ti130  1  0.38713019  0.59027113  0.25569623  1
  Ti  Ti131  1  0.19644327  0.21026509  0.74390826  1
  Ti  Ti132  1  0.29706329  0.89280078  0.12905729  1
  Ti  Ti133  1  0.50884000  0.69736182  0.88092062  1
  Ti  Ti134  1  0.69327327  0.69447216  0.59725476  1
  Ti  Ti135  1  0.09999360  0.69701356  0.62534228  1
  Ti  Ti136  1  0.09032178  0.09178092  0.39378876  1
  Ti  Ti137  1  0.00737643  0.20451420  0.51902144  1
  Ti  Ti138  1  0.18957245  0.79677579  0.25849001  1
  Ti  Ti139  1  0.80167584  0.79474162  0.73079418  1
  Ti  Ti140  1  0.59686389  0.59579783  0.74522207  1
  Ti  Ti141  1  0.80707548  0.80590046  0.50473765  1
  Ti  Ti142  1  0.59418883  0.20610283  0.76475579  1
  Ti  Ti143  1  0.09610185  0.08923188  0.63897724  1
  Ti  Ti144  1  0.69700905  0.69770180  0.87846929  1
  Ti  Ti145  1  0.91654010  0.49194821  0.12510631  1
  Ti  Ti146  1  0.90862673  0.70254435  0.61030364  1
  Ti  Ti147  1  0.38478678  0.00767881  0.25263828  1
  Ti  Ti148  1  0.70638297  0.30128861  0.10126725  1
  Ti  Ti149  1  0.49445823  0.31187271  0.62695795  1
  Ti  Ti150  1  0.19845966  0.59785077  0.27509564  1
  Ti  Ti151  1  0.91904301  0.89993746  0.38998214  1
  Ti  Ti152  1  0.91952486  0.68908154  0.13129557  1
  Ti  Ti153  1  0.40620292  0.40439795  0.75998846  1
  Ti  Ti154  1  0.91428837  0.90285659  0.62068513  1
  Ti  Ti155  1  0.50464580  0.30577258  0.88537340  1
  Ti  Ti156  1  0.30508579  0.49955919  0.39939266  1
  Ti  Ti157  1  0.49781800  0.88821010  0.86256625  1
  Ti  Ti158  1  0.01002739  0.78812428  -0.00798816  1
  Ti  Ti159  1  0.80296770  -0.00172881  0.50251951  1
  Mo  Mo160  1  0.20616510  -0.00481702  -0.02438066  1
  Mo  Mo161  1  0.70759065  0.29881541  0.37945774  1
  Mo  Mo162  1  0.39782680  0.39667380  0.49658158  1
  Mo  Mo163  1  0.79847916  0.21594062  -0.01296725  1
  Mo  Mo164  1  0.50074188  0.10068890  0.87700534  1
  Mo  Mo165  1  0.00258054  0.59681118  0.51643962  1
  Mo  Mo166  1  0.49069749  0.50389497  0.38306605  1
  Mo  Mo167  1  0.00174252  -0.00343723  0.74484863  1
  Mo  Mo168  1  -0.00003303  0.39781231  0.52500985  1
  Mo  Mo169  1  0.39074430  0.79266747  0.25645668  1
  Mo  Mo170  1  -0.00257604  0.40741472  -0.02407074  1
  Mo  Mo171  1  0.30701564  0.29963687  0.64826080  1
  Mo  Mo172  1  0.20328464  0.39773624  0.73932407  1
  Mo  Mo173  1  0.40347755  -0.00368499  0.76390806  1
  Mo  Mo174  1  0.28845888  0.50477597  0.11685736  1
  Mo  Mo175  1  0.89919542  0.49924245  0.62298200  1
  Mo  Mo176  1  0.10582609  0.50140537  0.40712448  1
  Mo  Mo177  1  0.29582080  0.69887036  0.85980278  1
  Mo  Mo178  1  0.79657122  0.20793282  0.76280136  1
  Mo  Mo179  1  0.49500046  0.29760865  0.37270314  1
  Mo  Mo180  1  0.40224252  0.80109597  0.48600310  1
  Mo  Mo181  1  0.30168881  0.90105466  0.64217549  1
  Mo  Mo182  1  0.91443517  0.49420244  0.40273191  1
  Mo  Mo183  1  -0.00185574  0.40569312  0.25917696  1
  Mo  Mo184  1  0.19753781  0.60463396  0.72698361  1
  Mo  Mo185  1  0.09791442  0.29510965  0.63542581  1
  Mo  Mo186  1  0.29053019  0.10159745  0.38663025  1
  Mo  Mo187  1  0.39846843  0.59817497  0.49214940  1
  Mo  Mo188  1  0.59391297  0.79612774  0.26294256  1
  Mo  Mo189  1  0.10282816  0.30202376  0.85477010  1
  Mo  Mo190  1  0.20104012  -0.00447493  0.74875527  1
  Mo  Mo191  1  0.00938245  -0.00376431  0.51558337  1
  Mo  Mo192  1  0.59910216  0.20987562  -0.01386604  1
  Mo  Mo193  1  0.09904069  0.90283294  0.64725259  1
  Mo  Mo194  1  0.59563055  0.60065786  0.48387396  1
  Mo  Mo195  1  0.19979178  0.60224869  -0.00924078  1
  Mo  Mo196  1  0.09017759  0.90013055  0.37879203  1
  Mo  Mo197  1  0.89922696  0.50276064  0.84822030  1
  Mo  Mo198  1  -0.00031800  0.80459820  0.51814611  1
  Mo  Mo199  1  0.40522326  0.79274971  0.76472975  1
