# generated using pymatgen
data_HfZrTaTiMo
_symmetry_space_group_name_H-M   'P 1'
_cell_length_a   15.94806505
_cell_length_b   15.94478745
_cell_length_c   15.15919482
_cell_angle_alpha   89.93420992
_cell_angle_beta   89.98248463
_cell_angle_gamma   90.09359967
_symmetry_Int_Tables_number   1
_chemical_formula_structural   HfZrTaTiMo
_chemical_formula_sum   'Hf40 Zr40 Ta40 Ti40 Mo40'
_cell_volume   3854.80115742
_cell_formula_units_Z   40
loop_
 _symmetry_equiv_pos_site_id
 _symmetry_equiv_pos_as_xyz
  1  'x, y, z'
loop_
 _atom_site_type_symbol
 _atom_site_label
 _atom_site_symmetry_multiplicity
 _atom_site_fract_x
 _atom_site_fract_y
 _atom_site_fract_z
 _atom_site_occupancy
  Hf  Hf0  1  0.48965598  0.30586112  0.63454989  1
  Hf  Hf1  1  0.09113669  0.49611249  0.14754793  1
  Hf  Hf2  1  -0.00836651  0.60153853  -0.01304223  1
  Hf  Hf3  1  0.89586667  0.50075717  0.36740115  1
  Hf  Hf4  1  0.31118684  0.88682076  0.61528453  1
  Hf  Hf5  1  0.29499749  0.50061502  0.12550333  1
  Hf  Hf6  1  0.69269717  0.69429345  0.36412227  1
  Hf  Hf7  1  0.68970492  0.50023506  0.36484358  1
  Hf  Hf8  1  0.17155445  0.19465029  0.01491803  1
  Hf  Hf9  1  0.00094975  0.39833996  -0.01218086  1
  Hf  Hf10  1  0.20738713  0.20741634  0.26159009  1
  Hf  Hf11  1  0.10688443  0.09704062  0.60601234  1
  Hf  Hf12  1  0.30187550  0.69232985  0.62939906  1
  Hf  Hf13  1  0.59602338  0.79554993  0.49024846  1
  Hf  Hf14  1  0.79304750  0.59685086  0.50804445  1
  Hf  Hf15  1  0.38907272  0.18992443  -0.00388746  1
  Hf  Hf16  1  0.20814616  0.00647956  0.01360317  1
  Hf  Hf17  1  -0.00191851  0.80672175  0.73428346  1
  Hf  Hf18  1  0.09497752  0.71042005  0.87744352  1
  Hf  Hf19  1  0.90128985  0.29915780  0.85986161  1
  Hf  Hf20  1  0.90310941  0.50288494  0.14129865  1
  Hf  Hf21  1  -0.00243576  0.19850164  0.49481562  1
  Hf  Hf22  1  0.70473557  0.30403197  0.64040952  1
  Hf  Hf23  1  0.10692310  0.50740470  0.61911057  1
  Hf  Hf24  1  0.60354374  0.00533590  0.25181202  1
  Hf  Hf25  1  0.20453525  0.80077325  0.25815135  1
  Hf  Hf26  1  0.59334598  0.18725099  0.75095762  1
  Hf  Hf27  1  0.59597429  0.41399213  0.52242424  1
  Hf  Hf28  1  0.19239422  0.60135394  0.00704529  1
  Hf  Hf29  1  0.31345895  0.08978110  0.62183198  1
  Hf  Hf30  1  0.20646744  -0.00871380  0.74638723  1
  Hf  Hf31  1  0.40417580  0.19452939  0.49602451  1
  Hf  Hf32  1  0.78437997  0.19566528  0.24404698  1
  Hf  Hf33  1  0.10481700  0.90668229  0.88626266  1
  Hf  Hf34  1  0.70108116  0.70087340  0.63719359  1
  Hf  Hf35  1  0.29005978  0.48573529  0.36213644  1
  Hf  Hf36  1  0.70794273  0.89727581  0.61960355  1
  Hf  Hf37  1  0.91997949  0.11200201  0.14006505  1
  Hf  Hf38  1  0.91330933  0.89884266  0.12354380  1
  Hf  Hf39  1  0.80920522  -0.01015998  0.75658041  1
  Zr  Zr40  1  0.29222141  0.09648663  0.87196515  1
  Zr  Zr41  1  0.40512565  0.60544723  0.00455861  1
  Zr  Zr42  1  0.29107305  0.49598189  0.86968565  1
  Zr  Zr43  1  0.59739777  0.39319928  0.23112678  1
  Zr  Zr44  1  0.79386152  0.40795006  -0.00368419  1
  Zr  Zr45  1  0.40273026  0.39832016  0.24333378  1
  Zr  Zr46  1  0.39518653  0.19646935  0.75175906  1
  Zr  Zr47  1  0.50300410  0.29827627  0.09572013  1
  Zr  Zr48  1  0.49015079  0.70215215  0.63863956  1
  Zr  Zr49  1  0.49982836  0.90600862  0.61907184  1
  Zr  Zr50  1  0.89376317  0.30317400  0.37118141  1
  Zr  Zr51  1  0.59496838  0.00430236  0.48443471  1
  Zr  Zr52  1  0.10870445  0.31932481  0.37672079  1
  Zr  Zr53  1  0.51532278  0.10236084  0.11676064  1
  Zr  Zr54  1  0.70194526  0.08749574  0.63007078  1
  Zr  Zr55  1  0.10579499  0.91220690  0.14194256  1
  Zr  Zr56  1  0.92015840  0.89631797  0.89672263  1
  Zr  Zr57  1  0.41235611  0.20231300  0.25563829  1
  Zr  Zr58  1  0.90359567  0.30567290  0.13437742  1
  Zr  Zr59  1  0.79838539  0.59499294  -0.01115748  1
  Zr  Zr60  1  0.59558281  0.19599717  0.50997129  1
  Zr  Zr61  1  0.80297110  0.00663282  0.00719029  1
  Zr  Zr62  1  0.58987836  0.59812214  0.51492411  1
  Zr  Zr63  1  0.80595791  0.78800380  -0.00687818  1
  Zr  Zr64  1  0.80313349  0.19668796  0.00103182  1
  Zr  Zr65  1  0.69243689  0.89959055  0.12114384  1
  Zr  Zr66  1  0.10815930  0.89519049  0.60391441  1
  Zr  Zr67  1  -0.00664183  0.00044444  0.73032338  1
  Zr  Zr68  1  0.29229326  0.30269196  0.11450744  1
  Zr  Zr69  1  0.28252289  0.30415870  0.87017835  1
  Zr  Zr70  1  0.59849728  0.81386652  0.76390908  1
  Zr  Zr71  1  0.89414553  0.30365877  0.62336184  1
  Zr  Zr72  1  0.69743243  0.30444231  0.38712614  1
  Zr  Zr73  1  0.69926676  0.29843200  0.86591404  1
  Zr  Zr74  1  0.10307550  0.69885403  0.61390313  1
  Zr  Zr75  1  0.21543990  -0.00355847  0.48262040  1
  Zr  Zr76  1  0.20521707  0.79758516  0.01740121  1
  Zr  Zr77  1  0.00074450  0.19751169  0.72918053  1
  Zr  Zr78  1  0.69361999  0.69932177  0.12781455  1
  Zr  Zr79  1  0.80111711  0.80589704  0.25499479  1
  Ta  Ta80  1  -0.00418594  0.60331942  0.75596756  1
  Ta  Ta81  1  0.00150698  0.40783082  0.74188751  1
  Ta  Ta82  1  0.39682589  0.80224475  0.77173062  1
  Ta  Ta83  1  0.40935736  -0.00972902  0.24793756  1
  Ta  Ta84  1  0.50177764  0.09044915  0.88528519  1
  Ta  Ta85  1  0.80321603  0.00374568  0.25582805  1
  Ta  Ta86  1  0.08377947  0.29700399  0.14911181  1
  Ta  Ta87  1  0.09791239  0.10675908  0.86177385  1
  Ta  Ta88  1  0.80975271  0.79770328  0.75814751  1
  Ta  Ta89  1  0.59320581  0.41225340  0.75560931  1
  Ta  Ta90  1  0.80415453  0.60004376  0.75742923  1
  Ta  Ta91  1  0.40103714  0.78940244  0.47455892  1
  Ta  Ta92  1  0.00168617  0.80196061  0.26729842  1
  Ta  Ta93  1  0.29996881  0.09006892  0.14284560  1
  Ta  Ta94  1  0.01853474  0.02814466  0.01152995  1
  Ta  Ta95  1  0.29650029  0.31721784  0.62519662  1
  Ta  Ta96  1  0.49578196  0.30409331  0.87470427  1
  Ta  Ta97  1  0.70123069  0.89959084  0.37338858  1
  Ta  Ta98  1  -0.00406355  0.41197151  0.50427926  1
  Ta  Ta99  1  0.20731605  0.80058889  0.75828474  1
  Ta  Ta100  1  0.41489636  -0.01165794  0.76370997  1
  Ta  Ta101  1  0.21153141  0.78827923  0.47407447  1
  Ta  Ta102  1  0.90137106  0.69999386  0.61728893  1
  Ta  Ta103  1  0.20081789  0.60707742  0.25297552  1
  Ta  Ta104  1  0.20948502  0.59817379  0.48527948  1
  Ta  Ta105  1  0.49752500  0.50003855  0.37303249  1
  Ta  Ta106  1  -0.00470526  0.80119342  0.48740473  1
  Ta  Ta107  1  0.10237940  0.10180447  0.37432878  1
  Ta  Ta108  1  0.90940758  0.69760379  0.14181071  1
  Ta  Ta109  1  0.50129228  0.30893571  0.38629556  1
  Ta  Ta110  1  0.09510548  0.50615468  0.37548102  1
  Ta  Ta111  1  0.31025518  0.89922970  0.89498675  1
  Ta  Ta112  1  0.39489151  0.59773567  0.48824869  1
  Ta  Ta113  1  0.49893582  0.69026180  0.35527868  1
  Ta  Ta114  1  0.50066166  0.69795618  0.87387558  1
  Ta  Ta115  1  0.31669529  0.71269136  0.13862193  1
  Ta  Ta116  1  0.89938288  0.69346918  0.37565680  1
  Ta  Ta117  1  -0.00390433  0.00174339  0.27231771  1
  Ta  Ta118  1  0.21189769  0.20856051  0.49434263  1
  Ta  Ta119  1  0.60045159  0.59209599  -0.00382756  1
  Ti  Ti120  1  0.30761009  0.09747417  0.36531540  1
  Ti  Ti121  1  0.79409309  0.41087660  0.51382366  1
  Ti  Ti122  1  0.58779161  0.58752641  0.22192479  1
  Ti  Ti123  1  0.91395743  0.10267735  0.88248525  1
  Ti  Ti124  1  0.79181312  0.59831877  0.24251199  1
  Ti  Ti125  1  0.19766420  0.20349018  0.72968821  1
  Ti  Ti126  1  0.69978912  0.89970880  0.88458387  1
  Ti  Ti127  1  0.59803540  0.59276428  0.75832702  1
  Ti  Ti128  1  0.58453803  0.80706828  0.25056414  1
  Ti  Ti129  1  0.29731779  0.70239322  0.87921516  1
  Ti  Ti130  1  0.10522309  0.31026832  0.61349277  1
  Ti  Ti131  1  0.19812185  0.60338364  0.75449681  1
  Ti  Ti132  1  0.80205749  0.18862499  0.50450881  1
  Ti  Ti133  1  0.31243431  0.89697624  0.36237616  1
  Ti  Ti134  1  0.10125867  0.49429135  0.86133581  1
  Ti  Ti135  1  0.90109066  0.50704828  0.62864798  1
  Ti  Ti136  1  0.80937439  0.18067652  0.74544088  1
  Ti  Ti137  1  0.69936426  0.09347973  0.87383681  1
  Ti  Ti138  1  0.48468039  0.88650004  0.11140793  1
  Ti  Ti139  1  0.40524129  0.59726971  0.24053570  1
  Ti  Ti140  1  0.69992952  0.10457252  0.37668948  1
  Ti  Ti141  1  0.80338932  0.80045591  0.49200091  1
  Ti  Ti142  1  0.40306018  0.40895465  -0.01137500  1
  Ti  Ti143  1  0.39100818  0.40802012  0.50022832  1
  Ti  Ti144  1  0.09081990  0.70016736  0.13542802  1
  Ti  Ti145  1  0.78412670  0.39951140  0.23408541  1
  Ti  Ti146  1  -0.01263221  -0.00255188  0.48904855  1
  Ti  Ti147  1  0.18336958  0.39849654  0.00654938  1
  Ti  Ti148  1  0.69681581  0.69829366  0.87036330  1
  Ti  Ti149  1  0.60164152  -0.00181976  -0.00161744  1
  Ti  Ti150  1  0.09519049  0.69267679  0.37917058  1
  Ti  Ti151  1  0.80794189  -0.00248555  0.48485617  1
  Ti  Ti152  1  0.41365226  -0.00152204  0.47610425  1
  Ti  Ti153  1  0.47357729  0.50190367  0.64064732  1
  Ti  Ti154  1  0.68472698  0.28169793  0.10823228  1
  Ti  Ti155  1  0.10239747  0.90335306  0.37643024  1
  Ti  Ti156  1  0.09918647  0.29821978  0.85889439  1
  Ti  Ti157  1  0.39744350  0.59728844  0.76731794  1
  Ti  Ti158  1  0.59018987  0.78991998  -0.00281151  1
  Ti  Ti159  1  0.60194386  0.41259968  -0.01115769  1
  Mo  Mo160  1  0.30996108  0.90241483  0.13164190  1
  Mo  Mo161  1  0.39730962  0.40403680  0.75837990  1
  Mo  Mo162  1  0.40554726  0.80006891  0.25833500  1
  Mo  Mo163  1  0.60433751  -0.00431220  0.77328255  1
  Mo  Mo164  1  0.89495789  0.09122269  0.60190973  1
  Mo  Mo165  1  0.30476664  0.68908825  0.35928719  1
  Mo  Mo166  1  0.49872832  0.50096085  0.87588882  1
  Mo  Mo167  1  0.40174589  -0.00395346  0.01468843  1
  Mo  Mo168  1  0.00517419  0.79275153  0.02364927  1
  Mo  Mo169  1  0.20660376  0.00249505  0.26442174  1
  Mo  Mo170  1  0.00515174  0.20482314  -0.00993821  1
  Mo  Mo171  1  0.69733671  0.49650366  0.12611416  1
  Mo  Mo172  1  0.40403302  0.79538013  -0.00751222  1
  Mo  Mo173  1  0.50252521  0.10407311  0.35870263  1
  Mo  Mo174  1  0.10108381  0.10533261  0.15877070  1
  Mo  Mo175  1  0.49848049  0.50098531  0.10539482  1
  Mo  Mo176  1  0.00104226  0.60877994  0.26526121  1
  Mo  Mo177  1  0.90383605  0.49647896  0.85775231  1
  Mo  Mo178  1  0.50154091  0.89820874  0.90019156  1
  Mo  Mo179  1  0.60223365  0.19651765  -0.02679737  1
  Mo  Mo180  1  0.50227723  0.70192012  0.13220191  1
  Mo  Mo181  1  0.20257542  0.40737080  0.51445645  1
  Mo  Mo182  1  0.80101761  0.41366138  0.74974573  1
  Mo  Mo183  1  0.60108265  0.20276051  0.26274293  1
  Mo  Mo184  1  0.89847089  0.89868552  0.38041559  1
  Mo  Mo185  1  0.19745326  0.40166850  0.23894475  1
  Mo  Mo186  1  0.69594161  0.50488857  0.86137786  1
  Mo  Mo187  1  0.70327996  0.50233705  0.64656183  1
  Mo  Mo188  1  0.89394262  0.09939466  0.37685761  1
  Mo  Mo189  1  0.70265757  0.10062023  0.12205513  1
  Mo  Mo190  1  0.30630873  0.30352586  0.39352270  1
  Mo  Mo191  1  -0.00312265  0.60140074  0.49217606  1
  Mo  Mo192  1  0.49720342  0.09065435  0.64515403  1
  Mo  Mo193  1  0.00028947  0.19918857  0.27772562  1
  Mo  Mo194  1  0.19114754  0.39892166  0.73632819  1
  Mo  Mo195  1  0.89385781  0.89175616  0.60138350  1
  Mo  Mo196  1  -0.00464388  0.40272073  0.26945149  1
  Mo  Mo197  1  0.90365652  0.70202020  0.86075992  1
  Mo  Mo198  1  0.30245047  0.50686203  0.63335132  1
  Mo  Mo199  1  0.50125808  0.89607073  0.37113380  1
