# generated using pymatgen
data_HfZrTaTiMo
_symmetry_space_group_name_H-M   'P 1'
_cell_length_a   15.93166856
_cell_length_b   15.92475000
_cell_length_c   15.19983821
_cell_angle_alpha   90.00181064
_cell_angle_beta   89.95107121
_cell_angle_gamma   90.05730879
_symmetry_Int_Tables_number   1
_chemical_formula_structural   HfZrTaTiMo
_chemical_formula_sum   'Hf40 Zr40 Ta40 Ti40 Mo40'
_cell_volume   3856.31476783
_cell_formula_units_Z   40
loop_
 _symmetry_equiv_pos_site_id
 _symmetry_equiv_pos_as_xyz
  1  'x, y, z'
loop_
 _atom_site_type_symbol
 _atom_site_label
 _atom_site_symmetry_multiplicity
 _atom_site_fract_x
 _atom_site_fract_y
 _atom_site_fract_z
 _atom_site_occupancy
  Hf  Hf0  1  0.39795620  0.19898456  -0.00751882  1
  Hf  Hf1  1  0.49764358  0.09074443  0.61586345  1
  Hf  Hf2  1  0.10169734  0.10266478  0.12286726  1
  Hf  Hf3  1  0.68911562  0.89966118  0.12192881  1
  Hf  Hf4  1  -0.00292001  0.00172144  -0.00491830  1
  Hf  Hf5  1  0.59832665  0.79683635  0.75056788  1
  Hf  Hf6  1  0.70616996  0.10107066  0.86233382  1
  Hf  Hf7  1  0.50043613  0.29782712  0.61055800  1
  Hf  Hf8  1  0.30252683  0.49517519  0.86621239  1
  Hf  Hf9  1  0.88916285  0.69246506  0.36988320  1
  Hf  Hf10  1  0.49409856  0.50896182  0.37441083  1
  Hf  Hf11  1  0.59520670  0.00220845  -0.00977443  1
  Hf  Hf12  1  0.69872586  0.90387946  0.62650452  1
  Hf  Hf13  1  0.31273305  0.69148232  0.37963157  1
  Hf  Hf14  1  0.39274032  0.20512523  0.26974232  1
  Hf  Hf15  1  0.01531225  0.21362016  -0.01702335  1
  Hf  Hf16  1  0.19303686  0.79821460  0.49686057  1
  Hf  Hf17  1  0.59923370  0.00127782  0.26593046  1
  Hf  Hf18  1  0.59802522  0.59223144  0.74303943  1
  Hf  Hf19  1  0.09272154  0.08912564  0.38807123  1
  Hf  Hf20  1  0.89914234  0.70330383  0.63223622  1
  Hf  Hf21  1  0.59802887  0.79918806  0.48909931  1
  Hf  Hf22  1  0.89944964  0.30923655  0.10674451  1
  Hf  Hf23  1  -0.00113535  0.80883015  0.75799165  1
  Hf  Hf24  1  0.00202468  0.40168738  0.49684165  1
  Hf  Hf25  1  0.73284679  0.50955039  0.39399089  1
  Hf  Hf26  1  0.30398154  0.49343017  0.37939784  1
  Hf  Hf27  1  0.40328819  0.18593832  0.75080100  1
  Hf  Hf28  1  0.80881813  0.20631360  0.51268759  1
  Hf  Hf29  1  0.29715447  0.69751250  0.87579769  1
  Hf  Hf30  1  0.00103820  0.20960377  0.26069213  1
  Hf  Hf31  1  0.91209323  0.09498478  0.63416438  1
  Hf  Hf32  1  0.60671124  0.60687461  0.49553676  1
  Hf  Hf33  1  0.39661557  -0.00109890  0.49293863  1
  Hf  Hf34  1  0.28429928  0.28534376  0.85717050  1
  Hf  Hf35  1  0.81235558  0.59914147  0.00484969  1
  Hf  Hf36  1  0.18865455  0.58023260  0.00231068  1
  Hf  Hf37  1  0.79641781  0.59766228  0.75179754  1
  Hf  Hf38  1  0.80871988  0.41329137  0.23871688  1
  Hf  Hf39  1  0.30315081  0.09423968  0.13551737  1
  Zr  Zr40  1  0.40312198  0.40248002  0.74011192  1
  Zr  Zr41  1  0.89973548  0.11096146  0.12205812  1
  Zr  Zr42  1  0.49071251  0.90090111  0.13350520  1
  Zr  Zr43  1  0.79639894  0.80031753  0.24126606  1
  Zr  Zr44  1  0.10220638  0.70338295  0.11353644  1
  Zr  Zr45  1  0.01069932  0.42109229  -0.00640871  1
  Zr  Zr46  1  0.00983515  0.20543352  0.75375864  1
  Zr  Zr47  1  0.79569662  0.21510912  0.26009076  1
  Zr  Zr48  1  0.29812689  0.90170291  0.62459091  1
  Zr  Zr49  1  0.59202822  0.20068975  -0.01250412  1
  Zr  Zr50  1  0.70557693  0.31056398  0.87661285  1
  Zr  Zr51  1  0.89942602  0.90848254  0.37556981  1
  Zr  Zr52  1  0.00624023  0.40371325  0.24595604  1
  Zr  Zr53  1  0.80802506  0.80682453  0.00565405  1
  Zr  Zr54  1  0.48553420  0.70216073  0.61830906  1
  Zr  Zr55  1  0.70791604  0.09745034  0.38286060  1
  Zr  Zr56  1  0.58437118  0.00249445  0.75618619  1
  Zr  Zr57  1  0.59015731  0.40361031  0.00612516  1
  Zr  Zr58  1  0.19592745  0.80055866  0.74415667  1
  Zr  Zr59  1  0.79795814  0.79827440  0.50152815  1
  Zr  Zr60  1  0.19261997  0.59506354  0.50016180  1
  Zr  Zr61  1  0.70642088  0.89479736  0.86978683  1
  Zr  Zr62  1  -0.00412105  0.59720167  0.48785274  1
  Zr  Zr63  1  -0.00196320  -0.01299183  0.23991021  1
  Zr  Zr64  1  0.40012611  0.59373816  0.01329619  1
  Zr  Zr65  1  0.50034440  0.10335233  0.14428027  1
  Zr  Zr66  1  0.61449204  0.40072695  0.25536587  1
  Zr  Zr67  1  0.69523838  0.11513797  0.12961629  1
  Zr  Zr68  1  0.20509563  0.38352198  0.24240283  1
  Zr  Zr69  1  0.39936741  0.00690491  -0.01487250  1
  Zr  Zr70  1  0.19518969  0.38196583  0.01218676  1
  Zr  Zr71  1  0.19875130  0.59763592  0.24581084  1
  Zr  Zr72  1  0.60339042  0.19667742  0.50056375  1
  Zr  Zr73  1  0.09346849  0.69714753  0.63187101  1
  Zr  Zr74  1  0.60876802  0.40329015  0.73153482  1
  Zr  Zr75  1  0.39623254  0.38981577  0.01105824  1
  Zr  Zr76  1  0.19555328  -0.00959544  0.25260579  1
  Zr  Zr77  1  0.61783265  0.60846307  0.25867399  1
  Zr  Zr78  1  0.50130480  0.70329691  0.13341284  1
  Zr  Zr79  1  0.49386562  0.69090439  0.87061530  1
  Ta  Ta80  1  0.70097857  0.31602189  0.39973702  1
  Ta  Ta81  1  0.29839068  0.29369012  0.61848821  1
  Ta  Ta82  1  0.39433237  0.80313938  -0.00154187  1
  Ta  Ta83  1  0.50001403  0.50013498  0.14591587  1
  Ta  Ta84  1  0.29243511  0.09460370  0.62671364  1
  Ta  Ta85  1  0.20404176  0.00194005  -0.00478844  1
  Ta  Ta86  1  0.19849158  0.20024257  0.25562091  1
  Ta  Ta87  1  0.70160087  0.50201122  0.88605724  1
  Ta  Ta88  1  0.09146509  0.49524664  0.63829849  1
  Ta  Ta89  1  0.90238164  0.09949197  0.86506954  1
  Ta  Ta90  1  0.49961157  0.30217596  0.86058795  1
  Ta  Ta91  1  -0.00158814  0.59819674  0.25054837  1
  Ta  Ta92  1  0.70171497  0.69666857  0.87766254  1
  Ta  Ta93  1  0.19153003  0.19477116  0.51271017  1
  Ta  Ta94  1  0.80072379  -0.00020996  0.23542016  1
  Ta  Ta95  1  0.19911508  0.59487642  0.74918080  1
  Ta  Ta96  1  0.29767476  0.50030502  0.62282444  1
  Ta  Ta97  1  0.11683739  0.10072562  0.86469176  1
  Ta  Ta98  1  0.28974331  0.10106701  0.38964202  1
  Ta  Ta99  1  0.80283349  0.00578891  0.00582333  1
  Ta  Ta100  1  0.10389546  0.89926596  0.88591125  1
  Ta  Ta101  1  0.92000944  0.71122372  0.12201609  1
  Ta  Ta102  1  0.50145387  0.30686800  0.38401291  1
  Ta  Ta103  1  0.09517654  0.88540989  0.10615329  1
  Ta  Ta104  1  0.00307178  0.80370791  0.49066021  1
  Ta  Ta105  1  0.70319046  0.09743929  0.62968425  1
  Ta  Ta106  1  0.29560468  0.90101172  0.87016474  1
  Ta  Ta107  1  0.39138054  0.79994342  0.25711124  1
  Ta  Ta108  1  0.90796358  0.30891655  0.63108469  1
  Ta  Ta109  1  0.28988064  0.89047901  0.12164881  1
  Ta  Ta110  1  0.79933708  0.40414643  0.73661871  1
  Ta  Ta111  1  0.80871423  0.60084409  0.22590603  1
  Ta  Ta112  1  0.50622069  0.29402407  0.14876997  1
  Ta  Ta113  1  0.19254220  0.39420313  0.74089343  1
  Ta  Ta114  1  0.80641698  0.20253984  -0.01668946  1
  Ta  Ta115  1  -0.00072586  0.59429152  0.76939918  1
  Ta  Ta116  1  0.49324464  0.89575415  0.37823743  1
  Ta  Ta117  1  0.29462019  0.89746442  0.38081700  1
  Ta  Ta118  1  0.09843810  0.69872241  0.88395111  1
  Ta  Ta119  1  0.80043826  0.20847545  0.74290973  1
  Ti  Ti120  1  0.29744860  0.29590098  0.40002105  1
  Ti  Ti121  1  0.49847114  0.10340982  0.38286090  1
  Ti  Ti122  1  0.10735524  0.29550845  0.38800322  1
  Ti  Ti123  1  0.91065090  0.90361753  0.62765657  1
  Ti  Ti124  1  0.48903071  0.89628384  0.87123295  1
  Ti  Ti125  1  0.49919461  0.49784497  0.87092174  1
  Ti  Ti126  1  0.90274774  0.50253762  0.62931172  1
  Ti  Ti127  1  0.10378619  0.49637369  0.36967666  1
  Ti  Ti128  1  0.89154955  0.31797542  0.38742053  1
  Ti  Ti129  1  0.18847773  0.79963652  0.26176523  1
  Ti  Ti130  1  0.10185784  0.07711548  0.63071374  1
  Ti  Ti131  1  0.29850948  0.70465293  0.12540184  1
  Ti  Ti132  1  0.00005865  0.20000378  0.50412929  1
  Ti  Ti133  1  0.70067442  0.30120909  0.11349223  1
  Ti  Ti134  1  0.30528550  0.69357864  0.62023607  1
  Ti  Ti135  1  0.90015093  0.09875960  0.37948761  1
  Ti  Ti136  1  0.70341512  0.70154336  0.63197453  1
  Ti  Ti137  1  0.39918841  0.39412962  0.25034980  1
  Ti  Ti138  1  0.49581384  0.50525625  0.60913742  1
  Ti  Ti139  1  0.49383852  0.89736876  0.61465151  1
  Ti  Ti140  1  0.39948073  0.40107822  0.50358900  1
  Ti  Ti141  1  0.89838878  0.70561403  0.87554994  1
  Ti  Ti142  1  0.39340105  -0.00344754  0.26672061  1
  Ti  Ti143  1  0.89899783  0.90566106  0.87096331  1
  Ti  Ti144  1  0.09819601  0.29909045  0.62720869  1
  Ti  Ti145  1  0.59947702  0.79749112  0.26886004  1
  Ti  Ti146  1  0.89484149  0.49478128  0.87414900  1
  Ti  Ti147  1  0.80777802  -0.00418590  0.74633233  1
  Ti  Ti148  1  0.80468776  0.00209458  0.51084477  1
  Ti  Ti149  1  0.59707308  0.59894148  -0.00048618  1
  Ti  Ti150  1  0.69616652  0.70178924  0.11107390  1
  Ti  Ti151  1  0.60424665  0.20404249  0.74135137  1
  Ti  Ti152  1  0.90031417  0.30991263  0.86797026  1
  Ti  Ti153  1  0.70279654  0.90514075  0.38045955  1
  Ti  Ti154  1  0.39687212  0.80134831  0.75205021  1
  Ti  Ti155  1  0.70287413  0.49891989  0.10904715  1
  Ti  Ti156  1  0.30432902  0.49644937  0.13583201  1
  Ti  Ti157  1  0.59149974  0.79699431  -0.01027604  1
  Ti  Ti158  1  0.20722468  0.19717937  0.00661424  1
  Ti  Ti159  1  0.19578614  0.39838775  0.51211973  1
  Mo  Mo160  1  0.39172695  0.19959908  0.49412418  1
  Mo  Mo161  1  0.39226184  0.59716851  0.73483083  1
  Mo  Mo162  1  0.50104095  0.10395750  0.86222272  1
  Mo  Mo163  1  0.70480662  0.70312402  0.37165723  1
  Mo  Mo164  1  0.19613869  -0.00181871  0.75742070  1
  Mo  Mo165  1  0.29349486  0.09196895  0.85788769  1
  Mo  Mo166  1  0.10517377  0.29981422  0.85994463  1
  Mo  Mo167  1  -0.00197846  0.60436922  -0.01645382  1
  Mo  Mo168  1  0.60005559  -0.00604531  0.49403109  1
  Mo  Mo169  1  0.80808457  0.40410802  0.52266985  1
  Mo  Mo170  1  0.80399970  0.60373219  0.52272689  1
  Mo  Mo171  1  0.20619843  0.80064702  -0.00590864  1
  Mo  Mo172  1  0.39945312  0.60022493  0.23622591  1
  Mo  Mo173  1  -0.00411063  0.40447956  0.75577408  1
  Mo  Mo174  1  0.30770305  0.28737181  0.13169830  1
  Mo  Mo175  1  0.70576275  0.30136276  0.61869007  1
  Mo  Mo176  1  0.59678717  0.21039555  0.27710799  1
  Mo  Mo177  1  0.19892589  0.19541667  0.72465397  1
  Mo  Mo178  1  0.39455394  -0.00943028  0.75312685  1
  Mo  Mo179  1  0.09885565  0.89676168  0.38747022  1
  Mo  Mo180  1  0.49776592  0.70325118  0.36743548  1
  Mo  Mo181  1  0.90861005  0.51250807  0.11734819  1
  Mo  Mo182  1  0.00736615  0.79513549  0.26155868  1
  Mo  Mo183  1  0.10256152  0.29034396  0.12858742  1
  Mo  Mo184  1  0.60172426  0.40671759  0.50159589  1
  Mo  Mo185  1  0.80146206  0.40301943  0.00328009  1
  Mo  Mo186  1  0.39605582  0.79876221  0.48811579  1
  Mo  Mo187  1  0.39858127  0.59510598  0.51101990  1
  Mo  Mo188  1  0.80076130  0.80098703  0.75297514  1
  Mo  Mo189  1  0.10108007  0.50158526  0.13719239  1
  Mo  Mo190  1  0.70576211  0.50345870  0.61128412  1
  Mo  Mo191  1  0.90317749  0.89996946  0.12300601  1
  Mo  Mo192  1  -0.00209535  0.80273218  -0.01908244  1
  Mo  Mo193  1  0.00280318  -0.00372499  0.76461039  1
  Mo  Mo194  1  -0.00452651  -0.00226192  0.50526244  1
  Mo  Mo195  1  0.08978218  0.90775871  0.61408611  1
  Mo  Mo196  1  0.10379500  0.49801789  0.85568598  1
  Mo  Mo197  1  0.90416741  0.50062941  0.37436458  1
  Mo  Mo198  1  0.19409157  -0.00193838  0.49923760  1
  Mo  Mo199  1  0.09572590  0.70332472  0.36264281  1
