# generated using pymatgen
data_HfZrTaTiMo
_symmetry_space_group_name_H-M   'P 1'
_cell_length_a   15.92221308
_cell_length_b   15.92133864
_cell_length_c   15.19796848
_cell_angle_alpha   90.01369386
_cell_angle_beta   89.92551784
_cell_angle_gamma   89.98183883
_symmetry_Int_Tables_number   1
_chemical_formula_structural   HfZrTaTiMo
_chemical_formula_sum   'Hf40 Zr40 Ta40 Ti40 Mo40'
_cell_volume   3852.72622945
_cell_formula_units_Z   40
loop_
 _symmetry_equiv_pos_site_id
 _symmetry_equiv_pos_as_xyz
  1  'x, y, z'
loop_
 _atom_site_type_symbol
 _atom_site_label
 _atom_site_symmetry_multiplicity
 _atom_site_fract_x
 _atom_site_fract_y
 _atom_site_fract_z
 _atom_site_occupancy
  Hf  Hf0  1  0.69237217  0.30179322  0.63112642  1
  Hf  Hf1  1  0.40045598  0.39954397  0.49633295  1
  Hf  Hf2  1  0.19785202  0.40064048  0.24080018  1
  Hf  Hf3  1  -0.00281861  0.00379583  0.00683526  1
  Hf  Hf4  1  0.69591055  0.88080795  0.60551622  1
  Hf  Hf5  1  0.40985113  0.79076947  0.75553675  1
  Hf  Hf6  1  0.49232829  0.30645752  0.63057747  1
  Hf  Hf7  1  0.09626782  0.50658134  0.88701737  1
  Hf  Hf8  1  0.09941254  0.29944488  0.86874315  1
  Hf  Hf9  1  0.40745675  0.40901384  0.23744924  1
  Hf  Hf10  1  0.39443376  0.00605470  0.00146491  1
  Hf  Hf11  1  0.69263279  0.09672987  0.62006026  1
  Hf  Hf12  1  0.80342388  -0.01861325  0.74173380  1
  Hf  Hf13  1  0.10199654  0.10309100  0.86908453  1
  Hf  Hf14  1  0.69250306  0.10223448  0.85850367  1
  Hf  Hf15  1  0.39900255  0.20095909  0.00224834  1
  Hf  Hf16  1  0.61251657  0.61053843  0.77465298  1
  Hf  Hf17  1  0.90445544  0.50099191  0.87979874  1
  Hf  Hf18  1  0.80002912  0.19732086  0.49106406  1
  Hf  Hf19  1  0.31402355  0.49722204  0.62995389  1
  Hf  Hf20  1  0.00035115  0.20286088  0.48347681  1
  Hf  Hf21  1  0.89709690  0.50639281  0.62906858  1
  Hf  Hf22  1  0.50449275  0.29416340  0.86770032  1
  Hf  Hf23  1  0.30232794  0.30492524  0.36975608  1
  Hf  Hf24  1  0.19387842  0.59646462  0.23896547  1
  Hf  Hf25  1  0.20390840  0.00701583  0.48407331  1
  Hf  Hf26  1  -0.00146648  0.00885580  0.26120680  1
  Hf  Hf27  1  -0.00638054  0.20280532  0.00637495  1
  Hf  Hf28  1  0.20678731  0.40632820  0.75041614  1
  Hf  Hf29  1  0.10402208  0.30101495  0.62341373  1
  Hf  Hf30  1  0.79732089  0.39222690  -0.00026001  1
  Hf  Hf31  1  0.79987193  0.40057420  0.50730424  1
  Hf  Hf32  1  -0.01205725  0.80257595  0.74140135  1
  Hf  Hf33  1  0.50000566  0.89652809  0.13340296  1
  Hf  Hf34  1  -0.00498724  0.78304426  0.24042540  1
  Hf  Hf35  1  0.52221826  0.29012056  0.11638921  1
  Hf  Hf36  1  0.41252286  0.58720414  0.77179148  1
  Hf  Hf37  1  0.20410037  0.19645293  0.00469902  1
  Hf  Hf38  1  0.69978665  0.30108423  0.36720287  1
  Hf  Hf39  1  0.59358729  0.41926954  0.76178726  1
  Zr  Zr40  1  0.78419335  0.78824173  0.75320617  1
  Zr  Zr41  1  0.89039527  0.88880128  0.37143974  1
  Zr  Zr42  1  0.29605858  0.09581057  0.14383939  1
  Zr  Zr43  1  -0.00129807  0.41644386  0.23685077  1
  Zr  Zr44  1  0.30296117  0.90505462  0.87339210  1
  Zr  Zr45  1  0.89233822  0.09881119  0.87312622  1
  Zr  Zr46  1  0.88812567  0.68618645  0.38643392  1
  Zr  Zr47  1  0.59622923  -0.01549200  0.73833506  1
  Zr  Zr48  1  0.78661522  0.19765793  0.00657829  1
  Zr  Zr49  1  0.79336465  0.41138967  0.75532086  1
  Zr  Zr50  1  0.19712248  0.80267135  0.25108091  1
  Zr  Zr51  1  0.40981542  0.60717775  0.49345339  1
  Zr  Zr52  1  0.82503932  0.59593835  0.21943526  1
  Zr  Zr53  1  0.19510881  -0.00212138  0.74395651  1
  Zr  Zr54  1  0.20649754  0.60468466  0.76255642  1
  Zr  Zr55  1  0.50354235  0.89740382  0.87876429  1
  Zr  Zr56  1  0.21018376  0.39551729  0.00150586  1
  Zr  Zr57  1  0.09082737  0.68850913  0.37998895  1
  Zr  Zr58  1  0.19174037  0.79681279  0.75852763  1
  Zr  Zr59  1  -0.00424379  -0.01246970  0.75269326  1
  Zr  Zr60  1  0.30813618  0.90482515  0.62436235  1
  Zr  Zr61  1  0.91257780  0.50003322  0.38624827  1
  Zr  Zr62  1  0.71469742  0.50619596  0.36272657  1
  Zr  Zr63  1  -0.00074474  0.20358567  0.25934605  1
  Zr  Zr64  1  0.30811598  0.69528277  0.36273041  1
  Zr  Zr65  1  0.59334873  0.00244311  0.26976813  1
  Zr  Zr66  1  0.10227429  0.10165163  0.61615043  1
  Zr  Zr67  1  0.90324699  0.70803783  0.88806516  1
  Zr  Zr68  1  0.60577174  0.00901893  0.00614201  1
  Zr  Zr69  1  0.21248341  0.80107163  0.49364387  1
  Zr  Zr70  1  -0.01233352  0.80077285  0.51197524  1
  Zr  Zr71  1  0.10772996  0.69972288  0.62197330  1
  Zr  Zr72  1  0.49109873  0.69428043  0.12547828  1
  Zr  Zr73  1  0.41044791  0.19667703  0.25898048  1
  Zr  Zr74  1  0.30264499  0.90038568  0.13372567  1
  Zr  Zr75  1  0.59871310  0.39965719  0.24915059  1
  Zr  Zr76  1  0.89391323  0.90176941  0.12924702  1
  Zr  Zr77  1  0.49596064  0.89154943  0.60701087  1
  Zr  Zr78  1  0.90356859  0.08900726  0.61241794  1
  Zr  Zr79  1  0.49569926  0.10243141  0.85638452  1
  Ta  Ta80  1  0.60500975  0.60019961  0.48512577  1
  Ta  Ta81  1  0.31263948  0.51345732  0.11744852  1
  Ta  Ta82  1  0.79108382  0.00900897  0.25992717  1
  Ta  Ta83  1  -0.00062371  0.20167644  0.74474396  1
  Ta  Ta84  1  0.51031863  0.50877121  0.62070816  1
  Ta  Ta85  1  0.30665159  0.29759113  0.85911742  1
  Ta  Ta86  1  0.89969361  0.29866198  0.85947061  1
  Ta  Ta87  1  0.10246466  0.90763257  0.13042842  1
  Ta  Ta88  1  0.79320700  0.60189140  0.00044545  1
  Ta  Ta89  1  0.78987352  0.00088738  0.01401953  1
  Ta  Ta90  1  0.19508613  0.00086451  -0.00282509  1
  Ta  Ta91  1  0.69469719  0.29003373  0.85967230  1
  Ta  Ta92  1  0.79590818  -0.00654945  0.48312302  1
  Ta  Ta93  1  0.30895440  0.70427532  0.89621952  1
  Ta  Ta94  1  0.29812685  0.50073562  0.36873406  1
  Ta  Ta95  1  0.20246085  0.60676527  -0.00076129  1
  Ta  Ta96  1  0.29911071  0.10608044  0.85580507  1
  Ta  Ta97  1  0.40613793  0.40214583  -0.00376836  1
  Ta  Ta98  1  0.00487917  0.40762385  0.74182867  1
  Ta  Ta99  1  0.21161599  0.20526872  0.49039514  1
  Ta  Ta100  1  0.20812680  0.59270136  0.50571011  1
  Ta  Ta101  1  0.59842854  0.40761954  0.49546549  1
  Ta  Ta102  1  0.51433808  0.69855744  0.62594462  1
  Ta  Ta103  1  0.00372971  0.60584341  0.74738368  1
  Ta  Ta104  1  0.59795191  -0.00012793  0.48449959  1
  Ta  Ta105  1  0.59904996  0.59658885  0.23734447  1
  Ta  Ta106  1  0.09368804  0.89982915  0.37640943  1
  Ta  Ta107  1  0.09988900  0.50300543  0.10713432  1
  Ta  Ta108  1  0.59110809  0.19933861  0.49612407  1
  Ta  Ta109  1  0.90372500  0.30179459  0.62980582  1
  Ta  Ta110  1  0.60748479  0.79994822  0.00986998  1
  Ta  Ta111  1  0.69799522  0.49427405  0.11876442  1
  Ta  Ta112  1  0.19613801  0.80375573  0.00214658  1
  Ta  Ta113  1  0.30726454  0.70319519  0.11885368  1
  Ta  Ta114  1  0.19194031  0.19792393  0.26624912  1
  Ta  Ta115  1  0.89002919  0.29978854  0.13802388  1
  Ta  Ta116  1  0.50556344  0.70020403  0.90007253  1
  Ta  Ta117  1  0.50347093  0.09905645  0.13059547  1
  Ta  Ta118  1  0.20296436  0.40268720  0.50819439  1
  Ta  Ta119  1  0.10311217  0.49829218  0.38950894  1
  Ti  Ti120  1  0.89744650  0.31326918  0.36617360  1
  Ti  Ti121  1  0.88894916  0.89785879  0.89578294  1
  Ti  Ti122  1  0.69663914  0.51361870  0.61879730  1
  Ti  Ti123  1  0.30407128  0.10654875  0.62231837  1
  Ti  Ti124  1  0.49983932  0.50570461  0.37113672  1
  Ti  Ti125  1  0.80342373  0.19771814  0.73891356  1
  Ti  Ti126  1  0.69628874  0.90084729  0.13826197  1
  Ti  Ti127  1  0.31678011  0.70150888  0.62137342  1
  Ti  Ti128  1  0.70180998  0.89152435  0.88371940  1
  Ti  Ti129  1  0.10193865  0.70145193  0.11469084  1
  Ti  Ti130  1  0.60741939  0.39793015  -0.00696099  1
  Ti  Ti131  1  0.09127414  0.89317020  0.88619415  1
  Ti  Ti132  1  0.39928037  0.00011116  0.27493603  1
  Ti  Ti133  1  0.19860760  0.00382099  0.27167625  1
  Ti  Ti134  1  0.39861374  0.00202510  0.47820088  1
  Ti  Ti135  1  0.79436226  0.79288248  0.23744181  1
  Ti  Ti136  1  0.50091217  0.29791445  0.38202017  1
  Ti  Ti137  1  0.09169511  0.90824927  0.60697695  1
  Ti  Ti138  1  0.49035137  0.09735722  0.61623173  1
  Ti  Ti139  1  0.09882565  0.31567390  0.38278669  1
  Ti  Ti140  1  0.10244254  0.09883240  0.13145375  1
  Ti  Ti141  1  0.70136512  0.69726910  0.36304703  1
  Ti  Ti142  1  0.69531645  0.88503110  0.36862909  1
  Ti  Ti143  1  0.59181434  0.78939193  0.47604982  1
  Ti  Ti144  1  0.69321436  0.69332287  0.61314415  1
  Ti  Ti145  1  0.79809632  0.19568158  0.26077701  1
  Ti  Ti146  1  0.68612792  0.11866600  0.14197549  1
  Ti  Ti147  1  0.30348606  0.29727208  0.13327826  1
  Ti  Ti148  1  -0.00391260  0.60747824  0.01292301  1
  Ti  Ti149  1  0.79576398  0.60262677  0.76834308  1
  Ti  Ti150  1  0.40666515  0.80797435  0.26728159  1
  Ti  Ti151  1  0.39402973  0.20119742  0.73475433  1
  Ti  Ti152  1  0.00170440  0.80255288  0.01083365  1
  Ti  Ti153  1  0.69768591  0.69986293  0.12241599  1
  Ti  Ti154  1  0.50836139  0.69851800  0.35393957  1
  Ti  Ti155  1  -0.00517468  0.39178445  0.00605820  1
  Ti  Ti156  1  0.00559736  0.59329435  0.52181290  1
  Ti  Ti157  1  0.09921301  0.29625769  0.12610372  1
  Ti  Ti158  1  0.87976639  0.69630156  0.61928523  1
  Ti  Ti159  1  0.89082338  0.10242566  0.13342372  1
  Mo  Mo160  1  0.80217396  0.39893946  0.23387328  1
  Mo  Mo161  1  0.00447426  0.40093336  0.51363678  1
  Mo  Mo162  1  0.10016233  0.10393665  0.38257496  1
  Mo  Mo163  1  0.88845188  0.89529871  0.60610473  1
  Mo  Mo164  1  0.30015901  0.10500504  0.37202842  1
  Mo  Mo165  1  0.40050233  0.59619572  -0.00755824  1
  Mo  Mo166  1  0.79087629  0.80619592  0.01299605  1
  Mo  Mo167  1  0.30193254  0.90152652  0.36934322  1
  Mo  Mo168  1  0.59926147  0.78997200  0.76235144  1
  Mo  Mo169  1  0.59694521  0.19941041  0.72504138  1
  Mo  Mo170  1  0.41062392  0.79585605  0.48700000  1
  Mo  Mo171  1  0.60171514  0.19501549  0.27076387  1
  Mo  Mo172  1  0.90399895  0.49769443  0.09814202  1
  Mo  Mo173  1  0.40220483  0.40400306  0.76567375  1
  Mo  Mo174  1  0.60648839  0.79274819  0.24925111  1
  Mo  Mo175  1  0.69991871  0.70419470  0.90056107  1
  Mo  Mo176  1  0.50570144  0.49725575  0.10988229  1
  Mo  Mo177  1  0.60303085  0.59556955  0.01173912  1
  Mo  Mo178  1  0.60447591  0.20143475  -0.00306253  1
  Mo  Mo179  1  0.20500487  0.20348609  0.74219362  1
  Mo  Mo180  1  0.50515560  0.49986134  0.89905899  1
  Mo  Mo181  1  0.69764475  0.10133493  0.38110568  1
  Mo  Mo182  1  0.10278522  0.50141358  0.62078843  1
  Mo  Mo183  1  0.89912739  0.70419399  0.10698299  1
  Mo  Mo184  1  0.40303082  0.59528920  0.25304642  1
  Mo  Mo185  1  0.89449513  0.09770272  0.37612535  1
  Mo  Mo186  1  0.49574304  0.10313616  0.39324088  1
  Mo  Mo187  1  0.39798017  0.19804971  0.50442372  1
  Mo  Mo188  1  0.39694144  0.00647945  0.74049947  1
  Mo  Mo189  1  0.70066479  0.50020879  0.89632969  1
  Mo  Mo190  1  0.29997603  0.29588800  0.63167596  1
  Mo  Mo191  1  0.30292990  0.49874722  0.89156498  1
  Mo  Mo192  1  -0.00272752  -0.00143273  0.48088677  1
  Mo  Mo193  1  0.79128311  0.60066033  0.50714811  1
  Mo  Mo194  1  0.49945158  0.89279829  0.38018715  1
  Mo  Mo195  1  0.40148248  0.80208878  0.00077568  1
  Mo  Mo196  1  0.01079002  0.59837983  0.22686876  1
  Mo  Mo197  1  0.70527273  0.29709373  0.14196713  1
  Mo  Mo198  1  0.09833324  0.70573991  0.89288657  1
  Mo  Mo199  1  0.78386817  0.79075588  0.49463255  1
