# generated using pymatgen
data_HfZrTaTiMo
_symmetry_space_group_name_H-M   'P 1'
_cell_length_a   15.93168203
_cell_length_b   15.91524105
_cell_length_c   15.21241469
_cell_angle_alpha   89.94495727
_cell_angle_beta   89.99376699
_cell_angle_gamma   89.90323082
_symmetry_Int_Tables_number   1
_chemical_formula_structural   HfZrTaTiMo
_chemical_formula_sum   'Hf40 Zr40 Ta40 Ti40 Mo40'
_cell_volume   3857.20023373
_cell_formula_units_Z   40
loop_
 _symmetry_equiv_pos_site_id
 _symmetry_equiv_pos_as_xyz
  1  'x, y, z'
loop_
 _atom_site_type_symbol
 _atom_site_label
 _atom_site_symmetry_multiplicity
 _atom_site_fract_x
 _atom_site_fract_y
 _atom_site_fract_z
 _atom_site_occupancy
  Hf  Hf0  1  0.70524184  0.29902202  0.36527777  1
  Hf  Hf1  1  0.40558051  0.40080685  0.51318593  1
  Hf  Hf2  1  -0.00112469  0.00432591  0.25533322  1
  Hf  Hf3  1  -0.00515809  0.59761917  0.50026336  1
  Hf  Hf4  1  0.68719811  0.91755013  0.62834047  1
  Hf  Hf5  1  0.90995457  0.70445478  0.63745473  1
  Hf  Hf6  1  0.30575040  0.09509801  0.37608280  1
  Hf  Hf7  1  0.68341573  0.89376839  0.37347271  1
  Hf  Hf8  1  0.30530587  0.50682466  0.64212130  1
  Hf  Hf9  1  0.70968512  0.91221365  0.89402033  1
  Hf  Hf10  1  0.09019005  0.28432037  0.62349730  1
  Hf  Hf11  1  0.79641541  0.60436309  0.00655744  1
  Hf  Hf12  1  0.51568461  0.09371105  0.62466193  1
  Hf  Hf13  1  0.40762608  0.79588658  0.24692290  1
  Hf  Hf14  1  0.01196547  0.40051277  0.25380007  1
  Hf  Hf15  1  0.60213486  0.41080318  0.24933418  1
  Hf  Hf16  1  0.10049796  0.29966853  0.39239647  1
  Hf  Hf17  1  0.59744920  0.00674993  0.77551324  1
  Hf  Hf18  1  -0.00392459  0.40184357  0.75531641  1
  Hf  Hf19  1  0.79070012  0.79250841  0.51239281  1
  Hf  Hf20  1  0.41688285  0.38932380  -0.01500729  1
  Hf  Hf21  1  0.00989733  0.60879773  -0.01793394  1
  Hf  Hf22  1  0.58725424  0.80554459  0.51390097  1
  Hf  Hf23  1  0.69126267  0.48211524  0.88243354  1
  Hf  Hf24  1  0.80287226  0.40878417  0.50979879  1
  Hf  Hf25  1  0.78299152  0.79349039  0.23366247  1
  Hf  Hf26  1  0.39085683  0.79565781  -0.01469938  1
  Hf  Hf27  1  0.90682719  0.50538184  0.12400031  1
  Hf  Hf28  1  0.18889572  0.79218091  -0.00712758  1
  Hf  Hf29  1  -0.00009508  0.19818022  0.25308314  1
  Hf  Hf30  1  0.79249958  0.00280748  0.24167520  1
  Hf  Hf31  1  0.60407397  0.60858775  0.52371733  1
  Hf  Hf32  1  0.08263588  0.89893462  0.61537575  1
  Hf  Hf33  1  0.41010476  0.20349947  0.50568131  1
  Hf  Hf34  1  0.12407171  0.28702671  0.87254496  1
  Hf  Hf35  1  0.92378082  0.09412337  0.60887801  1
  Hf  Hf36  1  0.88845256  0.10487922  0.11391397  1
  Hf  Hf37  1  0.89893148  0.50331474  0.36159876  1
  Hf  Hf38  1  0.50591035  0.70216338  0.36782911  1
  Hf  Hf39  1  0.11261143  0.29890976  0.10620552  1
  Zr  Zr40  1  0.89582619  0.89690324  0.11479894  1
  Zr  Zr41  1  0.49976341  0.51310690  0.37431053  1
  Zr  Zr42  1  0.10730810  0.89264484  0.38098772  1
  Zr  Zr43  1  0.88686776  0.49748404  0.87636508  1
  Zr  Zr44  1  -0.00686742  0.18637107  0.76625124  1
  Zr  Zr45  1  0.80635096  -0.00820878  0.50358896  1
  Zr  Zr46  1  0.79455587  0.60271906  0.74622421  1
  Zr  Zr47  1  0.71225870  0.11910524  0.88234377  1
  Zr  Zr48  1  0.10713015  0.49679413  0.11550237  1
  Zr  Zr49  1  0.28676086  0.90477090  0.86341372  1
  Zr  Zr50  1  0.79812211  0.80776245  0.74886506  1
  Zr  Zr51  1  0.31714325  0.29114123  0.13109017  1
  Zr  Zr52  1  0.49985175  0.90149963  0.11552662  1
  Zr  Zr53  1  0.38842578  0.02076701  -0.01284380  1
  Zr  Zr54  1  0.21160645  -0.01375118  0.50910699  1
  Zr  Zr55  1  0.30049068  0.50478674  0.38684292  1
  Zr  Zr56  1  0.30218448  0.89727190  0.12925232  1
  Zr  Zr57  1  0.12284115  0.08866525  0.87246255  1
  Zr  Zr58  1  0.70397980  0.10127159  0.37604747  1
  Zr  Zr59  1  -0.00526446  0.79797026  0.25571878  1
  Zr  Zr60  1  0.00143724  0.19668479  -0.01394990  1
  Zr  Zr61  1  0.00794415  -0.00827343  -0.00355240  1
  Zr  Zr62  1  -0.01298446  0.79917088  0.49005483  1
  Zr  Zr63  1  0.89358224  0.29646616  0.63147499  1
  Zr  Zr64  1  0.48277378  0.11047586  0.14224763  1
  Zr  Zr65  1  0.20796756  0.39075643  0.74504341  1
  Zr  Zr66  1  0.50869829  0.29846249  0.14450787  1
  Zr  Zr67  1  0.39268990  0.80271741  0.49538546  1
  Zr  Zr68  1  0.59928872  0.39995596  0.50693023  1
  Zr  Zr69  1  0.20876423  0.59704897  -0.00497798  1
  Zr  Zr70  1  0.19708241  -0.00024145  0.24310522  1
  Zr  Zr71  1  0.85887843  0.29440981  0.87741297  1
  Zr  Zr72  1  0.89825253  0.30431434  0.11496415  1
  Zr  Zr73  1  0.70399099  0.51400109  0.37205930  1
  Zr  Zr74  1  0.19738716  0.19665504  0.24889238  1
  Zr  Zr75  1  0.29521602  0.71058850  0.64038629  1
  Zr  Zr76  1  0.01062813  0.40246298  -0.02345182  1
  Zr  Zr77  1  0.59996984  0.80293477  0.76546041  1
  Zr  Zr78  1  0.20259114  0.58909621  0.24825339  1
  Zr  Zr79  1  0.30212863  0.30127951  0.38080976  1
  Ta  Ta80  1  0.60179374  0.20654479  0.49722476  1
  Ta  Ta81  1  0.41602144  -0.01098727  0.49432012  1
  Ta  Ta82  1  0.09613996  0.09940880  0.40152062  1
  Ta  Ta83  1  0.20299323  -0.00253926  0.01383998  1
  Ta  Ta84  1  -0.00152525  -0.00752885  0.76072840  1
  Ta  Ta85  1  0.80061795  0.60350817  0.51746939  1
  Ta  Ta86  1  0.59455159  -0.00366736  0.24514316  1
  Ta  Ta87  1  0.31379624  0.09061820  0.62465720  1
  Ta  Ta88  1  0.39915382  0.00442833  0.75945821  1
  Ta  Ta89  1  0.79934665  0.40209013  0.23711368  1
  Ta  Ta90  1  0.48624296  0.12781672  0.86530827  1
  Ta  Ta91  1  0.48836173  0.90062588  0.64489102  1
  Ta  Ta92  1  0.23464866  0.18405559  0.00181357  1
  Ta  Ta93  1  -0.00359991  0.40398563  0.50512309  1
  Ta  Ta94  1  0.32740891  0.28024596  0.85627065  1
  Ta  Ta95  1  0.48983852  0.70449204  0.65116139  1
  Ta  Ta96  1  0.60109691  0.60176009  0.75342156  1
  Ta  Ta97  1  0.89476338  0.29906338  0.37276329  1
  Ta  Ta98  1  0.69533040  0.69821096  0.37047520  1
  Ta  Ta99  1  0.50761532  0.09814048  0.37481799  1
  Ta  Ta100  1  0.22626803  0.39685636  -0.01978550  1
  Ta  Ta101  1  0.00193796  0.79286027  -0.01299743  1
  Ta  Ta102  1  0.09645869  0.69774139  0.13684495  1
  Ta  Ta103  1  0.10276337  0.69026474  0.37301268  1
  Ta  Ta104  1  0.49535550  0.69332226  0.87399559  1
  Ta  Ta105  1  0.29981743  0.69602088  0.37323922  1
  Ta  Ta106  1  0.40124380  0.40786080  0.25668828  1
  Ta  Ta107  1  0.89534536  0.90215223  0.88207410  1
  Ta  Ta108  1  0.19933144  0.60500195  0.51058054  1
  Ta  Ta109  1  0.29511162  0.68690955  0.85211656  1
  Ta  Ta110  1  0.20593162  0.19449203  0.51833809  1
  Ta  Ta111  1  0.30481046  0.68941030  0.12925235  1
  Ta  Ta112  1  0.19937439  0.39997971  0.52073291  1
  Ta  Ta113  1  0.58987115  0.01906575  -0.00439488  1
  Ta  Ta114  1  0.59859977  0.61188576  0.22779211  1
  Ta  Ta115  1  0.88431706  0.69107454  0.36375414  1
  Ta  Ta116  1  0.59078911  0.21984937  -0.01117711  1
  Ta  Ta117  1  0.40463599  0.60799126  0.51738515  1
  Ta  Ta118  1  0.20515162  0.39786117  0.25024094  1
  Ta  Ta119  1  0.09564249  0.50308000  0.62832476  1
  Ti  Ti120  1  0.67985620  0.70654916  0.10540783  1
  Ti  Ti121  1  0.50074821  0.50248364  0.64453311  1
  Ti  Ti122  1  0.12294101  0.50764735  0.85755143  1
  Ti  Ti123  1  0.69977278  0.29926075  0.63820287  1
  Ti  Ti124  1  0.70097490  0.49631691  0.63818414  1
  Ti  Ti125  1  0.50459115  0.49693888  0.86500369  1
  Ti  Ti126  1  0.90958855  0.69614239  0.12962788  1
  Ti  Ti127  1  0.31149916  0.49350394  0.12347238  1
  Ti  Ti128  1  0.69038345  0.49887424  0.10961566  1
  Ti  Ti129  1  0.80173561  0.79496745  0.00305529  1
  Ti  Ti130  1  0.20219568  0.79190679  0.24871267  1
  Ti  Ti131  1  0.10435981  0.49804619  0.38658601  1
  Ti  Ti132  1  0.18293002  0.80332519  0.75703869  1
  Ti  Ti133  1  0.88701890  0.89759500  0.36632911  1
  Ti  Ti134  1  0.30362776  0.89362966  0.36670648  1
  Ti  Ti135  1  0.89851756  0.10794497  0.38099900  1
  Ti  Ti136  1  0.79928106  0.20423255  0.50698185  1
  Ti  Ti137  1  0.30414748  0.89370433  0.63802902  1
  Ti  Ti138  1  0.69002799  0.90507993  0.10952373  1
  Ti  Ti139  1  0.69150775  0.69423456  0.88924301  1
  Ti  Ti140  1  0.89524199  0.70347624  0.87213386  1
  Ti  Ti141  1  0.49571044  0.69452188  0.10666544  1
  Ti  Ti142  1  0.88599500  0.08980451  0.89080888  1
  Ti  Ti143  1  0.78856343  0.60230473  0.22963427  1
  Ti  Ti144  1  0.60734953  0.20808633  0.75516497  1
  Ti  Ti145  1  0.50362777  0.30316959  0.64460723  1
  Ti  Ti146  1  0.81064970  0.00872903  0.74211370  1
  Ti  Ti147  1  0.19178724  -0.00007205  0.72933362  1
  Ti  Ti148  1  0.00549197  0.60131701  0.75621779  1
  Ti  Ti149  1  0.10325316  0.10265049  0.11429897  1
  Ti  Ti150  1  0.58853067  0.80641929  -0.01477561  1
  Ti  Ti151  1  0.68626927  0.11333761  0.12654201  1
  Ti  Ti152  1  0.21286452  0.18925013  0.72873419  1
  Ti  Ti153  1  0.69922272  0.29611507  0.13023075  1
  Ti  Ti154  1  0.09663732  0.88945545  0.12770818  1
  Ti  Ti155  1  0.70350185  0.10752780  0.62374782  1
  Ti  Ti156  1  0.00122735  0.80540341  0.76709133  1
  Ti  Ti157  1  0.10164206  0.70225021  0.62720936  1
  Ti  Ti158  1  0.39658730  0.59019473  -0.01500581  1
  Ti  Ti159  1  0.49744906  0.50640984  0.11703523  1
  Mo  Mo160  1  -0.00592769  -0.00365919  0.48016549  1
  Mo  Mo161  1  0.10614551  0.09307645  0.61756886  1
  Mo  Mo162  1  0.40366602  0.59730619  0.23329410  1
  Mo  Mo163  1  0.40335683  -0.00355796  0.26993961  1
  Mo  Mo164  1  0.59928843  0.40032588  0.01267780  1
  Mo  Mo165  1  0.69395777  0.70118905  0.63020048  1
  Mo  Mo166  1  0.78226867  0.20180800  0.01904520  1
  Mo  Mo167  1  0.29707062  0.10460802  0.84845750  1
  Mo  Mo168  1  0.50125591  0.90295304  0.36228775  1
  Mo  Mo169  1  0.60458920  0.19770863  0.26672781  1
  Mo  Mo170  1  0.80031492  0.20448681  0.24013471  1
  Mo  Mo171  1  0.39776691  0.80537979  0.76884696  1
  Mo  Mo172  1  0.09775513  0.89750410  0.87031137  1
  Mo  Mo173  1  0.50557403  0.29876972  0.36772808  1
  Mo  Mo174  1  0.40671902  0.20008244  0.72422733  1
  Mo  Mo175  1  0.78720454  0.00167615  0.01651898  1
  Mo  Mo176  1  -0.00501428  0.20312140  0.48685388  1
  Mo  Mo177  1  0.40535747  0.20448764  0.27991080  1
  Mo  Mo178  1  0.60225753  0.40439055  0.73695197  1
  Mo  Mo179  1  0.51392261  0.30988617  0.85534474  1
  Mo  Mo180  1  0.58848246  0.60025146  -0.00304251  1
  Mo  Mo181  1  0.09867658  0.69886909  0.85627642  1
  Mo  Mo182  1  0.40408398  0.59851515  0.75719670  1
  Mo  Mo183  1  0.79519150  0.19028064  0.73222678  1
  Mo  Mo184  1  0.90520428  0.50301846  0.63363131  1
  Mo  Mo185  1  0.19262083  0.60138686  0.73803775  1
  Mo  Mo186  1  0.30199801  0.09883183  0.14345297  1
  Mo  Mo187  1  0.49925754  0.90881150  0.88239641  1
  Mo  Mo188  1  0.69256488  0.30604236  0.86822927  1
  Mo  Mo189  1  0.78792599  0.39966068  0.02230820  1
  Mo  Mo190  1  0.89969004  0.90279000  0.64537034  1
  Mo  Mo191  1  0.40880961  0.39885052  0.75438337  1
  Mo  Mo192  1  0.40752929  0.20314770  -0.00515227  1
  Mo  Mo193  1  0.19976475  0.78732150  0.49231941  1
  Mo  Mo194  1  0.00036058  0.60075607  0.26177614  1
  Mo  Mo195  1  0.30525796  0.29703376  0.62729036  1
  Mo  Mo196  1  0.79379748  0.39889945  0.73470770  1
  Mo  Mo197  1  0.30923188  0.49480062  0.86234666  1
  Mo  Mo198  1  0.59514686  0.00290377  0.49835799  1
  Mo  Mo199  1  0.60128668  0.79580172  0.23046645  1
