# generated using pymatgen
data_HfZrTaTiMo
_symmetry_space_group_name_H-M   'P 1'
_cell_length_a   15.92988142
_cell_length_b   15.93776967
_cell_length_c   15.21434916
_cell_angle_alpha   90.00090867
_cell_angle_beta   89.94529069
_cell_angle_gamma   90.14868480
_symmetry_Int_Tables_number   1
_chemical_formula_structural   HfZrTaTiMo
_chemical_formula_sum   'Hf40 Zr40 Ta40 Ti40 Mo40'
_cell_volume   3862.70736600
_cell_formula_units_Z   40
loop_
 _symmetry_equiv_pos_site_id
 _symmetry_equiv_pos_as_xyz
  1  'x, y, z'
loop_
 _atom_site_type_symbol
 _atom_site_label
 _atom_site_symmetry_multiplicity
 _atom_site_fract_x
 _atom_site_fract_y
 _atom_site_fract_z
 _atom_site_occupancy
  Hf  Hf0  1  0.20565608  0.40743883  -0.00426445  1
  Hf  Hf1  1  0.88788390  0.08657513  0.61684447  1
  Hf  Hf2  1  0.90744153  0.70023955  0.13228926  1
  Hf  Hf3  1  0.19394847  0.60016679  0.73662706  1
  Hf  Hf4  1  0.19184664  -0.00323670  0.51177288  1
  Hf  Hf5  1  0.07763935  0.50348912  0.62262433  1
  Hf  Hf6  1  0.79544612  0.80469503  0.24727902  1
  Hf  Hf7  1  0.29065404  0.49830185  0.37072096  1
  Hf  Hf8  1  0.10758559  0.70351874  0.88038325  1
  Hf  Hf9  1  0.59265792  0.40527093  0.26102524  1
  Hf  Hf10  1  0.10487533  0.30394014  0.38109905  1
  Hf  Hf11  1  0.39030404  0.80040246  -0.00487557  1
  Hf  Hf12  1  0.87864270  0.49494744  0.62389681  1
  Hf  Hf13  1  0.50606577  0.30446539  0.10753683  1
  Hf  Hf14  1  0.39672976  0.39669827  0.75067817  1
  Hf  Hf15  1  -0.00459397  0.39400837  0.75249179  1
  Hf  Hf16  1  0.79345611  0.19133114  0.48859120  1
  Hf  Hf17  1  -0.01225946  0.60910234  0.76069920  1
  Hf  Hf18  1  0.81137115  0.81025766  0.47797047  1
  Hf  Hf19  1  0.71450841  0.69841076  0.86458998  1
  Hf  Hf20  1  0.70058844  0.89281293  0.87067864  1
  Hf  Hf21  1  -0.00834011  -0.01818131  0.48126853  1
  Hf  Hf22  1  0.20180640  0.20802827  0.24783419  1
  Hf  Hf23  1  0.38860670  0.39615300  0.50749206  1
  Hf  Hf24  1  0.49972719  0.10503336  0.11214299  1
  Hf  Hf25  1  0.51078073  0.70320062  0.87450191  1
  Hf  Hf26  1  0.30677021  0.09650504  0.12162527  1
  Hf  Hf27  1  0.40507700  0.00151629  0.74398935  1
  Hf  Hf28  1  0.50316730  0.89986349  0.61198742  1
  Hf  Hf29  1  0.30071788  0.89735520  0.38453858  1
  Hf  Hf30  1  0.89537466  0.69535520  0.61311539  1
  Hf  Hf31  1  0.69398222  0.50090355  0.87644829  1
  Hf  Hf32  1  0.60086967  0.00341483  0.24540436  1
  Hf  Hf33  1  0.40692600  0.19803682  0.26043104  1
  Hf  Hf34  1  0.79843499  0.19793725  0.75066114  1
  Hf  Hf35  1  0.20148536  0.21239156  0.74237756  1
  Hf  Hf36  1  0.50549032  0.89773426  0.86736484  1
  Hf  Hf37  1  0.20279577  0.62286725  0.24145128  1
  Hf  Hf38  1  0.29897318  0.89063873  0.13754300  1
  Hf  Hf39  1  0.00609230  0.60237461  0.25495079  1
  Zr  Zr40  1  0.69823350  0.49992012  0.13121548  1
  Zr  Zr41  1  0.39975428  0.39615144  0.26436502  1
  Zr  Zr42  1  0.31263423  0.70284536  0.62103948  1
  Zr  Zr43  1  0.19617768  0.00554285  0.24925120  1
  Zr  Zr44  1  0.09522555  0.30202851  0.88404316  1
  Zr  Zr45  1  0.80186352  0.39932269  0.00980502  1
  Zr  Zr46  1  0.60946347  0.42169941  0.49861488  1
  Zr  Zr47  1  0.60102111  0.19663177  0.74513932  1
  Zr  Zr48  1  0.50059375  0.70648051  0.39031160  1
  Zr  Zr49  1  0.90017620  0.29109964  0.88835556  1
  Zr  Zr50  1  0.09627134  0.49728263  0.37510259  1
  Zr  Zr51  1  0.10962653  0.89724876  0.87012180  1
  Zr  Zr52  1  0.30704614  0.30356187  0.11514569  1
  Zr  Zr53  1  -0.00272869  0.19584252  0.49152556  1
  Zr  Zr54  1  0.80240949  -0.00007258  0.76793163  1
  Zr  Zr55  1  0.19811383  0.59919218  0.51249347  1
  Zr  Zr56  1  0.71003787  0.30936146  0.61556484  1
  Zr  Zr57  1  0.09172840  0.10747628  0.88194438  1
  Zr  Zr58  1  0.40501975  0.59862339  0.26044077  1
  Zr  Zr59  1  -0.00798786  -0.01299524  0.00956082  1
  Zr  Zr60  1  0.60001907  -0.00710552  0.00655436  1
  Zr  Zr61  1  0.40590749  0.19778532  0.75079359  1
  Zr  Zr62  1  0.71664754  0.90973774  0.61791405  1
  Zr  Zr63  1  0.80572458  0.80674014  0.01261235  1
  Zr  Zr64  1  0.39790832  0.19772527  -0.02878515  1
  Zr  Zr65  1  0.20165405  -0.00962953  0.00660388  1
  Zr  Zr66  1  0.50178118  0.28886325  0.39846436  1
  Zr  Zr67  1  0.89298543  0.50416929  0.88108434  1
  Zr  Zr68  1  0.10251913  0.50248734  0.12292999  1
  Zr  Zr69  1  0.91198773  0.88829577  0.63104166  1
  Zr  Zr70  1  0.09023930  0.09829791  0.62649774  1
  Zr  Zr71  1  0.28723333  0.08824495  0.86755848  1
  Zr  Zr72  1  0.30767833  0.10238394  0.38496326  1
  Zr  Zr73  1  0.00280286  0.19292371  0.24572414  1
  Zr  Zr74  1  0.59966090  0.80619087  0.25036520  1
  Zr  Zr75  1  0.49740322  0.69953924  0.12448174  1
  Zr  Zr76  1  0.70589654  0.30476080  0.36927547  1
  Zr  Zr77  1  0.20161720  0.39925514  0.52737901  1
  Zr  Zr78  1  0.59626268  0.60290389  0.73523672  1
  Zr  Zr79  1  0.39827340  0.59959383  -0.00931996  1
  Ta  Ta80  1  0.79945587  -0.00418995  0.01221678  1
  Ta  Ta81  1  0.89782143  0.10033254  0.89429863  1
  Ta  Ta82  1  0.69482287  0.29545794  0.12335535  1
  Ta  Ta83  1  0.60032330  0.59938701  0.25718539  1
  Ta  Ta84  1  0.69680827  0.10432457  0.89187232  1
  Ta  Ta85  1  0.40345546  0.59260512  0.50087845  1
  Ta  Ta86  1  0.69518969  0.29939746  0.88899515  1
  Ta  Ta87  1  0.61069385  0.79928822  0.50382618  1
  Ta  Ta88  1  0.59847336  0.39893739  0.74556424  1
  Ta  Ta89  1  0.21162645  0.20764496  0.50736637  1
  Ta  Ta90  1  0.89904532  0.50144775  0.13647956  1
  Ta  Ta91  1  0.39493464  0.79830995  0.25973102  1
  Ta  Ta92  1  0.00126985  0.39291407  0.24112108  1
  Ta  Ta93  1  0.08324256  0.71736770  0.61367927  1
  Ta  Ta94  1  0.30805548  0.50504089  0.12678160  1
  Ta  Ta95  1  0.50170916  0.29641428  0.61501592  1
  Ta  Ta96  1  0.89703896  0.69315597  0.37001150  1
  Ta  Ta97  1  0.20746217  0.61147767  0.00542409  1
  Ta  Ta98  1  0.49873136  0.49570206  0.11204707  1
  Ta  Ta99  1  0.29468399  0.71005243  0.39307925  1
  Ta  Ta100  1  0.88339532  0.49215371  0.35679618  1
  Ta  Ta101  1  0.10545033  0.88971309  0.36734279  1
  Ta  Ta102  1  -0.00356160  -0.00168128  0.76372857  1
  Ta  Ta103  1  0.00031630  0.60227062  0.00104926  1
  Ta  Ta104  1  0.51121246  0.30659315  0.88176147  1
  Ta  Ta105  1  0.60675464  0.80145829  0.72805598  1
  Ta  Ta106  1  0.49314904  0.50302092  0.62793142  1
  Ta  Ta107  1  -0.00182273  -0.00585055  0.24647075  1
  Ta  Ta108  1  0.50150130  0.90628258  0.39177035  1
  Ta  Ta109  1  0.29982295  0.70379985  0.85605457  1
  Ta  Ta110  1  0.29467184  0.50892854  0.86203718  1
  Ta  Ta111  1  0.40943027  0.79560255  0.74157770  1
  Ta  Ta112  1  0.79828275  -0.00121174  0.24024592  1
  Ta  Ta113  1  0.51574050  0.09523567  0.39679013  1
  Ta  Ta114  1  0.70308065  0.69384964  0.37690102  1
  Ta  Ta115  1  0.89742592  0.30247812  0.36142472  1
  Ta  Ta116  1  0.60155441  0.01094362  0.74147736  1
  Ta  Ta117  1  0.71297962  0.69938978  0.61993463  1
  Ta  Ta118  1  0.09984382  0.87986275  0.13429715  1
  Ta  Ta119  1  -0.01279756  0.59724239  0.48613922  1
  Ti  Ti120  1  0.19860823  0.40147090  0.74608649  1
  Ti  Ti121  1  0.89046921  0.09179528  0.36474767  1
  Ti  Ti122  1  0.30231603  0.89552907  0.61648401  1
  Ti  Ti123  1  0.08761847  0.29826796  0.62061239  1
  Ti  Ti124  1  0.19875391  0.20786065  0.00123612  1
  Ti  Ti125  1  0.89881464  0.10017799  0.12270290  1
  Ti  Ti126  1  0.49196243  0.90063434  0.12536139  1
  Ti  Ti127  1  0.79963169  0.19708110  0.00989919  1
  Ti  Ti128  1  0.40329652  0.00637233  0.50894299  1
  Ti  Ti129  1  -0.01641419  0.40069260  0.49085418  1
  Ti  Ti130  1  0.40979368  -0.00166026  0.26012026  1
  Ti  Ti131  1  0.89886513  0.29982128  0.61657855  1
  Ti  Ti132  1  0.10453157  0.70735871  0.39275774  1
  Ti  Ti133  1  0.50196133  0.50204679  0.87238611  1
  Ti  Ti134  1  0.69738467  0.91672398  0.38191186  1
  Ti  Ti135  1  -0.01084245  0.19509963  0.74615305  1
  Ti  Ti136  1  0.89643528  0.29642311  0.13441374  1
  Ti  Ti137  1  -0.00143733  0.79860578  -0.00366599  1
  Ti  Ti138  1  0.78608623  0.58233449  0.48894124  1
  Ti  Ti139  1  0.79332877  0.39732750  0.75832894  1
  Ti  Ti140  1  0.60618687  0.60452039  0.00854799  1
  Ti  Ti141  1  0.29700496  0.88967729  0.86084406  1
  Ti  Ti142  1  0.61263350  0.79639537  0.02059937  1
  Ti  Ti143  1  0.10284675  0.09723268  0.37873203  1
  Ti  Ti144  1  0.09806347  0.10352233  0.11513049  1
  Ti  Ti145  1  0.19911119  0.39641188  0.23760286  1
  Ti  Ti146  1  0.40016817  -0.00440947  -0.01475453  1
  Ti  Ti147  1  0.69907531  0.10514384  0.12047837  1
  Ti  Ti148  1  0.19682218  0.80287090  0.72894264  1
  Ti  Ti149  1  0.09934251  0.50333793  0.87796088  1
  Ti  Ti150  1  0.80015430  0.60942890  0.01368050  1
  Ti  Ti151  1  0.19705671  -0.00584635  0.73194818  1
  Ti  Ti152  1  0.60217468  0.60217067  0.50753324  1
  Ti  Ti153  1  -0.01006290  0.79937864  0.76854342  1
  Ti  Ti154  1  0.60012328  0.19677668  0.25178917  1
  Ti  Ti155  1  0.00625757  0.79501757  0.25800483  1
  Ti  Ti156  1  0.30524480  0.10555086  0.62114786  1
  Ti  Ti157  1  0.39607978  0.40350868  -0.01988863  1
  Ti  Ti158  1  0.00133415  0.39685639  0.01667333  1
  Ti  Ti159  1  0.79405145  0.19403300  0.24794955  1
  Mo  Mo160  1  0.59595493  0.40707707  -0.00646539  1
  Mo  Mo161  1  0.19869864  0.79643994  0.25743879  1
  Mo  Mo162  1  0.90268702  0.70135121  0.89325109  1
  Mo  Mo163  1  0.69917369  0.90430546  0.12490345  1
  Mo  Mo164  1  0.90696343  0.90023288  0.14038607  1
  Mo  Mo165  1  -0.00488407  0.19862450  0.02398752  1
  Mo  Mo166  1  0.39872847  0.19652156  0.51225456  1
  Mo  Mo167  1  0.40326544  0.80216495  0.49911356  1
  Mo  Mo168  1  0.50373976  0.09953883  0.60774157  1
  Mo  Mo169  1  0.70048202  0.50459193  0.63965026  1
  Mo  Mo170  1  0.90057439  0.89672624  0.87094802  1
  Mo  Mo171  1  0.90418852  0.89804300  0.35110245  1
  Mo  Mo172  1  0.00108300  0.79495956  0.48057404  1
  Mo  Mo173  1  0.60494019  0.19502777  0.51289831  1
  Mo  Mo174  1  0.79751207  0.60253811  0.24858276  1
  Mo  Mo175  1  0.09769773  0.29860431  0.11564336  1
  Mo  Mo176  1  0.40167682  0.60055437  0.75641374  1
  Mo  Mo177  1  0.70172500  0.50981788  0.35880118  1
  Mo  Mo178  1  0.80146850  0.39310545  0.23472250  1
  Mo  Mo179  1  0.60598806  0.20105933  -0.00220339  1
  Mo  Mo180  1  0.30022336  0.29737452  0.63742248  1
  Mo  Mo181  1  0.30027448  0.70357841  0.12696396  1
  Mo  Mo182  1  0.80720318  0.40132133  0.48938576  1
  Mo  Mo183  1  0.19586796  0.80654742  0.51358707  1
  Mo  Mo184  1  0.69895040  0.69669514  0.13451592  1
  Mo  Mo185  1  0.69930248  0.09862210  0.61918371  1
  Mo  Mo186  1  0.50136678  0.50476236  0.39446564  1
  Mo  Mo187  1  0.10122844  0.70683232  0.10820401  1
  Mo  Mo188  1  0.50999451  0.09506478  0.88084920  1
  Mo  Mo189  1  0.29244429  0.29892696  0.37504713  1
  Mo  Mo190  1  0.79774393  0.60006516  0.74663984  1
  Mo  Mo191  1  0.80720748  0.79072188  0.75333438  1
  Mo  Mo192  1  0.29759666  0.30991996  0.87054031  1
  Mo  Mo193  1  0.61082638  0.00496627  0.50457549  1
  Mo  Mo194  1  0.80303297  0.00185236  0.47359163  1
  Mo  Mo195  1  0.20445844  0.79372840  0.00302059  1
  Mo  Mo196  1  0.09536435  0.89702248  0.63869183  1
  Mo  Mo197  1  0.50702735  0.70136627  0.61300835  1
  Mo  Mo198  1  0.30467308  0.50323618  0.64509199  1
  Mo  Mo199  1  0.69937498  0.10104914  0.35796807  1
