# generated using pymatgen
data_HfZrTaTiMo
_symmetry_space_group_name_H-M   'P 1'
_cell_length_a   15.93956636
_cell_length_b   15.94711152
_cell_length_c   15.16688119
_cell_angle_alpha   90.04903145
_cell_angle_beta   90.10767197
_cell_angle_gamma   90.12208440
_symmetry_Int_Tables_number   1
_chemical_formula_structural   HfZrTaTiMo
_chemical_formula_sum   'Hf40 Zr40 Ta40 Ti40 Mo40'
_cell_volume   3855.25318813
_cell_formula_units_Z   40
loop_
 _symmetry_equiv_pos_site_id
 _symmetry_equiv_pos_as_xyz
  1  'x, y, z'
loop_
 _atom_site_type_symbol
 _atom_site_label
 _atom_site_symmetry_multiplicity
 _atom_site_fract_x
 _atom_site_fract_y
 _atom_site_fract_z
 _atom_site_occupancy
  Hf  Hf0  1  0.78823678  0.60846162  0.49939862  1
  Hf  Hf1  1  0.49014910  0.30117883  0.63197629  1
  Hf  Hf2  1  0.00042124  0.19978963  0.49266670  1
  Hf  Hf3  1  0.88118014  0.09889508  0.37858045  1
  Hf  Hf4  1  0.69851355  0.70252612  0.11814466  1
  Hf  Hf5  1  0.69413344  0.91698592  0.38646262  1
  Hf  Hf6  1  0.31344516  0.89027135  0.13381967  1
  Hf  Hf7  1  0.22332424  0.19983961  0.26882069  1
  Hf  Hf8  1  -0.00373987  -0.00823897  0.49773603  1
  Hf  Hf9  1  0.69070708  0.90505858  0.86590708  1
  Hf  Hf10  1  0.61209944  0.20580993  0.51785017  1
  Hf  Hf11  1  0.81345205  0.61047573  0.25154620  1
  Hf  Hf12  1  0.60240348  0.00664061  0.22822829  1
  Hf  Hf13  1  0.39634744  0.59473295  0.26837733  1
  Hf  Hf14  1  0.58688543  0.00273478  0.72778080  1
  Hf  Hf15  1  0.10600160  0.09768685  0.12126434  1
  Hf  Hf16  1  0.20501984  0.59369442  0.25979258  1
  Hf  Hf17  1  0.09607738  0.48365956  0.61151367  1
  Hf  Hf18  1  0.68312931  0.48657099  0.36017283  1
  Hf  Hf19  1  0.30294168  0.30211356  0.62912686  1
  Hf  Hf20  1  0.00291850  0.40110641  0.24220701  1
  Hf  Hf21  1  0.10556238  0.89447745  0.37683061  1
  Hf  Hf22  1  0.69290381  0.10257423  0.87149696  1
  Hf  Hf23  1  0.90876213  0.10407843  0.63581745  1
  Hf  Hf24  1  -0.00569691  0.60611077  0.50432949  1
  Hf  Hf25  1  0.21282749  0.59823585  -0.00043712  1
  Hf  Hf26  1  0.68970363  0.50072403  0.86969713  1
  Hf  Hf27  1  0.49092642  0.49480572  0.62415705  1
  Hf  Hf28  1  0.19644386  0.80154377  0.74976712  1
  Hf  Hf29  1  0.20275765  0.80051956  -0.00453559  1
  Hf  Hf30  1  0.81169565  0.22093188  0.77382608  1
  Hf  Hf31  1  0.89688832  0.30020037  0.61870758  1
  Hf  Hf32  1  0.50983606  0.30609900  0.36980372  1
  Hf  Hf33  1  0.29117138  0.49326669  0.60831861  1
  Hf  Hf34  1  0.11656680  0.29022169  0.12557529  1
  Hf  Hf35  1  0.80232590  0.81188911  0.25362588  1
  Hf  Hf36  1  0.09966803  0.09410112  0.37046736  1
  Hf  Hf37  1  0.68773241  0.50602932  0.11487783  1
  Hf  Hf38  1  0.79536722  0.39814729  -0.00263813  1
  Hf  Hf39  1  0.69779084  0.49903741  0.64644209  1
  Zr  Zr40  1  0.20475886  0.79446868  0.50109097  1
  Zr  Zr41  1  0.89623266  0.70997795  0.62897147  1
  Zr  Zr42  1  0.41553357  0.00802004  0.24711858  1
  Zr  Zr43  1  -0.01536188  -0.00656453  0.24823133  1
  Zr  Zr44  1  0.21713978  0.00049362  0.25695833  1
  Zr  Zr45  1  0.40182048  0.59849908  0.75739794  1
  Zr  Zr46  1  0.39279381  0.60630053  0.48832304  1
  Zr  Zr47  1  0.00138255  0.59972571  0.74333369  1
  Zr  Zr48  1  0.78591119  0.38811618  0.49380559  1
  Zr  Zr49  1  0.10579747  0.49994702  0.12030662  1
  Zr  Zr50  1  0.59334105  0.60755821  0.50440171  1
  Zr  Zr51  1  0.58550094  0.59725014  0.25395115  1
  Zr  Zr52  1  0.20829771  0.19404749  0.48926034  1
  Zr  Zr53  1  0.80004912  0.80297048  -0.01986511  1
  Zr  Zr54  1  0.68970378  0.71279353  0.36791585  1
  Zr  Zr55  1  0.48705450  0.69638346  0.12224654  1
  Zr  Zr56  1  0.90099975  0.49765025  0.37664180  1
  Zr  Zr57  1  0.79919784  0.40057381  0.23099939  1
  Zr  Zr58  1  0.90247297  0.50578205  0.87733919  1
  Zr  Zr59  1  0.22199898  0.38464573  -0.00563192  1
  Zr  Zr60  1  0.39896399  0.79391338  -0.01625945  1
  Zr  Zr61  1  0.10005485  0.49513669  0.38539642  1
  Zr  Zr62  1  0.19920244  0.58690181  0.75242115  1
  Zr  Zr63  1  0.91944929  0.11216926  0.88095130  1
  Zr  Zr64  1  -0.01366001  0.78799905  0.26416056  1
  Zr  Zr65  1  0.58294517  0.21241036  -0.00006424  1
  Zr  Zr66  1  0.09311548  0.68985673  0.88240045  1
  Zr  Zr67  1  0.69749939  0.28562161  0.35343787  1
  Zr  Zr68  1  0.79673223  0.20621772  -0.00077126  1
  Zr  Zr69  1  0.71557694  0.10910144  0.63385673  1
  Zr  Zr70  1  0.89390788  0.48869356  0.63148237  1
  Zr  Zr71  1  0.20533763  -0.00234039  0.75131991  1
  Zr  Zr72  1  0.09913911  0.30063171  0.62143247  1
  Zr  Zr73  1  0.48564174  0.09898460  0.87220210  1
  Zr  Zr74  1  0.58490385  0.81888733  0.23408178  1
  Zr  Zr75  1  0.31561124  0.12579766  0.10927396  1
  Zr  Zr76  1  0.79574192  0.18904790  0.22623541  1
  Zr  Zr77  1  0.51337344  0.09709178  0.39228231  1
  Zr  Zr78  1  0.19976352  0.19787837  0.75634959  1
  Zr  Zr79  1  0.10481102  0.89022307  0.13335379  1
  Ta  Ta80  1  0.89988579  0.29435201  0.36705594  1
  Ta  Ta81  1  0.91022665  0.29432766  0.11898870  1
  Ta  Ta82  1  0.40618580  0.79861215  0.51716600  1
  Ta  Ta83  1  0.59369837  0.20433315  0.74685651  1
  Ta  Ta84  1  0.09391028  0.89690771  0.62347920  1
  Ta  Ta85  1  0.69073418  0.70003879  0.86698857  1
  Ta  Ta86  1  0.32098382  0.89642153  0.38413297  1
  Ta  Ta87  1  0.49668252  0.90228995  0.86458970  1
  Ta  Ta88  1  0.21061765  -0.00367623  -0.00224726  1
  Ta  Ta89  1  0.59316272  -0.00383633  0.00488675  1
  Ta  Ta90  1  0.00069456  0.79970518  -0.00993594  1
  Ta  Ta91  1  0.81273110  -0.00506178  0.76311466  1
  Ta  Ta92  1  0.79545928  -0.00165291  0.22916942  1
  Ta  Ta93  1  0.50651335  0.90224106  0.39874329  1
  Ta  Ta94  1  0.30156748  0.70177049  0.86121475  1
  Ta  Ta95  1  0.00768346  -0.00221081  0.75690968  1
  Ta  Ta96  1  0.29845055  0.69727397  0.13614988  1
  Ta  Ta97  1  0.21700609  0.39906660  0.25702258  1
  Ta  Ta98  1  0.31406055  0.10209366  0.62466404  1
  Ta  Ta99  1  0.90681491  0.69796491  0.10792172  1
  Ta  Ta100  1  0.09933648  0.48950557  0.88665270  1
  Ta  Ta101  1  0.29796875  0.69680993  0.63046626  1
  Ta  Ta102  1  0.80215336  0.80233350  0.75974332  1
  Ta  Ta103  1  -0.00427409  0.38158867  0.77062747  1
  Ta  Ta104  1  0.09385614  0.28381180  0.88826712  1
  Ta  Ta105  1  0.09783735  0.69604178  0.13101822  1
  Ta  Ta106  1  0.59207658  0.80111041  -0.00908281  1
  Ta  Ta107  1  0.00212227  0.39505047  0.00265146  1
  Ta  Ta108  1  0.00360689  -0.00596955  0.00075923  1
  Ta  Ta109  1  -0.00529959  0.80888118  0.76581875  1
  Ta  Ta110  1  0.80281789  0.00350726  -0.00179072  1
  Ta  Ta111  1  0.89889910  0.89544116  0.10982900  1
  Ta  Ta112  1  0.10648381  0.09860224  0.89001591  1
  Ta  Ta113  1  0.09742543  0.69159201  0.37449681  1
  Ta  Ta114  1  0.60117703  0.80019990  0.52489997  1
  Ta  Ta115  1  0.10366857  0.09240018  0.62370787  1
  Ta  Ta116  1  0.79911382  0.60612545  -0.00952600  1
  Ta  Ta117  1  0.70878630  0.89885607  0.63251329  1
  Ta  Ta118  1  0.40497242  0.80334423  0.74045121  1
  Ta  Ta119  1  0.80005120  0.80636410  0.49930349  1
  Ti  Ti120  1  0.47445123  0.29630284  0.13079371  1
  Ti  Ti121  1  0.79940825  -0.00022042  0.51345086  1
  Ti  Ti122  1  -0.00368003  0.19317631  0.24380880  1
  Ti  Ti123  1  0.69878426  0.10024452  0.38157594  1
  Ti  Ti124  1  0.40229319  0.40663065  0.26419461  1
  Ti  Ti125  1  0.31478362  0.49444898  0.12149515  1
  Ti  Ti126  1  0.59599371  0.79639363  0.73869833  1
  Ti  Ti127  1  0.67913086  0.30904057  0.12545169  1
  Ti  Ti128  1  0.50453926  0.49244503  0.87539989  1
  Ti  Ti129  1  0.79902274  0.61123334  0.75897419  1
  Ti  Ti130  1  0.58203443  0.19166937  0.22876878  1
  Ti  Ti131  1  0.59120166  0.61053011  0.74625018  1
  Ti  Ti132  1  0.40017810  0.20303142  0.48873162  1
  Ti  Ti133  1  0.70113230  0.89898965  0.10762316  1
  Ti  Ti134  1  0.41287160  -0.00053149  0.51950897  1
  Ti  Ti135  1  0.21054075  -0.00141489  0.50103695  1
  Ti  Ti136  1  0.90282043  0.90156257  0.63056575  1
  Ti  Ti137  1  0.10042106  0.70314051  0.62171041  1
  Ti  Ti138  1  0.90488914  0.50872377  0.11520194  1
  Ti  Ti139  1  0.21146522  0.79167507  0.26371044  1
  Ti  Ti140  1  0.09616162  0.29880650  0.36568961  1
  Ti  Ti141  1  0.69477448  0.10167751  0.10519057  1
  Ti  Ti142  1  -0.00941928  0.80008984  0.49063481  1
  Ti  Ti143  1  0.10234841  0.90497367  0.87880336  1
  Ti  Ti144  1  0.70143949  0.31250842  0.65041858  1
  Ti  Ti145  1  0.68115410  0.31500053  0.86809931  1
  Ti  Ti146  1  0.49698894  0.49087249  0.11304098  1
  Ti  Ti147  1  0.30345599  0.90216179  0.62476143  1
  Ti  Ti148  1  0.19640156  0.39782534  0.76754687  1
  Ti  Ti149  1  0.38602713  0.40579132  0.76669970  1
  Ti  Ti150  1  0.21255538  0.38698713  0.47449427  1
  Ti  Ti151  1  0.49306887  0.30293585  0.85976456  1
  Ti  Ti152  1  0.40477876  -0.00300981  0.00718052  1
  Ti  Ti153  1  0.58744936  0.60745617  -0.01198581  1
  Ti  Ti154  1  0.31086956  0.90853547  0.86732514  1
  Ti  Ti155  1  0.40430454  0.39195606  -0.01059977  1
  Ti  Ti156  1  0.30428049  0.10380666  0.87934179  1
  Ti  Ti157  1  0.49196228  0.72086802  0.37408503  1
  Ti  Ti158  1  0.59779402  0.40116954  0.50985026  1
  Ti  Ti159  1  0.39963145  0.59515079  -0.01750136  1
  Mo  Mo160  1  0.30331536  0.49746325  0.88307476  1
  Mo  Mo161  1  0.70063704  0.70504002  0.64565594  1
  Mo  Mo162  1  0.40706569  0.19895628  0.26756185  1
  Mo  Mo163  1  0.60756011  -0.00146119  0.51926093  1
  Mo  Mo164  1  0.40008646  0.39726395  0.48699881  1
  Mo  Mo165  1  0.31310674  0.08955943  0.39987973  1
  Mo  Mo166  1  0.79830532  0.39992041  0.76843114  1
  Mo  Mo167  1  0.89784372  0.70210308  0.38896445  1
  Mo  Mo168  1  0.00159721  0.59749678  0.00984807  1
  Mo  Mo169  1  0.58443764  0.39883394  0.22468589  1
  Mo  Mo170  1  0.50093548  0.49127904  0.39025586  1
  Mo  Mo171  1  0.90510475  0.90693381  0.88030562  1
  Mo  Mo172  1  0.90117250  0.09418591  0.11396126  1
  Mo  Mo173  1  0.49517913  0.10824810  0.61987892  1
  Mo  Mo174  1  0.00757217  0.19530659  0.02068958  1
  Mo  Mo175  1  0.50416941  0.70222895  0.86437574  1
  Mo  Mo176  1  0.29885509  0.70553745  0.37432211  1
  Mo  Mo177  1  0.00087476  0.60231833  0.23886191  1
  Mo  Mo178  1  0.00916293  0.19768715  0.74450278  1
  Mo  Mo179  1  0.58931853  0.40287132  0.74987747  1
  Mo  Mo180  1  0.31464167  0.29861953  0.37038029  1
  Mo  Mo181  1  -0.00217679  0.39086054  0.48069957  1
  Mo  Mo182  1  0.39515507  -0.00078137  0.73717857  1
  Mo  Mo183  1  0.58536330  0.40263777  0.00138910  1
  Mo  Mo184  1  0.20627877  0.19565716  -0.01029065  1
  Mo  Mo185  1  0.49837398  0.90119063  0.10702556  1
  Mo  Mo186  1  0.89663889  0.70119100  0.87872267  1
  Mo  Mo187  1  0.49795464  0.70072311  0.63590958  1
  Mo  Mo188  1  0.49898298  0.10754038  0.10733430  1
  Mo  Mo189  1  0.80001469  0.19907566  0.49622160  1
  Mo  Mo190  1  0.90995277  0.30281067  0.89643858  1
  Mo  Mo191  1  0.88787739  0.90345269  0.38695765  1
  Mo  Mo192  1  0.30275087  0.29686106  0.85699618  1
  Mo  Mo193  1  0.19466826  0.60486863  0.49983343  1
  Mo  Mo194  1  0.31153388  0.31089608  0.14353848  1
  Mo  Mo195  1  0.39771241  0.80139011  0.26279087  1
  Mo  Mo196  1  0.50107400  0.90065987  0.62255478  1
  Mo  Mo197  1  0.39835798  0.19837471  0.75580757  1
  Mo  Mo198  1  0.39010022  0.22069544  -0.02037198  1
  Mo  Mo199  1  0.30067100  0.49646155  0.38816410  1
