# generated using pymatgen
data_HfZrTaTiMo
_symmetry_space_group_name_H-M   'P 1'
_cell_length_a   15.92653375
_cell_length_b   15.92901986
_cell_length_c   15.21119947
_cell_angle_alpha   90.07415392
_cell_angle_beta   89.93422686
_cell_angle_gamma   90.16690584
_symmetry_Int_Tables_number   1
_chemical_formula_structural   HfZrTaTiMo
_chemical_formula_sum   'Hf40 Zr40 Ta40 Ti40 Mo40'
_cell_volume   3858.96900621
_cell_formula_units_Z   40
loop_
 _symmetry_equiv_pos_site_id
 _symmetry_equiv_pos_as_xyz
  1  'x, y, z'
loop_
 _atom_site_type_symbol
 _atom_site_label
 _atom_site_symmetry_multiplicity
 _atom_site_fract_x
 _atom_site_fract_y
 _atom_site_fract_z
 _atom_site_occupancy
  Hf  Hf0  1  0.40362458  0.39755647  0.50014413  1
  Hf  Hf1  1  0.28162661  0.90356860  0.12964626  1
  Hf  Hf2  1  0.78536143  0.58376721  0.74787654  1
  Hf  Hf3  1  0.90042213  0.89211178  0.85799658  1
  Hf  Hf4  1  0.19837797  0.38395641  0.50080673  1
  Hf  Hf5  1  0.10113117  0.09428249  0.60676565  1
  Hf  Hf6  1  0.30562967  0.49174379  0.37369423  1
  Hf  Hf7  1  0.69984693  0.09402763  0.12352500  1
  Hf  Hf8  1  0.59946016  0.60547365  0.24416750  1
  Hf  Hf9  1  0.00646505  0.19490284  0.74758306  1
  Hf  Hf10  1  0.50585808  0.31104625  0.63554186  1
  Hf  Hf11  1  0.20270068  0.40686107  0.24211179  1
  Hf  Hf12  1  0.29561132  0.11004747  0.38926999  1
  Hf  Hf13  1  0.00115801  0.19228627  0.26288810  1
  Hf  Hf14  1  0.40361840  0.60119455  0.76764800  1
  Hf  Hf15  1  0.10220698  0.08836092  0.13470341  1
  Hf  Hf16  1  0.00544649  0.22732415  0.49609614  1
  Hf  Hf17  1  0.89634477  0.48951036  0.62292556  1
  Hf  Hf18  1  0.40753560  0.40385296  0.76203630  1
  Hf  Hf19  1  0.60800824  0.20715571  0.74923111  1
  Hf  Hf20  1  0.60651854  0.81094235  0.25249652  1
  Hf  Hf21  1  0.79395931  -0.01212576  0.27224370  1
  Hf  Hf22  1  0.39633590  0.00197189  0.26800502  1
  Hf  Hf23  1  0.89903441  0.09542843  0.87759267  1
  Hf  Hf24  1  0.29945243  0.30267270  0.88310672  1
  Hf  Hf25  1  0.09260439  0.48281752  0.62875045  1
  Hf  Hf26  1  0.59562736  0.60698259  0.77484100  1
  Hf  Hf27  1  -0.00890509  0.59331909  0.75813136  1
  Hf  Hf28  1  0.10420824  0.71898504  0.85685703  1
  Hf  Hf29  1  0.40980730  0.20668421  0.00824531  1
  Hf  Hf30  1  0.30388702  0.70466874  0.60437015  1
  Hf  Hf31  1  0.71569469  0.32552422  0.63652077  1
  Hf  Hf32  1  0.49579714  0.30474112  0.36266313  1
  Hf  Hf33  1  0.50718310  0.70581515  0.61944313  1
  Hf  Hf34  1  0.09221950  0.69702495  0.62594347  1
  Hf  Hf35  1  0.80066063  0.60623465  0.50488360  1
  Hf  Hf36  1  0.30594106  0.49733654  0.62519103  1
  Hf  Hf37  1  0.69965918  0.30008684  0.35471289  1
  Hf  Hf38  1  0.60353435  0.41671681  0.49127470  1
  Hf  Hf39  1  0.50147895  0.89737750  0.85534924  1
  Zr  Zr40  1  0.72219281  0.71367320  0.36505408  1
  Zr  Zr41  1  0.89645420  0.29415107  0.88391434  1
  Zr  Zr42  1  0.21021153  0.59962284  0.75281201  1
  Zr  Zr43  1  0.40061815  0.80612811  0.26517465  1
  Zr  Zr44  1  0.10264311  0.70232935  0.12278804  1
  Zr  Zr45  1  0.10773220  0.29030985  0.12499036  1
  Zr  Zr46  1  0.40044180  0.59834082  0.25321483  1
  Zr  Zr47  1  0.70768072  0.30964361  0.87652206  1
  Zr  Zr48  1  0.70605506  0.90290075  0.11391986  1
  Zr  Zr49  1  0.89928016  0.49840424  0.36504094  1
  Zr  Zr50  1  0.90715833  0.70522115  0.12181246  1
  Zr  Zr51  1  0.59331637  0.00822311  -0.01299943  1
  Zr  Zr52  1  0.00404688  0.39583462  0.00961269  1
  Zr  Zr53  1  0.19187493  0.58954805  0.49126987  1
  Zr  Zr54  1  0.60288618  0.21314351  0.50251206  1
  Zr  Zr55  1  0.80762725  0.39708328  0.48477367  1
  Zr  Zr56  1  0.38967460  0.00376720  -0.01200067  1
  Zr  Zr57  1  0.38446222  0.00784887  0.73681871  1
  Zr  Zr58  1  0.80651201  0.20652367  0.49977281  1
  Zr  Zr59  1  0.89489468  0.69602241  0.87806249  1
  Zr  Zr60  1  0.58993934  0.79438292  -0.00372639  1
  Zr  Zr61  1  0.18772222  0.79524199  0.28122591  1
  Zr  Zr62  1  0.29257454  0.09695613  0.12908605  1
  Zr  Zr63  1  0.80064389  0.18617004  0.25633812  1
  Zr  Zr64  1  0.60383563  0.00465829  0.74636103  1
  Zr  Zr65  1  0.49602340  0.91224689  0.12956548  1
  Zr  Zr66  1  0.10985541  0.48688943  0.88063410  1
  Zr  Zr67  1  0.38254973  0.80374498  -0.01286228  1
  Zr  Zr68  1  0.39015286  0.79708824  0.74731901  1
  Zr  Zr69  1  0.29547810  0.70332078  0.13424031  1
  Zr  Zr70  1  0.39701823  0.00484788  0.50221960  1
  Zr  Zr71  1  0.40874429  0.61017227  -0.01508206  1
  Zr  Zr72  1  0.60131795  0.21037066  0.00601522  1
  Zr  Zr73  1  0.20749447  0.61435187  -0.01354921  1
  Zr  Zr74  1  0.09285488  0.89576489  0.13605685  1
  Zr  Zr75  1  0.80522643  -0.00022739  0.73039823  1
  Zr  Zr76  1  -0.00981789  -0.00997695  0.27489577  1
  Zr  Zr77  1  0.68990053  0.88993011  0.61673148  1
  Zr  Zr78  1  0.00341728  -0.00568531  -0.01010242  1
  Zr  Zr79  1  0.49158785  0.11688958  0.85987462  1
  Ta  Ta80  1  0.70795662  0.89578545  0.87133488  1
  Ta  Ta81  1  0.30295750  0.70008288  0.39237141  1
  Ta  Ta82  1  0.20351529  0.20175315  0.73722406  1
  Ta  Ta83  1  -0.00021193  0.39384834  0.76742801  1
  Ta  Ta84  1  0.50154319  0.50109187  0.11258105  1
  Ta  Ta85  1  0.40310312  0.40079289  0.23355716  1
  Ta  Ta86  1  0.00767849  0.80513480  -0.01029856  1
  Ta  Ta87  1  0.00693732  0.19027317  -0.00210265  1
  Ta  Ta88  1  0.00244750  0.40144363  0.24525468  1
  Ta  Ta89  1  0.61146640  0.42068094  0.76069912  1
  Ta  Ta90  1  0.19234896  -0.00207191  -0.02334433  1
  Ta  Ta91  1  0.01008878  0.59841290  0.25880121  1
  Ta  Ta92  1  0.80375793  0.59950268  0.23117284  1
  Ta  Ta93  1  0.60091822  0.40222698  0.23299127  1
  Ta  Ta94  1  0.88724521  0.49246171  0.89142548  1
  Ta  Ta95  1  0.39768975  0.20364835  0.24782013  1
  Ta  Ta96  1  0.70390536  0.70185526  0.88887923  1
  Ta  Ta97  1  0.80540020  0.19672458  0.73493915  1
  Ta  Ta98  1  0.70264432  0.50586429  0.91102180  1
  Ta  Ta99  1  0.70197775  0.50355869  0.35209139  1
  Ta  Ta100  1  0.60435179  0.60028409  0.48139201  1
  Ta  Ta101  1  0.90125213  0.09705322  0.39721160  1
  Ta  Ta102  1  0.90382428  0.28818223  0.13058973  1
  Ta  Ta103  1  0.39377468  0.21075881  0.51107195  1
  Ta  Ta104  1  0.41663826  0.59284470  0.48861304  1
  Ta  Ta105  1  0.49753759  0.89631985  0.61602411  1
  Ta  Ta106  1  0.50493932  0.11023508  0.38054980  1
  Ta  Ta107  1  0.71448951  0.10186457  0.87952014  1
  Ta  Ta108  1  0.19293706  -0.00527231  0.28464842  1
  Ta  Ta109  1  0.79675897  0.78668557  0.73633516  1
  Ta  Ta110  1  0.30170498  0.30100930  0.11954005  1
  Ta  Ta111  1  0.28541340  0.90157871  0.61100447  1
  Ta  Ta112  1  -0.01905933  0.78409740  0.50234502  1
  Ta  Ta113  1  0.79537456  -0.00866977  0.49818197  1
  Ta  Ta114  1  0.79523031  0.39664109  0.03077272  1
  Ta  Ta115  1  0.69982510  0.10137876  0.61085001  1
  Ta  Ta116  1  0.09719633  0.90221669  0.84416815  1
  Ta  Ta117  1  0.50237303  0.10294124  0.61702736  1
  Ta  Ta118  1  -0.00980290  0.79293697  0.27871358  1
  Ta  Ta119  1  0.89898481  0.08821397  0.11655737  1
  Ti  Ti120  1  -0.00111730  0.00135068  0.73708445  1
  Ti  Ti121  1  0.80343438  0.39846382  0.23224684  1
  Ti  Ti122  1  0.19548050  0.00915022  0.74142407  1
  Ti  Ti123  1  0.70480177  0.69807966  0.11334463  1
  Ti  Ti124  1  0.39247494  0.20479951  0.73449828  1
  Ti  Ti125  1  0.29018256  0.10678196  0.86850361  1
  Ti  Ti126  1  0.91265108  0.30959229  0.63631214  1
  Ti  Ti127  1  0.69077720  0.69375403  0.62540960  1
  Ti  Ti128  1  0.51271051  0.51089866  0.62826226  1
  Ti  Ti129  1  0.80686465  0.80423911  0.00095951  1
  Ti  Ti130  1  0.30323510  0.49868979  0.10813744  1
  Ti  Ti131  1  0.18139860  0.79962076  0.49626408  1
  Ti  Ti132  1  -0.00286064  0.59510770  0.48908365  1
  Ti  Ti133  1  0.20428419  0.19919495  0.25972003  1
  Ti  Ti134  1  0.11075796  0.29333420  0.87530745  1
  Ti  Ti135  1  0.50745023  0.90511514  0.39325982  1
  Ti  Ti136  1  0.90433465  0.09705364  0.60752863  1
  Ti  Ti137  1  0.27584594  0.89120573  0.85682927  1
  Ti  Ti138  1  0.10720243  0.50830884  0.11807164  1
  Ti  Ti139  1  0.29998090  0.48752424  0.89011638  1
  Ti  Ti140  1  0.80195797  0.19902605  0.01462864  1
  Ti  Ti141  1  0.60594425  0.79716874  0.48681083  1
  Ti  Ti142  1  0.19581809  0.18994938  -0.00510861  1
  Ti  Ti143  1  0.00335522  0.60128111  -0.00911552  1
  Ti  Ti144  1  0.50423742  0.10376841  0.14470202  1
  Ti  Ti145  1  0.09947573  0.09688420  0.39622793  1
  Ti  Ti146  1  0.19336962  0.59925140  0.26688457  1
  Ti  Ti147  1  0.09185722  0.89691600  0.62184001  1
  Ti  Ti148  1  0.49911115  0.70492050  0.38126229  1
  Ti  Ti149  1  0.87372198  0.87152894  0.39005626  1
  Ti  Ti150  1  0.29507002  0.89451428  0.39974413  1
  Ti  Ti151  1  0.20673192  0.20852255  0.51533488  1
  Ti  Ti152  1  0.60024971  0.39110431  0.01929720  1
  Ti  Ti153  1  0.50896712  0.48794331  0.90032655  1
  Ti  Ti154  1  0.90705888  0.50508709  0.12001903  1
  Ti  Ti155  1  0.49687980  0.70349833  0.12563504  1
  Ti  Ti156  1  0.60549001  0.00930271  0.27477958  1
  Ti  Ti157  1  -0.00939055  -0.01995605  0.49630567  1
  Ti  Ti158  1  0.89926866  0.89959222  0.12590121  1
  Ti  Ti159  1  0.10593254  0.30595710  0.36427812  1
  Mo  Mo160  1  0.69512319  0.89879976  0.38937255  1
  Mo  Mo161  1  0.10546555  0.10031897  0.86203434  1
  Mo  Mo162  1  0.19038753  -0.00469735  0.49617463  1
  Mo  Mo163  1  0.30154210  0.30507905  0.63982265  1
  Mo  Mo164  1  0.40493617  0.80013212  0.49674912  1
  Mo  Mo165  1  0.09296856  0.69301232  0.39237778  1
  Mo  Mo166  1  0.80255880  -0.00348127  -0.00702954  1
  Mo  Mo167  1  0.69060729  0.50922625  0.62148314  1
  Mo  Mo168  1  0.60111558  0.60231364  0.00730225  1
  Mo  Mo169  1  0.20769896  0.39838838  0.01641081  1
  Mo  Mo170  1  0.60788939  0.79605461  0.75995336  1
  Mo  Mo171  1  -0.00810323  0.80136654  0.72921954  1
  Mo  Mo172  1  0.50223841  0.70715520  0.87244820  1
  Mo  Mo173  1  0.19460989  0.80953798  0.71970445  1
  Mo  Mo174  1  0.50087140  0.29843428  0.14074835  1
  Mo  Mo175  1  0.70365669  0.29675510  0.13646517  1
  Mo  Mo176  1  0.40781970  0.39863212  0.00560954  1
  Mo  Mo177  1  0.00690328  0.40107297  0.48114115  1
  Mo  Mo178  1  0.59747249  0.00353833  0.49743448  1
  Mo  Mo179  1  0.50453652  0.31023608  0.86394450  1
  Mo  Mo180  1  0.89708306  0.69100482  0.36475641  1
  Mo  Mo181  1  0.18834401  0.81907662  -0.01079967  1
  Mo  Mo182  1  0.09836748  0.49225065  0.37260042  1
  Mo  Mo183  1  0.80480175  0.80194413  0.23173897  1
  Mo  Mo184  1  0.80145528  0.59805348  0.01624346  1
  Mo  Mo185  1  0.80003086  0.79201984  0.52208708  1
  Mo  Mo186  1  0.70076754  0.50150295  0.12744126  1
  Mo  Mo187  1  0.59642209  0.19379570  0.25069628  1
  Mo  Mo188  1  0.08685053  0.89467705  0.39704600  1
  Mo  Mo189  1  0.50707143  0.50168986  0.35973250  1
  Mo  Mo190  1  0.09948446  0.30185071  0.63773480  1
  Mo  Mo191  1  0.29635699  0.10502573  0.61531593  1
  Mo  Mo192  1  0.29962761  0.29696417  0.35760523  1
  Mo  Mo193  1  0.29430418  0.71181975  0.86591221  1
  Mo  Mo194  1  0.89756480  0.69188504  0.63658843  1
  Mo  Mo195  1  0.90092760  0.89345552  0.62159040  1
  Mo  Mo196  1  0.20194055  0.39001081  0.74596330  1
  Mo  Mo197  1  0.69714499  0.09576169  0.39258356  1
  Mo  Mo198  1  0.90564945  0.30006927  0.34922375  1
  Mo  Mo199  1  0.80598190  0.40427871  0.75945054  1
