# generated using pymatgen
data_HfZrTaTiMo
_symmetry_space_group_name_H-M   'P 1'
_cell_length_a   15.92457204
_cell_length_b   15.92404750
_cell_length_c   15.19756406
_cell_angle_alpha   90.04521726
_cell_angle_beta   90.03174175
_cell_angle_gamma   89.94491198
_symmetry_Int_Tables_number   1
_chemical_formula_structural   HfZrTaTiMo
_chemical_formula_sum   'Hf40 Zr40 Ta40 Ti40 Mo40'
_cell_volume   3853.85006796
_cell_formula_units_Z   40
loop_
 _symmetry_equiv_pos_site_id
 _symmetry_equiv_pos_as_xyz
  1  'x, y, z'
loop_
 _atom_site_type_symbol
 _atom_site_label
 _atom_site_symmetry_multiplicity
 _atom_site_fract_x
 _atom_site_fract_y
 _atom_site_fract_z
 _atom_site_occupancy
  Hf  Hf0  1  0.69205194  0.30235225  0.63249875  1
  Hf  Hf1  1  0.19785850  0.00942189  0.00005574  1
  Hf  Hf2  1  0.70119403  0.49282231  0.11457022  1
  Hf  Hf3  1  0.79937610  -0.00532448  -0.00585316  1
  Hf  Hf4  1  0.30190067  0.11656981  0.37784979  1
  Hf  Hf5  1  0.29894404  0.29967351  0.88076319  1
  Hf  Hf6  1  0.59561584  0.39875556  0.49012154  1
  Hf  Hf7  1  0.09251791  0.89447488  0.62670018  1
  Hf  Hf8  1  0.59542334  0.00228332  0.74132335  1
  Hf  Hf9  1  0.89332414  0.89565540  0.62418758  1
  Hf  Hf10  1  0.60242559  0.58893826  0.75186237  1
  Hf  Hf11  1  -0.01345996  0.79562745  0.49084685  1
  Hf  Hf12  1  0.40581481  0.00308217  0.26025935  1
  Hf  Hf13  1  0.09629560  0.68874245  0.62344463  1
  Hf  Hf14  1  0.49578983  0.69823468  0.63708668  1
  Hf  Hf15  1  0.80420636  0.60872658  -0.01219572  1
  Hf  Hf16  1  0.89964524  0.49817540  0.12001444  1
  Hf  Hf17  1  0.79134846  0.00065086  0.74780767  1
  Hf  Hf18  1  0.79144745  0.40432967  0.50997674  1
  Hf  Hf19  1  0.70116434  0.89414786  0.61229528  1
  Hf  Hf20  1  0.50069765  0.70206636  0.86272673  1
  Hf  Hf21  1  0.89787343  0.67884140  0.36838649  1
  Hf  Hf22  1  0.09130836  0.50886182  0.11867015  1
  Hf  Hf23  1  0.90225933  0.09411387  0.13878414  1
  Hf  Hf24  1  0.30316712  0.91248407  0.87753708  1
  Hf  Hf25  1  -0.00599005  0.00001736  0.49353435  1
  Hf  Hf26  1  0.59881801  0.19895984  0.50157543  1
  Hf  Hf27  1  0.39767380  0.19910991  0.01428764  1
  Hf  Hf28  1  0.80289122  0.80554080  -0.00380201  1
  Hf  Hf29  1  0.60066223  0.59377306  0.50968568  1
  Hf  Hf30  1  0.00999417  0.79275193  0.25662492  1
  Hf  Hf31  1  0.20244461  0.40205203  0.49608293  1
  Hf  Hf32  1  0.69186886  0.10165178  0.87217786  1
  Hf  Hf33  1  0.20076973  0.00319180  0.50628973  1
  Hf  Hf34  1  0.10064835  0.29356230  0.12197447  1
  Hf  Hf35  1  0.79589412  0.60618953  0.51672574  1
  Hf  Hf36  1  0.70182681  0.69679409  0.13747128  1
  Hf  Hf37  1  0.21428665  0.00218612  0.73101457  1
  Hf  Hf38  1  0.59289904  0.00168522  -0.00007484  1
  Hf  Hf39  1  0.19277965  0.60451885  0.24898784  1
  Zr  Zr40  1  0.10802046  0.49460344  0.62803387  1
  Zr  Zr41  1  0.40383593  0.60061361  0.01056452  1
  Zr  Zr42  1  0.29841382  0.90506635  0.13490210  1
  Zr  Zr43  1  0.00532006  -0.00379207  -0.00292135  1
  Zr  Zr44  1  0.80246501  0.19270002  -0.00048058  1
  Zr  Zr45  1  0.71037304  0.49977690  0.35578252  1
  Zr  Zr46  1  0.59677642  0.79072989  0.48688052  1
  Zr  Zr47  1  0.19100815  0.80120169  0.00675409  1
  Zr  Zr48  1  0.00207682  0.39603598  0.76677863  1
  Zr  Zr49  1  0.19933854  0.39887811  0.24900969  1
  Zr  Zr50  1  0.10583693  0.10664097  0.36578943  1
  Zr  Zr51  1  0.87919633  0.09970911  0.37559443  1
  Zr  Zr52  1  0.60159824  0.38549210  0.24543108  1
  Zr  Zr53  1  0.20534802  0.20229807  0.74188498  1
  Zr  Zr54  1  0.91225514  0.89929148  0.85437063  1
  Zr  Zr55  1  0.58349978  0.20305628  0.01023717  1
  Zr  Zr56  1  0.69296174  0.30148441  0.88171308  1
  Zr  Zr57  1  0.30428318  0.29547928  0.37908564  1
  Zr  Zr58  1  -0.00991684  0.20903204  0.25678974  1
  Zr  Zr59  1  0.49204553  0.49612051  0.62663908  1
  Zr  Zr60  1  0.12151661  0.50361312  0.86949701  1
  Zr  Zr61  1  0.91360068  0.50497309  0.61998220  1
  Zr  Zr62  1  0.49865131  0.51306959  0.35319643  1
  Zr  Zr63  1  0.50748256  0.90156089  0.13875718  1
  Zr  Zr64  1  0.79907340  0.81282885  0.26807412  1
  Zr  Zr65  1  0.60195879  0.00444960  0.49374334  1
  Zr  Zr66  1  0.90851148  0.68959775  0.13780379  1
  Zr  Zr67  1  -0.00257958  0.40168253  0.25888138  1
  Zr  Zr68  1  0.90497937  0.30035960  0.62639605  1
  Zr  Zr69  1  0.38782095  0.80686999  0.73844736  1
  Zr  Zr70  1  0.11097719  0.70200981  0.38852317  1
  Zr  Zr71  1  0.00345965  0.20258425  0.50049008  1
  Zr  Zr72  1  0.60590914  0.80306425  -0.00084908  1
  Zr  Zr73  1  0.69298600  0.68739589  0.36067602  1
  Zr  Zr74  1  0.00816216  0.19288987  -0.00862678  1
  Zr  Zr75  1  0.29657339  0.69286773  0.87585539  1
  Zr  Zr76  1  0.38604750  0.41067709  0.76428802  1
  Zr  Zr77  1  0.40094867  -0.00210235  0.49828320  1
  Zr  Zr78  1  0.00419152  0.79774350  0.00422095  1
  Zr  Zr79  1  0.40627996  0.80476142  0.00634569  1
  Ta  Ta80  1  0.69784651  0.70121775  0.86607725  1
  Ta  Ta81  1  0.10549022  0.90011760  0.37314612  1
  Ta  Ta82  1  0.39994944  0.60797040  0.48727750  1
  Ta  Ta83  1  0.79386873  0.40847214  0.75564303  1
  Ta  Ta84  1  0.59770918  0.60335664  0.00368048  1
  Ta  Ta85  1  0.10360414  0.89819423  0.84952233  1
  Ta  Ta86  1  0.30035083  0.70190662  0.13840305  1
  Ta  Ta87  1  0.70692339  0.28522468  0.37789375  1
  Ta  Ta88  1  0.89458995  0.10020405  0.62849054  1
  Ta  Ta89  1  0.09189966  0.50656938  0.39069439  1
  Ta  Ta90  1  0.10361388  0.09510967  0.14628584  1
  Ta  Ta91  1  0.10071942  0.09430646  0.85208402  1
  Ta  Ta92  1  0.00253940  0.39784080  -0.01320845  1
  Ta  Ta93  1  0.49943339  0.90660557  0.86271087  1
  Ta  Ta94  1  0.69601424  0.50062381  0.88479740  1
  Ta  Ta95  1  0.20438441  0.39815841  0.00689720  1
  Ta  Ta96  1  0.30135403  0.49955751  0.12327470  1
  Ta  Ta97  1  0.30444831  0.30587474  0.61533850  1
  Ta  Ta98  1  0.79654956  0.20204483  0.74622229  1
  Ta  Ta99  1  0.09851862  0.90609756  0.14991734  1
  Ta  Ta100  1  0.39599375  0.79333140  0.49834013  1
  Ta  Ta101  1  0.70140901  0.70531347  0.64018554  1
  Ta  Ta102  1  0.80102722  0.59838575  0.75263273  1
  Ta  Ta103  1  0.69533871  0.09368559  0.13694018  1
  Ta  Ta104  1  0.49280089  0.30308147  0.63021004  1
  Ta  Ta105  1  0.39534638  0.19729828  0.74257392  1
  Ta  Ta106  1  0.50018409  0.89551824  0.62471593  1
  Ta  Ta107  1  0.59166957  0.39706514  0.76624384  1
  Ta  Ta108  1  0.21510321  0.60095867  0.49926516  1
  Ta  Ta109  1  0.88769033  0.30134701  0.39219960  1
  Ta  Ta110  1  0.39597596  0.00804737  0.73215062  1
  Ta  Ta111  1  0.89765169  0.30352183  0.10990804  1
  Ta  Ta112  1  0.90354792  0.90617175  0.14395100  1
  Ta  Ta113  1  0.90867574  0.10229153  0.85111314  1
  Ta  Ta114  1  0.29507759  0.10970173  0.14488773  1
  Ta  Ta115  1  0.48312165  0.10069993  0.86614213  1
  Ta  Ta116  1  0.20374439  0.79630991  0.73488598  1
  Ta  Ta117  1  0.80523884  0.38475683  0.24664624  1
  Ta  Ta118  1  0.10133251  0.70354978  0.85496764  1
  Ta  Ta119  1  0.39780916  0.39318582  0.23470079  1
  Ti  Ti120  1  0.22499724  0.59361748  0.74296145  1
  Ti  Ti121  1  0.59751972  0.80050205  0.26008476  1
  Ti  Ti122  1  0.20293926  0.19330556  -0.00100479  1
  Ti  Ti123  1  0.69822774  0.30133914  0.11078126  1
  Ti  Ti124  1  0.40720579  0.39235074  0.00704418  1
  Ti  Ti125  1  0.30773936  0.69888411  0.36290303  1
  Ti  Ti126  1  0.50360157  0.49625359  0.12464719  1
  Ti  Ti127  1  0.49606178  0.10687141  0.62313900  1
  Ti  Ti128  1  0.10669114  0.29596334  0.87229245  1
  Ti  Ti129  1  0.49918966  0.89280846  0.37625763  1
  Ti  Ti130  1  0.79072847  0.20584272  0.23755794  1
  Ti  Ti131  1  0.49764095  0.11368208  0.36991569  1
  Ti  Ti132  1  0.40457085  0.79357863  0.25571060  1
  Ti  Ti133  1  0.40342495  0.40650069  0.48844097  1
  Ti  Ti134  1  0.30308074  0.50411555  0.36254472  1
  Ti  Ti135  1  0.90180568  0.49600237  0.38128309  1
  Ti  Ti136  1  0.70578049  0.90580181  0.13623086  1
  Ti  Ti137  1  0.90162950  0.50181852  0.87699340  1
  Ti  Ti138  1  0.49669381  0.49736695  0.88659372  1
  Ti  Ti139  1  0.20370623  -0.00136337  0.26173527  1
  Ti  Ti140  1  0.79193372  0.80112083  0.76162650  1
  Ti  Ti141  1  -0.00260414  0.60076971  0.75605538  1
  Ti  Ti142  1  0.00777353  0.60755636  -0.01518405  1
  Ti  Ti143  1  0.10498265  0.29831164  0.38023258  1
  Ti  Ti144  1  0.19864355  0.60593042  0.00883913  1
  Ti  Ti145  1  0.59002538  0.20098483  0.74954703  1
  Ti  Ti146  1  0.30800476  0.50295135  0.61764036  1
  Ti  Ti147  1  0.89656945  0.70658523  0.63340934  1
  Ti  Ti148  1  0.29434474  0.88802643  0.37369222  1
  Ti  Ti149  1  0.40154871  0.01265899  0.01051641  1
  Ti  Ti150  1  0.90627867  0.70364550  0.86171174  1
  Ti  Ti151  1  0.80450270  0.39835704  -0.01253459  1
  Ti  Ti152  1  0.49253511  0.29254291  0.36853806  1
  Ti  Ti153  1  0.89987316  0.29328607  0.87232807  1
  Ti  Ti154  1  0.60727815  -0.00386233  0.26591230  1
  Ti  Ti155  1  0.21338747  0.79711446  0.51445981  1
  Ti  Ti156  1  0.09033301  0.10628354  0.63375664  1
  Ti  Ti157  1  0.70291144  0.10031255  0.36925967  1
  Ti  Ti158  1  0.59494181  0.19659838  0.24303702  1
  Ti  Ti159  1  0.10204592  0.30336586  0.62545795  1
  Mo  Mo160  1  0.79643239  0.00502623  0.50875218  1
  Mo  Mo161  1  0.70645555  0.90830818  0.38934838  1
  Mo  Mo162  1  -0.00186651  -0.00582807  0.26630162  1
  Mo  Mo163  1  0.79157186  0.00260950  0.24627494  1
  Mo  Mo164  1  0.30131634  0.68941110  0.62183041  1
  Mo  Mo165  1  0.60283980  0.80506013  0.75417391  1
  Mo  Mo166  1  0.19992639  0.20451461  0.24273923  1
  Mo  Mo167  1  0.50242125  0.69722506  0.14356459  1
  Mo  Mo168  1  0.70021980  0.49865604  0.64345635  1
  Mo  Mo169  1  0.49260950  0.70129268  0.36035966  1
  Mo  Mo170  1  0.58929798  0.40416420  -0.00871167  1
  Mo  Mo171  1  0.00269084  0.59249106  0.26301291  1
  Mo  Mo172  1  0.30228316  0.09902789  0.88116669  1
  Mo  Mo173  1  0.20694158  0.80357223  0.25181831  1
  Mo  Mo174  1  0.89985600  0.90344399  0.37430417  1
  Mo  Mo175  1  0.30151991  0.49874410  0.90139967  1
  Mo  Mo176  1  0.00086798  0.39662529  0.48726360  1
  Mo  Mo177  1  0.40816954  0.20715619  0.51285839  1
  Mo  Mo178  1  0.20517170  0.39921263  0.74161225  1
  Mo  Mo179  1  0.49979318  0.30346082  0.13307493  1
  Mo  Mo180  1  0.69781427  0.10691642  0.63224106  1
  Mo  Mo181  1  0.69303163  0.89722656  0.87067925  1
  Mo  Mo182  1  0.00398168  0.00190103  0.73508146  1
  Mo  Mo183  1  0.79772955  0.80167516  0.48759570  1
  Mo  Mo184  1  0.10549294  0.70033324  0.12428840  1
  Mo  Mo185  1  0.39540609  0.59656588  0.23773727  1
  Mo  Mo186  1  0.29847842  0.30187579  0.11456583  1
  Mo  Mo187  1  0.79084122  0.19558707  0.51783339  1
  Mo  Mo188  1  0.59518235  0.59721251  0.22430406  1
  Mo  Mo189  1  0.49379317  0.29511150  0.86079607  1
  Mo  Mo190  1  -0.00093822  0.79025967  0.74288491  1
  Mo  Mo191  1  0.30502849  0.10958908  0.60506014  1
  Mo  Mo192  1  0.50166443  0.09748278  0.14602229  1
  Mo  Mo193  1  0.19914827  0.20303226  0.52010667  1
  Mo  Mo194  1  0.39821250  0.59624314  0.76361671  1
  Mo  Mo195  1  -0.00109152  0.59802633  0.50169711  1
  Mo  Mo196  1  0.00171793  0.20064799  0.75119575  1
  Mo  Mo197  1  0.30146292  0.89751443  0.61175285  1
  Mo  Mo198  1  0.40642576  0.20454038  0.23562254  1
  Mo  Mo199  1  0.80406485  0.58162234  0.24099505  1
