# generated using pymatgen
data_HfZrTaTiMo
_symmetry_space_group_name_H-M   'P 1'
_cell_length_a   15.93223197
_cell_length_b   15.94382259
_cell_length_c   15.21373398
_cell_angle_alpha   90.00232916
_cell_angle_beta   90.00042172
_cell_angle_gamma   90.02502506
_symmetry_Int_Tables_number   1
_chemical_formula_structural   HfZrTaTiMo
_chemical_formula_sum   'Hf40 Zr40 Ta40 Ti40 Mo40'
_cell_volume   3864.60267912
_cell_formula_units_Z   40
loop_
 _symmetry_equiv_pos_site_id
 _symmetry_equiv_pos_as_xyz
  1  'x, y, z'
loop_
 _atom_site_type_symbol
 _atom_site_label
 _atom_site_symmetry_multiplicity
 _atom_site_fract_x
 _atom_site_fract_y
 _atom_site_fract_z
 _atom_site_occupancy
  Hf  Hf0  1  0.40455524  0.19494928  0.74713412  1
  Hf  Hf1  1  0.09370814  0.90238341  0.37673751  1
  Hf  Hf2  1  0.39747736  -0.00436397  0.50755187  1
  Hf  Hf3  1  0.39655546  0.61118251  0.75775667  1
  Hf  Hf4  1  0.68411111  0.91670972  0.64237544  1
  Hf  Hf5  1  0.91015598  0.50502256  0.86935908  1
  Hf  Hf6  1  0.79583649  0.79541228  0.74512854  1
  Hf  Hf7  1  0.69897274  0.30600572  0.88758271  1
  Hf  Hf8  1  0.59631557  0.80375064  0.48975292  1
  Hf  Hf9  1  0.79714836  0.60229204  0.00909619  1
  Hf  Hf10  1  0.90941043  0.10848550  0.12126286  1
  Hf  Hf11  1  0.79908006  0.81842460  0.50056246  1
  Hf  Hf12  1  0.39879602  0.80596915  0.49503853  1
  Hf  Hf13  1  0.90562874  0.70306225  0.39138478  1
  Hf  Hf14  1  0.00312031  0.40688132  0.51128270  1
  Hf  Hf15  1  0.09871618  0.10040413  0.13404493  1
  Hf  Hf16  1  0.09841998  0.29704183  0.63599987  1
  Hf  Hf17  1  0.19793390  0.58344879  0.51601167  1
  Hf  Hf18  1  0.19858373  -0.01308429  0.00911066  1
  Hf  Hf19  1  0.40061521  0.40382292  0.75613331  1
  Hf  Hf20  1  0.20772599  0.39464585  0.24962908  1
  Hf  Hf21  1  0.50322691  0.10240227  0.12848161  1
  Hf  Hf22  1  -0.00134305  -0.00636594  -0.00619957  1
  Hf  Hf23  1  0.00894389  0.60869055  0.24871422  1
  Hf  Hf24  1  0.39900094  0.59722463  -0.00981998  1
  Hf  Hf25  1  0.49454151  0.09917074  0.35206779  1
  Hf  Hf26  1  0.79719759  0.20493282  0.76699980  1
  Hf  Hf27  1  0.29235418  0.69023119  0.12656920  1
  Hf  Hf28  1  0.52632521  0.88275989  0.14138036  1
  Hf  Hf29  1  0.40116745  0.18690384  0.50754958  1
  Hf  Hf30  1  0.00555037  0.60030858  -0.00154605  1
  Hf  Hf31  1  0.38788491  -0.01575482  0.23753780  1
  Hf  Hf32  1  0.50206764  0.29605205  0.88359708  1
  Hf  Hf33  1  0.50354015  0.49955892  0.61869471  1
  Hf  Hf34  1  0.59123718  0.61824339  0.24779391  1
  Hf  Hf35  1  0.30251754  0.09351065  0.87488720  1
  Hf  Hf36  1  0.19822511  0.59521990  -0.02013283  1
  Hf  Hf37  1  0.60972190  0.19245072  0.49872933  1
  Hf  Hf38  1  0.80103307  0.60737345  0.24876008  1
  Hf  Hf39  1  0.59408546  0.61404381  0.00695215  1
  Zr  Zr40  1  0.80447334  0.20992334  0.48828200  1
  Zr  Zr41  1  0.10198525  0.30054705  0.37758423  1
  Zr  Zr42  1  0.59487813  -0.00293186  0.48758449  1
  Zr  Zr43  1  0.20869879  0.78797417  0.74317315  1
  Zr  Zr44  1  -0.00176499  0.19611332  0.50231652  1
  Zr  Zr45  1  0.69564932  0.10305549  0.34404690  1
  Zr  Zr46  1  0.70160301  0.30307156  0.63297658  1
  Zr  Zr47  1  0.10077594  0.29459069  0.11157979  1
  Zr  Zr48  1  0.79736247  -0.00180065  -0.00321944  1
  Zr  Zr49  1  0.10173381  0.09601491  0.35500111  1
  Zr  Zr50  1  0.40413593  -0.01314751  0.01154728  1
  Zr  Zr51  1  0.60565309  0.41328877  0.00694946  1
  Zr  Zr52  1  0.49999981  0.29953841  0.12256271  1
  Zr  Zr53  1  0.81356828  0.81264705  0.26285776  1
  Zr  Zr54  1  0.40843055  0.78736767  0.00256683  1
  Zr  Zr55  1  0.09062054  0.08438802  0.65147993  1
  Zr  Zr56  1  0.39663762  0.59172334  0.49634398  1
  Zr  Zr57  1  0.28623068  0.09406710  0.36137286  1
  Zr  Zr58  1  0.30462998  0.89107176  0.86750423  1
  Zr  Zr59  1  0.90692234  0.71251463  0.12008870  1
  Zr  Zr60  1  0.81004287  0.21262619  0.24245834  1
  Zr  Zr61  1  0.50972387  0.49518483  0.37658114  1
  Zr  Zr62  1  0.10399099  0.10543916  0.87819525  1
  Zr  Zr63  1  0.50892161  0.30164908  0.62216893  1
  Zr  Zr64  1  0.38909413  0.59476267  0.26061444  1
  Zr  Zr65  1  0.81488832  0.40169277  0.24744236  1
  Zr  Zr66  1  0.90473467  0.09128015  0.35743128  1
  Zr  Zr67  1  0.80732908  0.40632105  0.49207521  1
  Zr  Zr68  1  0.10204799  0.90941198  0.84467977  1
  Zr  Zr69  1  0.28822055  0.10943508  0.12474762  1
  Zr  Zr70  1  0.19621885  0.79048077  0.25722276  1
  Zr  Zr71  1  0.79354203  0.01278218  0.50329987  1
  Zr  Zr72  1  0.09439415  0.69517742  0.62437206  1
  Zr  Zr73  1  0.30567779  0.30555221  0.62128431  1
  Zr  Zr74  1  0.50075877  0.30202703  0.37579471  1
  Zr  Zr75  1  0.69423427  0.09822756  0.12748805  1
  Zr  Zr76  1  0.69910604  0.69146329  0.61317060  1
  Zr  Zr77  1  -0.01275756  0.79386323  0.74507937  1
  Zr  Zr78  1  0.60415204  0.59684981  0.75631890  1
  Zr  Zr79  1  0.09717562  0.69854999  0.39516066  1
  Ta  Ta80  1  0.69685973  0.90152657  0.86429653  1
  Ta  Ta81  1  0.20427495  0.40414714  0.50843893  1
  Ta  Ta82  1  0.29495667  0.29740799  0.88210923  1
  Ta  Ta83  1  0.38555987  0.21276809  0.24605789  1
  Ta  Ta84  1  0.10815457  0.50216551  0.13375754  1
  Ta  Ta85  1  -0.00006977  0.79754456  -0.02510684  1
  Ta  Ta86  1  0.09042481  0.88155240  0.12388438  1
  Ta  Ta87  1  -0.00587306  0.20661894  0.76483648  1
  Ta  Ta88  1  0.90057835  0.92116187  0.63913642  1
  Ta  Ta89  1  0.29211544  0.69591583  0.38468192  1
  Ta  Ta90  1  0.19762531  -0.00285718  0.51872975  1
  Ta  Ta91  1  0.50354800  0.09493426  0.87845531  1
  Ta  Ta92  1  0.20613065  0.20097413  0.75060080  1
  Ta  Ta93  1  -0.00433326  0.81609826  0.52014974  1
  Ta  Ta94  1  0.20075817  0.58880423  0.74795830  1
  Ta  Ta95  1  0.80286119  0.20904184  0.00331198  1
  Ta  Ta96  1  0.40437407  -0.00458262  0.73853136  1
  Ta  Ta97  1  0.51877631  0.08718064  0.63822231  1
  Ta  Ta98  1  0.40811189  0.78377378  0.26136729  1
  Ta  Ta99  1  0.49340746  0.50080655  0.13068810  1
  Ta  Ta100  1  0.89325073  0.10790068  0.64200639  1
  Ta  Ta101  1  0.60182505  0.80331832  -0.01679448  1
  Ta  Ta102  1  0.50349017  0.49813248  0.87827816  1
  Ta  Ta103  1  0.80316316  0.40786229  0.75489080  1
  Ta  Ta104  1  0.20107831  0.18819137  0.51515975  1
  Ta  Ta105  1  0.49909025  0.89753230  0.86031799  1
  Ta  Ta106  1  0.69546728  0.30026778  0.12680604  1
  Ta  Ta107  1  0.60151274  -0.00752811  -0.00659186  1
  Ta  Ta108  1  0.70425754  0.70077407  0.87658003  1
  Ta  Ta109  1  0.09013603  0.68647915  0.85690357  1
  Ta  Ta110  1  0.50140176  0.70144787  0.61674072  1
  Ta  Ta111  1  0.29921576  0.29719809  0.38853962  1
  Ta  Ta112  1  0.59194479  0.79331434  0.75398729  1
  Ta  Ta113  1  0.91288040  0.49734780  0.12718977  1
  Ta  Ta114  1  0.10157431  0.30618191  0.87448523  1
  Ta  Ta115  1  -0.01345390  -0.02728632  0.24013577  1
  Ta  Ta116  1  0.39481769  0.39894852  0.25155996  1
  Ta  Ta117  1  0.69024343  0.31232189  0.35537631  1
  Ta  Ta118  1  0.69305375  0.72744777  0.12767370  1
  Ta  Ta119  1  0.90183817  0.30621965  0.63934817  1
  Ti  Ti120  1  0.28821021  0.88005984  0.12686232  1
  Ti  Ti121  1  0.89528013  0.89372359  0.11186403  1
  Ti  Ti122  1  0.29715318  0.49585511  0.12180262  1
  Ti  Ti123  1  0.29744017  0.49238064  0.86988022  1
  Ti  Ti124  1  0.30456906  0.69779795  0.61599440  1
  Ti  Ti125  1  0.79788012  0.80203851  -0.01222928  1
  Ti  Ti126  1  0.80682835  0.40526479  0.01120572  1
  Ti  Ti127  1  0.80935239  0.60366876  0.75197624  1
  Ti  Ti128  1  0.39611458  0.40326179  -0.00159056  1
  Ti  Ti129  1  0.60538552  0.40378932  0.75560778  1
  Ti  Ti130  1  0.29906685  0.89867868  0.63291695  1
  Ti  Ti131  1  0.90037347  0.10630894  0.88150497  1
  Ti  Ti132  1  0.80134513  0.58767881  0.49302804  1
  Ti  Ti133  1  0.29476804  0.29967929  0.10911511  1
  Ti  Ti134  1  0.19881480  0.40228536  0.74768541  1
  Ti  Ti135  1  0.39814226  0.19739243  -0.00061550  1
  Ti  Ti136  1  0.69810065  0.69674899  0.38254332  1
  Ti  Ti137  1  0.90577721  0.30899541  0.88408635  1
  Ti  Ti138  1  -0.00324979  0.00100609  0.50588845  1
  Ti  Ti139  1  0.19787192  0.80835053  0.50949012  1
  Ti  Ti140  1  0.91728838  0.49691161  0.36356446  1
  Ti  Ti141  1  0.10379771  0.70086645  0.11933813  1
  Ti  Ti142  1  0.69862300  0.50264161  0.13757486  1
  Ti  Ti143  1  0.50231331  0.89889818  0.35587859  1
  Ti  Ti144  1  0.61302461  0.40675576  0.50082813  1
  Ti  Ti145  1  0.70750081  0.50219614  0.62680081  1
  Ti  Ti146  1  0.19789774  0.40471013  -0.00609898  1
  Ti  Ti147  1  0.69959280  0.91243342  0.34997028  1
  Ti  Ti148  1  0.70656332  0.50393906  0.87782607  1
  Ti  Ti149  1  0.10822480  0.50083091  0.36499091  1
  Ti  Ti150  1  0.19212747  0.78904043  -0.01784687  1
  Ti  Ti151  1  -0.00602571  0.22965562  0.25054161  1
  Ti  Ti152  1  0.60943074  0.18613289  0.75959190  1
  Ti  Ti153  1  0.28933738  0.89934670  0.37133713  1
  Ti  Ti154  1  0.89445868  0.69083128  0.61250504  1
  Ti  Ti155  1  -0.00346795  0.58487961  0.51410495  1
  Ti  Ti156  1  0.78803462  0.01702535  0.76119040  1
  Ti  Ti157  1  0.00762625  0.40631827  -0.00073908  1
  Ti  Ti158  1  0.69776852  0.50301753  0.36516893  1
  Ti  Ti159  1  0.89206988  0.90152071  0.86374653  1
  Mo  Mo160  1  0.21536822  0.00150191  0.73526523  1
  Mo  Mo161  1  0.69754839  0.10416841  0.89446382  1
  Mo  Mo162  1  0.59434712  0.20900392  0.24992190  1
  Mo  Mo163  1  0.10104361  0.49148316  0.86085790  1
  Mo  Mo164  1  -0.00070133  0.39860250  0.75135444  1
  Mo  Mo165  1  0.90369999  0.30845816  0.38329873  1
  Mo  Mo166  1  -0.00493480  0.59580069  0.73886931  1
  Mo  Mo167  1  0.19976133  0.59389050  0.25430525  1
  Mo  Mo168  1  0.30011034  0.49776849  0.63979774  1
  Mo  Mo169  1  0.00628012  0.40636897  0.24470022  1
  Mo  Mo170  1  0.29366864  0.48976204  0.37617147  1
  Mo  Mo171  1  0.39259989  0.40069293  0.48894408  1
  Mo  Mo172  1  0.20335138  0.20874207  0.25361870  1
  Mo  Mo173  1  0.60181414  0.40972885  0.23644075  1
  Mo  Mo174  1  0.40494059  0.79584807  0.73301975  1
  Mo  Mo175  1  0.70757937  0.89621511  0.12616037  1
  Mo  Mo176  1  -0.02297451  0.00702688  0.76714840  1
  Mo  Mo177  1  0.60124820  0.19612327  -0.00588681  1
  Mo  Mo178  1  0.00111181  0.79837127  0.25228390  1
  Mo  Mo179  1  0.09603966  0.49261412  0.64415392  1
  Mo  Mo180  1  0.59945761  0.00294047  0.77025504  1
  Mo  Mo181  1  0.20178696  0.20351951  -0.01711419  1
  Mo  Mo182  1  0.50119816  0.70208589  0.86715788  1
  Mo  Mo183  1  -0.00381385  0.20634305  -0.01756606  1
  Mo  Mo184  1  0.30236761  0.09697296  0.63192511  1
  Mo  Mo185  1  0.89448703  0.50511457  0.63903996  1
  Mo  Mo186  1  0.60664596  0.79655994  0.27336315  1
  Mo  Mo187  1  0.80485382  -0.00423900  0.22939570  1
  Mo  Mo188  1  0.49800629  0.89452843  0.63877355  1
  Mo  Mo189  1  0.09595759  0.90301519  0.62688048  1
  Mo  Mo190  1  0.59816126  -0.00340973  0.24662849  1
  Mo  Mo191  1  0.29300976  0.69616095  0.87622923  1
  Mo  Mo192  1  0.90299993  0.90562178  0.39171529  1
  Mo  Mo193  1  0.49767259  0.70206967  0.39211343  1
  Mo  Mo194  1  0.19144482  -0.01477578  0.22973003  1
  Mo  Mo195  1  0.49933064  0.69936781  0.12773472  1
  Mo  Mo196  1  0.70049855  0.10476526  0.63636365  1
  Mo  Mo197  1  0.61066121  0.59618350  0.49762672  1
  Mo  Mo198  1  0.90462295  0.30860759  0.10052106  1
  Mo  Mo199  1  0.89444471  0.70022887  0.88220985  1
