# generated using pymatgen
data_HfZrTaTiMo
_symmetry_space_group_name_H-M   'P 1'
_cell_length_a   15.92516802
_cell_length_b   15.93251927
_cell_length_c   15.19510051
_cell_angle_alpha   89.95652305
_cell_angle_beta   90.05531583
_cell_angle_gamma   90.10236310
_symmetry_Int_Tables_number   1
_chemical_formula_structural   HfZrTaTiMo
_chemical_formula_sum   'Hf40 Zr40 Ta40 Ti40 Mo40'
_cell_volume   3855.41411349
_cell_formula_units_Z   40
loop_
 _symmetry_equiv_pos_site_id
 _symmetry_equiv_pos_as_xyz
  1  'x, y, z'
loop_
 _atom_site_type_symbol
 _atom_site_label
 _atom_site_symmetry_multiplicity
 _atom_site_fract_x
 _atom_site_fract_y
 _atom_site_fract_z
 _atom_site_occupancy
  Hf  Hf0  1  0.00413419  0.00370974  0.00125501  1
  Hf  Hf1  1  0.10521282  0.71333831  0.13811865  1
  Hf  Hf2  1  -0.00128657  0.80680673  0.49333877  1
  Hf  Hf3  1  0.00715002  0.20679501  0.75062398  1
  Hf  Hf4  1  0.27779843  0.09480790  0.13417984  1
  Hf  Hf5  1  0.19267573  0.80614201  0.75174082  1
  Hf  Hf6  1  0.89913001  0.12131944  0.61182963  1
  Hf  Hf7  1  0.59776529  0.79068078  -0.00641133  1
  Hf  Hf8  1  0.69874580  0.70153760  0.12461854  1
  Hf  Hf9  1  0.89830964  0.49317863  0.62224380  1
  Hf  Hf10  1  0.40250447  0.40059752  0.50948914  1
  Hf  Hf11  1  0.69445451  0.70977839  0.61063966  1
  Hf  Hf12  1  0.89538204  0.69738979  0.61799496  1
  Hf  Hf13  1  0.19781369  0.80696190  -0.00879661  1
  Hf  Hf14  1  0.00066415  0.80703513  0.00354435  1
  Hf  Hf15  1  0.50115223  0.89975383  0.86157947  1
  Hf  Hf16  1  0.58907050  0.59390367  0.22130698  1
  Hf  Hf17  1  0.90318287  0.30124866  0.87698015  1
  Hf  Hf18  1  0.29714728  0.50044642  0.88111148  1
  Hf  Hf19  1  0.60805619  -0.00163975  0.25729927  1
  Hf  Hf20  1  0.79693831  -0.00558906  0.73128528  1
  Hf  Hf21  1  0.50929730  0.31127699  0.35741663  1
  Hf  Hf22  1  0.20244304  0.60636203  0.48185334  1
  Hf  Hf23  1  0.29410865  0.49749562  0.11875708  1
  Hf  Hf24  1  0.80425740  0.80078466  0.24543422  1
  Hf  Hf25  1  0.18968538  0.19711402  -0.01449868  1
  Hf  Hf26  1  0.69856711  0.09686568  0.87669838  1
  Hf  Hf27  1  0.30888726  0.49545834  0.36035046  1
  Hf  Hf28  1  0.00207503  0.59921607  0.75127199  1
  Hf  Hf29  1  0.19419647  0.60452315  0.00140986  1
  Hf  Hf30  1  0.69830321  0.48956680  0.35382806  1
  Hf  Hf31  1  0.28881747  0.49276652  0.62934894  1
  Hf  Hf32  1  0.81405351  0.20387943  0.26365657  1
  Hf  Hf33  1  0.69718558  0.49898707  0.64280818  1
  Hf  Hf34  1  0.81207641  0.80757076  0.00137780  1
  Hf  Hf35  1  0.89985361  0.08883750  0.86778793  1
  Hf  Hf36  1  0.50127513  0.49861114  0.35703281  1
  Hf  Hf37  1  0.39772970  -0.00064931  0.73491542  1
  Hf  Hf38  1  0.58868813  0.59596226  0.49795216  1
  Hf  Hf39  1  0.81197190  0.00641290  0.26490340  1
  Zr  Zr40  1  0.40114664  0.59859411  0.50003513  1
  Zr  Zr41  1  0.70786996  0.10490796  0.12324150  1
  Zr  Zr42  1  0.70875806  0.90862858  0.88141226  1
  Zr  Zr43  1  0.29938164  0.89419659  0.61026479  1
  Zr  Zr44  1  0.88101712  0.69784827  0.38010408  1
  Zr  Zr45  1  0.28713549  0.08684206  0.39359062  1
  Zr  Zr46  1  0.19696233  0.60231577  0.25549871  1
  Zr  Zr47  1  -0.00418577  0.59387847  0.25648842  1
  Zr  Zr48  1  0.59324177  0.00288784  0.01006579  1
  Zr  Zr49  1  0.30186804  0.90779293  0.87062363  1
  Zr  Zr50  1  0.49661535  0.88221584  0.13530139  1
  Zr  Zr51  1  0.50475389  0.09718425  0.38422867  1
  Zr  Zr52  1  0.40128302  0.19525819  -0.00846700  1
  Zr  Zr53  1  0.70108977  0.88298639  0.38550768  1
  Zr  Zr54  1  0.29362871  0.29601201  0.12783443  1
  Zr  Zr55  1  0.60260556  0.20370856  0.75931028  1
  Zr  Zr56  1  0.00255613  0.40432473  -0.00041858  1
  Zr  Zr57  1  0.68794275  0.69056638  0.36786873  1
  Zr  Zr58  1  0.49747804  0.10353662  0.13255392  1
  Zr  Zr59  1  0.78957352  0.60950401  0.76355427  1
  Zr  Zr60  1  0.49954896  0.70498396  0.64075555  1
  Zr  Zr61  1  0.39521936  0.20004469  0.25577202  1
  Zr  Zr62  1  0.50128924  0.09950835  0.62179697  1
  Zr  Zr63  1  0.89641451  0.31275174  0.61666573  1
  Zr  Zr64  1  0.09725229  0.31242225  0.61277438  1
  Zr  Zr65  1  0.09306834  0.28520803  0.13459299  1
  Zr  Zr66  1  0.29784856  0.70170034  0.63159158  1
  Zr  Zr67  1  0.60686230  0.39939295  0.50660546  1
  Zr  Zr68  1  0.00371459  0.59706168  0.48496813  1
  Zr  Zr69  1  0.80991358  -0.01769365  0.50565473  1
  Zr  Zr70  1  0.00099869  -0.00806733  0.72494159  1
  Zr  Zr71  1  0.40032406  0.59502302  0.75926242  1
  Zr  Zr72  1  0.40045412  0.21277086  0.50000551  1
  Zr  Zr73  1  0.39175595  -0.01190952  0.26678988  1
  Zr  Zr74  1  0.80819923  0.59887962  0.00616936  1
  Zr  Zr75  1  0.00184598  -0.00065496  0.50308962  1
  Zr  Zr76  1  0.80162074  0.39702422  0.00865265  1
  Zr  Zr77  1  0.29764081  0.89901103  0.12671115  1
  Zr  Zr78  1  0.10838201  0.91801465  0.14724000  1
  Zr  Zr79  1  0.70053383  0.10863499  0.61572308  1
  Ta  Ta80  1  0.40248678  0.39355093  -0.00545510  1
  Ta  Ta81  1  0.18859555  0.59665461  0.75732409  1
  Ta  Ta82  1  0.59586824  0.39358788  -0.00185036  1
  Ta  Ta83  1  0.40121902  0.79252819  0.47979843  1
  Ta  Ta84  1  0.18952368  0.39818900  0.25882471  1
  Ta  Ta85  1  0.19387876  0.00692776  -0.01321637  1
  Ta  Ta86  1  0.29442879  0.10598624  0.61789122  1
  Ta  Ta87  1  0.29644396  0.29774138  0.86934572  1
  Ta  Ta88  1  0.00466600  0.80594655  0.26913151  1
  Ta  Ta89  1  0.18950944  0.40115166  0.76466161  1
  Ta  Ta90  1  0.79839071  0.20806160  0.76086933  1
  Ta  Ta91  1  0.90604128  0.70735523  0.87427885  1
  Ta  Ta92  1  0.10377685  0.70231428  0.61951618  1
  Ta  Ta93  1  0.70508382  0.90130331  0.12725946  1
  Ta  Ta94  1  0.19305711  0.00520530  0.73320001  1
  Ta  Ta95  1  0.50548030  0.30386863  0.63891990  1
  Ta  Ta96  1  0.60131122  -0.01351355  0.50888629  1
  Ta  Ta97  1  0.69448393  0.50130649  0.88488882  1
  Ta  Ta98  1  0.70348414  0.10094997  0.39228329  1
  Ta  Ta99  1  0.61391414  0.78772769  0.76913423  1
  Ta  Ta100  1  0.19936669  0.21219345  0.49643687  1
  Ta  Ta101  1  0.91025119  0.90842312  0.14437970  1
  Ta  Ta102  1  0.60510067  0.21164569  0.49452499  1
  Ta  Ta103  1  0.00082698  0.60271405  0.00284879  1
  Ta  Ta104  1  -0.00313665  0.39229780  0.26466075  1
  Ta  Ta105  1  0.80570678  0.39568283  0.23974527  1
  Ta  Ta106  1  0.60127893  0.39564115  0.77110034  1
  Ta  Ta107  1  0.40151732  0.39324638  0.75930612  1
  Ta  Ta108  1  0.30602479  0.71272767  0.13296932  1
  Ta  Ta109  1  0.09890782  0.50008862  0.61445305  1
  Ta  Ta110  1  0.09596048  0.70286497  0.87227698  1
  Ta  Ta111  1  0.11764370  0.90981288  0.38027789  1
  Ta  Ta112  1  0.40436397  0.60671961  0.00329969  1
  Ta  Ta113  1  0.49775982  0.09307090  0.86349831  1
  Ta  Ta114  1  0.80279510  0.80276627  0.75273297  1
  Ta  Ta115  1  0.39622544  0.20232095  0.75070192  1
  Ta  Ta116  1  0.80755650  0.19661174  -0.00177162  1
  Ta  Ta117  1  0.30173379  0.70394388  0.86931345  1
  Ta  Ta118  1  0.19309536  0.39586721  -0.01168306  1
  Ta  Ta119  1  0.50154887  0.49908971  0.88194460  1
  Ti  Ti120  1  0.00941582  0.40856302  0.76305729  1
  Ti  Ti121  1  0.78804652  0.58619304  0.50122079  1
  Ti  Ti122  1  0.29590662  0.30205252  0.63350914  1
  Ti  Ti123  1  0.19951219  0.20285669  0.74711114  1
  Ti  Ti124  1  0.69978059  0.29439789  0.12376683  1
  Ti  Ti125  1  0.59990935  0.20577022  -0.01202681  1
  Ti  Ti126  1  0.90667570  0.29397888  0.12541031  1
  Ti  Ti127  1  0.18315852  0.19508249  0.26818652  1
  Ti  Ti128  1  0.09401047  0.49476196  0.12886126  1
  Ti  Ti129  1  0.50889946  0.29628240  0.12590514  1
  Ti  Ti130  1  0.88870337  0.49269128  0.37569625  1
  Ti  Ti131  1  0.81494651  0.00077055  0.01344494  1
  Ti  Ti132  1  0.50571936  0.49700487  0.64689719  1
  Ti  Ti133  1  0.29769805  0.09885210  0.86156929  1
  Ti  Ti134  1  0.69989272  0.49393213  0.12110482  1
  Ti  Ti135  1  0.59348730  0.59985220  -0.00109135  1
  Ti  Ti136  1  0.09036504  0.90597870  0.86643028  1
  Ti  Ti137  1  0.70627107  0.30547021  0.62867638  1
  Ti  Ti138  1  0.09621112  0.10723729  0.39388159  1
  Ti  Ti139  1  0.10184791  0.09595829  0.85902774  1
  Ti  Ti140  1  0.00338113  0.19376543  -0.01017297  1
  Ti  Ti141  1  0.40302940  0.79236218  -0.01138286  1
  Ti  Ti142  1  0.40143856  0.60301139  0.22797058  1
  Ti  Ti143  1  -0.00177916  0.80158296  0.74096428  1
  Ti  Ti144  1  0.90012294  0.50397612  0.87233351  1
  Ti  Ti145  1  0.61489156  0.20187901  0.26090819  1
  Ti  Ti146  1  0.19502798  0.40315416  0.47945218  1
  Ti  Ti147  1  0.79289895  0.39635424  0.76946771  1
  Ti  Ti148  1  0.50973314  0.88520608  0.63055927  1
  Ti  Ti149  1  0.00521037  0.01839776  0.26937609  1
  Ti  Ti150  1  0.29835955  0.30394862  0.36506934  1
  Ti  Ti151  1  0.50529845  0.88771790  0.37259313  1
  Ti  Ti152  1  0.39526946  0.00367944  -0.00159041  1
  Ti  Ti153  1  0.90696822  0.69868760  0.13371853  1
  Ti  Ti154  1  0.10400330  0.11293033  0.61110233  1
  Ti  Ti155  1  0.92006433  0.10853465  0.13101930  1
  Ti  Ti156  1  0.79590709  0.22164726  0.48070517  1
  Ti  Ti157  1  0.40743960  0.40330013  0.22388383  1
  Ti  Ti158  1  0.40718024  -0.01226143  0.50115536  1
  Ti  Ti159  1  0.49865057  0.70195307  0.35310602  1
  Mo  Mo160  1  0.49251172  0.69816124  0.12085073  1
  Mo  Mo161  1  -0.00020326  0.40608318  0.48009144  1
  Mo  Mo162  1  0.79501346  0.40422908  0.49013303  1
  Mo  Mo163  1  0.10382228  0.88958329  0.61463002  1
  Mo  Mo164  1  0.49657343  0.29771841  0.87301447  1
  Mo  Mo165  1  0.20046311  0.79511799  0.48522848  1
  Mo  Mo166  1  0.09508543  0.50519035  0.88100198  1
  Mo  Mo167  1  0.19277399  0.00866471  0.26686975  1
  Mo  Mo168  1  0.09970580  0.49568829  0.37761836  1
  Mo  Mo169  1  0.40308960  0.79947387  0.76043315  1
  Mo  Mo170  1  0.30812383  0.69928204  0.35724475  1
  Mo  Mo171  1  0.30029924  0.89496391  0.39085180  1
  Mo  Mo172  1  0.09976402  0.29828155  0.37627631  1
  Mo  Mo173  1  0.09321910  0.10425014  0.13199241  1
  Mo  Mo174  1  0.60433837  0.39393684  0.21805427  1
  Mo  Mo175  1  0.90800080  0.90362427  0.36103451  1
  Mo  Mo176  1  0.60095195  -0.00994911  0.72960385  1
  Mo  Mo177  1  0.90590553  0.49638227  0.14012850  1
  Mo  Mo178  1  0.69017769  0.89076612  0.62436277  1
  Mo  Mo179  1  0.90273638  0.10776211  0.39321922  1
  Mo  Mo180  1  0.70026696  0.30225405  0.36071639  1
  Mo  Mo181  1  0.39864659  0.79396195  0.26310493  1
  Mo  Mo182  1  0.20787001  0.80534550  0.27161743  1
  Mo  Mo183  1  0.50121169  0.69555635  0.87227321  1
  Mo  Mo184  1  0.80047305  0.58895004  0.23019226  1
  Mo  Mo185  1  0.70454322  0.69829945  0.89276171  1
  Mo  Mo186  1  0.10065394  0.29781875  0.86996485  1
  Mo  Mo187  1  0.89745332  0.88423672  0.63295340  1
  Mo  Mo188  1  0.70188644  0.29867080  0.89149987  1
  Mo  Mo189  1  0.58421056  0.79769711  0.49225912  1
  Mo  Mo190  1  0.49550002  0.49415848  0.10242074  1
  Mo  Mo191  1  0.59924805  0.79855309  0.24236861  1
  Mo  Mo192  1  0.79946083  0.79578530  0.50623945  1
  Mo  Mo193  1  0.89844325  0.31056696  0.38589430  1
  Mo  Mo194  1  0.60085566  0.59792219  0.77059809  1
  Mo  Mo195  1  0.90774214  0.89529666  0.85975215  1
  Mo  Mo196  1  0.00021547  0.20785441  0.48745175  1
  Mo  Mo197  1  0.10473240  0.70894482  0.37144921  1
  Mo  Mo198  1  0.19404935  0.00302124  0.51913928  1
  Mo  Mo199  1  -0.00262317  0.19726921  0.27248014  1
