# generated using pymatgen
data_HfZrTaTiMo
_symmetry_space_group_name_H-M   'P 1'
_cell_length_a   15.92160781
_cell_length_b   15.93069743
_cell_length_c   15.19801761
_cell_angle_alpha   89.98100175
_cell_angle_beta   90.02998772
_cell_angle_gamma   89.96538285
_symmetry_Int_Tables_number   1
_chemical_formula_structural   HfZrTaTiMo
_chemical_formula_sum   'Hf40 Zr40 Ta40 Ti40 Mo40'
_cell_volume   3854.85895080
_cell_formula_units_Z   40
loop_
 _symmetry_equiv_pos_site_id
 _symmetry_equiv_pos_as_xyz
  1  'x, y, z'
loop_
 _atom_site_type_symbol
 _atom_site_label
 _atom_site_symmetry_multiplicity
 _atom_site_fract_x
 _atom_site_fract_y
 _atom_site_fract_z
 _atom_site_occupancy
  Hf  Hf0  1  0.48478368  0.10188618  0.64364522  1
  Hf  Hf1  1  0.30057041  0.08983699  0.86575001  1
  Hf  Hf2  1  0.89423228  0.32225191  0.87961366  1
  Hf  Hf3  1  0.69346035  0.09809636  0.37652928  1
  Hf  Hf4  1  0.39364957  0.39526346  0.49435333  1
  Hf  Hf5  1  0.30150074  0.90201969  0.35457534  1
  Hf  Hf6  1  0.60778434  0.60656671  0.75291904  1
  Hf  Hf7  1  0.90892387  0.89860959  0.61163584  1
  Hf  Hf8  1  0.19605040  0.80292461  0.73798683  1
  Hf  Hf9  1  0.20094199  0.59392282  0.49584029  1
  Hf  Hf10  1  0.71354210  0.29785951  0.61121324  1
  Hf  Hf11  1  0.40664093  0.60482823  0.75720616  1
  Hf  Hf12  1  0.39473951  0.19314495  0.00250291  1
  Hf  Hf13  1  0.59886145  0.79416547  0.74220903  1
  Hf  Hf14  1  0.39132941  0.80536905  0.00484744  1
  Hf  Hf15  1  -0.01379123  0.79570386  0.47279397  1
  Hf  Hf16  1  0.78857998  -0.01418979  0.49460901  1
  Hf  Hf17  1  0.71219933  0.50650753  0.61575224  1
  Hf  Hf18  1  0.40090192  0.00604176  0.49754388  1
  Hf  Hf19  1  0.59110924  0.41088294  0.49847169  1
  Hf  Hf20  1  0.80350555  0.19178245  -0.00203644  1
  Hf  Hf21  1  0.90252861  0.71512082  0.87403948  1
  Hf  Hf22  1  0.60997999  0.19413759  0.74630875  1
  Hf  Hf23  1  -0.01335381  0.19450947  0.76429833  1
  Hf  Hf24  1  0.90558569  0.09738761  0.12638776  1
  Hf  Hf25  1  0.70483399  0.89165895  0.86912122  1
  Hf  Hf26  1  0.20030836  0.80586978  0.50587482  1
  Hf  Hf27  1  0.40306059  0.80561424  0.50839615  1
  Hf  Hf28  1  0.80271736  0.81113841  0.25612500  1
  Hf  Hf29  1  0.01411566  0.60514653  0.25611215  1
  Hf  Hf30  1  0.08455099  0.69868019  0.61496352  1
  Hf  Hf31  1  0.20032815  0.19620175  0.49791127  1
  Hf  Hf32  1  0.50177890  0.30051294  0.12062219  1
  Hf  Hf33  1  0.39615742  0.19528597  0.24999262  1
  Hf  Hf34  1  0.48991259  0.30145942  0.63599850  1
  Hf  Hf35  1  0.00475328  0.20119232  0.25854591  1
  Hf  Hf36  1  0.30443787  0.28834654  0.63629186  1
  Hf  Hf37  1  0.28711367  0.68201209  0.12765206  1
  Hf  Hf38  1  0.69719404  0.71165947  0.38033787  1
  Hf  Hf39  1  0.19832477  0.40236534  0.00047785  1
  Zr  Zr40  1  0.80116557  -0.01730591  0.01673964  1
  Zr  Zr41  1  0.08110654  0.08799188  0.61545675  1
  Zr  Zr42  1  0.19374452  0.79932592  0.01283913  1
  Zr  Zr43  1  0.40594831  0.40432481  0.24940628  1
  Zr  Zr44  1  0.90487149  0.30350653  0.12743481  1
  Zr  Zr45  1  0.51469231  0.89958703  0.36407988  1
  Zr  Zr46  1  0.30216703  0.30541831  0.86245290  1
  Zr  Zr47  1  0.08632718  0.30057630  0.62645823  1
  Zr  Zr48  1  0.19609431  0.59880287  0.74882473  1
  Zr  Zr49  1  0.82755537  0.60887088  0.48674303  1
  Zr  Zr50  1  0.80162924  0.00607155  0.73901124  1
  Zr  Zr51  1  0.28131415  0.49364642  0.35606163  1
  Zr  Zr52  1  0.50686384  0.70143381  0.37485182  1
  Zr  Zr53  1  0.60924487  0.59872580  -0.01406995  1
  Zr  Zr54  1  0.70127430  0.30290014  0.12543530  1
  Zr  Zr55  1  0.49421578  0.90420978  0.13426558  1
  Zr  Zr56  1  0.50184447  0.28882877  0.37369026  1
  Zr  Zr57  1  -0.00915739  0.81043991  0.01722118  1
  Zr  Zr58  1  0.60886590  0.80154086  0.00485408  1
  Zr  Zr59  1  0.40895505  0.58892295  0.48932748  1
  Zr  Zr60  1  -0.00644058  -0.00334481  0.76415032  1
  Zr  Zr61  1  0.80354958  0.20287192  0.75269954  1
  Zr  Zr62  1  0.18733150  0.19876978  0.25218694  1
  Zr  Zr63  1  0.70624924  0.29870680  0.37894119  1
  Zr  Zr64  1  0.69370328  0.31207273  0.88856969  1
  Zr  Zr65  1  0.59085852  0.18625673  0.50875324  1
  Zr  Zr66  1  0.50039852  0.29552920  0.87258393  1
  Zr  Zr67  1  0.80101973  0.61239245  -0.00483888  1
  Zr  Zr68  1  0.09895229  0.09378998  0.11232057  1
  Zr  Zr69  1  0.89988196  0.30850239  0.36691191  1
  Zr  Zr70  1  0.29815828  0.07766142  0.13377216  1
  Zr  Zr71  1  0.70332922  0.50458910  0.38193704  1
  Zr  Zr72  1  0.19905646  -0.00570581  0.50491395  1
  Zr  Zr73  1  0.69580437  0.08907783  0.88247859  1
  Zr  Zr74  1  0.30768239  0.69313027  0.62252648  1
  Zr  Zr75  1  0.90531341  0.51013323  0.12812085  1
  Zr  Zr76  1  0.18504824  0.19296297  0.75603061  1
  Zr  Zr77  1  0.80614888  0.59899531  0.75659562  1
  Zr  Zr78  1  0.50308015  0.48580986  0.87391630  1
  Zr  Zr79  1  0.49831562  0.68717286  0.12252565  1
  Ta  Ta80  1  0.59836226  0.18709145  0.00951358  1
  Ta  Ta81  1  0.29933296  0.50050644  0.12871123  1
  Ta  Ta82  1  0.10229806  0.09005613  0.88812136  1
  Ta  Ta83  1  0.50081875  0.09423602  0.13183110  1
  Ta  Ta84  1  0.39595343  0.40245621  0.00848765  1
  Ta  Ta85  1  0.50047781  0.08975414  0.87193571  1
  Ta  Ta86  1  0.00047131  0.00149352  0.26707724  1
  Ta  Ta87  1  0.30249902  0.09547720  0.63971258  1
  Ta  Ta88  1  0.29694971  0.70068451  0.87794745  1
  Ta  Ta89  1  0.08719401  0.50319567  0.61507414  1
  Ta  Ta90  1  -0.00656155  0.20664024  0.48973693  1
  Ta  Ta91  1  0.61171500  0.40276445  0.73591188  1
  Ta  Ta92  1  0.60756537  0.81368225  0.51844691  1
  Ta  Ta93  1  0.60156860  0.40699121  0.25097752  1
  Ta  Ta94  1  0.19027815  0.79554181  0.24118957  1
  Ta  Ta95  1  0.19017913  0.40693581  0.74323336  1
  Ta  Ta96  1  0.10182282  0.31930577  0.38346637  1
  Ta  Ta97  1  0.80106715  0.41060051  0.24676592  1
  Ta  Ta98  1  0.69677123  0.50708316  0.13233173  1
  Ta  Ta99  1  0.40236397  0.79875067  0.74908864  1
  Ta  Ta100  1  0.80042939  0.00082461  0.25105256  1
  Ta  Ta101  1  0.29137879  0.29802518  0.37021335  1
  Ta  Ta102  1  0.00433562  0.20592108  -0.01321689  1
  Ta  Ta103  1  0.29882323  0.70257740  0.36489163  1
  Ta  Ta104  1  0.90187061  0.70100605  0.62771041  1
  Ta  Ta105  1  0.29136239  0.30228750  0.13061278  1
  Ta  Ta106  1  0.00764244  0.40662444  0.00851641  1
  Ta  Ta107  1  0.49988668  0.50347775  0.63376338  1
  Ta  Ta108  1  0.19913952  0.39974107  0.51488043  1
  Ta  Ta109  1  0.70027439  0.69787696  0.14442336  1
  Ta  Ta110  1  0.09969859  0.70012824  0.88001754  1
  Ta  Ta111  1  0.39551403  0.79424513  0.23934651  1
  Ta  Ta112  1  0.10192125  0.89684618  0.87904692  1
  Ta  Ta113  1  0.89408216  0.10145521  0.38044934  1
  Ta  Ta114  1  0.19727450  0.20271020  -0.00352433  1
  Ta  Ta115  1  0.09292899  0.50118374  0.87481408  1
  Ta  Ta116  1  0.29973600  0.89625105  0.86269464  1
  Ta  Ta117  1  0.00254940  0.80471154  0.25088920  1
  Ta  Ta118  1  0.71133131  0.70528922  0.61106545  1
  Ta  Ta119  1  0.50017996  0.90594281  0.86990176  1
  Ti  Ti120  1  0.59579555  0.59347088  0.25414609  1
  Ti  Ti121  1  0.11798833  0.51749501  0.12002697  1
  Ti  Ti122  1  0.40312745  0.59623981  0.25670856  1
  Ti  Ti123  1  0.10219575  0.90527983  0.37239576  1
  Ti  Ti124  1  0.60466834  0.19356444  0.23908384  1
  Ti  Ti125  1  0.20717759  -0.01200911  -0.00206805  1
  Ti  Ti126  1  0.79628199  0.19505043  0.24519660  1
  Ti  Ti127  1  0.50270922  0.49995770  0.11570941  1
  Ti  Ti128  1  0.09388327  0.31013717  0.87048932  1
  Ti  Ti129  1  0.61250271  -0.00266123  0.23850896  1
  Ti  Ti130  1  0.90658680  0.50394222  0.88474518  1
  Ti  Ti131  1  0.30478859  0.49148714  0.63454452  1
  Ti  Ti132  1  0.91911500  0.49455010  0.36940237  1
  Ti  Ti133  1  0.00304180  0.80616790  0.75007689  1
  Ti  Ti134  1  0.60171226  -0.00310291  0.01372715  1
  Ti  Ti135  1  0.10207658  0.91103406  0.13557861  1
  Ti  Ti136  1  0.82536690  0.40176110  0.50984960  1
  Ti  Ti137  1  0.01036697  0.60863158  0.00634739  1
  Ti  Ti138  1  0.49773370  0.09207988  0.36135425  1
  Ti  Ti139  1  0.71113741  0.48845145  0.87105937  1
  Ti  Ti140  1  0.90125428  0.70338842  0.13652856  1
  Ti  Ti141  1  -0.01557233  0.41030949  0.73977833  1
  Ti  Ti142  1  0.79973786  0.80234582  0.01779411  1
  Ti  Ti143  1  0.29675915  0.49817297  0.87010818  1
  Ti  Ti144  1  0.02126371  0.40402563  0.23454372  1
  Ti  Ti145  1  0.88946119  0.11049736  0.60058377  1
  Ti  Ti146  1  0.49234215  0.90407040  0.63771969  1
  Ti  Ti147  1  -0.00775677  -0.00600147  -0.00924630  1
  Ti  Ti148  1  0.19108023  -0.01110652  0.73919655  1
  Ti  Ti149  1  0.49725632  0.70742101  0.88567806  1
  Ti  Ti150  1  0.80532634  0.60182023  0.25995096  1
  Ti  Ti151  1  0.59941792  -0.00533335  0.51649181  1
  Ti  Ti152  1  0.60658514  -0.00478486  0.73592410  1
  Ti  Ti153  1  0.39073266  0.59305369  -0.00899234  1
  Ti  Ti154  1  0.39956548  -0.00636164  -0.00338364  1
  Ti  Ti155  1  0.79876963  0.41380276  0.01585800  1
  Ti  Ti156  1  0.80334663  0.80298667  0.74266939  1
  Ti  Ti157  1  -0.00142083  0.60128123  0.75509562  1
  Ti  Ti158  1  0.10848060  0.69810010  0.37604106  1
  Ti  Ti159  1  0.29457185  0.09638488  0.36842439  1
  Mo  Mo160  1  -0.00084118  0.40506454  0.50516789  1
  Mo  Mo161  1  0.30433743  0.90597837  0.64168572  1
  Mo  Mo162  1  0.50322683  0.50119470  0.37002600  1
  Mo  Mo163  1  0.90104773  0.30157776  0.62219472  1
  Mo  Mo164  1  0.19819046  0.60265543  0.25926601  1
  Mo  Mo165  1  0.69664190  0.09778344  0.13142930  1
  Mo  Mo166  1  0.39792573  0.40633621  0.74412311  1
  Mo  Mo167  1  0.79794861  0.80181898  0.49154338  1
  Mo  Mo168  1  0.60078566  0.40289178  0.01821232  1
  Mo  Mo169  1  0.70142717  0.89740953  0.63625190  1
  Mo  Mo170  1  0.80394739  0.40637648  0.73822067  1
  Mo  Mo171  1  0.90288279  0.70050622  0.35225224  1
  Mo  Mo172  1  0.10112419  0.30036168  0.11056841  1
  Mo  Mo173  1  0.80162418  0.19798118  0.49548828  1
  Mo  Mo174  1  0.69194831  0.90279989  0.36480103  1
  Mo  Mo175  1  0.19120018  0.39947486  0.23132523  1
  Mo  Mo176  1  0.91063125  0.50734366  0.62479614  1
  Mo  Mo177  1  0.09579934  0.69720069  0.12150690  1
  Mo  Mo178  1  -0.00501268  0.00133460  0.48031150  1
  Mo  Mo179  1  0.29318791  0.89655916  0.14053763  1
  Mo  Mo180  1  0.89882640  0.90566690  0.37039719  1
  Mo  Mo181  1  0.90035771  0.89590971  0.86833295  1
  Mo  Mo182  1  0.09260741  0.89513010  0.61791697  1
  Mo  Mo183  1  0.69943382  0.89644869  0.13762829  1
  Mo  Mo184  1  0.50875638  0.69797680  0.61534013  1
  Mo  Mo185  1  0.60013649  0.60831699  0.51620416  1
  Mo  Mo186  1  0.40238494  0.00091562  0.25989721  1
  Mo  Mo187  1  0.40010241  0.19534432  0.76941368  1
  Mo  Mo188  1  0.20057021  0.59536386  -0.01963169  1
  Mo  Mo189  1  0.90907681  0.90705872  0.14687892  1
  Mo  Mo190  1  0.00435869  0.60045433  0.47980201  1
  Mo  Mo191  1  0.09613889  0.49339717  0.38558798  1
  Mo  Mo192  1  0.69587789  0.09668940  0.61190887  1
  Mo  Mo193  1  0.60150663  0.79555385  0.23730808  1
  Mo  Mo194  1  0.70627737  0.70831860  0.87184282  1
  Mo  Mo195  1  0.19001268  -0.00312355  0.26122867  1
  Mo  Mo196  1  0.90328001  0.09833025  0.89581603  1
  Mo  Mo197  1  0.09340555  0.10320602  0.38807547  1
  Mo  Mo198  1  0.38825977  0.19004410  0.48275962  1
  Mo  Mo199  1  0.39965502  -0.00859042  0.75522907  1
