# generated using pymatgen
data_HfZrTaTiMo
_symmetry_space_group_name_H-M   'P 1'
_cell_length_a   15.92028789
_cell_length_b   15.93012200
_cell_length_c   15.19205253
_cell_angle_alpha   89.98474514
_cell_angle_beta   89.94097627
_cell_angle_gamma   90.05145590
_symmetry_Int_Tables_number   1
_chemical_formula_structural   HfZrTaTiMo
_chemical_formula_sum   'Hf40 Zr40 Ta40 Ti40 Mo40'
_cell_volume   3852.88503983
_cell_formula_units_Z   40
loop_
 _symmetry_equiv_pos_site_id
 _symmetry_equiv_pos_as_xyz
  1  'x, y, z'
loop_
 _atom_site_type_symbol
 _atom_site_label
 _atom_site_symmetry_multiplicity
 _atom_site_fract_x
 _atom_site_fract_y
 _atom_site_fract_z
 _atom_site_occupancy
  Hf  Hf0  1  0.31855844  0.30924914  0.12788656  1
  Hf  Hf1  1  0.59324110  -0.01232249  0.00556538  1
  Hf  Hf2  1  0.69748679  0.49770516  0.63155875  1
  Hf  Hf3  1  0.00293589  0.59651932  0.76598420  1
  Hf  Hf4  1  0.90468936  0.69009238  0.64296986  1
  Hf  Hf5  1  0.30651779  0.31258305  0.61494733  1
  Hf  Hf6  1  0.89047136  0.29071760  0.85582366  1
  Hf  Hf7  1  0.50471055  0.09788693  0.87556481  1
  Hf  Hf8  1  -0.00127633  0.39943446  0.49892765  1
  Hf  Hf9  1  0.79185610  0.21109174  0.49678808  1
  Hf  Hf10  1  0.50107233  0.49747488  0.61454789  1
  Hf  Hf11  1  0.40188922  0.80911935  -0.02249578  1
  Hf  Hf12  1  0.20275606  0.80473058  0.51444779  1
  Hf  Hf13  1  0.60856074  0.20995358  0.27262555  1
  Hf  Hf14  1  0.29806246  0.50144832  0.39619048  1
  Hf  Hf15  1  0.41126199  0.20553437  0.74717384  1
  Hf  Hf16  1  0.80248300  0.20033619  0.01517826  1
  Hf  Hf17  1  0.69071508  0.10243335  0.13044775  1
  Hf  Hf18  1  -0.00109924  0.18964694  -0.01052149  1
  Hf  Hf19  1  0.50634822  0.09719435  0.60923399  1
  Hf  Hf20  1  0.30112494  0.89974225  0.36900769  1
  Hf  Hf21  1  0.20210074  0.79925723  0.23787046  1
  Hf  Hf22  1  0.89068641  0.70414479  0.87524616  1
  Hf  Hf23  1  0.38926345  -0.00212077  0.00316877  1
  Hf  Hf24  1  0.20719405  0.59747147  0.23530875  1
  Hf  Hf25  1  0.09510190  0.90298448  0.86097569  1
  Hf  Hf26  1  0.90581338  0.30402240  0.64249534  1
  Hf  Hf27  1  0.00598761  0.40011931  0.26165450  1
  Hf  Hf28  1  -0.01537319  -0.01010843  0.51019081  1
  Hf  Hf29  1  0.09971270  0.69862802  0.37723087  1
  Hf  Hf30  1  -0.00311816  0.60251209  0.23183042  1
  Hf  Hf31  1  0.31459897  0.70597523  0.12018843  1
  Hf  Hf32  1  0.19190206  0.00744806  0.00887337  1
  Hf  Hf33  1  0.78630588  0.40031415  0.24302251  1
  Hf  Hf34  1  0.39949661  0.79471695  0.75596809  1
  Hf  Hf35  1  0.48515506  0.88776825  0.14436769  1
  Hf  Hf36  1  0.30686252  0.30588689  0.85825675  1
  Hf  Hf37  1  0.40778161  0.80058256  0.49720542  1
  Hf  Hf38  1  0.60395207  0.59061283  0.25197477  1
  Hf  Hf39  1  0.69956589  0.49797572  0.87391215  1
  Zr  Zr40  1  0.10525084  0.49662422  0.10980891  1
  Zr  Zr41  1  0.20179986  0.19783123  -0.00620868  1
  Zr  Zr42  1  0.10054942  0.50945180  0.38791521  1
  Zr  Zr43  1  0.89552456  0.90373846  0.86357308  1
  Zr  Zr44  1  0.21481577  0.40392779  -0.00222444  1
  Zr  Zr45  1  0.30255772  0.11452013  0.13821256  1
  Zr  Zr46  1  0.09195648  0.89600241  0.36977654  1
  Zr  Zr47  1  0.70707798  0.09858069  0.87634072  1
  Zr  Zr48  1  0.80737405  0.80708338  0.51378484  1
  Zr  Zr49  1  -0.00288516  0.59778379  -0.00396645  1
  Zr  Zr50  1  0.30693888  0.10453765  0.60779628  1
  Zr  Zr51  1  0.09581572  0.10052332  0.38316558  1
  Zr  Zr52  1  0.20726322  0.81408161  -0.00117047  1
  Zr  Zr53  1  0.90840001  0.28998930  0.13737022  1
  Zr  Zr54  1  0.09691691  0.29954867  0.85386594  1
  Zr  Zr55  1  0.78718768  0.80133584  0.74106965  1
  Zr  Zr56  1  0.21301306  0.60505976  0.75446357  1
  Zr  Zr57  1  0.49399402  0.10830848  0.13594733  1
  Zr  Zr58  1  0.40897081  0.59467977  0.75544880  1
  Zr  Zr59  1  0.40603609  0.59240547  0.25911021  1
  Zr  Zr60  1  0.09256223  0.10843363  0.61888294  1
  Zr  Zr61  1  0.60687520  0.38251124  0.48762595  1
  Zr  Zr62  1  -0.00506429  0.00491320  0.01107100  1
  Zr  Zr63  1  0.70593934  0.29890760  0.86587841  1
  Zr  Zr64  1  0.00205081  0.80034154  0.51672451  1
  Zr  Zr65  1  0.79559320  0.59058968  0.01545386  1
  Zr  Zr66  1  0.49855580  0.09633143  0.38375466  1
  Zr  Zr67  1  0.88688027  0.48613953  0.86108875  1
  Zr  Zr68  1  -0.01355104  -0.00060514  0.24307814  1
  Zr  Zr69  1  0.19931875  0.00472919  0.24029902  1
  Zr  Zr70  1  0.80940932  0.59678095  0.51220430  1
  Zr  Zr71  1  0.78772645  -0.01040886  0.24932067  1
  Zr  Zr72  1  0.50513593  0.69607324  0.11643402  1
  Zr  Zr73  1  0.10417681  0.29631251  0.12808614  1
  Zr  Zr74  1  0.80303731  -0.00548625  0.01779750  1
  Zr  Zr75  1  0.09062102  0.49899553  0.62844290  1
  Zr  Zr76  1  0.21566346  0.40224185  0.25597584  1
  Zr  Zr77  1  0.70529384  0.70414625  0.38079099  1
  Zr  Zr78  1  0.29488294  0.09689525  0.86061916  1
  Zr  Zr79  1  0.80065107  0.60099418  0.23761901  1
  Ta  Ta80  1  0.09316427  0.09568966  0.84881270  1
  Ta  Ta81  1  0.90765475  0.69956490  0.37466106  1
  Ta  Ta82  1  0.10178682  0.70270441  0.10708608  1
  Ta  Ta83  1  0.60513168  0.39531625  0.00225173  1
  Ta  Ta84  1  0.40829964  0.20898359  -0.00948767  1
  Ta  Ta85  1  0.68754168  0.90455777  0.61034338  1
  Ta  Ta86  1  0.29693744  0.10417401  0.38876581  1
  Ta  Ta87  1  0.69752054  0.70009021  0.88619310  1
  Ta  Ta88  1  0.50284920  0.89870084  0.62643368  1
  Ta  Ta89  1  0.50572643  0.30362572  0.13466423  1
  Ta  Ta90  1  0.20070862  0.21122587  0.27362718  1
  Ta  Ta91  1  0.58276593  0.39643564  0.76005152  1
  Ta  Ta92  1  0.40833322  0.60458399  0.49445079  1
  Ta  Ta93  1  0.10137541  0.70210096  0.63938425  1
  Ta  Ta94  1  0.20227259  0.60723378  0.51776402  1
  Ta  Ta95  1  0.79967972  0.19565938  0.25949247  1
  Ta  Ta96  1  0.29889542  0.69940921  0.37917340  1
  Ta  Ta97  1  0.69267632  0.70351332  0.11280849  1
  Ta  Ta98  1  -0.01088970  0.79426805  0.23118472  1
  Ta  Ta99  1  0.59677359  -0.00894821  0.26062058  1
  Ta  Ta100  1  -0.00668414  0.39206257  -0.01339805  1
  Ta  Ta101  1  0.19975141  0.20337645  0.73188812  1
  Ta  Ta102  1  -0.00581155  0.20984642  0.49455994  1
  Ta  Ta103  1  0.39792833  0.59217651  -0.01316573  1
  Ta  Ta104  1  0.89833557  0.50680099  0.37638669  1
  Ta  Ta105  1  0.89174862  0.09741656  0.38252026  1
  Ta  Ta106  1  0.49760408  0.49285501  0.11245647  1
  Ta  Ta107  1  0.68894563  0.89789747  0.39396367  1
  Ta  Ta108  1  0.60261537  -0.00361406  0.74695787  1
  Ta  Ta109  1  0.60246563  0.60319824  0.75972161  1
  Ta  Ta110  1  0.50799251  0.69576986  0.88334946  1
  Ta  Ta111  1  0.59565329  0.79859738  0.75229404  1
  Ta  Ta112  1  0.89875368  0.09960080  0.84692689  1
  Ta  Ta113  1  0.10681521  0.49512550  0.87497083  1
  Ta  Ta114  1  0.10282522  0.70731522  0.87948663  1
  Ta  Ta115  1  0.19778797  -0.00638922  0.50943563  1
  Ta  Ta116  1  0.60270882  0.19585326  0.74139189  1
  Ta  Ta117  1  0.79248714  0.00188372  0.72590706  1
  Ta  Ta118  1  -0.00859359  0.80487640  0.00864924  1
  Ta  Ta119  1  0.70370873  0.50037621  0.38725424  1
  Ti  Ti120  1  0.30753636  0.49897722  0.61661372  1
  Ti  Ti121  1  0.69869120  0.09181354  0.39282921  1
  Ti  Ti122  1  0.51063536  0.70583734  0.37780334  1
  Ti  Ti123  1  0.20128891  0.40399602  0.73734257  1
  Ti  Ti124  1  0.50921560  0.69677299  0.62055213  1
  Ti  Ti125  1  0.79560955  0.80644886  0.01257968  1
  Ti  Ti126  1  0.68820060  0.69623871  0.61890640  1
  Ti  Ti127  1  0.59943228  0.40404375  0.25498597  1
  Ti  Ti128  1  0.80592491  0.40016813  0.50634850  1
  Ti  Ti129  1  0.30709633  0.49492585  0.86688513  1
  Ti  Ti130  1  0.40910332  0.39785042  0.48145960  1
  Ti  Ti131  1  0.89661497  0.30246849  0.37042525  1
  Ti  Ti132  1  0.41172366  0.40500217  0.26713288  1
  Ti  Ti133  1  0.40024467  -0.01032331  0.49508593  1
  Ti  Ti134  1  0.09494119  0.89788542  0.12555039  1
  Ti  Ti135  1  0.69788229  0.29729493  0.63590244  1
  Ti  Ti136  1  0.60751905  0.80153316  0.25070192  1
  Ti  Ti137  1  0.08584946  0.11787855  0.14573521  1
  Ti  Ti138  1  0.30609053  0.90203854  0.63008403  1
  Ti  Ti139  1  0.39553642  0.21566373  0.27442399  1
  Ti  Ti140  1  0.59685817  0.20823066  0.00176794  1
  Ti  Ti141  1  0.20321265  0.79938789  0.74858936  1
  Ti  Ti142  1  0.41054905  0.21569536  0.48650787  1
  Ti  Ti143  1  0.88933122  0.89235965  0.37062707  1
  Ti  Ti144  1  0.90010467  0.48385043  0.11744356  1
  Ti  Ti145  1  0.41456869  0.39700657  -0.01538265  1
  Ti  Ti146  1  0.29474062  0.90819400  0.85712369  1
  Ti  Ti147  1  0.50469572  0.30059858  0.62132703  1
  Ti  Ti148  1  0.39799867  0.00032283  0.25761018  1
  Ti  Ti149  1  0.21298604  0.60349599  -0.00938298  1
  Ti  Ti150  1  0.30928038  0.69807370  0.62116766  1
  Ti  Ti151  1  -0.00584023  -0.00670932  0.72707114  1
  Ti  Ti152  1  0.88988895  0.10574271  0.62131899  1
  Ti  Ti153  1  0.69261341  0.09723265  0.60552879  1
  Ti  Ti154  1  0.69787604  0.89968868  0.87117124  1
  Ti  Ti155  1  0.19267999  0.22061877  0.49549230  1
  Ti  Ti156  1  0.79959937  0.79837002  0.23507046  1
  Ti  Ti157  1  0.19897805  0.00067295  0.72822835  1
  Ti  Ti158  1  0.59988649  0.80572045  -0.00836053  1
  Ti  Ti159  1  0.40801390  -0.00280851  0.74781535  1
  Mo  Mo160  1  0.00699486  0.79801855  0.75332161  1
  Mo  Mo161  1  0.50474562  0.90025571  0.85699645  1
  Mo  Mo162  1  0.40415940  0.40284350  0.74953360  1
  Mo  Mo163  1  0.50240156  0.30479322  0.36379472  1
  Mo  Mo164  1  0.78801011  0.60306545  0.74532650  1
  Mo  Mo165  1  0.68733560  0.49522778  0.11575260  1
  Mo  Mo166  1  0.10369126  0.89978261  0.64054874  1
  Mo  Mo167  1  0.10345581  0.30247627  0.62788405  1
  Mo  Mo168  1  0.40418450  0.79332132  0.27074818  1
  Mo  Mo169  1  0.89452273  0.90051560  0.63796880  1
  Mo  Mo170  1  0.20202348  0.40334906  0.51238678  1
  Mo  Mo171  1  0.30242895  0.90497983  0.14130015  1
  Mo  Mo172  1  0.79026464  0.18967131  0.72685428  1
  Mo  Mo173  1  0.29929067  0.69991537  0.88131608  1
  Mo  Mo174  1  0.71068162  0.30603460  0.37287987  1
  Mo  Mo175  1  0.69261339  0.30049456  0.12685973  1
  Mo  Mo176  1  -0.00222474  0.19143773  0.74235986  1
  Mo  Mo177  1  0.60236193  0.20024448  0.50097731  1
  Mo  Mo178  1  0.79728183  0.00228843  0.50338406  1
  Mo  Mo179  1  0.50765041  0.29653910  0.87730157  1
  Mo  Mo180  1  0.59746248  0.59647129  -0.00641837  1
  Mo  Mo181  1  0.89599178  0.70331130  0.11341563  1
  Mo  Mo182  1  0.30297407  0.30319919  0.39049814  1
  Mo  Mo183  1  0.89506107  0.49574596  0.63811904  1
  Mo  Mo184  1  0.31794086  0.50135349  0.11119371  1
  Mo  Mo185  1  0.89783029  0.10357253  0.14824697  1
  Mo  Mo186  1  0.89158949  0.89413706  0.12980698  1
  Mo  Mo187  1  -0.00069426  0.60281452  0.50194023  1
  Mo  Mo188  1  0.50161871  0.89208041  0.36594978  1
  Mo  Mo189  1  0.79721190  0.39106222  0.02088810  1
  Mo  Mo190  1  0.10108903  0.30369884  0.38186943  1
  Mo  Mo191  1  0.68608840  0.88880629  0.12782576  1
  Mo  Mo192  1  -0.00178440  0.20178829  0.28006177  1
  Mo  Mo193  1  0.79069413  0.39926932  0.73243083  1
  Mo  Mo194  1  0.00103119  0.40134702  0.76011470  1
  Mo  Mo195  1  0.59392411  -0.00680309  0.49221030  1
  Mo  Mo196  1  0.50726931  0.50395893  0.38725876  1
  Mo  Mo197  1  0.59562858  0.79431961  0.51268060  1
  Mo  Mo198  1  0.59973196  0.59889933  0.49173780  1
  Mo  Mo199  1  0.50439599  0.49592681  0.88393313  1
