# generated using pymatgen
data_HfZrTaTiMo
_symmetry_space_group_name_H-M   'P 1'
_cell_length_a   15.93445849
_cell_length_b   15.93939382
_cell_length_c   15.20943874
_cell_angle_alpha   89.99914493
_cell_angle_beta   89.96320849
_cell_angle_gamma   90.04783646
_symmetry_Int_Tables_number   1
_chemical_formula_structural   HfZrTaTiMo
_chemical_formula_sum   'Hf40 Zr40 Ta40 Ti40 Mo40'
_cell_volume   3862.97641987
_cell_formula_units_Z   40
loop_
 _symmetry_equiv_pos_site_id
 _symmetry_equiv_pos_as_xyz
  1  'x, y, z'
loop_
 _atom_site_type_symbol
 _atom_site_label
 _atom_site_symmetry_multiplicity
 _atom_site_fract_x
 _atom_site_fract_y
 _atom_site_fract_z
 _atom_site_occupancy
  Hf  Hf0  1  0.40049691  0.20455451  0.50807912  1
  Hf  Hf1  1  0.48946503  0.89637412  0.12644788  1
  Hf  Hf2  1  0.48642374  0.88342106  0.88150084  1
  Hf  Hf3  1  0.09907418  0.30562645  0.36966390  1
  Hf  Hf4  1  0.40824692  0.60170455  -0.01197792  1
  Hf  Hf5  1  0.50112138  0.49502557  0.38596627  1
  Hf  Hf6  1  0.90254318  0.89946990  0.36462761  1
  Hf  Hf7  1  0.70864324  0.31098181  0.89390575  1
  Hf  Hf8  1  0.89775767  0.30805541  0.61069413  1
  Hf  Hf9  1  0.07722578  0.10811878  0.14085218  1
  Hf  Hf10  1  0.79629916  0.00016247  -0.00152651  1
  Hf  Hf11  1  0.10074403  0.89955808  0.86950290  1
  Hf  Hf12  1  0.00310479  0.00569587  0.75281987  1
  Hf  Hf13  1  0.61140599  0.42762733  0.01762998  1
  Hf  Hf14  1  0.48742818  0.89466681  0.36833602  1
  Hf  Hf15  1  0.79366678  0.00052052  0.48241192  1
  Hf  Hf16  1  0.49358743  0.69514153  0.38945206  1
  Hf  Hf17  1  0.48793887  0.90194312  0.62915941  1
  Hf  Hf18  1  0.72059905  0.50853210  0.61821102  1
  Hf  Hf19  1  0.09625683  0.90140634  0.12249358  1
  Hf  Hf20  1  0.80178850  0.40072395  0.24887899  1
  Hf  Hf21  1  0.30325060  0.30314621  0.36018264  1
  Hf  Hf22  1  0.91716603  0.29392616  0.13128323  1
  Hf  Hf23  1  0.30557369  0.50114421  0.37814389  1
  Hf  Hf24  1  0.09905628  0.50193719  0.61574262  1
  Hf  Hf25  1  -0.00432181  0.79211853  0.73921851  1
  Hf  Hf26  1  -0.00067702  0.80317133  0.50912582  1
  Hf  Hf27  1  0.22562702  0.39672998  0.51904253  1
  Hf  Hf28  1  0.20582451  0.19548848  0.50853768  1
  Hf  Hf29  1  0.09731165  0.10573502  0.36198739  1
  Hf  Hf30  1  0.19190919  0.00958584  -0.00110706  1
  Hf  Hf31  1  0.00254724  -0.00070638  0.50170544  1
  Hf  Hf32  1  0.89084914  0.10261237  0.62594761  1
  Hf  Hf33  1  0.79372606  0.78604160  0.23997203  1
  Hf  Hf34  1  0.58943024  0.00847249  0.49318287  1
  Hf  Hf35  1  0.40168056  0.60368850  0.25011818  1
  Hf  Hf36  1  0.21873284  0.60681137  0.73415749  1
  Hf  Hf37  1  0.10108669  0.30525557  0.87310489  1
  Hf  Hf38  1  0.69771225  0.10403079  0.62750436  1
  Hf  Hf39  1  0.20233118  0.20277969  0.00881559  1
  Zr  Zr40  1  0.19501068  -0.00825362  0.49903668  1
  Zr  Zr41  1  0.79418865  0.00341057  0.24171837  1
  Zr  Zr42  1  0.09141670  0.50554618  0.87237854  1
  Zr  Zr43  1  0.00057077  0.78786359  0.00099769  1
  Zr  Zr44  1  0.39124368  0.00034760  0.49939105  1
  Zr  Zr45  1  0.30318660  0.50581653  0.12617561  1
  Zr  Zr46  1  0.00750399  0.79056043  0.24488594  1
  Zr  Zr47  1  0.59739535  -0.00470072  0.24812125  1
  Zr  Zr48  1  0.88902120  0.90057026  0.86958240  1
  Zr  Zr49  1  0.19968549  -0.00910122  0.24592565  1
  Zr  Zr50  1  0.30245542  0.10169604  0.35609668  1
  Zr  Zr51  1  0.50410329  0.29602107  0.37674146  1
  Zr  Zr52  1  0.51573847  0.30319822  0.88409954  1
  Zr  Zr53  1  0.29010516  0.88697248  0.86893329  1
  Zr  Zr54  1  0.89805818  0.31040383  0.88842111  1
  Zr  Zr55  1  0.80240494  0.40074274  0.48084667  1
  Zr  Zr56  1  0.89368520  0.67487106  0.87957626  1
  Zr  Zr57  1  0.00482502  0.60462946  0.24705084  1
  Zr  Zr58  1  0.20784578  0.39804929  0.00077078  1
  Zr  Zr59  1  0.70172764  0.90317905  0.62626556  1
  Zr  Zr60  1  0.10607833  0.69769391  0.86348083  1
  Zr  Zr61  1  0.58602673  0.78320951  0.75055496  1
  Zr  Zr62  1  0.69619974  0.11644483  0.87982169  1
  Zr  Zr63  1  0.41469551  0.60795080  0.75059644  1
  Zr  Zr64  1  0.90318599  0.90675755  0.12355667  1
  Zr  Zr65  1  0.09802090  0.29581982  0.62098451  1
  Zr  Zr66  1  0.88766081  0.90214156  0.63297828  1
  Zr  Zr67  1  0.59398572  0.00020000  -0.00369072  1
  Zr  Zr68  1  0.68492441  0.11522592  0.37113587  1
  Zr  Zr69  1  0.40590998  0.40654353  0.75156700  1
  Zr  Zr70  1  0.30273832  0.09649289  0.64462485  1
  Zr  Zr71  1  -0.00295355  0.20361430  0.75439271  1
  Zr  Zr72  1  0.40433416  0.40493660  -0.00736149  1
  Zr  Zr73  1  0.60716863  -0.00879668  0.76889156  1
  Zr  Zr74  1  0.60057776  0.79600999  0.50621512  1
  Zr  Zr75  1  0.38735757  0.00503868  -0.00194653  1
  Zr  Zr76  1  0.91777640  0.49428841  0.37196388  1
  Zr  Zr77  1  0.77960409  0.78371588  0.75951686  1
  Zr  Zr78  1  0.51128733  0.50539103  0.61247971  1
  Zr  Zr79  1  0.11211607  0.50101108  0.38208438  1
  Ta  Ta80  1  0.50390066  0.30129693  0.11487037  1
  Ta  Ta81  1  0.60130618  0.60028651  0.24106312  1
  Ta  Ta82  1  0.79035510  0.78927222  0.00236886  1
  Ta  Ta83  1  0.79911351  0.60563518  0.47781437  1
  Ta  Ta84  1  0.20416673  0.79589282  0.00959711  1
  Ta  Ta85  1  0.59588962  0.79135848  0.00075886  1
  Ta  Ta86  1  0.19983463  0.19971486  0.75562968  1
  Ta  Ta87  1  0.59811784  0.40332173  0.24118042  1
  Ta  Ta88  1  0.39604508  0.20212928  0.00475527  1
  Ta  Ta89  1  0.49305747  0.10354382  0.13015060  1
  Ta  Ta90  1  0.50210601  0.30011113  0.62493272  1
  Ta  Ta91  1  0.80833013  0.19374762  0.02013497  1
  Ta  Ta92  1  0.79928375  0.20175667  0.24416844  1
  Ta  Ta93  1  0.79263739  0.20508365  0.48970534  1
  Ta  Ta94  1  0.50049931  0.10359508  0.64537468  1
  Ta  Ta95  1  0.49321221  0.11341623  0.86996205  1
  Ta  Ta96  1  0.39871048  -0.00302618  0.76282678  1
  Ta  Ta97  1  -0.00488024  0.40867670  0.74080343  1
  Ta  Ta98  1  0.09899717  0.50413660  0.12227010  1
  Ta  Ta99  1  0.60343109  0.21353185  0.74260659  1
  Ta  Ta100  1  0.29758560  0.88371007  0.36890728  1
  Ta  Ta101  1  0.49089202  0.10583274  0.35490285  1
  Ta  Ta102  1  0.90102661  0.10645259  0.36363051  1
  Ta  Ta103  1  0.10133097  0.69880965  0.61877473  1
  Ta  Ta104  1  0.79343888  0.21630590  0.74495356  1
  Ta  Ta105  1  0.19993981  0.60661217  -0.00059438  1
  Ta  Ta106  1  0.61778407  0.40141481  0.73962931  1
  Ta  Ta107  1  0.69316420  0.89120633  0.11811782  1
  Ta  Ta108  1  0.71569728  0.50225708  0.86739254  1
  Ta  Ta109  1  0.49876578  0.69828202  0.11919904  1
  Ta  Ta110  1  0.61023127  0.38898857  0.50772355  1
  Ta  Ta111  1  0.11144528  0.70000566  0.39452868  1
  Ta  Ta112  1  0.70358954  0.30165206  0.12037766  1
  Ta  Ta113  1  0.29575786  0.70160416  0.39090826  1
  Ta  Ta114  1  0.88369516  0.68594330  0.61970516  1
  Ta  Ta115  1  0.20674056  0.40108888  0.74320218  1
  Ta  Ta116  1  0.20016028  0.39823460  0.23359277  1
  Ta  Ta117  1  0.78761414  0.58428625  0.02122688  1
  Ta  Ta118  1  0.68580393  0.67866226  0.89280657  1
  Ta  Ta119  1  0.38549028  0.78391066  0.73711367  1
  Ti  Ti120  1  0.20058493  0.60831825  0.24568723  1
  Ti  Ti121  1  0.30059250  0.89660800  0.12851303  1
  Ti  Ti122  1  0.29947300  0.10180617  0.13754770  1
  Ti  Ti123  1  0.69230136  0.10381343  0.12060105  1
  Ti  Ti124  1  0.69169566  0.50246601  0.37220165  1
  Ti  Ti125  1  0.69299304  0.29981145  0.36570470  1
  Ti  Ti126  1  0.79738950  0.79510877  0.49434428  1
  Ti  Ti127  1  0.81131029  0.40883615  0.74275689  1
  Ti  Ti128  1  0.30257735  0.70166782  0.11759998  1
  Ti  Ti129  1  0.69451746  0.88982059  0.36702907  1
  Ti  Ti130  1  0.90367144  0.49594867  0.12537229  1
  Ti  Ti131  1  0.69272642  0.69655987  0.37405530  1
  Ti  Ti132  1  0.61764104  0.60881315  0.73220654  1
  Ti  Ti133  1  0.39039789  0.59903989  0.51691170  1
  Ti  Ti134  1  0.89811474  0.49455402  0.89112757  1
  Ti  Ti135  1  0.91020420  0.29716938  0.36933410  1
  Ti  Ti136  1  -0.00664464  0.01449944  -0.01250378  1
  Ti  Ti137  1  0.39953689  0.20862633  0.23275564  1
  Ti  Ti138  1  0.89042565  0.10788541  0.86680467  1
  Ti  Ti139  1  0.29402986  0.50659314  0.87174802  1
  Ti  Ti140  1  0.39157758  0.79280761  0.24586310  1
  Ti  Ti141  1  0.90054177  0.68676259  0.11457945  1
  Ti  Ti142  1  0.00715302  0.40136121  0.01183105  1
  Ti  Ti143  1  0.59663458  0.78912735  0.24358162  1
  Ti  Ti144  1  -0.00401915  0.60235256  0.50184212  1
  Ti  Ti145  1  0.20069737  0.80408965  0.51501010  1
  Ti  Ti146  1  0.29699617  0.10359331  0.86683115  1
  Ti  Ti147  1  -0.01544282  0.59198713  0.73419382  1
  Ti  Ti148  1  0.10460274  0.09356829  0.63146816  1
  Ti  Ti149  1  0.90423627  0.70203158  0.37757683  1
  Ti  Ti150  1  -0.00326335  0.19705898  0.49542770  1
  Ti  Ti151  1  0.40689595  0.40013550  0.23322908  1
  Ti  Ti152  1  0.20090421  0.78671128  0.24326474  1
  Ti  Ti153  1  0.10333240  0.88992708  0.36777672  1
  Ti  Ti154  1  0.53266887  0.51798771  0.86687272  1
  Ti  Ti155  1  0.59779635  0.20731018  0.23217095  1
  Ti  Ti156  1  0.79803081  0.60075393  0.25064525  1
  Ti  Ti157  1  0.30808595  0.29339170  0.86270031  1
  Ti  Ti158  1  0.28760353  0.90006055  0.64106625  1
  Ti  Ti159  1  0.00229418  0.19294436  -0.00878069  1
  Mo  Mo160  1  0.40409172  0.20290815  0.75898361  1
  Mo  Mo161  1  0.70761274  0.50208922  0.15191329  1
  Mo  Mo162  1  -0.00380587  0.20553599  0.26239014  1
  Mo  Mo163  1  0.30029806  0.70398436  0.60635730  1
  Mo  Mo164  1  0.49837282  0.70060668  0.60623884  1
  Mo  Mo165  1  0.00553945  0.39706410  0.50709016  1
  Mo  Mo166  1  0.50044879  0.50173886  0.13670548  1
  Mo  Mo167  1  0.20087391  0.20954535  0.23279427  1
  Mo  Mo168  1  0.10169194  0.30231192  0.12869294  1
  Mo  Mo169  1  0.20411102  0.60291800  0.50914624  1
  Mo  Mo170  1  0.61123223  0.59642836  0.49171069  1
  Mo  Mo171  1  0.11045918  0.69459162  0.11832557  1
  Mo  Mo172  1  0.39518132  -0.00233168  0.24610095  1
  Mo  Mo173  1  0.69884927  0.69794675  0.12413950  1
  Mo  Mo174  1  0.40672076  0.39858075  0.51386075  1
  Mo  Mo175  1  0.39217496  0.79454932  0.01305585  1
  Mo  Mo176  1  -0.00149118  -0.00164390  0.26604647  1
  Mo  Mo177  1  0.09886958  0.10521485  0.87825210  1
  Mo  Mo178  1  0.10363913  0.90007572  0.63800459  1
  Mo  Mo179  1  0.30172459  0.70194676  0.88338156  1
  Mo  Mo180  1  0.70467141  0.30375299  0.62227421  1
  Mo  Mo181  1  0.30607680  0.29798628  0.13219515  1
  Mo  Mo182  1  0.69548305  0.88655415  0.89541762  1
  Mo  Mo183  1  0.19660477  0.79812433  0.73154774  1
  Mo  Mo184  1  0.80695309  0.40272520  0.02093212  1
  Mo  Mo185  1  0.70285169  0.69386320  0.60847197  1
  Mo  Mo186  1  0.50152987  0.69767404  0.88662462  1
  Mo  Mo187  1  0.30913558  0.29747029  0.64855509  1
  Mo  Mo188  1  0.19787279  0.00498908  0.75957690  1
  Mo  Mo189  1  0.90633578  0.50378277  0.60854916  1
  Mo  Mo190  1  0.00915645  0.40146269  0.23539037  1
  Mo  Mo191  1  0.59719062  0.20175488  0.51539548  1
  Mo  Mo192  1  0.39029520  0.80244626  0.51123020  1
  Mo  Mo193  1  -0.00280893  0.58989497  0.01338643  1
  Mo  Mo194  1  0.80279868  0.59276095  0.75521586  1
  Mo  Mo195  1  0.89667789  0.10155986  0.13422663  1
  Mo  Mo196  1  0.60277644  0.59983956  0.01756391  1
  Mo  Mo197  1  0.30772264  0.49923747  0.62575891  1
  Mo  Mo198  1  0.59919914  0.20069188  0.01830810  1
  Mo  Mo199  1  0.79824884  0.01192691  0.76951204  1
