# generated using pymatgen
data_HfZrTaTiMo
_symmetry_space_group_name_H-M   'P 1'
_cell_length_a   15.92792524
_cell_length_b   15.93642546
_cell_length_c   15.20955575
_cell_angle_alpha   89.99872184
_cell_angle_beta   90.02462472
_cell_angle_gamma   89.87666864
_symmetry_Int_Tables_number   1
_chemical_formula_structural   HfZrTaTiMo
_chemical_formula_sum   'Hf40 Zr40 Ta40 Ti40 Mo40'
_cell_volume   3860.69601362
_cell_formula_units_Z   40
loop_
 _symmetry_equiv_pos_site_id
 _symmetry_equiv_pos_as_xyz
  1  'x, y, z'
loop_
 _atom_site_type_symbol
 _atom_site_label
 _atom_site_symmetry_multiplicity
 _atom_site_fract_x
 _atom_site_fract_y
 _atom_site_fract_z
 _atom_site_occupancy
  Hf  Hf0  1  0.29985071  0.91211034  0.12297566  1
  Hf  Hf1  1  0.60680472  0.79529573  0.76320449  1
  Hf  Hf2  1  0.50836215  0.71267587  0.37336602  1
  Hf  Hf3  1  0.59573746  0.39391697  0.74055991  1
  Hf  Hf4  1  0.29264427  0.29981317  0.11941368  1
  Hf  Hf5  1  0.60427813  0.20977677  0.01671903  1
  Hf  Hf6  1  0.29902255  0.49862235  0.37781811  1
  Hf  Hf7  1  0.80218217  0.19471585  0.48140459  1
  Hf  Hf8  1  0.00557770  0.38278538  0.73810451  1
  Hf  Hf9  1  0.89759238  0.50137528  0.61663204  1
  Hf  Hf10  1  0.01759635  -0.01375062  0.26977836  1
  Hf  Hf11  1  0.70728102  0.30433062  0.86965806  1
  Hf  Hf12  1  0.91297555  0.28995650  0.60072593  1
  Hf  Hf13  1  -0.00669360  0.80195354  0.73968134  1
  Hf  Hf14  1  0.40562685  0.59810370  0.23061921  1
  Hf  Hf15  1  0.10125089  0.49290020  0.62386975  1
  Hf  Hf16  1  0.48847995  0.31093101  0.12668763  1
  Hf  Hf17  1  0.70948886  0.10118746  0.13699855  1
  Hf  Hf18  1  0.49534686  0.09976945  0.61806539  1
  Hf  Hf19  1  0.10262356  0.68728525  0.63675120  1
  Hf  Hf20  1  0.20788806  0.79592583  -0.00553902  1
  Hf  Hf21  1  0.49650765  0.50450430  0.63002659  1
  Hf  Hf22  1  0.48838221  0.70644329  0.64495018  1
  Hf  Hf23  1  0.81385461  0.00714195  0.74723168  1
  Hf  Hf24  1  0.08104985  0.29024274  0.88732245  1
  Hf  Hf25  1  0.00172752  0.60030086  0.24987899  1
  Hf  Hf26  1  0.19544197  0.59323553  0.22871971  1
  Hf  Hf27  1  0.69183065  0.87887459  0.37131727  1
  Hf  Hf28  1  0.69742536  0.49315610  0.12366628  1
  Hf  Hf29  1  0.31315166  0.89741338  0.64325952  1
  Hf  Hf30  1  0.10113546  0.69023202  0.87896829  1
  Hf  Hf31  1  0.90801340  0.10543038  0.14937764  1
  Hf  Hf32  1  0.40250603  0.00155952  0.26075882  1
  Hf  Hf33  1  0.30223118  0.11064401  0.87353099  1
  Hf  Hf34  1  0.69073719  0.31073368  0.37370884  1
  Hf  Hf35  1  0.50288838  0.50026931  0.38945178  1
  Hf  Hf36  1  0.69868146  0.09901843  0.61500347  1
  Hf  Hf37  1  0.21020278  0.79162006  0.50781126  1
  Hf  Hf38  1  0.89732661  0.88238457  0.37483973  1
  Hf  Hf39  1  0.59113763  -0.01061635  0.48676076  1
  Zr  Zr40  1  0.01855811  0.56984160  0.00796614  1
  Zr  Zr41  1  0.79582215  0.60469521  0.75148211  1
  Zr  Zr42  1  0.18629975  0.21079349  0.74159368  1
  Zr  Zr43  1  0.08678610  0.11154989  0.60048304  1
  Zr  Zr44  1  0.19392313  0.00851764  0.75466736  1
  Zr  Zr45  1  0.09266464  0.89298821  0.87553297  1
  Zr  Zr46  1  0.70620572  0.11092040  0.88479094  1
  Zr  Zr47  1  0.00030031  0.79541117  0.50416470  1
  Zr  Zr48  1  0.40561585  0.21594105  0.74794888  1
  Zr  Zr49  1  0.20065428  -0.00498544  0.48197073  1
  Zr  Zr50  1  0.79679728  0.80194134  -0.01123139  1
  Zr  Zr51  1  0.79771098  0.76527909  0.51084703  1
  Zr  Zr52  1  0.89886817  0.47843436  0.87730490  1
  Zr  Zr53  1  0.59063447  0.40798654  -0.00185747  1
  Zr  Zr54  1  0.39447422  0.61202982  0.50628745  1
  Zr  Zr55  1  0.70015907  0.90323145  0.62648672  1
  Zr  Zr56  1  0.90023768  0.90509361  0.12625810  1
  Zr  Zr57  1  0.49548195  0.11027323  0.38340261  1
  Zr  Zr58  1  0.19375383  0.80055640  0.23417723  1
  Zr  Zr59  1  0.70724022  0.90677709  0.12623097  1
  Zr  Zr60  1  0.49636242  0.10297477  0.12630877  1
  Zr  Zr61  1  0.91218871  0.69813975  0.88792807  1
  Zr  Zr62  1  0.40514956  0.81348720  0.49770312  1
  Zr  Zr63  1  0.30209403  0.10860950  0.12316993  1
  Zr  Zr64  1  0.80987384  0.23166906  0.03194538  1
  Zr  Zr65  1  0.59667734  0.60418407  0.24458851  1
  Zr  Zr66  1  0.10097227  0.90681049  0.62552825  1
  Zr  Zr67  1  0.80562724  0.79919410  0.74959453  1
  Zr  Zr68  1  0.89930957  0.69502785  0.11758433  1
  Zr  Zr69  1  0.69948627  0.69076357  0.11122357  1
  Zr  Zr70  1  0.11234847  0.09692366  0.14406803  1
  Zr  Zr71  1  0.20045648  0.00464353  -0.01603481  1
  Zr  Zr72  1  0.70468634  0.91452056  0.87984811  1
  Zr  Zr73  1  -0.01138045  0.60324379  0.48990348  1
  Zr  Zr74  1  0.88376730  0.49116475  0.13217708  1
  Zr  Zr75  1  0.30417544  0.10185413  0.61808168  1
  Zr  Zr76  1  0.00392849  0.40439234  0.25778717  1
  Zr  Zr77  1  0.80473681  0.20499631  0.73089728  1
  Zr  Zr78  1  0.30031374  0.69853895  0.35865077  1
  Zr  Zr79  1  0.90532007  0.11668449  0.89476107  1
  Ta  Ta80  1  0.60985036  0.61607244  0.50799157  1
  Ta  Ta81  1  0.59085859  0.80186307  0.22490028  1
  Ta  Ta82  1  0.49982068  0.69864257  0.87977366  1
  Ta  Ta83  1  0.80331667  0.40152078  0.48986067  1
  Ta  Ta84  1  0.79994729  -0.00336843  0.48365523  1
  Ta  Ta85  1  0.18523087  0.40506401  -0.00565641  1
  Ta  Ta86  1  0.40827333  0.79955130  0.22565609  1
  Ta  Ta87  1  0.29916135  0.89570645  0.35795751  1
  Ta  Ta88  1  0.29705509  0.50459481  0.63699778  1
  Ta  Ta89  1  0.39681697  0.39850763  0.51370012  1
  Ta  Ta90  1  0.59773482  -0.00295636  0.25493536  1
  Ta  Ta91  1  0.00384206  0.01142907  0.00018255  1
  Ta  Ta92  1  0.39515611  0.21011833  0.26346917  1
  Ta  Ta93  1  0.39228084  0.40734970  -0.01948788  1
  Ta  Ta94  1  0.10031933  0.29133896  0.14226529  1
  Ta  Ta95  1  0.20032969  0.39891318  0.75775551  1
  Ta  Ta96  1  0.69748146  0.49460691  0.87542337  1
  Ta  Ta97  1  0.49573814  0.30993628  0.38528226  1
  Ta  Ta98  1  0.00232459  0.39710259  0.48290113  1
  Ta  Ta99  1  0.20108770  0.59938513  0.50509206  1
  Ta  Ta100  1  0.10814157  0.29818423  0.37397351  1
  Ta  Ta101  1  0.40823536  0.59112211  -0.00634842  1
  Ta  Ta102  1  0.69977431  0.50165613  0.61247369  1
  Ta  Ta103  1  0.69648182  0.50628611  0.38409882  1
  Ta  Ta104  1  0.50028004  0.90557965  0.64616066  1
  Ta  Ta105  1  0.30172014  0.30295968  0.38303795  1
  Ta  Ta106  1  0.41258737  -0.00484027  -0.01448808  1
  Ta  Ta107  1  0.59963833  0.59698027  0.76046834  1
  Ta  Ta108  1  0.30968371  0.89638380  0.86736897  1
  Ta  Ta109  1  0.00483549  0.79285260  0.24753979  1
  Ta  Ta110  1  0.40559916  0.80263694  -0.00359704  1
  Ta  Ta111  1  0.59461733  0.21024259  0.50316354  1
  Ta  Ta112  1  0.10256373  0.69868622  0.37462557  1
  Ta  Ta113  1  -0.01088270  0.37681973  0.02479893  1
  Ta  Ta114  1  0.59725384  0.00028877  0.00362000  1
  Ta  Ta115  1  0.59771162  0.79689209  0.51744759  1
  Ta  Ta116  1  0.21374687  0.78477850  0.75632268  1
  Ta  Ta117  1  -0.00379983  0.00946537  0.75621337  1
  Ta  Ta118  1  0.59608316  0.20825551  0.25045564  1
  Ta  Ta119  1  0.58955045  0.80545257  -0.00095409  1
  Ti  Ti120  1  0.58997933  0.40633111  0.24560624  1
  Ti  Ti121  1  0.10744365  0.11077384  0.36710044  1
  Ti  Ti122  1  0.39614790  -0.00378130  0.48639139  1
  Ti  Ti123  1  0.90569661  0.09300431  0.59986779  1
  Ti  Ti124  1  0.20122871  0.40062817  0.50488182  1
  Ti  Ti125  1  -0.00091336  0.58784893  0.75685868  1
  Ti  Ti126  1  0.90216401  0.29155979  0.36184300  1
  Ti  Ti127  1  0.50224796  0.30137778  0.87646998  1
  Ti  Ti128  1  0.29725245  0.30465165  0.62047542  1
  Ti  Ti129  1  0.20460658  0.39888030  0.24945105  1
  Ti  Ti130  1  0.79948054  0.39702391  0.73262150  1
  Ti  Ti131  1  0.29126779  0.30299655  0.88180786  1
  Ti  Ti132  1  0.59938956  0.00986753  0.75876581  1
  Ti  Ti133  1  0.41149892  0.00444647  0.76689816  1
  Ti  Ti134  1  0.90129362  0.90864839  0.61049134  1
  Ti  Ti135  1  0.59821830  0.20451833  0.73557842  1
  Ti  Ti136  1  0.30407365  0.48937250  0.11544051  1
  Ti  Ti137  1  0.50942967  0.10985282  0.87839364  1
  Ti  Ti138  1  -0.00074461  0.00010507  0.47487637  1
  Ti  Ti139  1  0.30499978  0.69447238  0.10885083  1
  Ti  Ti140  1  0.79433500  0.58998932  -0.01574730  1
  Ti  Ti141  1  0.18581768  0.19945037  -0.00331956  1
  Ti  Ti142  1  0.89488879  0.29871648  0.87427330  1
  Ti  Ti143  1  0.88819762  0.50345623  0.37017579  1
  Ti  Ti144  1  0.10879237  0.50184601  0.38014877  1
  Ti  Ti145  1  0.38870682  0.60506339  0.77185575  1
  Ti  Ti146  1  0.20470979  0.59057616  0.76583349  1
  Ti  Ti147  1  0.39863379  0.40442054  0.25377872  1
  Ti  Ti148  1  0.69470298  0.10420876  0.36922333  1
  Ti  Ti149  1  0.40291212  0.20671173  -0.00886170  1
  Ti  Ti150  1  0.69847156  0.30725287  0.60731111  1
  Ti  Ti151  1  0.21071619  0.58523485  -0.00770397  1
  Ti  Ti152  1  0.09700105  0.70033155  0.10667168  1
  Ti  Ti153  1  0.20510464  0.20388574  0.49296173  1
  Ti  Ti154  1  0.79645013  0.78098255  0.25086427  1
  Ti  Ti155  1  0.80105304  0.00218774  0.27483234  1
  Ti  Ti156  1  0.39455823  0.40383337  0.75687729  1
  Ti  Ti157  1  -0.00273161  0.19142120  0.74174194  1
  Ti  Ti158  1  0.90537018  0.90956219  0.89157801  1
  Ti  Ti159  1  0.09740562  0.90076915  0.11348471  1
  Mo  Mo160  1  0.29697849  0.10478656  0.37647755  1
  Mo  Mo161  1  0.09241887  0.10486430  0.87692431  1
  Mo  Mo162  1  0.90196080  0.68860367  0.64217790  1
  Mo  Mo163  1  0.89606765  0.30175411  0.16385614  1
  Mo  Mo164  1  0.10466957  0.88516959  0.38001703  1
  Mo  Mo165  1  0.80544403  0.01101528  0.00134684  1
  Mo  Mo166  1  0.79213114  0.40377812  0.27347033  1
  Mo  Mo167  1  0.50439203  0.90665810  0.86655640  1
  Mo  Mo168  1  0.49737605  0.69955388  0.09929029  1
  Mo  Mo169  1  0.00427019  0.20306687  0.03125789  1
  Mo  Mo170  1  0.69680467  0.69834899  0.36436306  1
  Mo  Mo171  1  0.59580811  0.59911539  -0.01700729  1
  Mo  Mo172  1  0.79542475  0.60057826  0.26752083  1
  Mo  Mo173  1  0.20522167  -0.00096339  0.26546520  1
  Mo  Mo174  1  0.79535122  0.20314272  0.26288866  1
  Mo  Mo175  1  0.09918594  0.48597929  0.86660577  1
  Mo  Mo176  1  0.49964927  0.90568031  0.12552685  1
  Mo  Mo177  1  0.79560700  0.59588954  0.49190206  1
  Mo  Mo178  1  0.49936940  0.89580229  0.35886851  1
  Mo  Mo179  1  0.00268443  0.19707944  0.47083845  1
  Mo  Mo180  1  0.89781509  0.69472108  0.35554084  1
  Mo  Mo181  1  0.49552373  0.49747669  0.85476171  1
  Mo  Mo182  1  0.11139526  0.48580929  0.12716502  1
  Mo  Mo183  1  0.29761108  0.69139633  0.64323828  1
  Mo  Mo184  1  0.39472311  0.20915091  0.49802354  1
  Mo  Mo185  1  0.90156053  0.09371445  0.37022075  1
  Mo  Mo186  1  0.69377838  0.69186247  0.88933696  1
  Mo  Mo187  1  0.48995372  0.49880932  0.12177158  1
  Mo  Mo188  1  0.00576513  0.80660438  0.01328022  1
  Mo  Mo189  1  0.69302684  0.69207067  0.63606199  1
  Mo  Mo190  1  0.00473640  0.19932626  0.26045976  1
  Mo  Mo191  1  0.79806903  0.40057343  0.00062703  1
  Mo  Mo192  1  0.40331445  0.79816614  0.77186458  1
  Mo  Mo193  1  0.29649281  0.49509721  0.87076912  1
  Mo  Mo194  1  0.10480686  0.30253504  0.59714090  1
  Mo  Mo195  1  0.69709975  0.30961052  0.15538687  1
  Mo  Mo196  1  0.49619499  0.30240024  0.61364540  1
  Mo  Mo197  1  0.59898386  0.40588705  0.51313697  1
  Mo  Mo198  1  0.30210091  0.69392023  0.88702050  1
  Mo  Mo199  1  0.20949802  0.20505718  0.26621474  1
