# generated using pymatgen
data_HfZrTaTiMo
_symmetry_space_group_name_H-M   'P 1'
_cell_length_a   15.94060592
_cell_length_b   15.93347851
_cell_length_c   15.23877305
_cell_angle_alpha   89.98253222
_cell_angle_beta   89.94694687
_cell_angle_gamma   89.96143567
_symmetry_Int_Tables_number   1
_chemical_formula_structural   HfZrTaTiMo
_chemical_formula_sum   'Hf40 Zr40 Ta40 Ti40 Mo40'
_cell_volume   3870.48261400
_cell_formula_units_Z   40
loop_
 _symmetry_equiv_pos_site_id
 _symmetry_equiv_pos_as_xyz
  1  'x, y, z'
loop_
 _atom_site_type_symbol
 _atom_site_label
 _atom_site_symmetry_multiplicity
 _atom_site_fract_x
 _atom_site_fract_y
 _atom_site_fract_z
 _atom_site_occupancy
  Hf  Hf0  1  0.60123017  0.58981093  0.00720555  1
  Hf  Hf1  1  0.40351065  0.40088344  0.50655338  1
  Hf  Hf2  1  0.00306846  0.00529838  0.51571568  1
  Hf  Hf3  1  0.89765880  0.89878988  0.87292790  1
  Hf  Hf4  1  0.90728730  0.51113426  0.86108994  1
  Hf  Hf5  1  0.30315599  0.10301927  0.37786126  1
  Hf  Hf6  1  0.90759530  0.50611244  0.35973062  1
  Hf  Hf7  1  0.69742198  0.90131911  0.89131384  1
  Hf  Hf8  1  0.09996703  0.68861725  0.37792915  1
  Hf  Hf9  1  0.49529400  0.70976386  0.60987219  1
  Hf  Hf10  1  0.79507364  -0.00196093  0.74607609  1
  Hf  Hf11  1  0.89531624  0.88625948  0.63096190  1
  Hf  Hf12  1  0.39700310  -0.00018220  0.73937113  1
  Hf  Hf13  1  0.59919844  0.20700252  0.49137849  1
  Hf  Hf14  1  0.90315063  0.90279730  0.37056986  1
  Hf  Hf15  1  0.30417194  0.89312416  0.38083617  1
  Hf  Hf16  1  0.20033745  -0.00339718  0.23649327  1
  Hf  Hf17  1  0.30287512  0.10275822  0.89480030  1
  Hf  Hf18  1  0.70394344  0.70219555  0.13372112  1
  Hf  Hf19  1  0.11851867  0.31881649  0.87071032  1
  Hf  Hf20  1  0.80893357  0.20554556  0.76119979  1
  Hf  Hf21  1  0.59433006  -0.00249624  0.74521602  1
  Hf  Hf22  1  0.39750880  0.80162973  0.74407639  1
  Hf  Hf23  1  0.10237796  0.89064911  0.63099365  1
  Hf  Hf24  1  0.59735268  0.80690811  0.75163177  1
  Hf  Hf25  1  0.19759105  0.38863091  0.24567165  1
  Hf  Hf26  1  0.80938521  0.41806070  0.51174316  1
  Hf  Hf27  1  0.10425359  0.89842262  0.37649368  1
  Hf  Hf28  1  0.18200029  0.79621949  0.00035409  1
  Hf  Hf29  1  0.60007840  0.81619328  0.25647672  1
  Hf  Hf30  1  0.42032646  0.39451322  0.01787192  1
  Hf  Hf31  1  0.40069856  0.20141722  0.73756965  1
  Hf  Hf32  1  0.00001192  0.20703735  -0.01910268  1
  Hf  Hf33  1  0.09798848  0.69221949  0.63231778  1
  Hf  Hf34  1  0.09378582  0.89171473  0.85864514  1
  Hf  Hf35  1  0.29223695  0.50104610  0.37424897  1
  Hf  Hf36  1  0.29979061  0.90011268  0.88904081  1
  Hf  Hf37  1  0.69781838  0.10324804  0.62259906  1
  Hf  Hf38  1  0.80504737  0.20435224  0.25506979  1
  Hf  Hf39  1  0.79979314  -0.00244796  0.50007009  1
  Zr  Zr40  1  0.59256546  0.21263206  0.01260077  1
  Zr  Zr41  1  0.49100252  0.70008573  0.88221492  1
  Zr  Zr42  1  0.49558713  0.30362594  0.86549174  1
  Zr  Zr43  1  0.49615857  0.50060424  0.86225841  1
  Zr  Zr44  1  0.59106533  0.79804815  0.01156585  1
  Zr  Zr45  1  0.90198347  0.68978190  0.13453227  1
  Zr  Zr46  1  0.80124130  0.40235005  -0.00989657  1
  Zr  Zr47  1  0.29178708  0.47921742  0.88143810  1
  Zr  Zr48  1  0.19847782  0.00272678  0.51113851  1
  Zr  Zr49  1  0.08545580  0.50064537  0.13848196  1
  Zr  Zr50  1  0.00825496  -0.01494757  0.00547348  1
  Zr  Zr51  1  0.89873090  0.49902244  0.13132393  1
  Zr  Zr52  1  0.70657921  0.30846647  0.64165832  1
  Zr  Zr53  1  0.70186201  0.10109587  0.88899572  1
  Zr  Zr54  1  0.70937567  0.30450806  0.12175553  1
  Zr  Zr55  1  0.10918663  0.29325315  0.39648075  1
  Zr  Zr56  1  0.90292627  0.70396212  0.86448555  1
  Zr  Zr57  1  0.60966085  0.40056173  0.49592127  1
  Zr  Zr58  1  0.49871293  0.50283884  0.37068602  1
  Zr  Zr59  1  0.61063390  0.19809626  0.25275247  1
  Zr  Zr60  1  -0.01332286  0.58594574  0.51396833  1
  Zr  Zr61  1  0.01290225  0.20114418  0.23681892  1
  Zr  Zr62  1  0.60185499  0.60840954  0.73943747  1
  Zr  Zr63  1  0.20717227  0.19574380  0.24425208  1
  Zr  Zr64  1  0.92059712  0.31096381  0.38306429  1
  Zr  Zr65  1  0.49086411  0.70800765  0.38192073  1
  Zr  Zr66  1  0.89104394  0.89554508  0.12915572  1
  Zr  Zr67  1  0.49854032  0.09954711  0.88322769  1
  Zr  Zr68  1  0.28833298  0.50246949  0.11167390  1
  Zr  Zr69  1  0.21086594  0.20362343  0.75331138  1
  Zr  Zr70  1  0.39885931  0.39582985  0.23833939  1
  Zr  Zr71  1  -0.01071088  0.78850068  0.49770046  1
  Zr  Zr72  1  0.39393861  0.80072920  0.23755005  1
  Zr  Zr73  1  0.78083085  0.00385027  0.25481622  1
  Zr  Zr74  1  0.80547698  0.21147724  0.49892483  1
  Zr  Zr75  1  0.37074328  0.61057581  0.50824868  1
  Zr  Zr76  1  0.29630820  0.68770046  0.88612320  1
  Zr  Zr77  1  0.61397904  0.60205706  0.50012735  1
  Zr  Zr78  1  0.91568843  0.10169489  0.37366656  1
  Zr  Zr79  1  0.89418233  0.10143993  0.11223160  1
  Ta  Ta80  1  0.79339668  0.79897430  0.26660290  1
  Ta  Ta81  1  0.09720582  0.69292792  0.13318022  1
  Ta  Ta82  1  0.29396598  0.89631358  0.11192987  1
  Ta  Ta83  1  0.40743406  -0.00418634  0.01957350  1
  Ta  Ta84  1  0.59945016  0.00398432  0.48994701  1
  Ta  Ta85  1  0.00920067  0.19590684  0.52764961  1
  Ta  Ta86  1  0.78831790  0.79609028  0.74818988  1
  Ta  Ta87  1  0.80019282  0.39431269  0.25766656  1
  Ta  Ta88  1  0.20642688  -0.00134812  0.74335764  1
  Ta  Ta89  1  0.10607122  0.30064700  0.62765512  1
  Ta  Ta90  1  0.10632900  0.09144232  0.87434470  1
  Ta  Ta91  1  0.09491374  0.48942664  0.37579664  1
  Ta  Ta92  1  0.79734681  0.59897913  -0.00307432  1
  Ta  Ta93  1  0.49384635  0.09788131  0.36663895  1
  Ta  Ta94  1  0.68877967  0.91998222  0.11556509  1
  Ta  Ta95  1  0.30423824  0.29674538  0.38894915  1
  Ta  Ta96  1  0.70398405  0.69698027  0.87871438  1
  Ta  Ta97  1  0.50092961  0.90103140  0.60194596  1
  Ta  Ta98  1  0.29589879  0.28981346  0.09850050  1
  Ta  Ta99  1  0.10311646  0.30230162  0.10200021  1
  Ta  Ta100  1  0.70358763  0.50177053  0.86008662  1
  Ta  Ta101  1  0.49261482  0.90162258  0.89163757  1
  Ta  Ta102  1  0.40549773  0.20062547  0.50455410  1
  Ta  Ta103  1  0.20350035  0.60435937  0.25357983  1
  Ta  Ta104  1  0.49523594  0.90633401  0.38589158  1
  Ta  Ta105  1  0.49440527  0.29427899  0.36542801  1
  Ta  Ta106  1  0.20537537  0.79296796  0.75094660  1
  Ta  Ta107  1  0.38586123  0.39706320  0.73251023  1
  Ta  Ta108  1  0.70299541  0.50448924  0.14329231  1
  Ta  Ta109  1  0.00469253  0.20057785  0.75209344  1
  Ta  Ta110  1  0.79131121  0.78836417  0.48336486  1
  Ta  Ta111  1  0.00039720  0.40121555  0.73826869  1
  Ta  Ta112  1  0.49694364  0.50162702  0.62670816  1
  Ta  Ta113  1  0.00241240  0.79729994  0.25246667  1
  Ta  Ta114  1  0.39513316  0.60270636  0.23855013  1
  Ta  Ta115  1  0.21616752  0.77503073  0.50539534  1
  Ta  Ta116  1  0.51504569  0.08761744  0.13511147  1
  Ta  Ta117  1  0.11292564  0.10229337  0.09756784  1
  Ta  Ta118  1  0.70618628  0.50553472  0.35991072  1
  Ta  Ta119  1  0.20011619  0.40950838  0.51057951  1
  Ti  Ti120  1  0.29445872  0.29850663  0.60791571  1
  Ti  Ti121  1  0.50288067  0.10110823  0.61630625  1
  Ti  Ti122  1  0.39015824  0.59785164  0.73916041  1
  Ti  Ti123  1  0.30232489  0.89065368  0.61565883  1
  Ti  Ti124  1  0.08691382  0.68836554  0.85703841  1
  Ti  Ti125  1  0.79816654  0.60065572  0.73404747  1
  Ti  Ti126  1  0.16769443  0.58966761  -0.01175823  1
  Ti  Ti127  1  0.10400851  0.10033473  0.37937076  1
  Ti  Ti128  1  0.40248675  -0.00423098  0.23787108  1
  Ti  Ti129  1  0.40160198  0.19942198  0.23397976  1
  Ti  Ti130  1  0.69616219  0.31003596  0.86992926  1
  Ti  Ti131  1  0.60140448  0.39689741  0.25141665  1
  Ti  Ti132  1  0.59529691  0.60499406  0.25022773  1
  Ti  Ti133  1  0.69839377  0.10197156  0.38313130  1
  Ti  Ti134  1  0.89958010  0.10594784  0.63280963  1
  Ti  Ti135  1  0.59975399  0.19985036  0.75114626  1
  Ti  Ti136  1  0.41061020  0.59371360  0.01665996  1
  Ti  Ti137  1  0.01034764  0.41882459  -0.01503279  1
  Ti  Ti138  1  0.90517064  0.31331887  0.86485640  1
  Ti  Ti139  1  0.20044744  0.58801579  0.75259166  1
  Ti  Ti140  1  0.10319531  0.49753825  0.63058117  1
  Ti  Ti141  1  0.19815713  0.79601370  0.24327534  1
  Ti  Ti142  1  0.00199080  0.00662161  0.74372562  1
  Ti  Ti143  1  0.69186778  0.89299955  0.60817702  1
  Ti  Ti144  1  0.49541540  0.69971652  0.12791768  1
  Ti  Ti145  1  0.91343888  0.31111382  0.12160369  1
  Ti  Ti146  1  0.60392510  0.40818575  0.00851311  1
  Ti  Ti147  1  0.29563726  0.10631162  0.61470194  1
  Ti  Ti148  1  0.60002862  0.40875743  0.74139236  1
  Ti  Ti149  1  0.40019836  0.00508639  0.50525095  1
  Ti  Ti150  1  0.30184205  0.10038932  0.10945220  1
  Ti  Ti151  1  0.80202253  0.60620828  0.50197407  1
  Ti  Ti152  1  0.90297876  0.09180944  0.87864523  1
  Ti  Ti153  1  0.01170225  -0.00094875  0.23437995  1
  Ti  Ti154  1  0.79934094  0.79776888  0.00340298  1
  Ti  Ti155  1  0.80415936  0.20611112  -0.00781899  1
  Ti  Ti156  1  0.50529496  0.30155989  0.62783226  1
  Ti  Ti157  1  0.70383635  0.70867178  0.61887526  1
  Ti  Ti158  1  0.29229663  0.69664636  0.11053901  1
  Ti  Ti159  1  0.00005799  0.78798151  0.00969136  1
  Mo  Mo160  1  0.90883898  0.30052450  0.63515135  1
  Mo  Mo161  1  -0.00141828  0.59768206  0.73388428  1
  Mo  Mo162  1  0.80017769  0.00204256  0.00395134  1
  Mo  Mo163  1  0.20065324  -0.00442393  0.00459750  1
  Mo  Mo164  1  0.20359686  0.19947651  0.50785311  1
  Mo  Mo165  1  0.29333131  0.70033450  0.36010916  1
  Mo  Mo166  1  0.80056490  0.40416004  0.75623824  1
  Mo  Mo167  1  0.69882373  0.69571381  0.36504076  1
  Mo  Mo168  1  0.39274771  0.79432982  0.01559895  1
  Mo  Mo169  1  0.00552024  0.60271923  0.26278216  1
  Mo  Mo170  1  0.09880830  0.89191009  0.13800560  1
  Mo  Mo171  1  0.70249931  0.31036751  0.37196348  1
  Mo  Mo172  1  0.20509602  0.40089308  0.72986583  1
  Mo  Mo173  1  0.69601113  0.90011393  0.38772614  1
  Mo  Mo174  1  0.20139471  0.20127186  -0.01607340  1
  Mo  Mo175  1  0.09769539  0.50503748  0.85581114  1
  Mo  Mo176  1  0.30868994  0.30014768  0.89053248  1
  Mo  Mo177  1  0.49764909  0.90323669  0.12606769  1
  Mo  Mo178  1  0.60406072  0.80459857  0.49023273  1
  Mo  Mo179  1  0.00176990  0.60589303  -0.00771310  1
  Mo  Mo180  1  0.00254100  0.38998008  0.24373660  1
  Mo  Mo181  1  0.51202760  0.50405255  0.14146018  1
  Mo  Mo182  1  0.70320584  0.09833504  0.11052733  1
  Mo  Mo183  1  -0.00409055  0.79832545  0.74242559  1
  Mo  Mo184  1  0.79628665  0.60276806  0.25644712  1
  Mo  Mo185  1  0.29252908  0.69761746  0.64520960  1
  Mo  Mo186  1  0.19148563  0.59301298  0.49811296  1
  Mo  Mo187  1  0.89538303  0.49968140  0.64151642  1
  Mo  Mo188  1  0.59432397  0.00205854  0.26867225  1
  Mo  Mo189  1  0.39441301  0.80526906  0.50455628  1
  Mo  Mo190  1  0.29405093  0.49979803  0.62933137  1
  Mo  Mo191  1  0.89617346  0.69755929  0.36255654  1
  Mo  Mo192  1  0.88893193  0.69900554  0.63603887  1
  Mo  Mo193  1  0.19495957  0.40384577  0.00735534  1
  Mo  Mo194  1  0.59563198  0.00280277  -0.00147357  1
  Mo  Mo195  1  0.69998920  0.50649995  0.63762721  1
  Mo  Mo196  1  0.00356999  0.39770179  0.52597549  1
  Mo  Mo197  1  0.50172537  0.29641329  0.14456717  1
  Mo  Mo198  1  0.10175418  0.09941897  0.64909762  1
  Mo  Mo199  1  0.40541611  0.19491573  0.02089470  1
