# generated using pymatgen
data_HfZrTaTiMo
_symmetry_space_group_name_H-M   'P 1'
_cell_length_a   15.92696040
_cell_length_b   15.92941595
_cell_length_c   15.22555898
_cell_angle_alpha   89.97360870
_cell_angle_beta   89.98415718
_cell_angle_gamma   89.80320275
_symmetry_Int_Tables_number   1
_chemical_formula_structural   HfZrTaTiMo
_chemical_formula_sum   'Hf40 Zr40 Ta40 Ti40 Mo40'
_cell_volume   3862.81024644
_cell_formula_units_Z   40
loop_
 _symmetry_equiv_pos_site_id
 _symmetry_equiv_pos_as_xyz
  1  'x, y, z'
loop_
 _atom_site_type_symbol
 _atom_site_label
 _atom_site_symmetry_multiplicity
 _atom_site_fract_x
 _atom_site_fract_y
 _atom_site_fract_z
 _atom_site_occupancy
  Hf  Hf0  1  0.09688137  0.50416357  0.12888387  1
  Hf  Hf1  1  0.39202475  0.39910392  0.46795925  1
  Hf  Hf2  1  0.58613792  0.19128319  0.74665237  1
  Hf  Hf3  1  -0.00501925  0.19126183  0.75730227  1
  Hf  Hf4  1  0.38207127  0.61042827  0.01242931  1
  Hf  Hf5  1  0.47566747  0.31582709  0.63856854  1
  Hf  Hf6  1  0.39495412  0.19930362  0.49399101  1
  Hf  Hf7  1  0.80341812  0.00343817  0.25050881  1
  Hf  Hf8  1  0.50826025  0.69620838  0.89602764  1
  Hf  Hf9  1  0.01981603  0.79149718  0.74181386  1
  Hf  Hf10  1  0.20742722  0.59929823  0.50051728  1
  Hf  Hf11  1  0.08988200  0.30460580  0.13770132  1
  Hf  Hf12  1  0.79674068  0.78894575  0.25741371  1
  Hf  Hf13  1  0.39625067  -0.00627951  0.00700962  1
  Hf  Hf14  1  0.11942331  0.90215614  0.87892019  1
  Hf  Hf15  1  0.22210963  0.79481509  0.00210445  1
  Hf  Hf16  1  0.00366876  0.80089263  0.25449754  1
  Hf  Hf17  1  0.40366399  0.80417238  0.25566726  1
  Hf  Hf18  1  0.81283808  0.39931750  0.48213049  1
  Hf  Hf19  1  -0.00279074  -0.00008144  0.24731454  1
  Hf  Hf20  1  0.01162018  0.38958219  0.47875808  1
  Hf  Hf21  1  0.30500308  0.70939443  0.62955851  1
  Hf  Hf22  1  0.40291168  0.59266101  0.25278572  1
  Hf  Hf23  1  0.38020489  0.19571382  0.76978915  1
  Hf  Hf24  1  0.09381429  0.09344208  0.89067839  1
  Hf  Hf25  1  0.39761264  0.20506228  -0.00075864  1
  Hf  Hf26  1  -0.01738985  0.41057468  0.27002284  1
  Hf  Hf27  1  0.01114740  0.79471089  0.50649200  1
  Hf  Hf28  1  -0.01653854  0.20786281  -0.00431073  1
  Hf  Hf29  1  0.11656863  0.69258174  0.88465319  1
  Hf  Hf30  1  0.50480273  0.10490356  0.13065222  1
  Hf  Hf31  1  0.50559124  0.70739146  0.12501996  1
  Hf  Hf32  1  0.69990389  0.29823126  0.62483504  1
  Hf  Hf33  1  0.28801234  0.30328881  0.62848337  1
  Hf  Hf34  1  0.40256356  0.00183651  0.24887263  1
  Hf  Hf35  1  0.69953721  0.89742540  0.38232502  1
  Hf  Hf36  1  0.59704714  0.61753826  0.73699591  1
  Hf  Hf37  1  0.88178713  0.30461987  0.14472908  1
  Hf  Hf38  1  0.70118437  0.09111323  0.86661801  1
  Hf  Hf39  1  0.80559654  0.59863929  -0.00467527  1
  Zr  Zr40  1  0.09887510  0.10177664  0.36599540  1
  Zr  Zr41  1  0.58601471  0.40606486  0.25344830  1
  Zr  Zr42  1  0.42346044  0.80422871  0.74979197  1
  Zr  Zr43  1  0.09604389  0.10273766  0.11667966  1
  Zr  Zr44  1  0.11063391  0.48550374  0.61378792  1
  Zr  Zr45  1  0.09043577  0.30204526  0.64102443  1
  Zr  Zr46  1  0.58634980  0.19836132  0.50281885  1
  Zr  Zr47  1  0.18886044  0.21639365  0.49415147  1
  Zr  Zr48  1  0.89699947  0.90072897  0.62197109  1
  Zr  Zr49  1  0.79164985  0.20001214  -0.00126353  1
  Zr  Zr50  1  0.58297687  0.40502106  0.49327874  1
  Zr  Zr51  1  0.40723826  0.59516650  0.49081588  1
  Zr  Zr52  1  0.90452972  0.90306023  0.38590019  1
  Zr  Zr53  1  0.69088362  0.51077406  0.87903506  1
  Zr  Zr54  1  0.90757935  0.69700730  0.12262045  1
  Zr  Zr55  1  0.69815718  0.51373076  0.37819133  1
  Zr  Zr56  1  0.69808158  0.30188194  0.85311273  1
  Zr  Zr57  1  0.59708229  -0.01665998  0.74832671  1
  Zr  Zr58  1  0.40726671  0.58714152  0.75106154  1
  Zr  Zr59  1  0.58161698  0.41931420  0.74650642  1
  Zr  Zr60  1  0.89995772  0.90096000  0.87286356  1
  Zr  Zr61  1  0.28117309  0.08708122  0.89929559  1
  Zr  Zr62  1  0.70042138  0.29460631  0.36155736  1
  Zr  Zr63  1  0.70853076  0.48727366  0.12567750  1
  Zr  Zr64  1  0.20412733  -0.00218761  0.23318511  1
  Zr  Zr65  1  0.00623589  -0.00213459  0.74072161  1
  Zr  Zr66  1  0.20372110  0.40364484  0.77588104  1
  Zr  Zr67  1  0.47118594  0.07934260  0.63765614  1
  Zr  Zr68  1  0.59565857  0.39111214  0.00279729  1
  Zr  Zr69  1  0.41394161  0.79630735  0.49089983  1
  Zr  Zr70  1  0.59318248  0.00062139  0.50042709  1
  Zr  Zr71  1  0.29259965  0.10152597  0.37371806  1
  Zr  Zr72  1  0.89714821  0.29984330  0.62854193  1
  Zr  Zr73  1  0.32163843  0.91629188  0.62105482  1
  Zr  Zr74  1  0.59426470  0.20024794  -0.00882289  1
  Zr  Zr75  1  0.20255714  0.60344589  0.74040629  1
  Zr  Zr76  1  0.70100603  0.89653023  0.12298738  1
  Zr  Zr77  1  0.70455893  0.50301956  0.61785971  1
  Zr  Zr78  1  0.81375954  0.58943397  0.25464931  1
  Zr  Zr79  1  0.00941416  0.58979119  0.74914744  1
  Ta  Ta80  1  0.20481693  0.79999875  0.50038736  1
  Ta  Ta81  1  0.69387717  0.72071967  0.62175880  1
  Ta  Ta82  1  0.52073891  0.69877202  0.35962230  1
  Ta  Ta83  1  0.28430021  0.30080849  0.34652022  1
  Ta  Ta84  1  0.80568281  0.39408042  -0.01504851  1
  Ta  Ta85  1  0.80056413  0.60635844  0.74629134  1
  Ta  Ta86  1  0.79994711  0.79609135  0.50265120  1
  Ta  Ta87  1  0.19448557  0.19496626  0.75986018  1
  Ta  Ta88  1  0.49514412  0.50132793  0.11491964  1
  Ta  Ta89  1  0.11221495  0.50402414  0.36848667  1
  Ta  Ta90  1  0.89923856  0.10035173  0.60906535  1
  Ta  Ta91  1  0.09600570  0.30080473  0.87908685  1
  Ta  Ta92  1  0.31405562  0.48321291  0.62362256  1
  Ta  Ta93  1  0.29463703  0.90050182  0.37993322  1
  Ta  Ta94  1  0.89968474  0.69625555  0.62898024  1
  Ta  Ta95  1  0.59529422  0.61262335  0.50805013  1
  Ta  Ta96  1  0.10230099  0.88952885  0.11558751  1
  Ta  Ta97  1  0.90355944  0.50068327  0.87180686  1
  Ta  Ta98  1  0.00514206  0.59993053  0.49992887  1
  Ta  Ta99  1  0.10709216  0.69825872  0.13004385  1
  Ta  Ta100  1  0.00415124  0.79485964  -0.00411334  1
  Ta  Ta101  1  0.00905233  0.00297533  0.50183372  1
  Ta  Ta102  1  0.21305422  0.00767030  0.73751711  1
  Ta  Ta103  1  -0.00782707  0.20038584  0.48304970  1
  Ta  Ta104  1  0.80532892  0.41097243  0.75160667  1
  Ta  Ta105  1  0.29377059  0.70251468  0.36439335  1
  Ta  Ta106  1  0.60023041  0.00047144  0.25270037  1
  Ta  Ta107  1  0.10852851  0.70054949  0.36758240  1
  Ta  Ta108  1  0.00474167  0.59873051  -0.00713100  1
  Ta  Ta109  1  0.69755547  0.10005467  0.37285479  1
  Ta  Ta110  1  0.70508031  0.70746823  0.88120967  1
  Ta  Ta111  1  0.29209518  0.30639560  0.13035593  1
  Ta  Ta112  1  0.10514768  0.10192940  0.61578949  1
  Ta  Ta113  1  0.90713298  0.49766922  0.62291387  1
  Ta  Ta114  1  0.69940091  0.69800805  0.11294634  1
  Ta  Ta115  1  0.70790751  0.09461944  0.61934588  1
  Ta  Ta116  1  0.50093877  0.89714180  0.89199815  1
  Ta  Ta117  1  0.70428418  0.89768150  0.88414873  1
  Ta  Ta118  1  0.90190557  0.70107939  0.86559596  1
  Ta  Ta119  1  0.60099379  0.00326802  -0.00022832  1
  Ti  Ti120  1  0.49328603  0.50383290  0.89906199  1
  Ti  Ti121  1  0.19795386  0.21064811  0.00797645  1
  Ti  Ti122  1  0.38748245  0.19548356  0.23864892  1
  Ti  Ti123  1  0.12024603  0.89957098  0.62366871  1
  Ti  Ti124  1  0.79266644  0.80302209  0.74520660  1
  Ti  Ti125  1  0.60835930  0.60374589  0.23973793  1
  Ti  Ti126  1  0.49174363  0.30327767  0.13308181  1
  Ti  Ti127  1  0.89789377  0.30447032  0.86038434  1
  Ti  Ti128  1  0.39451992  0.40445105  0.25269243  1
  Ti  Ti129  1  0.40310134  0.00402185  0.47848889  1
  Ti  Ti130  1  0.80910535  0.79998787  -0.00131560  1
  Ti  Ti131  1  0.28984182  0.51221619  0.89057576  1
  Ti  Ti132  1  0.90288018  0.49249457  0.11435080  1
  Ti  Ti133  1  0.30287608  0.89207002  0.12931844  1
  Ti  Ti134  1  0.80322514  0.60747723  0.50822637  1
  Ti  Ti135  1  0.11268302  0.90153959  0.37987699  1
  Ti  Ti136  1  0.90272997  0.89606012  0.12161711  1
  Ti  Ti137  1  0.80133627  0.19176179  0.74520623  1
  Ti  Ti138  1  0.90251829  0.69529307  0.38707824  1
  Ti  Ti139  1  0.50683749  0.89656071  0.12280198  1
  Ti  Ti140  1  0.89279898  0.09040115  0.87688537  1
  Ti  Ti141  1  0.00158947  0.60175939  0.26408015  1
  Ti  Ti142  1  0.89623864  0.10911815  0.13088340  1
  Ti  Ti143  1  0.69430979  0.29173819  0.14425683  1
  Ti  Ti144  1  0.60642527  0.80368779  -0.00078260  1
  Ti  Ti145  1  0.49211637  0.28257423  0.35225453  1
  Ti  Ti146  1  0.79850260  -0.00272121  0.73941979  1
  Ti  Ti147  1  0.29208671  0.70272011  0.14754095  1
  Ti  Ti148  1  0.53414924  0.86952524  0.61516919  1
  Ti  Ti149  1  0.80137306  0.19482939  0.48872383  1
  Ti  Ti150  1  0.48633161  0.31021742  0.86757214  1
  Ti  Ti151  1  0.29031706  0.49768217  0.13396431  1
  Ti  Ti152  1  0.38599721  0.39991574  -0.00156935  1
  Ti  Ti153  1  -0.00839995  -0.00715574  0.00943761  1
  Ti  Ti154  1  -0.00345681  0.40073086  -0.01047859  1
  Ti  Ti155  1  0.19452455  0.40501617  0.00000053  1
  Ti  Ti156  1  0.80058208  0.00181183  0.01058092  1
  Ti  Ti157  1  0.69975974  0.10647621  0.13450843  1
  Ti  Ti158  1  0.30859148  0.71127628  0.86438367  1
  Ti  Ti159  1  0.50771283  0.89907404  0.36877684  1
  Mo  Mo160  1  0.19567310  0.40471518  0.24964697  1
  Mo  Mo161  1  0.20675480  0.40236405  0.47502682  1
  Mo  Mo162  1  0.30426597  0.89403749  0.86310844  1
  Mo  Mo163  1  0.19843257  0.20194398  0.22927586  1
  Mo  Mo164  1  0.20027597  0.60253380  0.24527200  1
  Mo  Mo165  1  0.39794937  0.00214215  0.77950491  1
  Mo  Mo166  1  0.60450321  0.80131976  0.25184542  1
  Mo  Mo167  1  0.49221526  0.50016976  0.61475849  1
  Mo  Mo168  1  0.59251716  0.19477643  0.24894756  1
  Mo  Mo169  1  0.89514488  0.09741941  0.38769598  1
  Mo  Mo170  1  0.70503848  0.69912712  0.38599101  1
  Mo  Mo171  1  0.29026830  0.30170414  0.89892889  1
  Mo  Mo172  1  0.10058229  0.49883823  0.89781263  1
  Mo  Mo173  1  -0.00864679  0.19895669  0.26096749  1
  Mo  Mo174  1  0.29534513  0.50055453  0.36156914  1
  Mo  Mo175  1  0.89622207  0.28840855  0.36222942  1
  Mo  Mo176  1  0.60555166  0.79516359  0.48075763  1
  Mo  Mo177  1  0.50234099  0.50849926  0.36212984  1
  Mo  Mo178  1  0.80065065  0.00590698  0.49800460  1
  Mo  Mo179  1  -0.00364040  0.40046592  0.76792025  1
  Mo  Mo180  1  0.20094512  -0.00215230  0.51064366  1
  Mo  Mo181  1  0.19920409  -0.01105402  0.01819903  1
  Mo  Mo182  1  0.49618148  0.09110005  0.87625744  1
  Mo  Mo183  1  0.09921452  0.29795527  0.34926640  1
  Mo  Mo184  1  0.79676165  0.39915424  0.26411324  1
  Mo  Mo185  1  0.40364314  0.80277090  0.00538488  1
  Mo  Mo186  1  0.60022698  0.60040729  0.01534505  1
  Mo  Mo187  1  0.20036000  0.80366692  0.25457993  1
  Mo  Mo188  1  0.61203215  0.80132535  0.76892181  1
  Mo  Mo189  1  0.90630496  0.51051624  0.39740643  1
  Mo  Mo190  1  0.21041765  0.80842140  0.74599266  1
  Mo  Mo191  1  0.29892551  0.10631657  0.11911170  1
  Mo  Mo192  1  0.38963270  0.40639173  0.77760896  1
  Mo  Mo193  1  0.50476318  0.70036935  0.62071185  1
  Mo  Mo194  1  0.79528767  0.18983932  0.25410198  1
  Mo  Mo195  1  0.70690934  0.89974587  0.61515922  1
  Mo  Mo196  1  0.49967691  0.10110054  0.35825249  1
  Mo  Mo197  1  0.10460794  0.70319719  0.61459267  1
  Mo  Mo198  1  0.29099615  0.10360275  0.61853537  1
  Mo  Mo199  1  0.20314744  0.59989230  0.01950887  1
