# generated using pymatgen
data_HfZrTaTiMo
_symmetry_space_group_name_H-M   'P 1'
_cell_length_a   15.93182423
_cell_length_b   15.93904154
_cell_length_c   15.21888512
_cell_angle_alpha   90.02628957
_cell_angle_beta   89.98314682
_cell_angle_gamma   89.83063311
_symmetry_Int_Tables_number   1
_chemical_formula_structural   HfZrTaTiMo
_chemical_formula_sum   'Hf40 Zr40 Ta40 Ti40 Mo40'
_cell_volume   3864.63591467
_cell_formula_units_Z   40
loop_
 _symmetry_equiv_pos_site_id
 _symmetry_equiv_pos_as_xyz
  1  'x, y, z'
loop_
 _atom_site_type_symbol
 _atom_site_label
 _atom_site_symmetry_multiplicity
 _atom_site_fract_x
 _atom_site_fract_y
 _atom_site_fract_z
 _atom_site_occupancy
  Hf  Hf0  1  0.90729702  0.49774778  0.86724301  1
  Hf  Hf1  1  0.80908317  0.79798579  0.01375369  1
  Hf  Hf2  1  0.69556151  0.90630305  0.89308868  1
  Hf  Hf3  1  0.79284546  0.19756402  0.24505582  1
  Hf  Hf4  1  0.70003476  0.70042408  0.61191414  1
  Hf  Hf5  1  0.48499056  0.71316235  0.64204782  1
  Hf  Hf6  1  0.21071665  0.79861619  -0.00015353  1
  Hf  Hf7  1  0.30373723  0.28975100  0.12698940  1
  Hf  Hf8  1  0.51513645  0.69160075  0.12352766  1
  Hf  Hf9  1  0.70633700  0.89794064  0.38436019  1
  Hf  Hf10  1  0.20889573  0.39019425  -0.00088408  1
  Hf  Hf11  1  0.49684956  0.09675068  0.37345993  1
  Hf  Hf12  1  0.70085992  0.10172209  0.61605799  1
  Hf  Hf13  1  0.17749481  0.00323782  0.48571795  1
  Hf  Hf14  1  0.30045041  0.70164418  0.63100940  1
  Hf  Hf15  1  0.61019374  0.79983539  0.24578183  1
  Hf  Hf16  1  0.91537255  0.91587077  0.12674413  1
  Hf  Hf17  1  0.30545797  0.49802487  0.62141416  1
  Hf  Hf18  1  0.50003927  0.50349406  0.13514246  1
  Hf  Hf19  1  0.58096579  0.80329250  0.50198757  1
  Hf  Hf20  1  -0.00711286  0.83392631  0.48982392  1
  Hf  Hf21  1  0.70660477  0.50201006  0.88197158  1
  Hf  Hf22  1  0.09197655  0.09304806  0.13876417  1
  Hf  Hf23  1  0.10101312  0.51097768  0.10493778  1
  Hf  Hf24  1  0.20900028  0.00951881  0.75367924  1
  Hf  Hf25  1  0.00622191  0.57692639  0.26370062  1
  Hf  Hf26  1  -0.00303749  0.38981327  0.00941237  1
  Hf  Hf27  1  0.89788982  0.31050076  0.36007406  1
  Hf  Hf28  1  0.20888862  0.18695300  0.26627274  1
  Hf  Hf29  1  0.90028825  0.90078527  0.87115211  1
  Hf  Hf30  1  0.19187731  0.59302386  0.74472288  1
  Hf  Hf31  1  0.79921204  0.19896555  0.49253567  1
  Hf  Hf32  1  0.70057940  0.30746767  0.88793007  1
  Hf  Hf33  1  0.69875595  0.49777371  0.61910348  1
  Hf  Hf34  1  0.20126843  0.80208850  0.49265230  1
  Hf  Hf35  1  0.69648400  0.90362932  0.10929496  1
  Hf  Hf36  1  0.50107835  0.90372151  0.35912003  1
  Hf  Hf37  1  0.89684655  0.70405341  0.61277553  1
  Hf  Hf38  1  0.59052208  0.19800251  -0.00929698  1
  Hf  Hf39  1  0.31776496  0.48103152  0.86486468  1
  Zr  Zr40  1  0.60227661  0.00644054  0.75181320  1
  Zr  Zr41  1  0.01302984  0.39742575  0.73639255  1
  Zr  Zr42  1  0.50461294  0.29823486  0.62727804  1
  Zr  Zr43  1  0.19278593  0.20253512  0.74100148  1
  Zr  Zr44  1  0.49795715  0.29932134  0.12783635  1
  Zr  Zr45  1  0.91662232  0.68573731  0.13350685  1
  Zr  Zr46  1  0.89784688  0.28805515  0.63512687  1
  Zr  Zr47  1  0.69839202  0.30838374  0.12042903  1
  Zr  Zr48  1  0.90139438  0.09182487  0.63410343  1
  Zr  Zr49  1  0.20370184  0.79305931  0.24849967  1
  Zr  Zr50  1  0.69389822  0.70848385  0.89312788  1
  Zr  Zr51  1  0.79424475  0.58989779  0.25275787  1
  Zr  Zr52  1  0.61129348  0.40652875  0.26491046  1
  Zr  Zr53  1  0.59833659  0.60625421  0.76262523  1
  Zr  Zr54  1  0.00697171  0.80082206  0.00396228  1
  Zr  Zr55  1  0.10012304  0.89853792  0.86674468  1
  Zr  Zr56  1  0.09127536  0.69862483  0.38161763  1
  Zr  Zr57  1  0.30996957  0.89297915  0.62771180  1
  Zr  Zr58  1  0.39128860  0.19423070  0.75075959  1
  Zr  Zr59  1  0.41906293  0.59358225  -0.02224170  1
  Zr  Zr60  1  0.30380401  0.91153971  0.36620419  1
  Zr  Zr61  1  -0.00645837  0.17960849  -0.00318708  1
  Zr  Zr62  1  0.19130315  0.00582969  -0.00767913  1
  Zr  Zr63  1  0.90047400  0.69405226  0.86656162  1
  Zr  Zr64  1  0.79626760  0.00063526  0.24468903  1
  Zr  Zr65  1  0.20255967  0.39155916  0.74533084  1
  Zr  Zr66  1  0.19347520  0.20180182  0.49404593  1
  Zr  Zr67  1  0.10018799  0.68871888  0.88077047  1
  Zr  Zr68  1  0.39697408  0.79194142  0.24212465  1
  Zr  Zr69  1  0.09244158  0.90817326  0.64015524  1
  Zr  Zr70  1  0.19245902  0.40562724  0.24321843  1
  Zr  Zr71  1  0.40479422  0.61668199  0.48387152  1
  Zr  Zr72  1  0.20798222  0.59854139  0.26142053  1
  Zr  Zr73  1  0.88917378  0.69925557  0.38804544  1
  Zr  Zr74  1  0.39495117  0.40141045  0.26131918  1
  Zr  Zr75  1  0.29271969  0.49270600  0.39239671  1
  Zr  Zr76  1  0.00229472  0.19098727  0.48566958  1
  Zr  Zr77  1  0.49794120  0.50336588  0.63132737  1
  Zr  Zr78  1  0.40170724  0.79871817  -0.00025717  1
  Zr  Zr79  1  0.69143586  0.50633633  0.11242496  1
  Ta  Ta80  1  0.00430794  -0.00284118  0.27466786  1
  Ta  Ta81  1  0.00231648  0.39392331  0.51041317  1
  Ta  Ta82  1  0.80346325  0.79780502  0.24081056  1
  Ta  Ta83  1  0.40870432  0.39436184  0.49485469  1
  Ta  Ta84  1  0.89581702  0.90588428  0.64261500  1
  Ta  Ta85  1  0.40664947  -0.00646112  0.50675820  1
  Ta  Ta86  1  0.30309382  0.29936382  0.60662889  1
  Ta  Ta87  1  0.29882432  0.91435623  0.12746939  1
  Ta  Ta88  1  0.79212861  0.00420519  0.76466067  1
  Ta  Ta89  1  0.39998023  0.60444062  0.26309451  1
  Ta  Ta90  1  0.30221655  0.09648026  0.60877838  1
  Ta  Ta91  1  0.59887141  0.20291151  0.48924206  1
  Ta  Ta92  1  0.09165311  0.30911623  0.35995303  1
  Ta  Ta93  1  0.59733189  0.81310582  0.74583094  1
  Ta  Ta94  1  0.81590627  0.02055004  -0.00240397  1
  Ta  Ta95  1  0.10215218  0.49784321  0.88758220  1
  Ta  Ta96  1  0.60204617  0.39572212  0.75802844  1
  Ta  Ta97  1  0.50076176  0.10130170  0.62055022  1
  Ta  Ta98  1  0.10262233  0.29035778  0.88460479  1
  Ta  Ta99  1  0.81424660  0.59304611  0.00870976  1
  Ta  Ta100  1  0.59987150  0.19992170  0.76683977  1
  Ta  Ta101  1  0.59814869  0.60122229  0.48831163  1
  Ta  Ta102  1  0.70141983  0.30180567  0.37502989  1
  Ta  Ta103  1  0.78871293  0.80542941  0.74396024  1
  Ta  Ta104  1  0.50260702  0.89901052  0.88525023  1
  Ta  Ta105  1  0.79679834  0.39774387  0.74336700  1
  Ta  Ta106  1  0.47885202  0.31480404  0.87007690  1
  Ta  Ta107  1  0.19229500  0.59988411  0.50325067  1
  Ta  Ta108  1  0.40128719  0.19672006  0.49175427  1
  Ta  Ta109  1  0.59871484  0.01021803  0.23511633  1
  Ta  Ta110  1  0.90087338  0.29869465  0.86593104  1
  Ta  Ta111  1  0.10824168  0.69379218  0.11703642  1
  Ta  Ta112  1  0.78840153  0.19470387  0.76783270  1
  Ta  Ta113  1  0.80549781  0.20088793  -0.00031907  1
  Ta  Ta114  1  0.49626373  0.90946435  0.12214886  1
  Ta  Ta115  1  0.70168055  0.70128109  0.38687409  1
  Ta  Ta116  1  0.89484366  0.50306113  0.61895433  1
  Ta  Ta117  1  0.10577453  0.90135176  0.13716935  1
  Ta  Ta118  1  0.69533948  0.09477851  0.38129770  1
  Ta  Ta119  1  0.59777228  0.19462851  0.25345084  1
  Ti  Ti120  1  0.18573806  0.39786973  0.50715762  1
  Ti  Ti121  1  0.69548860  0.29555048  0.62763503  1
  Ti  Ti122  1  0.57668223  0.41540681  -0.01662939  1
  Ti  Ti123  1  0.30821074  0.69450660  0.86158409  1
  Ti  Ti124  1  0.70531864  0.90394322  0.61684062  1
  Ti  Ti125  1  0.29730986  0.10431525  0.11749968  1
  Ti  Ti126  1  0.58752984  0.01210541  0.00768802  1
  Ti  Ti127  1  0.30115665  0.29839451  0.38169951  1
  Ti  Ti128  1  0.39808792  0.20102932  -0.00676149  1
  Ti  Ti129  1  0.80140610  0.39423875  0.51051561  1
  Ti  Ti130  1  0.29078553  0.11417712  0.88787720  1
  Ti  Ti131  1  0.20329780  0.79926182  0.75445338  1
  Ti  Ti132  1  0.00250265  0.58746429  0.50282085  1
  Ti  Ti133  1  0.79956811  0.60166505  0.74502920  1
  Ti  Ti134  1  0.00026253  0.01719923  0.77233023  1
  Ti  Ti135  1  0.09632015  0.70467540  0.61800939  1
  Ti  Ti136  1  0.08887842  0.10338965  0.63090758  1
  Ti  Ti137  1  0.39994711  0.00849339  0.00428453  1
  Ti  Ti138  1  0.50606190  0.50289781  0.37437729  1
  Ti  Ti139  1  0.81374356  0.39837648  0.00934040  1
  Ti  Ti140  1  0.69854810  0.69378520  0.11704009  1
  Ti  Ti141  1  0.71116260  0.49845418  0.38981498  1
  Ti  Ti142  1  0.30687278  0.50292124  0.11170551  1
  Ti  Ti143  1  0.31013845  0.90525334  0.87313323  1
  Ti  Ti144  1  0.90524465  0.29516083  0.14151886  1
  Ti  Ti145  1  0.89794593  0.09867788  0.36621614  1
  Ti  Ti146  1  0.00077690  0.80078792  0.25477515  1
  Ti  Ti147  1  0.50118325  0.29758212  0.37050827  1
  Ti  Ti148  1  0.82128454  -0.01048843  0.49172923  1
  Ti  Ti149  1  0.39357064  0.02159772  0.23908817  1
  Ti  Ti150  1  0.69653620  0.10545564  0.11412603  1
  Ti  Ti151  1  0.60097165  0.39668750  0.49348540  1
  Ti  Ti152  1  -0.00210784  0.79263260  0.74501061  1
  Ti  Ti153  1  0.00383806  0.59503382  0.73219251  1
  Ti  Ti154  1  0.89893157  0.48998178  0.38662957  1
  Ti  Ti155  1  0.09914238  0.28821946  0.13359815  1
  Ti  Ti156  1  0.59508853  -0.00045348  0.50694676  1
  Ti  Ti157  1  0.30064665  0.68037856  0.11084721  1
  Ti  Ti158  1  0.40717740  -0.00530556  0.74334258  1
  Ti  Ti159  1  0.49167009  0.09615527  0.87185923  1
  Mo  Mo160  1  0.80428118  0.40341678  0.24769841  1
  Mo  Mo161  1  0.09886211  0.29503384  0.61795906  1
  Mo  Mo162  1  0.50753707  0.70196015  0.36042957  1
  Mo  Mo163  1  0.79629566  0.80846026  0.51750598  1
  Mo  Mo164  1  0.89906985  0.48659389  0.12893147  1
  Mo  Mo165  1  0.40071765  0.39193469  0.72784857  1
  Mo  Mo166  1  0.09824764  0.10289149  0.36167112  1
  Mo  Mo167  1  0.30553588  0.09765227  0.39110981  1
  Mo  Mo168  1  -0.00042914  0.59320033  -0.00191403  1
  Mo  Mo169  1  0.50045705  0.71005244  0.86468637  1
  Mo  Mo170  1  0.09077893  0.48925232  0.39289201  1
  Mo  Mo171  1  0.79976717  0.59355684  0.49609316  1
  Mo  Mo172  1  0.39664002  0.60037530  0.75798389  1
  Mo  Mo173  1  0.40068953  0.80723625  0.77385691  1
  Mo  Mo174  1  0.40037051  0.19946089  0.26881765  1
  Mo  Mo175  1  0.89948374  0.10357906  0.14106038  1
  Mo  Mo176  1  0.39987304  0.80547804  0.48429138  1
  Mo  Mo177  1  0.60208853  0.60249403  0.27506576  1
  Mo  Mo178  1  0.59539328  0.80508871  0.01390759  1
  Mo  Mo179  1  0.40426191  0.39575864  0.01145083  1
  Mo  Mo180  1  0.21173567  0.59740685  -0.01443648  1
  Mo  Mo181  1  0.10188512  0.89785217  0.35609214  1
  Mo  Mo182  1  0.09885012  0.50274579  0.61032171  1
  Mo  Mo183  1  0.69555541  0.10301833  0.89335247  1
  Mo  Mo184  1  0.19699472  0.19897694  0.00540951  1
  Mo  Mo185  1  0.30049101  0.29210297  0.88816799  1
  Mo  Mo186  1  0.20442585  0.00050949  0.24904099  1
  Mo  Mo187  1  0.09902884  0.10482138  0.87085865  1
  Mo  Mo188  1  -0.00143126  0.19711835  0.25455819  1
  Mo  Mo189  1  0.89391414  0.89560198  0.35822588  1
  Mo  Mo190  1  0.89490804  0.10424898  0.86336648  1
  Mo  Mo191  1  0.30184232  0.70370653  0.38758311  1
  Mo  Mo192  1  0.49100136  0.10362763  0.12907849  1
  Mo  Mo193  1  -0.00067634  0.19894077  0.76420135  1
  Mo  Mo194  1  0.50206357  0.49631327  0.85487546  1
  Mo  Mo195  1  -0.00157952  -0.00026479  -0.00901798  1
  Mo  Mo196  1  0.50091982  0.90618826  0.63344602  1
  Mo  Mo197  1  0.60441694  0.60080250  -0.01419711  1
  Mo  Mo198  1  -0.00030234  0.39819604  0.23276288  1
  Mo  Mo199  1  -0.00738751  0.00442683  0.48439029  1
