# generated using pymatgen
data_HfZrTaTiMo
_symmetry_space_group_name_H-M   'P 1'
_cell_length_a   15.92086968
_cell_length_b   15.94261896
_cell_length_c   15.20333704
_cell_angle_alpha   90.03074539
_cell_angle_beta   90.01955079
_cell_angle_gamma   90.07957459
_symmetry_Int_Tables_number   1
_chemical_formula_structural   HfZrTaTiMo
_chemical_formula_sum   'Hf40 Zr40 Ta40 Ti40 Mo40'
_cell_volume   3858.91196106
_cell_formula_units_Z   40
loop_
 _symmetry_equiv_pos_site_id
 _symmetry_equiv_pos_as_xyz
  1  'x, y, z'
loop_
 _atom_site_type_symbol
 _atom_site_label
 _atom_site_symmetry_multiplicity
 _atom_site_fract_x
 _atom_site_fract_y
 _atom_site_fract_z
 _atom_site_occupancy
  Hf  Hf0  1  0.90214718  0.69989587  0.12360923  1
  Hf  Hf1  1  0.89501207  0.29843919  0.13709565  1
  Hf  Hf2  1  0.50157575  0.70505198  0.63816194  1
  Hf  Hf3  1  0.92272341  0.49037069  0.37831480  1
  Hf  Hf4  1  0.90441593  0.49898869  0.13804888  1
  Hf  Hf5  1  0.60600281  0.20190417  -0.00248357  1
  Hf  Hf6  1  0.90319431  0.29155707  0.39109128  1
  Hf  Hf7  1  0.80507880  0.00289690  0.27196956  1
  Hf  Hf8  1  0.09761909  0.31569536  0.37420839  1
  Hf  Hf9  1  -0.01051119  0.39942315  -0.00602518  1
  Hf  Hf10  1  0.88701965  0.88689897  0.63121008  1
  Hf  Hf11  1  0.31906375  0.71069628  0.11153404  1
  Hf  Hf12  1  0.60541173  0.39919658  0.01096006  1
  Hf  Hf13  1  0.40469485  0.40040601  0.49969371  1
  Hf  Hf14  1  0.61120802  0.59764427  0.74884514  1
  Hf  Hf15  1  0.49183399  0.09461886  0.87558558  1
  Hf  Hf16  1  0.70783699  0.50264211  0.12680005  1
  Hf  Hf17  1  0.49104628  0.87859657  0.11960578  1
  Hf  Hf18  1  0.60304349  -0.01161772  0.26573986  1
  Hf  Hf19  1  0.19698052  0.79242114  0.49943515  1
  Hf  Hf20  1  0.30030832  0.52248980  0.10723854  1
  Hf  Hf21  1  0.19804642  0.39259168  0.00159177  1
  Hf  Hf22  1  0.20210798  0.61191538  0.75842366  1
  Hf  Hf23  1  0.39710597  -0.01108883  0.24596013  1
  Hf  Hf24  1  0.50784084  0.29387674  0.64761281  1
  Hf  Hf25  1  0.50073493  0.50287065  0.87103470  1
  Hf  Hf26  1  0.29899701  0.10206697  0.61870773  1
  Hf  Hf27  1  0.00317906  0.79927893  0.25585986  1
  Hf  Hf28  1  0.59980121  0.39544907  0.51448216  1
  Hf  Hf29  1  0.90187674  0.28986443  0.62302421  1
  Hf  Hf30  1  0.81002489  0.60221229  0.50347038  1
  Hf  Hf31  1  0.19598865  0.20090535  0.74819341  1
  Hf  Hf32  1  0.20104132  0.79601156  0.25652392  1
  Hf  Hf33  1  0.09395566  0.09748407  0.87116252  1
  Hf  Hf34  1  0.59832541  -0.01187946  -0.01049259  1
  Hf  Hf35  1  0.19730593  0.39713297  0.75148457  1
  Hf  Hf36  1  0.71160479  0.71514437  0.62741583  1
  Hf  Hf37  1  0.70205851  0.69997470  0.12918335  1
  Hf  Hf38  1  0.11562313  0.51108108  0.38725927  1
  Hf  Hf39  1  0.49010129  0.09316714  0.11930249  1
  Zr  Zr40  1  0.68490392  0.49899390  0.37195233  1
  Zr  Zr41  1  -0.00165067  -0.00808339  0.25004519  1
  Zr  Zr42  1  -0.00123817  0.19830166  0.00401332  1
  Zr  Zr43  1  0.38207409  -0.01047439  0.75112483  1
  Zr  Zr44  1  0.50187702  0.68638059  0.38671638  1
  Zr  Zr45  1  0.00921875  0.80238246  -0.00886531  1
  Zr  Zr46  1  0.81207934  0.60510120  0.26595700  1
  Zr  Zr47  1  0.29851038  0.50287777  0.62961512  1
  Zr  Zr48  1  0.30064253  0.50268719  0.38685601  1
  Zr  Zr49  1  0.10081746  0.10473963  0.38056175  1
  Zr  Zr50  1  0.29518255  0.90814037  0.38298189  1
  Zr  Zr51  1  0.20585870  0.40923933  0.23871383  1
  Zr  Zr52  1  0.78746765  -0.00280032  0.50094392  1
  Zr  Zr53  1  -0.00203498  0.60694722  -0.02085333  1
  Zr  Zr54  1  0.49403526  0.10037360  0.37803214  1
  Zr  Zr55  1  0.59660282  -0.00181208  0.50427066  1
  Zr  Zr56  1  0.09274947  0.89468402  0.62091886  1
  Zr  Zr57  1  0.60319649  0.19126364  0.25109066  1
  Zr  Zr58  1  -0.01419584  0.00338034  0.49797025  1
  Zr  Zr59  1  0.59469785  0.78669656  -0.01388608  1
  Zr  Zr60  1  0.39665759  0.39573902  0.00451661  1
  Zr  Zr61  1  0.89923900  0.10538709  0.85705396  1
  Zr  Zr62  1  -0.00659248  0.19031605  0.25294892  1
  Zr  Zr63  1  0.71047511  0.49137479  0.87498443  1
  Zr  Zr64  1  0.50074540  0.10166092  0.63231560  1
  Zr  Zr65  1  0.09872061  0.51170523  0.12322795  1
  Zr  Zr66  1  0.70744801  0.09855537  0.86135475  1
  Zr  Zr67  1  0.89229903  0.30341068  0.85423274  1
  Zr  Zr68  1  0.40560878  0.20987495  0.49649943  1
  Zr  Zr69  1  0.70688495  0.09682539  0.11851027  1
  Zr  Zr70  1  0.10050249  0.49575246  0.87436140  1
  Zr  Zr71  1  0.20219165  0.21599485  0.50360385  1
  Zr  Zr72  1  0.70409818  0.89327766  0.12657130  1
  Zr  Zr73  1  0.79436940  0.40029349  0.50628589  1
  Zr  Zr74  1  0.70035200  0.69933939  0.38425870  1
  Zr  Zr75  1  0.40833146  0.41213157  0.24453511  1
  Zr  Zr76  1  0.50111067  0.30003557  0.87012266  1
  Zr  Zr77  1  0.29360137  0.10709511  0.36134680  1
  Zr  Zr78  1  0.90186647  0.90914659  0.86158407  1
  Zr  Zr79  1  0.49389000  0.29080426  0.13168763  1
  Ta  Ta80  1  0.50560395  0.30552552  0.36536953  1
  Ta  Ta81  1  0.08764416  0.11119579  0.62168614  1
  Ta  Ta82  1  0.40506735  0.60016569  0.51085005  1
  Ta  Ta83  1  0.59559003  0.79656165  0.26278520  1
  Ta  Ta84  1  0.00285696  0.59933458  0.75053371  1
  Ta  Ta85  1  0.60041176  0.60506788  -0.00570024  1
  Ta  Ta86  1  0.09813677  0.90003110  0.38504146  1
  Ta  Ta87  1  0.70742084  0.30094517  0.14011840  1
  Ta  Ta88  1  0.38567419  -0.01241233  -0.00386309  1
  Ta  Ta89  1  0.49725559  0.49860692  0.64427503  1
  Ta  Ta90  1  0.89667206  0.89725389  0.11868031  1
  Ta  Ta91  1  0.69924089  0.29671853  0.84998294  1
  Ta  Ta92  1  0.90829530  0.70232451  0.62912123  1
  Ta  Ta93  1  0.70393066  0.89566917  0.85747667  1
  Ta  Ta94  1  0.60008603  0.59163268  0.52159025  1
  Ta  Ta95  1  0.29401549  0.09987394  0.12807565  1
  Ta  Ta96  1  0.39822002  0.60524318  0.25600307  1
  Ta  Ta97  1  0.60078440  0.81028596  0.49726868  1
  Ta  Ta98  1  0.91197797  0.50016694  0.62380075  1
  Ta  Ta99  1  0.59682632  -0.00505286  0.75030658  1
  Ta  Ta100  1  0.30743221  0.50888999  0.87889075  1
  Ta  Ta101  1  0.89406318  0.09315636  0.11644313  1
  Ta  Ta102  1  0.30499535  0.70566017  0.63030233  1
  Ta  Ta103  1  0.19465559  -0.00003005  0.73709325  1
  Ta  Ta104  1  0.11600581  0.70248933  0.12029605  1
  Ta  Ta105  1  0.48788760  0.88405998  0.86408362  1
  Ta  Ta106  1  0.40223495  0.79417912  0.26939624  1
  Ta  Ta107  1  0.40156176  0.80148857  0.50207184  1
  Ta  Ta108  1  0.10607209  0.90814945  0.86577850  1
  Ta  Ta109  1  0.09600109  0.30151436  0.13637083  1
  Ta  Ta110  1  0.00807333  0.79441814  0.75803613  1
  Ta  Ta111  1  0.79989232  0.39480031  0.26462707  1
  Ta  Ta112  1  0.80808750  0.80703237  0.27154179  1
  Ta  Ta113  1  0.10007532  0.69811378  0.62865940  1
  Ta  Ta114  1  0.20441850  0.62117034  -0.02258922  1
  Ta  Ta115  1  0.80947440  0.59579382  0.74333072  1
  Ta  Ta116  1  0.80283214  0.79630649  -0.01558003  1
  Ta  Ta117  1  0.38756421  0.19871338  0.76228227  1
  Ta  Ta118  1  0.69739626  0.29245104  0.37554465  1
  Ta  Ta119  1  0.80420212  -0.00642070  -0.00571144  1
  Ti  Ti120  1  0.70540226  0.70146158  0.86514311  1
  Ti  Ti121  1  0.29709639  0.28437284  0.13624297  1
  Ti  Ti122  1  0.01978017  0.61256542  0.26188327  1
  Ti  Ti123  1  0.79907302  0.20568392  -0.00172777  1
  Ti  Ti124  1  0.39440306  0.39912109  0.75795062  1
  Ti  Ti125  1  0.18878918  -0.00786249  0.23816573  1
  Ti  Ti126  1  0.69641580  0.89533858  0.64391890  1
  Ti  Ti127  1  0.79946902  0.19009121  0.26474857  1
  Ti  Ti128  1  0.00965269  0.60853673  0.50205124  1
  Ti  Ti129  1  0.00392969  -0.00487640  0.01024531  1
  Ti  Ti130  1  0.21058085  0.81393512  0.74658247  1
  Ti  Ti131  1  -0.00206984  0.00455378  0.73315633  1
  Ti  Ti132  1  0.49302498  0.52306834  0.10720106  1
  Ti  Ti133  1  0.28550134  0.09224482  0.88256553  1
  Ti  Ti134  1  0.29487394  0.29789146  0.87811743  1
  Ti  Ti135  1  0.29180170  0.68736227  0.38531438  1
  Ti  Ti136  1  0.10208826  0.10163553  0.12652969  1
  Ti  Ti137  1  0.80532455  0.59838009  -0.01425570  1
  Ti  Ti138  1  -0.00962932  0.79115007  0.48519274  1
  Ti  Ti139  1  0.49783139  0.89284645  0.63712849  1
  Ti  Ti140  1  0.09197430  0.29342273  0.87127300  1
  Ti  Ti141  1  0.40097969  -0.01021768  0.50582234  1
  Ti  Ti142  1  0.59856963  0.40508669  0.24385676  1
  Ti  Ti143  1  0.80060062  0.39359515  -0.00075339  1
  Ti  Ti144  1  0.30320768  0.30470727  0.63022545  1
  Ti  Ti145  1  0.00000615  0.40279600  0.74415092  1
  Ti  Ti146  1  0.69609254  0.11508560  0.63153930  1
  Ti  Ti147  1  0.19593197  -0.00027479  0.51169487  1
  Ti  Ti148  1  0.10282962  0.50037985  0.61632011  1
  Ti  Ti149  1  0.58700748  0.59660191  0.24232094  1
  Ti  Ti150  1  0.32075004  0.71923341  0.86501886  1
  Ti  Ti151  1  0.19648907  0.20031113  0.00546353  1
  Ti  Ti152  1  0.38583400  0.19368254  -0.00576866  1
  Ti  Ti153  1  0.20413637  0.80743323  -0.01435000  1
  Ti  Ti154  1  0.19209600  -0.00447220  0.00828867  1
  Ti  Ti155  1  0.09419827  0.30781762  0.61597281  1
  Ti  Ti156  1  0.89768228  0.69902202  0.86045141  1
  Ti  Ti157  1  0.79126886  0.40408039  0.72697174  1
  Ti  Ti158  1  0.29278336  0.89572272  0.11936515  1
  Ti  Ti159  1  0.30058820  0.30011981  0.35785026  1
  Mo  Mo160  1  0.49538274  0.89201571  0.38161138  1
  Mo  Mo161  1  0.60555002  0.40005276  0.74075176  1
  Mo  Mo162  1  0.20253011  0.60485315  0.52351754  1
  Mo  Mo163  1  0.50043797  0.69884415  0.85583338  1
  Mo  Mo164  1  0.89278528  0.09811419  0.63037540  1
  Mo  Mo165  1  0.60694289  0.20430583  0.49321750  1
  Mo  Mo166  1  0.20270525  0.39916786  0.51190854  1
  Mo  Mo167  1  0.19614680  0.19988733  0.23699347  1
  Mo  Mo168  1  0.69667663  0.89573772  0.37432071  1
  Mo  Mo169  1  0.80384381  0.79339301  0.76328361  1
  Mo  Mo170  1  0.39278463  0.80338094  0.73823465  1
  Mo  Mo171  1  0.28971556  0.90482419  0.88230173  1
  Mo  Mo172  1  0.29804906  0.90076675  0.60768318  1
  Mo  Mo173  1  0.80297727  0.80086453  0.48760893  1
  Mo  Mo174  1  0.69736907  0.29469002  0.63558298  1
  Mo  Mo175  1  0.39413841  0.19977413  0.25307192  1
  Mo  Mo176  1  0.10944484  0.71168769  0.85937408  1
  Mo  Mo177  1  0.40002505  0.60270397  0.75544173  1
  Mo  Mo178  1  0.39780684  0.80346324  -0.00998051  1
  Mo  Mo179  1  0.70436812  0.50417082  0.62624296  1
  Mo  Mo180  1  0.00618157  0.40470483  0.51632518  1
  Mo  Mo181  1  0.41062926  0.61541202  -0.02296930  1
  Mo  Mo182  1  0.10485518  0.69759858  0.38246096  1
  Mo  Mo183  1  0.89351165  0.10512229  0.39415926  1
  Mo  Mo184  1  -0.00043108  0.40294771  0.24690247  1
  Mo  Mo185  1  0.00482027  0.20292947  0.73726202  1
  Mo  Mo186  1  0.50249757  0.49998909  0.38113589  1
  Mo  Mo187  1  0.60018632  0.80159363  0.75652456  1
  Mo  Mo188  1  0.89776010  0.49901642  0.85066401  1
  Mo  Mo189  1  0.79729532  0.19920860  0.72987132  1
  Mo  Mo190  1  0.90903374  0.69555944  0.37961004  1
  Mo  Mo191  1  0.79456223  -0.00015351  0.72955306  1
  Mo  Mo192  1  0.79161892  0.19418884  0.50654715  1
  Mo  Mo193  1  0.50239739  0.69592862  0.13718107  1
  Mo  Mo194  1  0.69944875  0.10783453  0.38977504  1
  Mo  Mo195  1  0.20702406  0.61346206  0.24316756  1
  Mo  Mo196  1  0.89994271  0.89469316  0.38528225  1
  Mo  Mo197  1  -0.00224083  0.20057451  0.50612679  1
  Mo  Mo198  1  0.10496931  0.89665117  0.11370738  1
  Mo  Mo199  1  0.59723575  0.19331786  0.76419916  1
