# generated using pymatgen
data_HfZrTaTiMo
_symmetry_space_group_name_H-M   'P 1'
_cell_length_a   15.93100573
_cell_length_b   15.92216167
_cell_length_c   15.20487191
_cell_angle_alpha   89.99617932
_cell_angle_beta   90.03724945
_cell_angle_gamma   90.03939341
_symmetry_Int_Tables_number   1
_chemical_formula_structural   HfZrTaTiMo
_chemical_formula_sum   'Hf40 Zr40 Ta40 Ti40 Mo40'
_cell_volume   3856.80599767
_cell_formula_units_Z   40
loop_
 _symmetry_equiv_pos_site_id
 _symmetry_equiv_pos_as_xyz
  1  'x, y, z'
loop_
 _atom_site_type_symbol
 _atom_site_label
 _atom_site_symmetry_multiplicity
 _atom_site_fract_x
 _atom_site_fract_y
 _atom_site_fract_z
 _atom_site_occupancy
  Hf  Hf0  1  0.10273437  0.69576390  0.12388220  1
  Hf  Hf1  1  0.09819568  0.90531178  0.10896313  1
  Hf  Hf2  1  0.68851113  0.70829854  0.86952638  1
  Hf  Hf3  1  0.71563583  0.09766132  0.13155340  1
  Hf  Hf4  1  0.40189556  0.40915228  -0.00247313  1
  Hf  Hf5  1  0.59716465  0.39943595  0.75082277  1
  Hf  Hf6  1  0.30106708  0.49813835  0.13749214  1
  Hf  Hf7  1  0.79829552  0.60099516  0.50910724  1
  Hf  Hf8  1  0.30211298  0.90398502  0.87774889  1
  Hf  Hf9  1  -0.00289926  0.39932001  0.23019098  1
  Hf  Hf10  1  0.40238112  0.60750953  -0.00511191  1
  Hf  Hf11  1  0.32092317  0.70478814  0.14991217  1
  Hf  Hf12  1  0.30557574  0.70122209  0.62629354  1
  Hf  Hf13  1  0.69523816  0.50753420  0.63847875  1
  Hf  Hf14  1  0.10634287  0.90077635  0.88431194  1
  Hf  Hf15  1  0.80593847  0.21299176  0.50186723  1
  Hf  Hf16  1  0.00111414  0.79146359  -0.00688164  1
  Hf  Hf17  1  0.89606452  0.10566957  0.63792763  1
  Hf  Hf18  1  0.19379719  0.80386285  0.25975367  1
  Hf  Hf19  1  0.09784664  0.67948027  0.86196531  1
  Hf  Hf20  1  0.09902388  0.09026371  0.87788547  1
  Hf  Hf21  1  0.58855273  0.59793628  -0.00309399  1
  Hf  Hf22  1  -0.01238061  0.59026294  0.52339716  1
  Hf  Hf23  1  0.19879372  0.80854079  0.74007440  1
  Hf  Hf24  1  0.69541227  0.71248914  0.63147358  1
  Hf  Hf25  1  0.00108492  -0.00663950  0.74100621  1
  Hf  Hf26  1  0.19346909  0.59737712  0.50030986  1
  Hf  Hf27  1  0.60307813  0.00155179  0.25333347  1
  Hf  Hf28  1  -0.01149524  0.79051956  0.51070871  1
  Hf  Hf29  1  0.58922462  0.79776346  0.01958262  1
  Hf  Hf30  1  0.90641661  0.30767683  0.36832555  1
  Hf  Hf31  1  0.08282644  0.69945926  0.37499397  1
  Hf  Hf32  1  0.70477016  0.30760714  0.36545450  1
  Hf  Hf33  1  0.30740918  0.69905575  0.84974140  1
  Hf  Hf34  1  0.39725167  0.39637873  0.27470630  1
  Hf  Hf35  1  0.68865483  0.48322803  0.11408129  1
  Hf  Hf36  1  0.30797774  0.30536994  0.62428865  1
  Hf  Hf37  1  0.79887490  0.38995072  -0.01888093  1
  Hf  Hf38  1  0.60491162  0.40185144  0.49996773  1
  Hf  Hf39  1  0.69926724  0.09815977  0.61387174  1
  Zr  Zr40  1  0.90998517  0.10925697  0.36733484  1
  Zr  Zr41  1  0.79319380  0.82095405  0.75896891  1
  Zr  Zr42  1  -0.01193810  0.19173166  -0.00467359  1
  Zr  Zr43  1  0.88732355  0.50003040  0.36667511  1
  Zr  Zr44  1  0.51816714  0.32121983  0.13519739  1
  Zr  Zr45  1  0.70515939  0.90995024  0.90456839  1
  Zr  Zr46  1  0.40966487  -0.00022031  0.00990992  1
  Zr  Zr47  1  0.79865142  0.20199669  -0.00919660  1
  Zr  Zr48  1  0.00058596  0.00722524  0.50704923  1
  Zr  Zr49  1  0.49312114  0.70233304  0.36600751  1
  Zr  Zr50  1  0.60869757  0.80243044  0.25235552  1
  Zr  Zr51  1  0.87825450  0.90114344  0.61286567  1
  Zr  Zr52  1  0.20646612  0.59756042  -0.00156772  1
  Zr  Zr53  1  0.79965598  0.79793294  0.25833338  1
  Zr  Zr54  1  -0.00752328  0.39501392  0.53035605  1
  Zr  Zr55  1  0.40750512  -0.00340232  0.73445094  1
  Zr  Zr56  1  0.19843914  0.38688113  0.26294245  1
  Zr  Zr57  1  0.29267838  0.10245731  0.12897085  1
  Zr  Zr58  1  0.20743316  0.40215000  0.49351222  1
  Zr  Zr59  1  0.38942435  0.58843058  0.48326154  1
  Zr  Zr60  1  0.49935143  0.29736944  0.87412768  1
  Zr  Zr61  1  0.52051984  0.10157417  0.86697509  1
  Zr  Zr62  1  0.19756270  0.39932302  -0.01586127  1
  Zr  Zr63  1  0.10596320  0.29190786  0.11529911  1
  Zr  Zr64  1  0.18577514  0.00864292  0.25012671  1
  Zr  Zr65  1  0.50987761  0.89040900  0.86460606  1
  Zr  Zr66  1  0.70910317  0.69880906  0.11459722  1
  Zr  Zr67  1  0.49626813  0.70027236  0.62626751  1
  Zr  Zr68  1  0.19843605  0.59215664  0.26504716  1
  Zr  Zr69  1  0.50764587  0.89676154  0.61066962  1
  Zr  Zr70  1  0.40802919  0.20212067  0.01501798  1
  Zr  Zr71  1  0.87803695  0.90029625  0.10881185  1
  Zr  Zr72  1  0.41867666  0.19674258  0.49042639  1
  Zr  Zr73  1  0.48145173  0.88789794  0.14864428  1
  Zr  Zr74  1  0.07943590  0.49133696  0.37735835  1
  Zr  Zr75  1  0.19529421  0.20297230  0.49656537  1
  Zr  Zr76  1  0.79690873  0.19556945  0.76910628  1
  Zr  Zr77  1  0.30668129  0.09904825  0.87133830  1
  Zr  Zr78  1  0.30246660  0.09868765  0.61538852  1
  Zr  Zr79  1  0.29859667  0.90742771  0.38574966  1
  Ta  Ta80  1  -0.00131223  0.39821826  0.75502120  1
  Ta  Ta81  1  0.70034478  0.29781747  0.63303888  1
  Ta  Ta82  1  0.50670120  0.29780588  0.62027008  1
  Ta  Ta83  1  0.40287209  0.20235847  0.25756034  1
  Ta  Ta84  1  0.89164648  0.69648349  0.64834179  1
  Ta  Ta85  1  0.20254826  0.19840352  -0.01426205  1
  Ta  Ta86  1  0.29482979  0.89812165  0.12464997  1
  Ta  Ta87  1  0.19886927  0.19992081  0.75530957  1
  Ta  Ta88  1  0.89883379  0.69487229  0.10767920  1
  Ta  Ta89  1  0.60576875  0.20129859  0.02123783  1
  Ta  Ta90  1  0.89619298  0.50069695  0.10304182  1
  Ta  Ta91  1  0.30278030  0.29870321  0.86519663  1
  Ta  Ta92  1  0.21314403  0.79273696  -0.00022630  1
  Ta  Ta93  1  -0.01103229  0.60021828  0.23160962  1
  Ta  Ta94  1  0.08972298  0.90279482  0.38448891  1
  Ta  Ta95  1  0.09759788  0.69753797  0.63417371  1
  Ta  Ta96  1  0.30198206  0.50047077  0.63865218  1
  Ta  Ta97  1  0.49593595  0.51043539  0.14263613  1
  Ta  Ta98  1  0.19598719  0.39674918  0.75563404  1
  Ta  Ta99  1  0.29909753  0.50270610  0.85337819  1
  Ta  Ta100  1  0.90044723  0.89550221  0.37939325  1
  Ta  Ta101  1  0.79912234  -0.00307916  0.26391303  1
  Ta  Ta102  1  0.59943942  0.00609992  0.02807221  1
  Ta  Ta103  1  -0.00666101  -0.00341506  0.24000935  1
  Ta  Ta104  1  0.70052981  0.90303568  0.39625131  1
  Ta  Ta105  1  0.30110706  0.10192899  0.37759501  1
  Ta  Ta106  1  0.80325502  0.40515732  0.52285621  1
  Ta  Ta107  1  0.49090692  0.49582876  0.62099800  1
  Ta  Ta108  1  -0.00169911  0.80209207  0.74829540  1
  Ta  Ta109  1  -0.00657002  0.80273907  0.24369692  1
  Ta  Ta110  1  0.79898961  0.59685090  -0.01711309  1
  Ta  Ta111  1  0.40171132  0.79131699  -0.00638202  1
  Ta  Ta112  1  0.60682596  0.59771005  0.25037188  1
  Ta  Ta113  1  0.20044485  -0.00138543  0.73189248  1
  Ta  Ta114  1  0.91633861  0.50373628  0.87903075  1
  Ta  Ta115  1  -0.00059139  0.20765554  0.52020347  1
  Ta  Ta116  1  0.90039703  0.69862664  0.87075077  1
  Ta  Ta117  1  0.62489028  -0.00378508  0.74483399  1
  Ta  Ta118  1  0.19681113  0.79510677  0.49699657  1
  Ta  Ta119  1  0.90772045  0.91004581  0.88510892  1
  Ti  Ti120  1  0.09160435  0.29791259  0.87288558  1
  Ti  Ti121  1  0.60191470  0.20156762  0.24241040  1
  Ti  Ti122  1  0.08829381  0.28869254  0.37499215  1
  Ti  Ti123  1  0.10275242  0.50242240  0.64662371  1
  Ti  Ti124  1  0.79659976  0.40127399  0.23285073  1
  Ti  Ti125  1  0.68109357  0.28938796  0.86944863  1
  Ti  Ti126  1  0.51410786  0.29625289  0.37765804  1
  Ti  Ti127  1  0.80348354  0.39792377  0.75857153  1
  Ti  Ti128  1  0.58912498  0.60401260  0.75633035  1
  Ti  Ti129  1  0.40913923  0.00701037  0.49684233  1
  Ti  Ti130  1  0.40950148  0.19866276  0.73883864  1
  Ti  Ti131  1  0.10553611  0.89956216  0.60939924  1
  Ti  Ti132  1  0.01179868  0.18815973  0.23248424  1
  Ti  Ti133  1  0.30561299  0.89554642  0.60693987  1
  Ti  Ti134  1  0.40141390  0.39917871  0.75029092  1
  Ti  Ti135  1  0.58853302  0.02282869  0.48537726  1
  Ti  Ti136  1  0.69211060  0.49636273  0.87537207  1
  Ti  Ti137  1  0.60012432  0.59890124  0.49679370  1
  Ti  Ti138  1  0.81537409  0.02357804  -0.01047684  1
  Ti  Ti139  1  0.10084521  0.29614216  0.64053881  1
  Ti  Ti140  1  0.49740566  0.90260356  0.37971591  1
  Ti  Ti141  1  0.10340067  0.10467160  0.62987916  1
  Ti  Ti142  1  0.80659566  0.20365637  0.24469530  1
  Ti  Ti143  1  0.89599753  0.29925671  0.12079928  1
  Ti  Ti144  1  0.20336760  0.20163765  0.26259870  1
  Ti  Ti145  1  0.70503606  0.69463868  0.37919703  1
  Ti  Ti146  1  0.59962425  0.79363974  0.48809303  1
  Ti  Ti147  1  0.09086113  0.49792032  0.10631486  1
  Ti  Ti148  1  0.79941397  0.59645458  0.23769086  1
  Ti  Ti149  1  0.49430294  0.50411746  0.86525110  1
  Ti  Ti150  1  0.70219008  0.50165806  0.37077194  1
  Ti  Ti151  1  0.40045080  0.00892658  0.25756770  1
  Ti  Ti152  1  0.69596273  0.11289651  0.37448334  1
  Ti  Ti153  1  0.09939564  0.09739959  0.38365273  1
  Ti  Ti154  1  0.69690590  0.90368428  0.60006832  1
  Ti  Ti155  1  0.29959366  0.30056739  0.12400720  1
  Ti  Ti156  1  0.80191829  0.01041842  0.48043541  1
  Ti  Ti157  1  0.89579592  0.69481912  0.37032563  1
  Ti  Ti158  1  0.50690019  0.49822209  0.37284009  1
  Ti  Ti159  1  0.79992003  0.59452022  0.76458913  1
  Mo  Mo160  1  0.39397617  0.80093724  0.48587180  1
  Mo  Mo161  1  0.50414597  0.10094067  0.35902642  1
  Mo  Mo162  1  0.60418802  0.40844905  0.26926723  1
  Mo  Mo163  1  0.39172497  0.80616348  0.27186650  1
  Mo  Mo164  1  -0.00040003  0.59496443  0.00551023  1
  Mo  Mo165  1  0.40928261  0.39863185  0.49421296  1
  Mo  Mo166  1  -0.00394615  0.59755820  0.74183795  1
  Mo  Mo167  1  0.19993704  0.59587376  0.73792163  1
  Mo  Mo168  1  0.40255632  0.59548665  0.26617337  1
  Mo  Mo169  1  0.59923713  0.19657651  0.73401536  1
  Mo  Mo170  1  0.19668733  -0.00082136  0.50748569  1
  Mo  Mo171  1  0.79918162  0.00434725  0.76722840  1
  Mo  Mo172  1  0.30505430  0.29232453  0.38340042  1
  Mo  Mo173  1  0.90811227  0.30280227  0.86342629  1
  Mo  Mo174  1  0.60304087  0.81048366  0.73830200  1
  Mo  Mo175  1  0.70400449  0.90708521  0.11635674  1
  Mo  Mo176  1  0.29219172  0.70433187  0.37764775  1
  Mo  Mo177  1  0.29958185  0.49707535  0.37104641  1
  Mo  Mo178  1  -0.00450080  0.39550086  -0.00795014  1
  Mo  Mo179  1  0.09946668  0.49371780  0.86683869  1
  Mo  Mo180  1  0.49946465  0.69071346  0.14539760  1
  Mo  Mo181  1  0.40675002  0.59167056  0.74811148  1
  Mo  Mo182  1  0.00879614  0.20199845  0.74660402  1
  Mo  Mo183  1  0.40254581  0.80174033  0.75306209  1
  Mo  Mo184  1  0.60771231  0.20393533  0.50107355  1
  Mo  Mo185  1  0.79465296  0.79226538  0.48880675  1
  Mo  Mo186  1  0.90137399  0.10015168  0.14327778  1
  Mo  Mo187  1  0.69144067  0.09898483  0.89049088  1
  Mo  Mo188  1  -0.00353305  0.00302854  0.00909729  1
  Mo  Mo189  1  0.09835716  0.09789264  0.10765933  1
  Mo  Mo190  1  0.80246257  0.79214711  -0.01756367  1
  Mo  Mo191  1  0.49911124  0.70323208  0.85653255  1
  Mo  Mo192  1  0.20297241  0.00039220  0.00809048  1
  Mo  Mo193  1  0.51238254  0.10062748  0.63284345  1
  Mo  Mo194  1  0.70616156  0.29980239  0.13592979  1
  Mo  Mo195  1  0.89626100  0.30226657  0.64624737  1
  Mo  Mo196  1  0.88957631  0.50071813  0.65579392  1
  Mo  Mo197  1  0.90524955  0.09396385  0.85761794  1
  Mo  Mo198  1  0.50381769  0.10591684  0.14483216  1
  Mo  Mo199  1  0.59890651  0.40235127  -0.01888699  1
