# generated using pymatgen
data_HfZrTaTiMo
_symmetry_space_group_name_H-M   'P 1'
_cell_length_a   15.91855837
_cell_length_b   15.91976720
_cell_length_c   15.20243613
_cell_angle_alpha   89.94246895
_cell_angle_beta   89.99785608
_cell_angle_gamma   89.92444788
_symmetry_Int_Tables_number   1
_chemical_formula_structural   HfZrTaTiMo
_chemical_formula_sum   'Hf40 Zr40 Ta40 Ti40 Mo40'
_cell_volume   3852.59217106
_cell_formula_units_Z   40
loop_
 _symmetry_equiv_pos_site_id
 _symmetry_equiv_pos_as_xyz
  1  'x, y, z'
loop_
 _atom_site_type_symbol
 _atom_site_label
 _atom_site_symmetry_multiplicity
 _atom_site_fract_x
 _atom_site_fract_y
 _atom_site_fract_z
 _atom_site_occupancy
  Hf  Hf0  1  0.89629756  0.69974096  0.62922732  1
  Hf  Hf1  1  0.90111988  0.70198252  0.12630024  1
  Hf  Hf2  1  0.29752652  0.69004266  0.61837852  1
  Hf  Hf3  1  0.69116404  0.10987764  0.86951068  1
  Hf  Hf4  1  0.59766065  0.60161046  0.49368147  1
  Hf  Hf5  1  0.91430169  0.10319119  0.63330690  1
  Hf  Hf6  1  0.30297481  0.69554103  0.37476535  1
  Hf  Hf7  1  0.69256598  0.30234224  0.38539557  1
  Hf  Hf8  1  0.80049086  -0.00625496  0.74602785  1
  Hf  Hf9  1  0.40954273  0.80559569  0.26563367  1
  Hf  Hf10  1  0.09910479  0.49754474  0.63517458  1
  Hf  Hf11  1  0.59143293  0.00942811  0.00068109  1
  Hf  Hf12  1  0.89688534  0.91044336  0.34737991  1
  Hf  Hf13  1  0.58771779  0.58799366  -0.00760407  1
  Hf  Hf14  1  0.10246602  0.10985477  0.88190859  1
  Hf  Hf15  1  0.39100690  0.21031525  0.00043762  1
  Hf  Hf16  1  0.30170266  0.10287427  0.86861234  1
  Hf  Hf17  1  0.70347739  0.49439830  0.37754937  1
  Hf  Hf18  1  0.09355718  0.91066758  0.61984447  1
  Hf  Hf19  1  0.59926516  0.80427863  0.26309063  1
  Hf  Hf20  1  0.70096080  0.69930130  0.11774088  1
  Hf  Hf21  1  0.41417030  0.80127770  0.49477508  1
  Hf  Hf22  1  0.49115376  0.10657279  0.37081485  1
  Hf  Hf23  1  0.20371935  0.38797705  0.24706770  1
  Hf  Hf24  1  0.89963218  0.10503256  0.87610082  1
  Hf  Hf25  1  0.81269260  0.40657955  0.50422047  1
  Hf  Hf26  1  0.20340825  0.00551188  0.24828925  1
  Hf  Hf27  1  0.21247956  0.39333302  0.00056301  1
  Hf  Hf28  1  0.91421518  0.10619157  0.35422176  1
  Hf  Hf29  1  0.79797221  0.00714571  0.00724832  1
  Hf  Hf30  1  0.70547886  0.69500712  0.62552922  1
  Hf  Hf31  1  0.59787648  0.80687671  0.75023933  1
  Hf  Hf32  1  0.30173748  0.10625216  0.61419584  1
  Hf  Hf33  1  0.89877122  0.10460778  0.13432060  1
  Hf  Hf34  1  0.00431677  0.39568010  -0.00557206  1
  Hf  Hf35  1  0.49615268  0.10637750  0.13415721  1
  Hf  Hf36  1  0.49180087  0.31135514  0.13047561  1
  Hf  Hf37  1  0.22759215  0.60001851  -0.00792985  1
  Hf  Hf38  1  0.29485360  0.89780980  0.88266999  1
  Hf  Hf39  1  0.90310054  0.50592826  0.64860217  1
  Zr  Zr40  1  0.78898282  0.21217448  0.23978616  1
  Zr  Zr41  1  -0.01513207  0.81480060  0.49855839  1
  Zr  Zr42  1  0.38412916  0.78408579  0.00250986  1
  Zr  Zr43  1  0.19326361  0.80175207  0.49149707  1
  Zr  Zr44  1  0.79539353  0.39250792  -0.00660411  1
  Zr  Zr45  1  0.40101487  0.58316140  0.50363448  1
  Zr  Zr46  1  0.48084316  0.68445003  0.85890870  1
  Zr  Zr47  1  0.19541321  0.59004724  0.26001391  1
  Zr  Zr48  1  0.01780733  0.38432458  0.77517210  1
  Zr  Zr49  1  0.59924361  0.60544152  0.26373587  1
  Zr  Zr50  1  0.90853354  0.30358591  0.63729386  1
  Zr  Zr51  1  0.60041770  -0.00064821  0.74091387  1
  Zr  Zr52  1  0.69763193  0.29975324  0.63348794  1
  Zr  Zr53  1  0.20244244  0.00828825  0.73813629  1
  Zr  Zr54  1  0.90723409  0.70232530  0.36358174  1
  Zr  Zr55  1  0.09160357  0.69149646  0.62306428  1
  Zr  Zr56  1  0.70377503  0.50482808  0.64032833  1
  Zr  Zr57  1  0.20332259  0.40113629  0.51069947  1
  Zr  Zr58  1  0.59969236  0.19034712  0.50896871  1
  Zr  Zr59  1  0.70412311  0.08452806  0.36203511  1
  Zr  Zr60  1  0.70317971  0.69705409  0.86774752  1
  Zr  Zr61  1  0.19933534  0.79977030  0.74029106  1
  Zr  Zr62  1  0.69495462  0.49634880  0.12792878  1
  Zr  Zr63  1  0.90581005  0.70698350  0.88179486  1
  Zr  Zr64  1  0.90167401  0.89756664  0.89092984  1
  Zr  Zr65  1  0.09135017  0.30232140  0.37172477  1
  Zr  Zr66  1  0.80406488  0.19371708  0.50284098  1
  Zr  Zr67  1  0.59105519  0.79435585  -0.00383576  1
  Zr  Zr68  1  0.90683395  0.30700385  0.36395548  1
  Zr  Zr69  1  0.01458231  0.60063970  -0.00129852  1
  Zr  Zr70  1  0.30040036  0.69356554  0.14663428  1
  Zr  Zr71  1  0.81283839  -0.00705281  0.50537765  1
  Zr  Zr72  1  0.90201631  0.50013571  0.12850019  1
  Zr  Zr73  1  0.30919387  0.29241219  0.39188072  1
  Zr  Zr74  1  0.20057766  0.00126610  0.02484778  1
  Zr  Zr75  1  0.39719673  0.80841779  0.73467208  1
  Zr  Zr76  1  0.70512430  0.88725549  0.60755540  1
  Zr  Zr77  1  0.48968522  0.90960623  0.88346808  1
  Zr  Zr78  1  0.10039097  0.90325159  0.88019645  1
  Zr  Zr79  1  0.59396075  0.39287483  -0.01093714  1
  Ta  Ta80  1  0.19093822  0.19581275  0.50516172  1
  Ta  Ta81  1  0.00199754  0.00197214  0.75081987  1
  Ta  Ta82  1  0.19335630  0.58954378  0.48500991  1
  Ta  Ta83  1  0.11074715  0.49887836  0.12016332  1
  Ta  Ta84  1  0.21074147  0.59292708  0.76420035  1
  Ta  Ta85  1  0.58579114  0.40444179  0.51207050  1
  Ta  Ta86  1  0.30119783  0.90727103  0.60128931  1
  Ta  Ta87  1  0.81067651  0.60050783  0.48747675  1
  Ta  Ta88  1  0.49148716  0.29810266  0.85648208  1
  Ta  Ta89  1  0.59442746  -0.00978334  0.24929397  1
  Ta  Ta90  1  0.49543094  0.48657785  0.36890753  1
  Ta  Ta91  1  0.49929827  0.10183379  0.63026144  1
  Ta  Ta92  1  0.89635117  0.50055650  0.86645343  1
  Ta  Ta93  1  0.89951466  0.90020367  0.13256443  1
  Ta  Ta94  1  0.30911510  0.48712410  0.36797648  1
  Ta  Ta95  1  0.49396281  0.30322314  0.38358362  1
  Ta  Ta96  1  0.19073021  0.00792727  0.48784934  1
  Ta  Ta97  1  0.09476520  0.70243984  0.36659889  1
  Ta  Ta98  1  0.30238198  0.91003580  0.37995959  1
  Ta  Ta99  1  0.01412364  0.80733318  0.02116339  1
  Ta  Ta100  1  0.69015858  0.10274180  0.12907451  1
  Ta  Ta101  1  0.79108862  0.80354773  0.24840594  1
  Ta  Ta102  1  0.80027874  0.60115002  0.26011000  1
  Ta  Ta103  1  0.39180994  0.00785098  0.01826727  1
  Ta  Ta104  1  0.49439914  0.89699254  0.12202413  1
  Ta  Ta105  1  0.69752372  0.49662940  0.85489288  1
  Ta  Ta106  1  0.31705519  0.49214098  0.13839817  1
  Ta  Ta107  1  0.91506280  0.49430920  0.36181412  1
  Ta  Ta108  1  0.50832612  0.69790883  0.62781995  1
  Ta  Ta109  1  0.79837455  0.59519164  -0.01044426  1
  Ta  Ta110  1  0.70549386  0.89622025  0.89115843  1
  Ta  Ta111  1  0.49077214  0.49369675  0.84968776  1
  Ta  Ta112  1  0.00449556  0.00489209  0.01819512  1
  Ta  Ta113  1  0.29932307  0.10275759  0.37913460  1
  Ta  Ta114  1  0.49373064  0.69034164  0.13291888  1
  Ta  Ta115  1  0.49194975  0.10996436  0.86353954  1
  Ta  Ta116  1  0.78915763  0.20869446  0.00793584  1
  Ta  Ta117  1  -0.00319829  0.20637947  0.00398464  1
  Ta  Ta118  1  0.11339544  0.70961333  0.88230728  1
  Ta  Ta119  1  0.69774592  0.90041189  0.11885466  1
  Ti  Ti120  1  0.00648673  0.01174354  0.49142930  1
  Ti  Ti121  1  0.90347877  0.30402073  0.13158032  1
  Ti  Ti122  1  -0.00114510  0.80652866  0.74917273  1
  Ti  Ti123  1  0.59052876  0.39297918  0.74226742  1
  Ti  Ti124  1  0.29257408  0.30468622  0.85859836  1
  Ti  Ti125  1  0.11104452  0.71164450  0.13788107  1
  Ti  Ti126  1  0.09734138  0.29772913  0.12616549  1
  Ti  Ti127  1  0.48585296  0.29652176  0.62112979  1
  Ti  Ti128  1  0.59741141  0.80375649  0.48456300  1
  Ti  Ti129  1  0.69343270  0.29731677  0.85691163  1
  Ti  Ti130  1  0.00586794  0.19829899  0.49762992  1
  Ti  Ti131  1  0.60132887  0.39334981  0.25197400  1
  Ti  Ti132  1  0.09618253  0.90050444  0.36035156  1
  Ti  Ti133  1  0.39830114  0.41090118  -0.01168031  1
  Ti  Ti134  1  0.18810114  0.21306112  0.73958537  1
  Ti  Ti135  1  0.80481458  0.80565992  0.75126788  1
  Ti  Ti136  1  0.01879201  0.00754136  0.23291817  1
  Ti  Ti137  1  0.59512355  0.20602209  0.25219881  1
  Ti  Ti138  1  0.59790962  -0.00549371  0.49935200  1
  Ti  Ti139  1  0.79377375  0.19505369  0.74291364  1
  Ti  Ti140  1  0.00232013  0.58532391  0.48962476  1
  Ti  Ti141  1  0.79736018  0.40164238  0.24520263  1
  Ti  Ti142  1  0.59558658  0.20801743  -0.00158521  1
  Ti  Ti143  1  0.70899785  0.70726337  0.38511209  1
  Ti  Ti144  1  0.19342163  0.19240409  0.24526867  1
  Ti  Ti145  1  0.39824038  -0.00113754  0.24610257  1
  Ti  Ti146  1  0.40195518  -0.00369743  0.73560773  1
  Ti  Ti147  1  0.49733926  0.50289108  0.63909338  1
  Ti  Ti148  1  0.38355256  0.40083202  0.73285181  1
  Ti  Ti149  1  0.49336825  0.50226965  0.14012674  1
  Ti  Ti150  1  0.89234369  0.29136520  0.86727056  1
  Ti  Ti151  1  0.09400122  0.29677740  0.62167225  1
  Ti  Ti152  1  0.20452178  0.20041992  0.01681927  1
  Ti  Ti153  1  0.11696683  0.49503309  0.87741766  1
  Ti  Ti154  1  0.38296742  0.20742153  0.24186497  1
  Ti  Ti155  1  0.29354581  0.88700978  0.13559339  1
  Ti  Ti156  1  0.39302556  0.20496901  0.74054081  1
  Ti  Ti157  1  0.40867171  0.00235557  0.49863505  1
  Ti  Ti158  1  0.01096885  0.60539102  0.77057957  1
  Ti  Ti159  1  0.00775101  0.59422326  0.24571861  1
  Mo  Mo160  1  0.19746936  0.79407145  0.00621116  1
  Mo  Mo161  1  0.00634928  0.19661213  0.76468866  1
  Mo  Mo162  1  0.70203146  0.89674947  0.38057379  1
  Mo  Mo163  1  0.69993897  0.09688051  0.63433030  1
  Mo  Mo164  1  0.50320295  0.91449045  0.38127881  1
  Mo  Mo165  1  0.20042455  0.80572140  0.27019372  1
  Mo  Mo166  1  0.00801696  0.20392974  0.23031746  1
  Mo  Mo167  1  0.29868064  0.30089591  0.12735315  1
  Mo  Mo168  1  0.58856385  0.20296547  0.74334305  1
  Mo  Mo169  1  0.09555793  0.49675103  0.37552539  1
  Mo  Mo170  1  0.80296686  0.80071544  0.01804038  1
  Mo  Mo171  1  0.78892200  -0.00268536  0.23366508  1
  Mo  Mo172  1  0.59680544  0.59695973  0.74690966  1
  Mo  Mo173  1  0.00499607  0.80320737  0.23857101  1
  Mo  Mo174  1  0.39995158  0.19682118  0.50900985  1
  Mo  Mo175  1  0.50472993  0.69429912  0.37870720  1
  Mo  Mo176  1  0.79977561  0.79711931  0.48509891  1
  Mo  Mo177  1  0.29837312  0.69611002  0.86368613  1
  Mo  Mo178  1  0.40432079  0.39238574  0.25222796  1
  Mo  Mo179  1  0.80010771  0.39386076  0.76442190  1
  Mo  Mo180  1  0.30322121  0.10546494  0.13834039  1
  Mo  Mo181  1  0.40643313  0.58433895  0.00794935  1
  Mo  Mo182  1  0.31269072  0.49478463  0.86029147  1
  Mo  Mo183  1  0.29626933  0.29726863  0.62730240  1
  Mo  Mo184  1  0.09981060  0.10240977  0.37273452  1
  Mo  Mo185  1  0.11072662  0.29118413  0.89183574  1
  Mo  Mo186  1  0.00066562  0.40545511  0.50745452  1
  Mo  Mo187  1  0.69000504  0.29747980  0.12705666  1
  Mo  Mo188  1  0.09972345  0.10900886  0.11783075  1
  Mo  Mo189  1  0.40595264  0.39781103  0.51822931  1
  Mo  Mo190  1  0.00744045  0.40551805  0.22742581  1
  Mo  Mo191  1  0.09702603  0.10869079  0.62067168  1
  Mo  Mo192  1  0.10292545  0.89682262  0.13705990  1
  Mo  Mo193  1  0.39603527  0.59651851  0.72860032  1
  Mo  Mo194  1  0.50049721  0.90371089  0.60578129  1
  Mo  Mo195  1  0.90663403  0.89821129  0.63386511  1
  Mo  Mo196  1  0.20353157  0.39445850  0.74834833  1
  Mo  Mo197  1  0.29416883  0.49814754  0.63438552  1
  Mo  Mo198  1  0.40519622  0.59396359  0.26230404  1
  Mo  Mo199  1  0.80547029  0.60374241  0.76625771  1
