# generated using pymatgen
data_HfZrTaTiMo
_symmetry_space_group_name_H-M   'P 1'
_cell_length_a   15.94197776
_cell_length_b   15.93458118
_cell_length_c   15.21385771
_cell_angle_alpha   89.95616359
_cell_angle_beta   89.98023661
_cell_angle_gamma   90.02485073
_symmetry_Int_Tables_number   1
_chemical_formula_structural   HfZrTaTiMo
_chemical_formula_sum   'Hf40 Zr40 Ta40 Ti40 Mo40'
_cell_volume   3864.75535864
_cell_formula_units_Z   40
loop_
 _symmetry_equiv_pos_site_id
 _symmetry_equiv_pos_as_xyz
  1  'x, y, z'
loop_
 _atom_site_type_symbol
 _atom_site_label
 _atom_site_symmetry_multiplicity
 _atom_site_fract_x
 _atom_site_fract_y
 _atom_site_fract_z
 _atom_site_occupancy
  Hf  Hf0  1  0.90592711  0.70093558  0.85921784  1
  Hf  Hf1  1  0.19320831  0.39550886  0.73512189  1
  Hf  Hf2  1  0.80186544  0.80460732  -0.01455703  1
  Hf  Hf3  1  0.69636428  0.90316953  0.38128199  1
  Hf  Hf4  1  0.71875865  0.90006843  0.12629812  1
  Hf  Hf5  1  0.60287227  0.79615499  0.51033464  1
  Hf  Hf6  1  0.19948781  0.40494351  0.00377552  1
  Hf  Hf7  1  0.29806386  0.30202063  0.38006314  1
  Hf  Hf8  1  0.70045859  0.10301940  0.87560923  1
  Hf  Hf9  1  0.00928572  0.58804442  0.50814295  1
  Hf  Hf10  1  0.39392292  0.40429159  0.00527481  1
  Hf  Hf11  1  0.28831467  0.90591764  0.12440531  1
  Hf  Hf12  1  0.40481737  0.80589159  0.24511666  1
  Hf  Hf13  1  0.10077757  0.29046963  0.12674388  1
  Hf  Hf14  1  0.71731808  0.28717963  0.60868056  1
  Hf  Hf15  1  0.69458858  0.29813722  0.88991071  1
  Hf  Hf16  1  0.38939677  0.60564726  -0.00679565  1
  Hf  Hf17  1  0.31148401  0.90556247  0.37517679  1
  Hf  Hf18  1  0.29781093  0.29892751  0.87176767  1
  Hf  Hf19  1  0.80756231  0.41323923  0.01020954  1
  Hf  Hf20  1  0.50614338  0.89674536  0.88450413  1
  Hf  Hf21  1  0.00391430  -0.00378489  0.26575312  1
  Hf  Hf22  1  0.19024502  0.41139132  0.50752804  1
  Hf  Hf23  1  0.10133315  0.70281386  0.13380660  1
  Hf  Hf24  1  0.09029840  0.90613528  0.86437613  1
  Hf  Hf25  1  0.90673883  0.50432905  0.85702685  1
  Hf  Hf26  1  -0.01331427  0.39737286  0.23285510  1
  Hf  Hf27  1  0.49866990  0.49166597  0.87126644  1
  Hf  Hf28  1  0.60720028  0.41244608  0.50523081  1
  Hf  Hf29  1  0.30074718  0.70121989  0.64268539  1
  Hf  Hf30  1  0.29044811  0.69824099  0.13369891  1
  Hf  Hf31  1  0.69991075  0.30185402  0.12209838  1
  Hf  Hf32  1  0.70604430  0.49716134  0.86796027  1
  Hf  Hf33  1  0.89799741  0.89772577  0.62301687  1
  Hf  Hf34  1  0.49361069  0.70497992  0.38145318  1
  Hf  Hf35  1  0.21048971  0.60731767  0.49096471  1
  Hf  Hf36  1  -0.00875647  0.59870114  0.25017569  1
  Hf  Hf37  1  0.00309594  0.41177400  0.01034979  1
  Hf  Hf38  1  0.60023233  0.38723243  0.73818938  1
  Hf  Hf39  1  0.90573007  0.29984435  0.87770328  1
  Zr  Zr40  1  0.50784580  0.50495770  0.12899025  1
  Zr  Zr41  1  0.71065107  0.31164940  0.37578351  1
  Zr  Zr42  1  0.89356353  0.11452206  0.62770623  1
  Zr  Zr43  1  0.09751362  0.10000997  0.86062857  1
  Zr  Zr44  1  0.89680827  0.47755243  0.38684977  1
  Zr  Zr45  1  0.59933867  -0.01028550  0.74631039  1
  Zr  Zr46  1  0.07254456  0.29925203  0.38060368  1
  Zr  Zr47  1  0.40083539  0.38566647  0.74276986  1
  Zr  Zr48  1  0.80688134  0.79872934  0.26112708  1
  Zr  Zr49  1  0.49373697  0.10004763  0.13018799  1
  Zr  Zr50  1  0.59986333  0.61235707  0.75581527  1
  Zr  Zr51  1  0.10797907  0.09124428  0.13060299  1
  Zr  Zr52  1  0.10613166  0.69741549  0.63330675  1
  Zr  Zr53  1  0.50708281  0.29976142  0.12119352  1
  Zr  Zr54  1  0.01290416  0.01414168  0.50325510  1
  Zr  Zr55  1  0.39757731  0.80739184  0.76438084  1
  Zr  Zr56  1  0.61003647  0.17705540  0.49534640  1
  Zr  Zr57  1  0.48906114  0.08458393  0.36705119  1
  Zr  Zr58  1  0.49110486  0.29317854  0.60092262  1
  Zr  Zr59  1  0.91027550  0.09980223  0.86036147  1
  Zr  Zr60  1  0.39987753  0.39777098  0.24674507  1
  Zr  Zr61  1  0.60476180  0.60632142  -0.00551043  1
  Zr  Zr62  1  0.19391374  0.79663305  -0.01449495  1
  Zr  Zr63  1  0.61026365  -0.00177345  0.00435911  1
  Zr  Zr64  1  0.90089683  0.70773279  0.12240563  1
  Zr  Zr65  1  0.49906437  0.49931214  0.37094462  1
  Zr  Zr66  1  0.89169056  0.69496429  0.63080201  1
  Zr  Zr67  1  0.90336263  0.69745909  0.38840282  1
  Zr  Zr68  1  0.60142193  0.79014407  0.24635953  1
  Zr  Zr69  1  0.39215665  0.19638368  -0.00532177  1
  Zr  Zr70  1  0.49902308  0.29576017  0.37863650  1
  Zr  Zr71  1  0.59549126  -0.01314053  0.23934433  1
  Zr  Zr72  1  0.60172534  0.60407607  0.50294584  1
  Zr  Zr73  1  0.18475706  0.18811452  0.50164355  1
  Zr  Zr74  1  0.71287744  0.50655790  0.64188631  1
  Zr  Zr75  1  0.90227169  0.09620973  0.13114439  1
  Zr  Zr76  1  0.50347107  0.10811480  0.87696749  1
  Zr  Zr77  1  0.20966690  0.00069293  0.49910132  1
  Zr  Zr78  1  0.78748720  0.01599879  0.50420261  1
  Zr  Zr79  1  0.20249465  0.19833613  0.73569216  1
  Ta  Ta80  1  0.48788625  0.51061023  0.63124983  1
  Ta  Ta81  1  0.70898102  0.10497056  0.13415728  1
  Ta  Ta82  1  0.29514523  0.50645700  0.35998610  1
  Ta  Ta83  1  0.49705710  0.09097715  0.62180575  1
  Ta  Ta84  1  0.81064682  -0.00441283  -0.01066000  1
  Ta  Ta85  1  0.79394827  0.59511137  0.25741045  1
  Ta  Ta86  1  0.19501837  0.19711984  0.26749027  1
  Ta  Ta87  1  0.60322519  0.20279765  0.25115053  1
  Ta  Ta88  1  0.81321922  0.20897092  0.25744465  1
  Ta  Ta89  1  0.78723090  0.59525839  0.48737338  1
  Ta  Ta90  1  0.49802964  0.90175329  0.39624286  1
  Ta  Ta91  1  0.29039652  0.50582224  0.13850454  1
  Ta  Ta92  1  0.49209872  0.89253124  0.10290690  1
  Ta  Ta93  1  0.38657239  0.00025132  -0.00685773  1
  Ta  Ta94  1  0.09525931  0.30221278  0.87785027  1
  Ta  Ta95  1  -0.00306031  -0.00850016  0.00465772  1
  Ta  Ta96  1  0.49226073  0.70251634  0.63160122  1
  Ta  Ta97  1  0.29512566  0.29058064  0.13648886  1
  Ta  Ta98  1  0.00285087  0.39616273  0.72916017  1
  Ta  Ta99  1  0.70485818  0.09999120  0.35296310  1
  Ta  Ta100  1  0.10516949  0.70054233  0.37327516  1
  Ta  Ta101  1  0.11347666  0.89699484  0.62686623  1
  Ta  Ta102  1  0.29863429  0.10129292  0.14370962  1
  Ta  Ta103  1  0.59943568  0.19798911  0.73565998  1
  Ta  Ta104  1  0.29532715  0.50494435  0.85887026  1
  Ta  Ta105  1  0.00444286  0.81030884  0.26584104  1
  Ta  Ta106  1  0.39233578  -0.00132842  0.75781032  1
  Ta  Ta107  1  0.09709129  0.50145319  0.85974444  1
  Ta  Ta108  1  0.19333371  0.39917828  0.24972610  1
  Ta  Ta109  1  0.79553021  -0.00253064  0.75082291  1
  Ta  Ta110  1  0.80208453  0.60665691  -0.00816991  1
  Ta  Ta111  1  0.20423526  0.80397738  0.76683572  1
  Ta  Ta112  1  0.38375808  0.17686004  0.49276494  1
  Ta  Ta113  1  0.09869609  0.49969761  0.36492002  1
  Ta  Ta114  1  0.30039049  0.51226791  0.64038420  1
  Ta  Ta115  1  0.01346239  0.80283219  0.49960412  1
  Ta  Ta116  1  0.00545331  0.19531290  0.00197302  1
  Ta  Ta117  1  0.20185833  0.19444533  -0.00639914  1
  Ta  Ta118  1  0.48836519  0.89858245  0.61651129  1
  Ta  Ta119  1  0.90220137  0.90285084  0.39762742  1
  Ti  Ti120  1  0.51153010  0.29607457  0.88920041  1
  Ti  Ti121  1  0.39025600  0.41566795  0.50252839  1
  Ti  Ti122  1  0.90405315  0.90379784  0.85625367  1
  Ti  Ti123  1  0.40390841  0.19427711  0.74673128  1
  Ti  Ti124  1  0.69721419  0.90101423  0.62224136  1
  Ti  Ti125  1  0.19667164  0.80488205  0.26722893  1
  Ti  Ti126  1  0.79646166  0.20467693  0.75448106  1
  Ti  Ti127  1  0.89850986  0.50022515  0.62758776  1
  Ti  Ti128  1  0.80981406  0.38827308  0.74137243  1
  Ti  Ti129  1  0.70392026  0.69477173  0.12505835  1
  Ti  Ti130  1  0.10620771  0.51097431  0.13567492  1
  Ti  Ti131  1  0.61167045  0.79547291  -0.00268417  1
  Ti  Ti132  1  0.39002096  0.79730157  -0.00778047  1
  Ti  Ti133  1  0.09520810  0.89659407  0.12502999  1
  Ti  Ti134  1  0.80512208  0.19133185  0.00029408  1
  Ti  Ti135  1  0.39822333  0.60789099  0.25097741  1
  Ti  Ti136  1  0.00512985  0.80353919  0.73952273  1
  Ti  Ti137  1  0.79463231  0.79290331  0.49794347  1
  Ti  Ti138  1  0.00610889  0.21394416  0.72918773  1
  Ti  Ti139  1  0.20134035  0.00685110  -0.01236051  1
  Ti  Ti140  1  0.69663401  0.50236023  0.12642943  1
  Ti  Ti141  1  0.38179913  0.79610700  0.50484098  1
  Ti  Ti142  1  -0.00310303  0.80573136  -0.00363803  1
  Ti  Ti143  1  -0.00010519  0.59908322  0.00478638  1
  Ti  Ti144  1  0.78157493  0.80642975  0.76155515  1
  Ti  Ti145  1  0.50133595  0.70504615  0.87268057  1
  Ti  Ti146  1  0.20916052  -0.00768044  0.74886901  1
  Ti  Ti147  1  0.30555126  0.08972433  0.63288930  1
  Ti  Ti148  1  0.09397683  0.68981010  0.86344665  1
  Ti  Ti149  1  0.80052558  0.40590120  0.23675550  1
  Ti  Ti150  1  0.60831434  0.59957395  0.25864698  1
  Ti  Ti151  1  0.89955557  0.29136707  0.11469704  1
  Ti  Ti152  1  0.70456580  0.70376502  0.63926373  1
  Ti  Ti153  1  0.81350828  -0.00277409  0.26032531  1
  Ti  Ti154  1  0.30135682  0.29668662  0.60949429  1
  Ti  Ti155  1  0.91132400  0.11814682  0.37826790  1
  Ti  Ti156  1  0.19396048  0.59717770  -0.01225010  1
  Ti  Ti157  1  0.19670897  -0.00172137  0.26867541  1
  Ti  Ti158  1  0.49953947  0.70164827  0.11709353  1
  Ti  Ti159  1  0.39467956  0.60231142  0.49750125  1
  Mo  Mo160  1  0.80311612  0.40581783  0.51304020  1
  Mo  Mo161  1  -0.00542658  0.20018521  0.23962386  1
  Mo  Mo162  1  0.61214231  0.40599226  0.25467527  1
  Mo  Mo163  1  0.80231371  0.60630564  0.76306085  1
  Mo  Mo164  1  0.70003112  0.49953445  0.36195423  1
  Mo  Mo165  1  0.69918958  0.69735025  0.37370388  1
  Mo  Mo166  1  0.30305087  0.70207253  0.36465840  1
  Mo  Mo167  1  0.10396795  0.89538066  0.38754915  1
  Mo  Mo168  1  0.59758620  -0.00518936  0.50923071  1
  Mo  Mo169  1  0.40114510  0.60222733  0.76245542  1
  Mo  Mo170  1  0.09543864  0.29837623  0.61121344  1
  Mo  Mo171  1  0.29885137  0.09754079  0.86110109  1
  Mo  Mo172  1  0.00283560  0.59599680  0.73623582  1
  Mo  Mo173  1  0.09604800  0.10158342  0.36218329  1
  Mo  Mo174  1  0.69937509  0.09906260  0.64257423  1
  Mo  Mo175  1  0.30055177  0.09712966  0.35773061  1
  Mo  Mo176  1  0.80399089  0.19852408  0.47771636  1
  Mo  Mo177  1  0.00103170  0.40225826  0.51984773  1
  Mo  Mo178  1  0.89782016  0.29744305  0.38963805  1
  Mo  Mo179  1  0.60299565  0.40182024  -0.00665941  1
  Mo  Mo180  1  0.89243181  0.51123320  0.12255917  1
  Mo  Mo181  1  0.20085578  0.79948816  0.49203609  1
  Mo  Mo182  1  0.70084833  0.70586213  0.86828303  1
  Mo  Mo183  1  0.90017467  0.30498861  0.60928731  1
  Mo  Mo184  1  0.19987863  0.60319782  0.76477687  1
  Mo  Mo185  1  0.39693008  -0.00927050  0.22953250  1
  Mo  Mo186  1  0.29869681  0.89582414  0.62565067  1
  Mo  Mo187  1  -0.00283752  0.20148408  0.51555138  1
  Mo  Mo188  1  0.10000484  0.09265112  0.64452128  1
  Mo  Mo189  1  0.29515328  0.90553414  0.88969430  1
  Mo  Mo190  1  0.70494987  0.90084483  0.87604257  1
  Mo  Mo191  1  0.39340815  0.19695925  0.26157131  1
  Mo  Mo192  1  0.00093826  -0.00719482  0.72762060  1
  Mo  Mo193  1  0.91073694  0.90210973  0.12418895  1
  Mo  Mo194  1  0.29551802  0.69724537  0.87351639  1
  Mo  Mo195  1  0.19718392  0.60283153  0.26146733  1
  Mo  Mo196  1  0.60805567  0.19741636  0.02009048  1
  Mo  Mo197  1  0.39745924  -0.00287220  0.51566707  1
  Mo  Mo198  1  0.59922622  0.80169511  0.73478403  1
  Mo  Mo199  1  0.10395760  0.50428655  0.63763121  1
