# generated using pymatgen
data_HfZrTaTiMo
_symmetry_space_group_name_H-M   'P 1'
_cell_length_a   15.92808567
_cell_length_b   15.92782128
_cell_length_c   15.21121328
_cell_angle_alpha   89.97608305
_cell_angle_beta   90.03768704
_cell_angle_gamma   90.00552581
_symmetry_Int_Tables_number   1
_chemical_formula_structural   HfZrTaTiMo
_chemical_formula_sum   'Hf40 Zr40 Ta40 Ti40 Mo40'
_cell_volume   3859.07908513
_cell_formula_units_Z   40
loop_
 _symmetry_equiv_pos_site_id
 _symmetry_equiv_pos_as_xyz
  1  'x, y, z'
loop_
 _atom_site_type_symbol
 _atom_site_label
 _atom_site_symmetry_multiplicity
 _atom_site_fract_x
 _atom_site_fract_y
 _atom_site_fract_z
 _atom_site_occupancy
  Hf  Hf0  1  0.29848420  0.69976234  0.12645058  1
  Hf  Hf1  1  0.19947126  0.60820930  0.51504369  1
  Hf  Hf2  1  0.59850919  0.59475119  0.49510196  1
  Hf  Hf3  1  0.20264140  0.41989558  0.00406202  1
  Hf  Hf4  1  0.90697543  0.48188062  0.86578936  1
  Hf  Hf5  1  0.20421675  0.00192752  -0.01848168  1
  Hf  Hf6  1  0.31090396  0.31099063  0.86588661  1
  Hf  Hf7  1  0.59967933  0.00259938  0.25146229  1
  Hf  Hf8  1  0.90901157  0.09270124  0.38351086  1
  Hf  Hf9  1  0.29309088  0.12072765  0.62952187  1
  Hf  Hf10  1  0.00289580  0.60454911  0.51101974  1
  Hf  Hf11  1  0.89857568  0.48965626  0.63068927  1
  Hf  Hf12  1  0.01084937  0.39096222  0.50481363  1
  Hf  Hf13  1  0.90970293  0.30632854  0.36118223  1
  Hf  Hf14  1  -0.01287847  0.19746186  0.76942502  1
  Hf  Hf15  1  0.88261357  0.10220975  0.89770722  1
  Hf  Hf16  1  0.80077407  0.79899471  0.74413469  1
  Hf  Hf17  1  0.69902117  0.90080072  0.88565792  1
  Hf  Hf18  1  0.80588400  -0.00720427  0.24821752  1
  Hf  Hf19  1  0.50104485  0.30508985  0.14963285  1
  Hf  Hf20  1  0.09183903  0.50116577  0.36947021  1
  Hf  Hf21  1  0.69873021  0.68923859  0.12613250  1
  Hf  Hf22  1  0.91832980  0.68515141  0.86142058  1
  Hf  Hf23  1  0.39835295  0.79449862  -0.01242827  1
  Hf  Hf24  1  0.59926796  0.39960729  0.48410422  1
  Hf  Hf25  1  0.40443650  -0.00396179  0.24632777  1
  Hf  Hf26  1  0.59663884  0.37233028  0.73807389  1
  Hf  Hf27  1  0.09890033  0.51963590  0.85281909  1
  Hf  Hf28  1  0.10584987  0.90155422  0.11720594  1
  Hf  Hf29  1  0.09292406  0.10434443  0.62571424  1
  Hf  Hf30  1  0.90129505  0.70704749  0.37982240  1
  Hf  Hf31  1  0.19875537  0.80123921  0.52378417  1
  Hf  Hf32  1  0.90611090  0.09648012  0.60883461  1
  Hf  Hf33  1  0.79431002  0.59372035  0.74477317  1
  Hf  Hf34  1  0.89352247  0.49671625  0.13928193  1
  Hf  Hf35  1  0.69965049  0.28808202  0.90240915  1
  Hf  Hf36  1  0.00174728  0.80702896  0.52308815  1
  Hf  Hf37  1  0.29147948  0.10433910  0.13128210  1
  Hf  Hf38  1  0.19902162  -0.00117054  0.25972218  1
  Hf  Hf39  1  0.69851266  0.89781759  0.10840656  1
  Zr  Zr40  1  0.90138135  0.70132189  0.12701656  1
  Zr  Zr41  1  0.80643079  0.00239290  0.74033477  1
  Zr  Zr42  1  0.50550267  0.91365540  0.86851106  1
  Zr  Zr43  1  0.68491795  0.68684892  0.87029186  1
  Zr  Zr44  1  0.39661439  0.59395243  -0.00938316  1
  Zr  Zr45  1  0.70132509  0.48348728  0.86915887  1
  Zr  Zr46  1  0.41492894  0.00690441  0.01126064  1
  Zr  Zr47  1  0.68571639  0.09061989  0.90056209  1
  Zr  Zr48  1  0.08761945  0.31617684  0.87029670  1
  Zr  Zr49  1  0.30133174  0.89698952  0.39262030  1
  Zr  Zr50  1  0.30640405  0.10728693  0.38817258  1
  Zr  Zr51  1  0.19504000  0.40026947  0.25634879  1
  Zr  Zr52  1  0.80292514  0.78151801  -0.00998895  1
  Zr  Zr53  1  0.39891428  0.20466047  0.01042048  1
  Zr  Zr54  1  0.01019086  0.59621375  0.00960836  1
  Zr  Zr55  1  0.19527274  0.20088395  -0.01487721  1
  Zr  Zr56  1  0.89545162  0.49907963  0.37008865  1
  Zr  Zr57  1  0.30256515  0.51028619  0.37470073  1
  Zr  Zr58  1  0.40171628  0.80378384  0.74174419  1
  Zr  Zr59  1  0.58907989  0.40178594  0.01181171  1
  Zr  Zr60  1  0.71105219  0.89232014  0.38474156  1
  Zr  Zr61  1  0.49440865  0.89233362  0.39095367  1
  Zr  Zr62  1  0.59432034  0.80224268  0.24698846  1
  Zr  Zr63  1  0.10230429  0.29834683  0.12912992  1
  Zr  Zr64  1  0.90682504  0.90065899  0.87607015  1
  Zr  Zr65  1  0.10686253  0.71099756  0.12537721  1
  Zr  Zr66  1  0.20569018  0.39786714  0.73821651  1
  Zr  Zr67  1  0.91105753  0.90154470  0.10939975  1
  Zr  Zr68  1  0.78003783  0.19787133  0.74889995  1
  Zr  Zr69  1  0.31073907  0.10775544  0.84986800  1
  Zr  Zr70  1  0.19895861  0.80560339  0.74090633  1
  Zr  Zr71  1  0.79870776  0.18997820  0.25248006  1
  Zr  Zr72  1  0.49605794  0.49602437  0.85282054  1
  Zr  Zr73  1  0.60447594  0.00818269  0.73286460  1
  Zr  Zr74  1  0.51011445  0.12621760  0.61049853  1
  Zr  Zr75  1  0.89609344  0.28950942  0.61228398  1
  Zr  Zr76  1  0.70466007  0.89499440  0.60918371  1
  Zr  Zr77  1  0.20341205  0.39698200  0.50238973  1
  Zr  Zr78  1  0.70382343  0.70312153  0.38170434  1
  Zr  Zr79  1  0.58974198  0.59526670  0.00673738  1
  Ta  Ta80  1  0.30170075  0.50742571  0.14173428  1
  Ta  Ta81  1  0.39377810  0.80222824  0.24444690  1
  Ta  Ta82  1  0.29553251  0.89368688  0.11896388  1
  Ta  Ta83  1  0.59312470  0.79072469  0.51068624  1
  Ta  Ta84  1  0.30950580  0.50279796  0.62813342  1
  Ta  Ta85  1  0.50217844  0.29425938  0.88125059  1
  Ta  Ta86  1  0.00209361  0.40479531  0.01761758  1
  Ta  Ta87  1  0.59843811  0.79325614  0.74219485  1
  Ta  Ta88  1  0.49197736  0.29101706  0.37608805  1
  Ta  Ta89  1  0.59618481  0.59699189  0.26397107  1
  Ta  Ta90  1  0.10024723  0.28837259  0.63755687  1
  Ta  Ta91  1  -0.00077261  0.20061029  0.00330556  1
  Ta  Ta92  1  0.58453567  0.19009500  0.02492857  1
  Ta  Ta93  1  0.00625095  0.19397868  0.25043511  1
  Ta  Ta94  1  0.40243920  0.60283968  0.50502109  1
  Ta  Ta95  1  0.70301257  0.09643988  0.11723458  1
  Ta  Ta96  1  0.10059996  0.10128471  0.38757541  1
  Ta  Ta97  1  0.30180281  0.30605490  0.13587310  1
  Ta  Ta98  1  0.40106381  0.00625805  0.51592144  1
  Ta  Ta99  1  0.49216217  0.69465285  0.13872181  1
  Ta  Ta100  1  0.89784284  0.29975710  0.12800361  1
  Ta  Ta101  1  0.09580327  0.90311556  0.38762011  1
  Ta  Ta102  1  0.79681857  0.59463795  0.50587053  1
  Ta  Ta103  1  0.59885963  0.00661834  0.48696591  1
  Ta  Ta104  1  0.58225153  0.79418283  0.00067463  1
  Ta  Ta105  1  0.00585095  0.60510482  0.24799779  1
  Ta  Ta106  1  0.48867847  0.50366557  0.15260354  1
  Ta  Ta107  1  0.69425591  0.49062583  0.14885450  1
  Ta  Ta108  1  0.09644942  0.09729704  0.12810744  1
  Ta  Ta109  1  0.79478393  0.20355993  0.47588426  1
  Ta  Ta110  1  0.20070092  0.80479043  0.26266209  1
  Ta  Ta111  1  0.68851355  0.28659015  0.60108970  1
  Ta  Ta112  1  0.50121839  0.49557558  0.62556187  1
  Ta  Ta113  1  0.69817257  0.48883508  0.62556692  1
  Ta  Ta114  1  0.39732113  0.39444813  0.50231146  1
  Ta  Ta115  1  0.70082261  0.30007313  0.13351078  1
  Ta  Ta116  1  0.29362376  0.68956742  0.85729563  1
  Ta  Ta117  1  0.19758568  -0.00007600  0.51421728  1
  Ta  Ta118  1  0.70410212  0.10616816  0.59628978  1
  Ta  Ta119  1  0.01513950  0.01087663  -0.01625928  1
  Ti  Ti120  1  0.30258956  0.70534522  0.37869467  1
  Ti  Ti121  1  0.30068501  0.50397308  0.85481974  1
  Ti  Ti122  1  0.41621772  0.22783951  0.73227900  1
  Ti  Ti123  1  0.19796893  0.21662731  0.49189314  1
  Ti  Ti124  1  0.69864844  0.30942962  0.35518565  1
  Ti  Ti125  1  0.50391568  0.69184066  0.63044323  1
  Ti  Ti126  1  0.50423906  0.11244975  0.86076541  1
  Ti  Ti127  1  0.80520571  0.80164692  0.24418575  1
  Ti  Ti128  1  0.79282372  0.40051242  0.49016889  1
  Ti  Ti129  1  0.19974501  0.20248691  0.26352223  1
  Ti  Ti130  1  0.90519379  0.09822344  0.11798367  1
  Ti  Ti131  1  0.48831395  0.70004102  0.37377367  1
  Ti  Ti132  1  0.79807726  0.37980762  0.74454805  1
  Ti  Ti133  1  0.90581556  0.89371734  0.38549423  1
  Ti  Ti134  1  0.39705861  0.40633951  0.01181296  1
  Ti  Ti135  1  0.79818585  0.58207593  -0.00347648  1
  Ti  Ti136  1  0.59985227  0.18976088  0.25936554  1
  Ti  Ti137  1  0.89854676  0.69934072  0.62967674  1
  Ti  Ti138  1  0.19017444  -0.00109088  0.74664673  1
  Ti  Ti139  1  0.00412988  -0.00242368  0.25428446  1
  Ti  Ti140  1  0.09617651  0.50073640  0.63930976  1
  Ti  Ti141  1  0.02005187  0.79730584  -0.02230750  1
  Ti  Ti142  1  0.88739956  0.30461971  0.90337525  1
  Ti  Ti143  1  0.39342784  0.39787031  0.26503707  1
  Ti  Ti144  1  0.39852061  0.19600506  0.25540894  1
  Ti  Ti145  1  0.79491491  0.60019012  0.26213225  1
  Ti  Ti146  1  0.20186905  0.80024413  -0.02726725  1
  Ti  Ti147  1  0.10077854  0.70797208  0.37521636  1
  Ti  Ti148  1  0.30595078  0.90748328  0.86354309  1
  Ti  Ti149  1  0.80757596  -0.00759409  0.49857989  1
  Ti  Ti150  1  0.69868035  0.69303669  0.62092390  1
  Ti  Ti151  1  0.39503445  0.79274417  0.52385987  1
  Ti  Ti152  1  0.40259299  0.00357897  0.72775400  1
  Ti  Ti153  1  0.40240752  0.60468955  0.74084647  1
  Ti  Ti154  1  0.00448710  0.80631516  0.25588947  1
  Ti  Ti155  1  0.00797201  0.80989493  0.74225536  1
  Ti  Ti156  1  0.49505071  0.49875788  0.36841467  1
  Ti  Ti157  1  0.50449938  0.90265015  0.61696151  1
  Ti  Ti158  1  0.19983647  0.60601180  -0.00324481  1
  Ti  Ti159  1  0.19750372  0.60967822  0.25493648  1
  Mo  Mo160  1  0.39738627  0.60783510  0.26680385  1
  Mo  Mo161  1  0.80665925  0.79074367  0.51839204  1
  Mo  Mo162  1  0.59955865  0.20104156  0.75145593  1
  Mo  Mo163  1  0.49814489  0.70101567  0.85336201  1
  Mo  Mo164  1  0.10399162  0.50761541  0.13752789  1
  Mo  Mo165  1  0.70391941  0.09390716  0.38109068  1
  Mo  Mo166  1  0.30724528  0.69605982  0.63032838  1
  Mo  Mo167  1  0.60443295  0.20002936  0.46472030  1
  Mo  Mo168  1  0.00454546  -0.00009695  0.76586136  1
  Mo  Mo169  1  0.39513329  0.20988212  0.49731640  1
  Mo  Mo170  1  0.79833209  0.20127471  0.02475787  1
  Mo  Mo171  1  -0.00466014  0.39441756  0.73740641  1
  Mo  Mo172  1  0.59881054  0.59519876  0.72792373  1
  Mo  Mo173  1  0.00826666  0.20412200  0.48536366  1
  Mo  Mo174  1  0.50213477  0.10293122  0.15003979  1
  Mo  Mo175  1  0.80810203  -0.00346209  0.01502761  1
  Mo  Mo176  1  0.59321538  0.39923266  0.26276241  1
  Mo  Mo177  1  0.49395431  0.89228647  0.11915393  1
  Mo  Mo178  1  0.30229347  0.30039215  0.62889399  1
  Mo  Mo179  1  0.00363547  -0.00264905  0.49368314  1
  Mo  Mo180  1  0.79491488  0.39699375  0.24734005  1
  Mo  Mo181  1  0.30212997  0.29963123  0.36407361  1
  Mo  Mo182  1  0.30397953  0.91412212  0.62535720  1
  Mo  Mo183  1  0.90471883  0.90365507  0.63052243  1
  Mo  Mo184  1  -0.00095094  0.60189387  0.73209469  1
  Mo  Mo185  1  0.19614458  0.20154709  0.75976451  1
  Mo  Mo186  1  0.49928653  0.10059347  0.37614513  1
  Mo  Mo187  1  0.50147859  0.30291945  0.59589425  1
  Mo  Mo188  1  0.20567289  0.60307516  0.73277106  1
  Mo  Mo189  1  0.70074457  0.50036483  0.36828035  1
  Mo  Mo190  1  0.09556336  0.91336787  0.62984355  1
  Mo  Mo191  1  0.09728801  0.10370770  0.85931304  1
  Mo  Mo192  1  0.09692800  0.69858505  0.64347774  1
  Mo  Mo193  1  0.00057158  0.40021120  0.23515485  1
  Mo  Mo194  1  0.10452917  0.90334526  0.86926905  1
  Mo  Mo195  1  0.09927285  0.29302225  0.36469396  1
  Mo  Mo196  1  0.59300590  -0.00115208  0.01741877  1
  Mo  Mo197  1  0.40453372  0.40151447  0.73220936  1
  Mo  Mo198  1  0.10586142  0.70357205  0.86294751  1
  Mo  Mo199  1  0.79864281  0.40083975  0.02009084  1
