# generated using pymatgen
data_HfZrTaTiMo
_symmetry_space_group_name_H-M   'P 1'
_cell_length_a   15.92530054
_cell_length_b   15.93063970
_cell_length_c   15.20236202
_cell_angle_alpha   90.03245021
_cell_angle_beta   90.07120283
_cell_angle_gamma   90.12204581
_symmetry_Int_Tables_number   1
_chemical_formula_structural   HfZrTaTiMo
_chemical_formula_sum   'Hf40 Zr40 Ta40 Ti40 Mo40'
_cell_volume   3856.83031383
_cell_formula_units_Z   40
loop_
 _symmetry_equiv_pos_site_id
 _symmetry_equiv_pos_as_xyz
  1  'x, y, z'
loop_
 _atom_site_type_symbol
 _atom_site_label
 _atom_site_symmetry_multiplicity
 _atom_site_fract_x
 _atom_site_fract_y
 _atom_site_fract_z
 _atom_site_occupancy
  Hf  Hf0  1  0.19313659  0.40473245  0.24757420  1
  Hf  Hf1  1  0.11448956  0.30835745  0.62354127  1
  Hf  Hf2  1  0.50213873  0.69417189  0.87357644  1
  Hf  Hf3  1  0.01721155  0.40253819  0.76277185  1
  Hf  Hf4  1  0.69826728  0.50380065  0.87090482  1
  Hf  Hf5  1  0.80457547  0.19708709  0.74325676  1
  Hf  Hf6  1  -0.00017695  0.79916951  -0.00188072  1
  Hf  Hf7  1  0.70490879  0.10428305  0.37327620  1
  Hf  Hf8  1  0.00526938  0.21219454  0.48587836  1
  Hf  Hf9  1  0.90638370  0.10174969  0.87654684  1
  Hf  Hf10  1  0.80632387  0.00702180  0.50846028  1
  Hf  Hf11  1  0.50255559  0.89684979  0.11490627  1
  Hf  Hf12  1  0.49410152  0.48987963  0.63090944  1
  Hf  Hf13  1  0.30388887  0.90068632  0.12471608  1
  Hf  Hf14  1  0.49579267  0.30031651  0.13011725  1
  Hf  Hf15  1  0.80242141  0.39491184  0.75365288  1
  Hf  Hf16  1  0.90150383  0.90169814  0.13619524  1
  Hf  Hf17  1  0.20045066  0.60469919  0.50750005  1
  Hf  Hf18  1  0.90766580  0.90009052  0.37635098  1
  Hf  Hf19  1  0.20085094  0.38692888  0.48291556  1
  Hf  Hf20  1  0.30084885  0.50236861  0.11089457  1
  Hf  Hf21  1  0.30221661  0.90089455  0.86212660  1
  Hf  Hf22  1  0.01116254  0.00632055  0.00588652  1
  Hf  Hf23  1  0.09845241  0.29626174  0.11253750  1
  Hf  Hf24  1  0.79804450  -0.00259216  0.00613524  1
  Hf  Hf25  1  0.79356790  0.00102938  0.73373576  1
  Hf  Hf26  1  0.89692937  0.49654383  0.38304198  1
  Hf  Hf27  1  0.29882978  0.68817344  0.64783544  1
  Hf  Hf28  1  0.50434361  0.50738831  0.37078595  1
  Hf  Hf29  1  0.00016948  0.59279105  0.23432711  1
  Hf  Hf30  1  0.19692220  0.80186026  -0.00280944  1
  Hf  Hf31  1  0.70258770  0.69323723  0.86931241  1
  Hf  Hf32  1  0.49411201  0.69907664  0.10135496  1
  Hf  Hf33  1  0.09814398  0.90328470  0.86034944  1
  Hf  Hf34  1  0.69052738  0.68194772  0.37192798  1
  Hf  Hf35  1  0.90937372  0.29288369  0.88811490  1
  Hf  Hf36  1  0.48911784  0.28514633  0.62280999  1
  Hf  Hf37  1  0.89838588  0.89884477  0.86653412  1
  Hf  Hf38  1  0.11315340  0.11633048  0.61178658  1
  Hf  Hf39  1  0.00300983  0.01205166  0.73400378  1
  Zr  Zr40  1  0.59124953  0.18574851  0.00066199  1
  Zr  Zr41  1  0.59542391  -0.00290775  0.73546600  1
  Zr  Zr42  1  0.39885596  0.80567399  0.51398796  1
  Zr  Zr43  1  0.61586842  0.41174078  0.24372981  1
  Zr  Zr44  1  0.79297185  0.79802688  0.25909362  1
  Zr  Zr45  1  0.39309619  0.37683662  0.76608524  1
  Zr  Zr46  1  0.89626357  0.70480049  0.12846103  1
  Zr  Zr47  1  0.49561956  0.09371870  0.36581805  1
  Zr  Zr48  1  0.20406146  0.01376061  0.73856877  1
  Zr  Zr49  1  0.31126714  0.50498829  0.37304462  1
  Zr  Zr50  1  0.29255287  0.48382322  0.63620852  1
  Zr  Zr51  1  0.60129907  0.79798907  0.51889047  1
  Zr  Zr52  1  0.40392276  0.39871938  -0.00580104  1
  Zr  Zr53  1  0.61097932  0.20660138  0.25465385  1
  Zr  Zr54  1  0.79618633  0.60085904  0.51858246  1
  Zr  Zr55  1  0.68930032  0.30798748  0.62780001  1
  Zr  Zr56  1  0.08810452  0.50122335  0.38381613  1
  Zr  Zr57  1  0.69418080  0.08842553  0.87914509  1
  Zr  Zr58  1  0.58771814  -0.00376797  0.51162093  1
  Zr  Zr59  1  0.68401250  0.11857615  0.61436859  1
  Zr  Zr60  1  0.90499210  0.10730611  0.13550194  1
  Zr  Zr61  1  0.80086785  0.79140607  0.50581997  1
  Zr  Zr62  1  0.91158852  0.89784622  0.62272923  1
  Zr  Zr63  1  0.01036452  0.20000140  0.25918168  1
  Zr  Zr64  1  0.39521499  0.00557595  0.52352869  1
  Zr  Zr65  1  0.59357712  0.79041708  0.25140806  1
  Zr  Zr66  1  0.78895223  0.58067753  0.23272554  1
  Zr  Zr67  1  0.90254208  0.51374998  0.86813265  1
  Zr  Zr68  1  0.10249157  0.70281913  0.36894077  1
  Zr  Zr69  1  0.29974997  0.90408128  0.36686302  1
  Zr  Zr70  1  0.79156438  0.80101393  0.73471100  1
  Zr  Zr71  1  0.80718383  0.21016657  0.49366018  1
  Zr  Zr72  1  0.49182955  0.68953754  0.64436332  1
  Zr  Zr73  1  0.49039833  0.69305351  0.38781313  1
  Zr  Zr74  1  0.40431693  0.00927795  -0.00835735  1
  Zr  Zr75  1  0.80259306  0.40759783  0.00455212  1
  Zr  Zr76  1  0.39682652  0.60878306  0.23449074  1
  Zr  Zr77  1  0.19855212  0.80754959  0.51760907  1
  Zr  Zr78  1  0.19317564  0.01077588  0.24035221  1
  Zr  Zr79  1  0.90743883  0.49278351  0.62372536  1
  Ta  Ta80  1  0.30348671  0.30277140  0.35435414  1
  Ta  Ta81  1  0.00143114  0.60458197  0.00163132  1
  Ta  Ta82  1  0.58225187  0.20174542  0.76786285  1
  Ta  Ta83  1  0.69487118  0.90466630  0.38207093  1
  Ta  Ta84  1  0.20005690  0.00509872  0.00337514  1
  Ta  Ta85  1  0.60648183  -0.00842036  0.24305895  1
  Ta  Ta86  1  0.20214330  0.19153115  0.00057505  1
  Ta  Ta87  1  0.70849247  0.29300409  0.11675714  1
  Ta  Ta88  1  0.60189572  0.80472475  0.74855868  1
  Ta  Ta89  1  0.69647942  0.89303948  0.11346237  1
  Ta  Ta90  1  0.10834951  0.09510898  0.38874315  1
  Ta  Ta91  1  0.49731509  0.09437069  0.14029222  1
  Ta  Ta92  1  0.59977760  0.39945348  0.49279136  1
  Ta  Ta93  1  0.90201651  0.29912870  0.12309629  1
  Ta  Ta94  1  0.19760026  0.60780015  -0.00566899  1
  Ta  Ta95  1  0.49366716  0.31286626  0.36401362  1
  Ta  Ta96  1  0.39621552  0.19904027  0.25357588  1
  Ta  Ta97  1  0.09790467  0.90075893  0.13710334  1
  Ta  Ta98  1  0.20815362  0.21813513  0.76396705  1
  Ta  Ta99  1  0.69247432  0.70028907  0.11081333  1
  Ta  Ta100  1  0.90493844  0.69281340  0.37157143  1
  Ta  Ta101  1  0.30504858  0.10763321  0.12677539  1
  Ta  Ta102  1  0.39145551  0.20600494  0.48300622  1
  Ta  Ta103  1  0.30024119  0.70070687  0.38008016  1
  Ta  Ta104  1  0.69943077  0.29384157  0.88270962  1
  Ta  Ta105  1  0.09872643  0.90548355  0.37765851  1
  Ta  Ta106  1  0.39331994  0.79540561  -0.01503212  1
  Ta  Ta107  1  0.50370269  0.50298088  0.11857354  1
  Ta  Ta108  1  0.49532561  0.90102393  0.36162100  1
  Ta  Ta109  1  0.00661031  0.79154511  0.51287416  1
  Ta  Ta110  1  0.10229099  0.49966815  0.62225114  1
  Ta  Ta111  1  0.28501386  0.49790597  0.87808307  1
  Ta  Ta112  1  0.90286217  0.70103252  0.85936335  1
  Ta  Ta113  1  0.10325036  0.49999987  0.10919294  1
  Ta  Ta114  1  0.59188409  0.39215729  0.76951563  1
  Ta  Ta115  1  0.29837292  0.29822354  0.12624686  1
  Ta  Ta116  1  0.59973319  0.59248407  0.52051883  1
  Ta  Ta117  1  0.50780348  0.90136891  0.87568348  1
  Ta  Ta118  1  0.09684720  0.69601637  0.86213384  1
  Ta  Ta119  1  0.79459701  -0.00015678  0.25083638  1
  Ti  Ti120  1  0.18677842  0.79526426  0.74132821  1
  Ti  Ti121  1  -0.00283799  0.40073488  0.24126895  1
  Ti  Ti122  1  0.00680456  0.79978910  0.25285801  1
  Ti  Ti123  1  0.29280806  0.29912310  0.89696570  1
  Ti  Ti124  1  0.90490477  0.09440767  0.36348772  1
  Ti  Ti125  1  0.80758446  0.60184526  0.00791652  1
  Ti  Ti126  1  0.69228203  0.49996074  0.64258317  1
  Ti  Ti127  1  0.19799441  0.20146667  0.25242283  1
  Ti  Ti128  1  0.70101538  0.09805412  0.13264088  1
  Ti  Ti129  1  0.31066098  0.13059009  0.63266452  1
  Ti  Ti130  1  0.91220092  0.30080730  0.62365971  1
  Ti  Ti131  1  0.29497366  0.69652039  0.86424876  1
  Ti  Ti132  1  0.58998436  0.21144639  0.48098625  1
  Ti  Ti133  1  0.10559124  0.30380884  0.89264161  1
  Ti  Ti134  1  0.20746533  -0.00062570  0.51226061  1
  Ti  Ti135  1  0.80154574  0.39437395  0.23774342  1
  Ti  Ti136  1  0.79728705  0.79849961  -0.00976487  1
  Ti  Ti137  1  0.39334011  0.79580306  0.24455212  1
  Ti  Ti138  1  0.20260342  0.60671649  0.23925497  1
  Ti  Ti139  1  0.29845099  0.09846985  0.37038388  1
  Ti  Ti140  1  0.30824781  0.89588310  0.65246779  1
  Ti  Ti141  1  0.50126185  0.50159583  0.88121665  1
  Ti  Ti142  1  0.00083287  0.40927741  -0.00050777  1
  Ti  Ti143  1  0.40158473  0.19693457  -0.00697398  1
  Ti  Ti144  1  0.70123256  0.49577596  0.38361023  1
  Ti  Ti145  1  0.10263163  0.11145358  0.87663819  1
  Ti  Ti146  1  0.00817648  0.20462892  0.74707229  1
  Ti  Ti147  1  -0.00148699  0.61004211  0.51386788  1
  Ti  Ti148  1  0.00702967  0.60473119  0.74091789  1
  Ti  Ti149  1  0.80084077  0.19501750  0.00418329  1
  Ti  Ti150  1  0.00686516  0.00325791  0.50697996  1
  Ti  Ti151  1  0.39832441  0.39438550  0.49931599  1
  Ti  Ti152  1  0.10524850  0.70257665  0.12525232  1
  Ti  Ti153  1  0.20502440  0.79439985  0.24432809  1
  Ti  Ti154  1  0.89597980  0.30847534  0.36406789  1
  Ti  Ti155  1  0.39480126  0.58560384  0.76896606  1
  Ti  Ti156  1  0.60442806  0.59270925  0.00352306  1
  Ti  Ti157  1  0.79600937  0.39669375  0.50503869  1
  Ti  Ti158  1  0.30126412  0.10266456  0.87051665  1
  Ti  Ti159  1  0.60290288  0.39513166  -0.00280697  1
  Mo  Mo160  1  0.09861835  0.69661765  0.63784645  1
  Mo  Mo161  1  0.69727816  0.90063594  0.60768154  1
  Mo  Mo162  1  -0.00307589  0.39646949  0.49911928  1
  Mo  Mo163  1  0.39347602  0.19830477  0.77214497  1
  Mo  Mo164  1  0.70474397  0.31343492  0.38022944  1
  Mo  Mo165  1  0.60054984  0.59928889  0.22673425  1
  Mo  Mo166  1  0.10675936  0.90469058  0.61922860  1
  Mo  Mo167  1  0.80335863  0.20717442  0.25207041  1
  Mo  Mo168  1  0.40129042  0.39946976  0.23367518  1
  Mo  Mo169  1  0.49094473  0.09476545  0.86368610  1
  Mo  Mo170  1  0.40057215  0.00015649  0.24199271  1
  Mo  Mo171  1  0.48795421  0.10991167  0.63467360  1
  Mo  Mo172  1  0.48972051  0.89488748  0.65238384  1
  Mo  Mo173  1  0.00254276  -0.00146666  0.26041171  1
  Mo  Mo174  1  0.40172219  0.00796958  0.74761752  1
  Mo  Mo175  1  0.10766839  0.10224120  0.11918174  1
  Mo  Mo176  1  0.59677293  0.58961750  0.74724864  1
  Mo  Mo177  1  0.60011062  -0.00277778  0.01549429  1
  Mo  Mo178  1  0.10037561  0.30101004  0.36561707  1
  Mo  Mo179  1  0.90773728  0.49406005  0.11739950  1
  Mo  Mo180  1  0.80172130  0.60070144  0.73875891  1
  Mo  Mo181  1  0.19065808  0.59067824  0.76122456  1
  Mo  Mo182  1  0.19592549  0.39531363  0.77141297  1
  Mo  Mo183  1  0.90560185  0.69535765  0.64057731  1
  Mo  Mo184  1  0.60226722  0.79942022  -0.01631090  1
  Mo  Mo185  1  0.29393367  0.70442434  0.11263149  1
  Mo  Mo186  1  0.09872394  0.50602025  0.89048531  1
  Mo  Mo187  1  0.69869950  0.49803637  0.10428513  1
  Mo  Mo188  1  0.39920213  0.79957380  0.76709666  1
  Mo  Mo189  1  0.91268230  0.11348250  0.62506867  1
  Mo  Mo190  1  0.39712412  0.59508076  0.50525819  1
  Mo  Mo191  1  0.19767484  0.39842906  -0.00183665  1
  Mo  Mo192  1  0.21178646  0.19761902  0.47885015  1
  Mo  Mo193  1  0.69495991  0.89389499  0.89073896  1
  Mo  Mo194  1  0.50193374  0.29622631  0.89221586  1
  Mo  Mo195  1  0.00382491  0.79715780  0.74199317  1
  Mo  Mo196  1  0.69368460  0.68968690  0.64479483  1
  Mo  Mo197  1  0.00366168  0.20151290  -0.00053426  1
  Mo  Mo198  1  0.39449678  0.60074341  -0.01610505  1
  Mo  Mo199  1  0.29834778  0.29379714  0.61926856  1
