# generated using pymatgen
data_HfZrTaTiMo
_symmetry_space_group_name_H-M   'P 1'
_cell_length_a   15.92391114
_cell_length_b   15.93806013
_cell_length_c   15.21992795
_cell_angle_alpha   90.03365815
_cell_angle_beta   90.02986501
_cell_angle_gamma   89.84587253
_symmetry_Int_Tables_number   1
_chemical_formula_structural   HfZrTaTiMo
_chemical_formula_sum   'Hf40 Zr40 Ta40 Ti40 Mo40'
_cell_volume   3862.74552504
_cell_formula_units_Z   40
loop_
 _symmetry_equiv_pos_site_id
 _symmetry_equiv_pos_as_xyz
  1  'x, y, z'
loop_
 _atom_site_type_symbol
 _atom_site_label
 _atom_site_symmetry_multiplicity
 _atom_site_fract_x
 _atom_site_fract_y
 _atom_site_fract_z
 _atom_site_occupancy
  Hf  Hf0  1  0.11321221  0.88743910  0.87585129  1
  Hf  Hf1  1  0.81583523  -0.00613294  0.49962087  1
  Hf  Hf2  1  0.70001693  0.10289592  0.11956553  1
  Hf  Hf3  1  -0.00020952  0.78654009  0.00360743  1
  Hf  Hf4  1  0.29912057  0.11214607  0.13040789  1
  Hf  Hf5  1  0.09377285  0.70593490  0.63741457  1
  Hf  Hf6  1  0.50093880  0.90890605  0.11524231  1
  Hf  Hf7  1  0.79178801  0.59254177  0.76841411  1
  Hf  Hf8  1  0.88876489  0.70781842  0.62862951  1
  Hf  Hf9  1  0.89757655  0.09959579  0.12033880  1
  Hf  Hf10  1  -0.00251107  0.39428819  0.02653417  1
  Hf  Hf11  1  0.39602529  0.80846939  0.24795029  1
  Hf  Hf12  1  0.79521002  0.38442182  0.25272905  1
  Hf  Hf13  1  0.09915856  0.70029190  0.14558325  1
  Hf  Hf14  1  0.59300457  0.80536033  0.51596949  1
  Hf  Hf15  1  0.70259410  0.50104292  0.37915257  1
  Hf  Hf16  1  0.00411628  0.60865059  0.48638572  1
  Hf  Hf17  1  0.50316799  0.90354443  0.38290729  1
  Hf  Hf18  1  0.79775165  -0.00744240  0.24595732  1
  Hf  Hf19  1  0.10580074  0.08900941  0.64320296  1
  Hf  Hf20  1  -0.00247446  0.18155885  0.50458714  1
  Hf  Hf21  1  0.89809493  0.89486533  0.88170961  1
  Hf  Hf22  1  0.10571439  0.30021095  0.87286796  1
  Hf  Hf23  1  0.19029935  0.60429036  0.01161286  1
  Hf  Hf24  1  0.58520771  0.20810187  -0.00522261  1
  Hf  Hf25  1  0.10108372  0.50101729  0.87792669  1
  Hf  Hf26  1  0.49406184  0.71370900  0.88453060  1
  Hf  Hf27  1  0.08479374  0.90173702  0.35156403  1
  Hf  Hf28  1  0.57695292  0.80558326  0.73240040  1
  Hf  Hf29  1  0.60064691  0.40490239  0.72828744  1
  Hf  Hf30  1  0.40104800  0.41062667  0.72448167  1
  Hf  Hf31  1  0.29771118  0.29357045  0.37009447  1
  Hf  Hf32  1  0.59602194  0.01114475  -0.01016473  1
  Hf  Hf33  1  0.49319829  0.28798826  0.84748560  1
  Hf  Hf34  1  0.89631922  0.50145390  0.61073530  1
  Hf  Hf35  1  0.70248031  0.71136234  0.37278750  1
  Hf  Hf36  1  0.71273399  0.49660684  0.60325519  1
  Hf  Hf37  1  0.39853106  0.00691461  0.25601490  1
  Hf  Hf38  1  0.20469166  -0.01421236  0.23763097  1
  Hf  Hf39  1  0.40566872  0.18501218  0.49951564  1
  Zr  Zr40  1  0.60226711  0.60073207  -0.00072814  1
  Zr  Zr41  1  0.89217886  0.29989636  0.61750946  1
  Zr  Zr42  1  0.40264421  0.40335253  0.49824293  1
  Zr  Zr43  1  0.51161419  0.52726978  0.59945688  1
  Zr  Zr44  1  0.11502281  0.28409825  0.14007523  1
  Zr  Zr45  1  0.19139002  0.80134313  0.49410998  1
  Zr  Zr46  1  0.50220477  0.69701522  0.12766690  1
  Zr  Zr47  1  0.20318155  0.39481005  0.01089568  1
  Zr  Zr48  1  0.39484490  0.60025212  -0.00246281  1
  Zr  Zr49  1  0.89422277  0.48239532  0.88556550  1
  Zr  Zr50  1  0.31743845  0.29304678  0.13847905  1
  Zr  Zr51  1  0.19552257  -0.00088806  0.49062357  1
  Zr  Zr52  1  0.71941688  0.89556226  0.63924514  1
  Zr  Zr53  1  0.19795788  0.18468303  0.49441614  1
  Zr  Zr54  1  0.30805586  0.49758233  0.12868980  1
  Zr  Zr55  1  0.89795053  0.09412547  0.87379521  1
  Zr  Zr56  1  0.71253802  0.10052380  0.64823955  1
  Zr  Zr57  1  0.79522500  0.19510039  0.48969297  1
  Zr  Zr58  1  0.29944544  0.28884914  0.61986547  1
  Zr  Zr59  1  0.80274722  0.20926056  -0.00887834  1
  Zr  Zr60  1  0.69327831  0.50389702  0.12956240  1
  Zr  Zr61  1  0.60285594  0.00178227  0.24696287  1
  Zr  Zr62  1  0.59717512  0.60350262  0.76166026  1
  Zr  Zr63  1  0.40259475  0.60711734  0.74472385  1
  Zr  Zr64  1  0.69578188  0.69034362  0.61610287  1
  Zr  Zr65  1  -0.00486077  0.39574733  0.74203671  1
  Zr  Zr66  1  0.20131245  0.40349029  0.73272731  1
  Zr  Zr67  1  0.30363627  0.49199660  0.87884427  1
  Zr  Zr68  1  0.69689896  0.31106616  0.86515209  1
  Zr  Zr69  1  0.91131094  0.08877223  0.35778407  1
  Zr  Zr70  1  0.09377049  0.29859026  0.37309898  1
  Zr  Zr71  1  -0.00605792  0.59993720  0.75734824  1
  Zr  Zr72  1  0.00747957  0.20024549  -0.00208920  1
  Zr  Zr73  1  0.89229039  0.50573862  0.14180440  1
  Zr  Zr74  1  0.59765403  0.00787177  0.51748955  1
  Zr  Zr75  1  0.30350773  0.71493985  0.62033938  1
  Zr  Zr76  1  0.91009459  0.90134862  0.65591321  1
  Zr  Zr77  1  0.59255537  0.39990848  0.25924842  1
  Zr  Zr78  1  0.28718929  0.71641957  0.86923397  1
  Zr  Zr79  1  -0.01068863  0.80932822  0.49607877  1
  Ta  Ta80  1  0.29944102  0.70172528  0.14169963  1
  Ta  Ta81  1  0.39055671  0.80850867  0.01134099  1
  Ta  Ta82  1  -0.00246946  0.59842116  0.25326345  1
  Ta  Ta83  1  0.49547913  0.90088207  0.88672883  1
  Ta  Ta84  1  0.09802241  0.29265363  0.62160756  1
  Ta  Ta85  1  0.49209998  0.11875442  0.13203872  1
  Ta  Ta86  1  0.20370642  0.59597602  0.25907724  1
  Ta  Ta87  1  0.01325910  -0.00404144  0.00300291  1
  Ta  Ta88  1  0.50509551  0.48283265  0.88435791  1
  Ta  Ta89  1  0.09912431  0.70636377  0.35679519  1
  Ta  Ta90  1  0.90023286  0.29723396  0.36954657  1
  Ta  Ta91  1  0.70103077  0.89867071  0.10367645  1
  Ta  Ta92  1  0.20047347  0.40508501  0.25358621  1
  Ta  Ta93  1  0.09876810  0.49854490  0.37127943  1
  Ta  Ta94  1  0.50131110  0.70670861  0.37825413  1
  Ta  Ta95  1  0.60646260  0.80490306  0.24132703  1
  Ta  Ta96  1  0.20075755  0.80636652  0.02616420  1
  Ta  Ta97  1  0.10740233  0.89616492  0.64827351  1
  Ta  Ta98  1  0.69369174  0.10256804  0.85978283  1
  Ta  Ta99  1  0.59921662  0.20128905  0.51026827  1
  Ta  Ta100  1  0.22433657  -0.01513080  0.76420786  1
  Ta  Ta101  1  0.60774839  0.20361385  0.26050745  1
  Ta  Ta102  1  0.89385898  0.90377698  0.10652719  1
  Ta  Ta103  1  0.40490868  0.40741189  0.26825023  1
  Ta  Ta104  1  0.59449769  0.60268748  0.26005691  1
  Ta  Ta105  1  0.81042120  0.60927227  0.47874801  1
  Ta  Ta106  1  0.20537218  0.19152274  0.75343791  1
  Ta  Ta107  1  0.90374191  0.49350098  0.37019042  1
  Ta  Ta108  1  0.39431032  0.61161587  0.48569165  1
  Ta  Ta109  1  0.80377958  0.60539149  -0.00489097  1
  Ta  Ta110  1  0.40443188  0.59505834  0.26692332  1
  Ta  Ta111  1  -0.00419828  0.59885976  0.01251187  1
  Ta  Ta112  1  0.31336582  0.07807507  0.63493310  1
  Ta  Ta113  1  0.70504433  0.89792638  0.38286286  1
  Ta  Ta114  1  0.79718267  0.78973598  0.00031122  1
  Ta  Ta115  1  0.00443049  0.19889723  0.75453791  1
  Ta  Ta116  1  0.79779591  0.39362314  0.01715432  1
  Ta  Ta117  1  0.39826750  0.01667498  -0.00779068  1
  Ta  Ta118  1  0.20314381  0.59609635  0.73808639  1
  Ta  Ta119  1  0.60340038  0.38978508  0.49505552  1
  Ti  Ti120  1  0.09811980  0.09712989  0.34753413  1
  Ti  Ti121  1  0.50466064  0.10337719  0.37170801  1
  Ti  Ti122  1  0.49659534  0.10290633  0.64553599  1
  Ti  Ti123  1  0.79899871  0.80006432  0.23191301  1
  Ti  Ti124  1  0.49825544  0.49082918  0.11792737  1
  Ti  Ti125  1  0.70513543  0.69665015  0.13186732  1
  Ti  Ti126  1  0.21725516  0.19449785  -0.01630494  1
  Ti  Ti127  1  0.20768729  -0.00155508  0.00240162  1
  Ti  Ti128  1  0.29581434  0.50072987  0.38231909  1
  Ti  Ti129  1  0.70657849  0.30114653  0.62504295  1
  Ti  Ti130  1  -0.01218030  0.80759408  0.22836730  1
  Ti  Ti131  1  0.30112179  0.89957963  0.38333022  1
  Ti  Ti132  1  0.30671800  0.29678496  0.86246535  1
  Ti  Ti133  1  0.10072400  0.50313846  0.61307319  1
  Ti  Ti134  1  0.68952229  0.71095251  0.88454981  1
  Ti  Ti135  1  0.69881779  0.09722383  0.37384140  1
  Ti  Ti136  1  0.29516743  0.70701286  0.36745881  1
  Ti  Ti137  1  0.69429675  0.48956404  0.89125210  1
  Ti  Ti138  1  0.38649280  0.83002161  0.74854175  1
  Ti  Ti139  1  0.79806611  0.78877513  0.77507071  1
  Ti  Ti140  1  0.10145487  0.09461780  0.13034022  1
  Ti  Ti141  1  0.81003290  0.21430923  0.76074791  1
  Ti  Ti142  1  0.41147232  0.37952691  -0.00275583  1
  Ti  Ti143  1  0.49873798  0.29873557  0.13743480  1
  Ti  Ti144  1  0.89801771  0.70704235  0.35621201  1
  Ti  Ti145  1  0.19830924  0.60268184  0.49422601  1
  Ti  Ti146  1  0.00155671  0.39708431  0.49825076  1
  Ti  Ti147  1  0.01117693  -0.00146750  0.77062941  1
  Ti  Ti148  1  0.11422771  0.09599702  0.87409852  1
  Ti  Ti149  1  0.19701819  0.40473199  0.50338665  1
  Ti  Ti150  1  0.89517095  0.89281738  0.36165884  1
  Ti  Ti151  1  0.90163018  0.09140452  0.64930689  1
  Ti  Ti152  1  0.50282208  0.29494765  0.37909291  1
  Ti  Ti153  1  0.69392783  0.89831378  0.87984803  1
  Ti  Ti154  1  0.58933335  -0.00627750  0.75251382  1
  Ti  Ti155  1  0.00499631  -0.00464190  0.51024771  1
  Ti  Ti156  1  0.32159462  0.10766766  0.86052538  1
  Ti  Ti157  1  0.69450600  0.29519003  0.12414914  1
  Ti  Ti158  1  0.09868595  0.69903359  0.86719774  1
  Ti  Ti159  1  -0.00869880  0.20342722  0.24040750  1
  Mo  Mo160  1  -0.00029470  -0.00422415  0.22061332  1
  Mo  Mo161  1  0.00186726  0.39851999  0.24920276  1
  Mo  Mo162  1  0.79413996  0.40121055  0.75262404  1
  Mo  Mo163  1  0.20006100  0.19128739  0.26199809  1
  Mo  Mo164  1  0.28959842  0.51184144  0.60034677  1
  Mo  Mo165  1  0.30321563  0.90863292  0.11340568  1
  Mo  Mo166  1  0.39764334  0.19822124  0.73408191  1
  Mo  Mo167  1  0.30006352  0.09746813  0.36068757  1
  Mo  Mo168  1  0.49970405  0.50458441  0.38479209  1
  Mo  Mo169  1  0.80370883  0.80432273  0.49159388  1
  Mo  Mo170  1  0.90282433  0.30125216  0.86920727  1
  Mo  Mo171  1  0.39957958  0.19925467  -0.01065732  1
  Mo  Mo172  1  0.50757692  0.29475969  0.62080999  1
  Mo  Mo173  1  0.79403462  -0.00356851  -0.01064909  1
  Mo  Mo174  1  0.80530111  0.39761620  0.47875212  1
  Mo  Mo175  1  0.20414139  0.80043748  0.74537819  1
  Mo  Mo176  1  0.59319832  0.39428767  0.01056266  1
  Mo  Mo177  1  0.40791105  -0.00306085  0.76710007  1
  Mo  Mo178  1  0.39733188  0.00595607  0.48445726  1
  Mo  Mo179  1  0.50463083  0.09991298  0.85569181  1
  Mo  Mo180  1  0.41233578  0.20321277  0.27047246  1
  Mo  Mo181  1  0.79299760  0.19671200  0.25718276  1
  Mo  Mo182  1  0.89416042  0.29537442  0.14492091  1
  Mo  Mo183  1  0.69677369  0.29175995  0.38516083  1
  Mo  Mo184  1  0.60050038  0.60572449  0.47847544  1
  Mo  Mo185  1  0.46696984  0.91838588  0.61342592  1
  Mo  Mo186  1  0.80022978  0.60727032  0.26269887  1
  Mo  Mo187  1  0.29871308  0.90733142  0.61263872  1
  Mo  Mo188  1  0.48866914  0.71270296  0.60736643  1
  Mo  Mo189  1  0.89308313  0.70077439  0.13198098  1
  Mo  Mo190  1  0.89680914  0.69319069  0.88326026  1
  Mo  Mo191  1  0.79537440  -0.00443330  0.77335172  1
  Mo  Mo192  1  0.60081626  0.80305802  0.01027033  1
  Mo  Mo193  1  0.60318544  0.20133569  0.73134289  1
  Mo  Mo194  1  0.09670211  0.90137790  0.11983020  1
  Mo  Mo195  1  0.30219639  0.90498426  0.89704939  1
  Mo  Mo196  1  0.39563826  0.80426376  0.48390810  1
  Mo  Mo197  1  0.00125433  0.79619989  0.76882866  1
  Mo  Mo198  1  0.20470129  0.80001378  0.24936046  1
  Mo  Mo199  1  0.09776175  0.49965738  0.14759078  1
