# generated using pymatgen
data_HfZrTaTiMo
_symmetry_space_group_name_H-M   'P 1'
_cell_length_a   15.91807818
_cell_length_b   15.93422614
_cell_length_c   15.20658664
_cell_angle_alpha   90.04309268
_cell_angle_beta   90.02949183
_cell_angle_gamma   90.02217929
_symmetry_Int_Tables_number   1
_chemical_formula_structural   HfZrTaTiMo
_chemical_formula_sum   'Hf40 Zr40 Ta40 Ti40 Mo40'
_cell_volume   3857.03107319
_cell_formula_units_Z   40
loop_
 _symmetry_equiv_pos_site_id
 _symmetry_equiv_pos_as_xyz
  1  'x, y, z'
loop_
 _atom_site_type_symbol
 _atom_site_label
 _atom_site_symmetry_multiplicity
 _atom_site_fract_x
 _atom_site_fract_y
 _atom_site_fract_z
 _atom_site_occupancy
  Hf  Hf0  1  0.00867774  -0.00645251  0.74949144  1
  Hf  Hf1  1  0.49387475  0.69391569  0.63417128  1
  Hf  Hf2  1  0.60857773  0.59982168  0.76696094  1
  Hf  Hf3  1  0.18893406  0.81189033  0.75684016  1
  Hf  Hf4  1  0.39366270  0.59339691  0.50626302  1
  Hf  Hf5  1  0.30074983  0.50118106  0.12558062  1
  Hf  Hf6  1  0.90404384  0.29312850  0.37432680  1
  Hf  Hf7  1  0.10689026  0.12206138  0.38573701  1
  Hf  Hf8  1  0.39814641  0.80006163  0.51204861  1
  Hf  Hf9  1  0.10778082  0.09245774  0.89105436  1
  Hf  Hf10  1  0.89839720  0.10158851  0.12656130  1
  Hf  Hf11  1  0.70676164  0.49113935  0.64001511  1
  Hf  Hf12  1  0.20685829  0.39758289  0.76619867  1
  Hf  Hf13  1  0.68507770  0.10738588  0.38236790  1
  Hf  Hf14  1  0.30536587  0.69967552  0.35269080  1
  Hf  Hf15  1  0.38742495  0.18486924  0.23460724  1
  Hf  Hf16  1  0.00540089  -0.01105420  0.00373559  1
  Hf  Hf17  1  0.79165857  0.20695564  -0.00981123  1
  Hf  Hf18  1  0.00345970  0.00531580  0.26206592  1
  Hf  Hf19  1  0.90049194  0.29754279  0.12674513  1
  Hf  Hf20  1  0.59809565  0.80193008  0.51416133  1
  Hf  Hf21  1  0.79654651  0.39671661  0.49495483  1
  Hf  Hf22  1  0.59861601  0.80499982  0.23766670  1
  Hf  Hf23  1  0.20281227  0.60184932  0.50202718  1
  Hf  Hf24  1  0.69498284  0.10160317  0.11506490  1
  Hf  Hf25  1  0.20923735  0.01907984  0.24451818  1
  Hf  Hf26  1  0.89476250  0.89886130  0.12830311  1
  Hf  Hf27  1  0.91145334  0.51071073  0.87169369  1
  Hf  Hf28  1  0.50419992  0.29041300  0.37185928  1
  Hf  Hf29  1  0.59256212  0.00054933  0.24064495  1
  Hf  Hf30  1  0.10087359  0.90637324  0.60820228  1
  Hf  Hf31  1  0.39994673  -0.00238015  0.22261793  1
  Hf  Hf32  1  -0.00275711  0.59056391  0.25240604  1
  Hf  Hf33  1  0.08084663  0.69605237  0.86847158  1
  Hf  Hf34  1  0.49918826  0.69642601  0.37322251  1
  Hf  Hf35  1  0.79281383  -0.00556246  0.25842540  1
  Hf  Hf36  1  0.79367562  0.58461928  0.00482292  1
  Hf  Hf37  1  0.50538103  0.49545058  0.36882355  1
  Hf  Hf38  1  0.58673684  0.19750771  0.23407306  1
  Hf  Hf39  1  0.30772636  0.90582037  0.37036971  1
  Zr  Zr40  1  0.20189191  0.79789608  0.50007056  1
  Zr  Zr41  1  0.21503237  0.41008709  0.50956613  1
  Zr  Zr42  1  0.80385142  0.00190571  0.75863492  1
  Zr  Zr43  1  -0.01491259  0.79327805  0.73255424  1
  Zr  Zr44  1  0.69962284  0.69813136  0.12456099  1
  Zr  Zr45  1  0.81207426  0.58480284  0.49194073  1
  Zr  Zr46  1  0.59867539  0.80183680  0.75786748  1
  Zr  Zr47  1  0.39479166  0.39099113  -0.01820541  1
  Zr  Zr48  1  0.10163312  0.29836465  0.60824966  1
  Zr  Zr49  1  0.50485862  0.48649807  0.64068291  1
  Zr  Zr50  1  -0.00178807  0.39667021  0.74846992  1
  Zr  Zr51  1  0.10783781  0.69873179  0.36249598  1
  Zr  Zr52  1  0.29591532  0.49858307  0.34956464  1
  Zr  Zr53  1  0.51589189  0.49460093  0.11002421  1
  Zr  Zr54  1  0.59164636  0.00605758  0.51380680  1
  Zr  Zr55  1  0.09977991  0.30639768  0.38789436  1
  Zr  Zr56  1  0.49488085  0.09972279  0.64697100  1
  Zr  Zr57  1  0.51068609  0.50112761  0.88593084  1
  Zr  Zr58  1  0.18854369  0.80895106  0.00351541  1
  Zr  Zr59  1  0.30547364  0.90887729  0.63000764  1
  Zr  Zr60  1  0.29195296  0.28555685  0.37391931  1
  Zr  Zr61  1  0.80627625  0.80373983  0.49975353  1
  Zr  Zr62  1  0.20247377  0.60805473  0.00378811  1
  Zr  Zr63  1  0.89864370  0.70129585  0.13874464  1
  Zr  Zr64  1  0.89406460  0.10114342  0.60894377  1
  Zr  Zr65  1  -0.00215340  0.19790957  0.73710198  1
  Zr  Zr66  1  0.40878561  0.38801981  0.23918271  1
  Zr  Zr67  1  0.40937467  0.39095210  0.50856060  1
  Zr  Zr68  1  0.80622023  0.79424703  -0.01111231  1
  Zr  Zr69  1  0.09600527  0.51168630  0.63548518  1
  Zr  Zr70  1  0.89147785  0.10625483  0.38378765  1
  Zr  Zr71  1  0.69393619  0.69570202  0.37549809  1
  Zr  Zr72  1  0.49775560  0.90112872  0.37640320  1
  Zr  Zr73  1  0.38766041  0.79815686  -0.00212402  1
  Zr  Zr74  1  0.39616969  0.59716791  0.77152261  1
  Zr  Zr75  1  0.30050913  0.10093571  0.89767723  1
  Zr  Zr76  1  0.90747179  0.11405985  0.87910677  1
  Zr  Zr77  1  0.08737407  0.29039008  0.88990574  1
  Zr  Zr78  1  0.70458585  0.69067066  0.62133689  1
  Zr  Zr79  1  0.80166932  0.79602277  0.74532679  1
  Ta  Ta80  1  0.00783066  0.39160164  0.24527217  1
  Ta  Ta81  1  0.60187957  0.59346586  0.23869531  1
  Ta  Ta82  1  0.31063064  0.29456020  0.63934523  1
  Ta  Ta83  1  0.09679864  0.11021130  0.11788260  1
  Ta  Ta84  1  0.69825569  0.10725250  0.64203137  1
  Ta  Ta85  1  0.80914413  0.39487469  0.75814343  1
  Ta  Ta86  1  0.39722432  0.00223916  0.77350534  1
  Ta  Ta87  1  0.79953868  0.00214536  -0.01384323  1
  Ta  Ta88  1  0.69818687  0.90413028  0.10457113  1
  Ta  Ta89  1  0.59084201  0.21090395  0.52004070  1
  Ta  Ta90  1  -0.00257725  0.60004339  0.01746544  1
  Ta  Ta91  1  0.62424504  0.39888006  -0.01724256  1
  Ta  Ta92  1  0.60053613  0.79639321  -0.01334940  1
  Ta  Ta93  1  -0.00081540  -0.00470747  0.48232540  1
  Ta  Ta94  1  0.29992073  0.10101622  0.62972084  1
  Ta  Ta95  1  0.10145431  0.70191672  0.14148698  1
  Ta  Ta96  1  0.90151779  0.69845727  0.37227528  1
  Ta  Ta97  1  0.69886764  0.31332378  0.13020345  1
  Ta  Ta98  1  0.20094193  0.19692612  0.74858983  1
  Ta  Ta99  1  0.29547892  0.29999629  0.11816595  1
  Ta  Ta100  1  0.60721292  0.39013991  0.50586504  1
  Ta  Ta101  1  0.69905442  0.90399242  0.87666593  1
  Ta  Ta102  1  0.59841864  0.20789677  -0.01879337  1
  Ta  Ta103  1  0.80356128  0.39873424  -0.01555035  1
  Ta  Ta104  1  -0.00163692  0.80887378  0.26322881  1
  Ta  Ta105  1  0.69854635  0.90568104  0.38586266  1
  Ta  Ta106  1  0.49807479  0.90630775  0.88081114  1
  Ta  Ta107  1  0.50356646  0.69426724  0.10444920  1
  Ta  Ta108  1  0.10071154  0.49579415  0.12669997  1
  Ta  Ta109  1  0.10132691  0.50733701  0.87799413  1
  Ta  Ta110  1  0.49209641  0.10102364  0.08838034  1
  Ta  Ta111  1  0.39757778  0.20444021  0.77339644  1
  Ta  Ta112  1  0.40474092  0.80196607  0.22180325  1
  Ta  Ta113  1  0.39584863  0.80301456  0.76920555  1
  Ta  Ta114  1  0.29182365  0.69743491  0.64682323  1
  Ta  Ta115  1  0.69570783  0.48611010  0.36042444  1
  Ta  Ta116  1  0.91007567  0.89227476  0.87975799  1
  Ta  Ta117  1  0.39931958  0.19422173  0.50945570  1
  Ta  Ta118  1  0.79887226  0.58787303  0.25498932  1
  Ta  Ta119  1  0.19811882  0.40233613  -0.00512303  1
  Ti  Ti120  1  0.00036277  0.59612395  0.48910931  1
  Ti  Ti121  1  0.21131549  0.01031060  0.49080620  1
  Ti  Ti122  1  0.82216593  0.60728361  0.74480105  1
  Ti  Ti123  1  0.39577948  0.60489949  -0.00750124  1
  Ti  Ti124  1  0.89383490  0.30013104  0.61455617  1
  Ti  Ti125  1  0.70222077  0.91455804  0.62823674  1
  Ti  Ti126  1  0.18707674  0.21398555  0.23190637  1
  Ti  Ti127  1  0.28692136  0.69846177  0.86591242  1
  Ti  Ti128  1  0.28604432  0.91175322  0.88548056  1
  Ti  Ti129  1  0.60161226  0.58464562  0.50255331  1
  Ti  Ti130  1  0.89933822  0.90834310  0.60737449  1
  Ti  Ti131  1  0.10924325  0.90182274  0.37354422  1
  Ti  Ti132  1  -0.00022606  0.79783398  0.48832761  1
  Ti  Ti133  1  0.40282423  0.39234238  0.76729946  1
  Ti  Ti134  1  0.20104999  0.20757551  0.00821767  1
  Ti  Ti135  1  0.48409218  0.09534920  0.38476022  1
  Ti  Ti136  1  0.50352300  0.29840007  0.10466307  1
  Ti  Ti137  1  0.60388646  0.00991461  -0.02221173  1
  Ti  Ti138  1  0.09642480  0.69844443  0.62637306  1
  Ti  Ti139  1  0.10000833  0.90299838  0.13842021  1
  Ti  Ti140  1  0.89189103  0.48680254  0.13400293  1
  Ti  Ti141  1  0.10374664  0.10056363  0.60730020  1
  Ti  Ti142  1  0.50539687  0.90440488  0.09540829  1
  Ti  Ti143  1  0.40909687  0.60670120  0.23043751  1
  Ti  Ti144  1  0.00280161  0.79492262  0.00773401  1
  Ti  Ti145  1  0.69318533  0.29932285  0.36299506  1
  Ti  Ti146  1  0.70558854  0.29762487  0.85633873  1
  Ti  Ti147  1  0.70677313  0.69156362  0.87966192  1
  Ti  Ti148  1  0.49644845  0.90615642  0.64605305  1
  Ti  Ti149  1  0.10641578  0.49477521  0.36160549  1
  Ti  Ti150  1  0.19754899  0.00556732  0.74974877  1
  Ti  Ti151  1  0.69402172  0.29725830  0.64532294  1
  Ti  Ti152  1  0.79230042  0.20011208  0.24819360  1
  Ti  Ti153  1  -0.00209901  0.40341796  0.00552169  1
  Ti  Ti154  1  0.79717773  0.80377720  0.26264787  1
  Ti  Ti155  1  0.30142794  0.50295726  0.64722516  1
  Ti  Ti156  1  0.59660810  0.19812274  0.76575675  1
  Ti  Ti157  1  0.20990195  0.80847186  0.23488977  1
  Ti  Ti158  1  -0.01185034  0.41633607  0.49812382  1
  Ti  Ti159  1  0.78008428  0.20728690  0.50715640  1
  Mo  Mo160  1  0.90532093  0.49044133  0.36159283  1
  Mo  Mo161  1  0.29449828  0.10638019  0.10688697  1
  Mo  Mo162  1  0.90119958  0.49703524  0.63395026  1
  Mo  Mo163  1  0.90210636  0.69565317  0.88863218  1
  Mo  Mo164  1  0.40054725  -0.00476313  -0.00278966  1
  Mo  Mo165  1  0.60892013  0.60006696  -0.00530869  1
  Mo  Mo166  1  0.50235201  0.09936168  0.87675377  1
  Mo  Mo167  1  0.89970765  0.30552317  0.88552581  1
  Mo  Mo168  1  -0.00462731  0.60280581  0.74137081  1
  Mo  Mo169  1  0.19910341  0.59912927  0.23564732  1
  Mo  Mo170  1  0.09888844  0.30570003  0.11156696  1
  Mo  Mo171  1  0.70652860  0.49002183  0.13806198  1
  Mo  Mo172  1  0.30352031  0.69968013  0.13398904  1
  Mo  Mo173  1  0.79072687  0.00210290  0.49905528  1
  Mo  Mo174  1  0.91335057  0.69146927  0.59520670  1
  Mo  Mo175  1  0.19541575  0.60399451  0.75558817  1
  Mo  Mo176  1  0.20893227  0.19869992  0.52219072  1
  Mo  Mo177  1  0.29628800  0.90386358  0.12367505  1
  Mo  Mo178  1  0.50267072  0.29604471  0.64876132  1
  Mo  Mo179  1  -0.00395868  0.20032042  0.51200161  1
  Mo  Mo180  1  0.29410401  0.50237726  0.87766845  1
  Mo  Mo181  1  0.80337102  0.39372524  0.26182619  1
  Mo  Mo182  1  -0.00116627  0.20124687  0.01265937  1
  Mo  Mo183  1  0.69840720  0.10351055  0.86456048  1
  Mo  Mo184  1  0.09762524  0.90040558  0.87438133  1
  Mo  Mo185  1  0.90012633  0.89885776  0.37853443  1
  Mo  Mo186  1  0.29300068  0.29575586  0.87447647  1
  Mo  Mo187  1  0.60059050  0.00099622  0.75889959  1
  Mo  Mo188  1  0.60632196  0.39355079  0.76338256  1
  Mo  Mo189  1  0.79793016  0.20862259  0.74573008  1
  Mo  Mo190  1  0.30628307  0.09933979  0.38959652  1
  Mo  Mo191  1  0.50669899  0.30034453  0.87020980  1
  Mo  Mo192  1  0.40049521  0.20511977  -0.00377000  1
  Mo  Mo193  1  0.39747560  0.00437853  0.50737779  1
  Mo  Mo194  1  0.60202223  0.39324289  0.24387957  1
  Mo  Mo195  1  0.49812240  0.70454669  0.88811886  1
  Mo  Mo196  1  0.00468708  0.20174922  0.23684322  1
  Mo  Mo197  1  0.19590439  0.39665759  0.23325073  1
  Mo  Mo198  1  0.71335519  0.49909025  0.85830036  1
  Mo  Mo199  1  0.19969525  -0.00237641  0.02393970  1
