# generated using pymatgen
data_HfZrTaTiMo
_symmetry_space_group_name_H-M   'P 1'
_cell_length_a   15.92997876
_cell_length_b   15.92429188
_cell_length_c   15.20121745
_cell_angle_alpha   90.06037356
_cell_angle_beta   89.99720357
_cell_angle_gamma   89.97741661
_symmetry_Int_Tables_number   1
_chemical_formula_structural   HfZrTaTiMo
_chemical_formula_sum   'Hf40 Zr40 Ta40 Ti40 Mo40'
_cell_volume   3856.14558642
_cell_formula_units_Z   40
loop_
 _symmetry_equiv_pos_site_id
 _symmetry_equiv_pos_as_xyz
  1  'x, y, z'
loop_
 _atom_site_type_symbol
 _atom_site_label
 _atom_site_symmetry_multiplicity
 _atom_site_fract_x
 _atom_site_fract_y
 _atom_site_fract_z
 _atom_site_occupancy
  Hf  Hf0  1  0.70719205  0.31527949  0.13756229  1
  Hf  Hf1  1  0.40587360  0.60985282  -0.00316723  1
  Hf  Hf2  1  0.68865756  0.69478860  0.86639121  1
  Hf  Hf3  1  0.82137628  0.41337065  0.27252569  1
  Hf  Hf4  1  0.69723208  0.30491936  0.37503856  1
  Hf  Hf5  1  0.59210373  0.40612755  0.73927669  1
  Hf  Hf6  1  0.30841718  0.48300891  0.36688482  1
  Hf  Hf7  1  0.80727092  0.00626138  0.49420952  1
  Hf  Hf8  1  0.70882833  0.50597749  0.61399987  1
  Hf  Hf9  1  0.10700770  0.90564522  0.61289542  1
  Hf  Hf10  1  0.59707640  0.81167788  0.50049720  1
  Hf  Hf11  1  0.89527311  0.90431665  0.63040054  1
  Hf  Hf12  1  0.50267219  0.89107109  0.14020639  1
  Hf  Hf13  1  0.68847592  0.10334469  0.38292698  1
  Hf  Hf14  1  0.60349337  0.21465011  -0.00099838  1
  Hf  Hf15  1  0.89307048  0.69302932  0.14181209  1
  Hf  Hf16  1  0.59664439  0.39763646  0.50682555  1
  Hf  Hf17  1  0.91196853  0.30092191  0.64016305  1
  Hf  Hf18  1  0.18783706  0.01677379  0.76490059  1
  Hf  Hf19  1  0.39448929  0.20031637  0.76419180  1
  Hf  Hf20  1  0.79913458  0.80574340  0.00627194  1
  Hf  Hf21  1  0.10128518  0.08572377  0.38521891  1
  Hf  Hf22  1  0.10224385  0.89941434  0.37634974  1
  Hf  Hf23  1  0.71159849  0.10814276  0.12447682  1
  Hf  Hf24  1  0.69034979  0.90445678  0.37034803  1
  Hf  Hf25  1  0.10171996  0.10102782  0.60709143  1
  Hf  Hf26  1  0.21844538  0.38405603  0.51005995  1
  Hf  Hf27  1  0.39600033  -0.01024201  0.00294372  1
  Hf  Hf28  1  0.00053099  0.59842910  0.00358548  1
  Hf  Hf29  1  0.10373799  0.47716021  0.87857575  1
  Hf  Hf30  1  0.18534939  -0.01341906  0.00806868  1
  Hf  Hf31  1  0.40421053  0.59041517  0.25237421  1
  Hf  Hf32  1  0.49058746  0.91432774  0.63457125  1
  Hf  Hf33  1  0.00343741  0.79720711  0.74026746  1
  Hf  Hf34  1  0.39638088  0.79672995  0.00130887  1
  Hf  Hf35  1  -0.00785746  0.20272602  0.48911610  1
  Hf  Hf36  1  0.48414975  0.31337395  0.36787178  1
  Hf  Hf37  1  0.29386710  0.89915250  0.86292472  1
  Hf  Hf38  1  0.39020517  0.40827151  0.75905444  1
  Hf  Hf39  1  0.80738583  0.00949285  0.25693662  1
  Zr  Zr40  1  0.90785854  0.50002026  0.62465356  1
  Zr  Zr41  1  0.00010989  0.79637516  0.49390008  1
  Zr  Zr42  1  0.49786587  0.69827116  0.60961210  1
  Zr  Zr43  1  0.29247981  0.68717116  0.62365532  1
  Zr  Zr44  1  0.00063733  0.80298488  0.00670078  1
  Zr  Zr45  1  0.60574879  -0.00591186  0.00536412  1
  Zr  Zr46  1  0.38774321  0.80665572  0.49081242  1
  Zr  Zr47  1  0.80671000  0.20508785  -0.01292982  1
  Zr  Zr48  1  0.81232461  0.19915726  0.76642570  1
  Zr  Zr49  1  0.58954889  0.01658677  0.74626087  1
  Zr  Zr50  1  0.29342221  0.10769424  0.62741602  1
  Zr  Zr51  1  0.19622819  0.79546100  0.01174007  1
  Zr  Zr52  1  0.39809143  0.40831547  -0.00581334  1
  Zr  Zr53  1  -0.00621375  0.19986607  -0.01835761  1
  Zr  Zr54  1  0.80700265  0.40105585  -0.00987878  1
  Zr  Zr55  1  0.90752959  0.29548674  0.13859346  1
  Zr  Zr56  1  -0.00684747  0.58103370  0.25971056  1
  Zr  Zr57  1  0.39927680  0.79288597  0.75511547  1
  Zr  Zr58  1  0.29506351  0.11009214  0.10070062  1
  Zr  Zr59  1  0.58171801  0.19750415  0.51665272  1
  Zr  Zr60  1  0.79344034  0.59939532  -0.00357368  1
  Zr  Zr61  1  0.70578775  0.09289452  0.87816740  1
  Zr  Zr62  1  0.48668744  0.11330238  0.36785315  1
  Zr  Zr63  1  0.59416876  0.79143713  -0.00452989  1
  Zr  Zr64  1  0.71660409  0.30224349  0.62708450  1
  Zr  Zr65  1  0.59371136  0.20664768  0.74969734  1
  Zr  Zr66  1  0.69126456  0.69824847  0.15101133  1
  Zr  Zr67  1  0.90954517  0.50267476  0.84940414  1
  Zr  Zr68  1  0.40190284  0.00973192  0.49840403  1
  Zr  Zr69  1  0.38727879  0.00976397  0.23883296  1
  Zr  Zr70  1  0.89784921  0.69080485  0.61816587  1
  Zr  Zr71  1  0.70972707  0.89686270  0.85170753  1
  Zr  Zr72  1  0.10396289  0.30147176  0.36048834  1
  Zr  Zr73  1  0.40038989  0.59419995  0.76387406  1
  Zr  Zr74  1  0.19744996  0.18565050  0.24254967  1
  Zr  Zr75  1  0.89451649  0.70641336  0.86021922  1
  Zr  Zr76  1  0.10148027  0.68696999  0.86107801  1
  Zr  Zr77  1  0.50546267  0.69703268  0.37452814  1
  Zr  Zr78  1  0.11191518  0.50040590  0.38088497  1
  Zr  Zr79  1  0.59526775  0.21001980  0.23963063  1
  Ta  Ta80  1  0.80521526  0.80060580  0.27100192  1
  Ta  Ta81  1  0.59528002  0.60229843  0.73315475  1
  Ta  Ta82  1  0.20350640  0.79441240  0.49489816  1
  Ta  Ta83  1  0.70118907  0.50120289  0.85710629  1
  Ta  Ta84  1  0.51382255  0.50606430  0.11986122  1
  Ta  Ta85  1  0.08321517  0.10094920  0.11425451  1
  Ta  Ta86  1  0.70306695  0.89516331  0.14517209  1
  Ta  Ta87  1  0.10153165  0.69013330  0.14296459  1
  Ta  Ta88  1  0.19123846  -0.00782926  0.22840195  1
  Ta  Ta89  1  0.50208120  0.30962238  0.88317792  1
  Ta  Ta90  1  0.69978404  0.90482190  0.62564238  1
  Ta  Ta91  1  0.02152076  0.19064919  0.76525009  1
  Ta  Ta92  1  0.00875540  0.39464643  0.50502835  1
  Ta  Ta93  1  0.50286768  0.69676345  0.14395461  1
  Ta  Ta94  1  0.10170774  0.68551118  0.61628451  1
  Ta  Ta95  1  0.29086291  0.90697782  0.36549350  1
  Ta  Ta96  1  0.11045206  0.50103236  0.61800108  1
  Ta  Ta97  1  0.30047236  0.30125668  0.12033280  1
  Ta  Ta98  1  0.70502443  0.09843540  0.62007712  1
  Ta  Ta99  1  0.49398686  0.11294671  0.11292032  1
  Ta  Ta100  1  0.30074137  0.49857068  0.12549932  1
  Ta  Ta101  1  0.89877752  0.89612992  0.14269333  1
  Ta  Ta102  1  0.48734854  0.50365901  0.60942345  1
  Ta  Ta103  1  0.89866291  0.68980565  0.38252527  1
  Ta  Ta104  1  0.09980861  0.49198851  0.12221308  1
  Ta  Ta105  1  0.29860011  0.69499196  0.13824489  1
  Ta  Ta106  1  0.10025213  0.29940494  0.11974617  1
  Ta  Ta107  1  0.70014463  0.69518635  0.38016453  1
  Ta  Ta108  1  0.49873520  0.90167562  0.86412864  1
  Ta  Ta109  1  0.49894249  0.91074855  0.36390547  1
  Ta  Ta110  1  0.30522603  0.29290494  0.35085388  1
  Ta  Ta111  1  0.70557779  0.50763970  0.14611067  1
  Ta  Ta112  1  0.79766343  0.80322497  0.49269574  1
  Ta  Ta113  1  0.89549661  0.90362066  0.85881023  1
  Ta  Ta114  1  0.39173757  0.79896941  0.25745835  1
  Ta  Ta115  1  0.00045050  0.79634621  0.25759419  1
  Ta  Ta116  1  0.51953369  0.51128175  0.88651703  1
  Ta  Ta117  1  0.59726810  0.00946705  0.23706674  1
  Ta  Ta118  1  0.20358716  0.59438158  0.00693294  1
  Ta  Ta119  1  0.69982630  0.50918697  0.38288943  1
  Ti  Ti120  1  0.08935805  0.89814597  0.86975556  1
  Ti  Ti121  1  0.90272294  0.10202872  0.62929939  1
  Ti  Ti122  1  0.81145090  -0.00523458  0.01536389  1
  Ti  Ti123  1  0.90158673  0.49244883  0.12167141  1
  Ti  Ti124  1  0.29671301  0.10241584  0.88679359  1
  Ti  Ti125  1  0.70025244  0.31458290  0.86348643  1
  Ti  Ti126  1  0.49268359  0.30800571  0.11814996  1
  Ti  Ti127  1  0.90903286  0.90632097  0.37580050  1
  Ti  Ti128  1  -0.00605615  0.18966534  0.25732571  1
  Ti  Ti129  1  0.90262792  0.07876216  0.87092444  1
  Ti  Ti130  1  0.29107539  0.10233712  0.38073775  1
  Ti  Ti131  1  -0.00905414  -0.00917702  0.00805738  1
  Ti  Ti132  1  0.00002218  0.00271877  0.24187001  1
  Ti  Ti133  1  0.19754638  0.79854347  0.24698968  1
  Ti  Ti134  1  0.37885414  0.21746746  0.50724934  1
  Ti  Ti135  1  0.20466517  0.39135105  0.74204839  1
  Ti  Ti136  1  0.28732272  0.30706069  0.88608216  1
  Ti  Ti137  1  0.80742423  0.20316984  0.49064491  1
  Ti  Ti138  1  0.47680265  0.30399595  0.62709525  1
  Ti  Ti139  1  0.28577691  0.69001975  0.36540174  1
  Ti  Ti140  1  0.50420923  0.50187445  0.38878129  1
  Ti  Ti141  1  0.92640025  0.32310182  0.85569509  1
  Ti  Ti142  1  0.70242317  0.70315048  0.61205909  1
  Ti  Ti143  1  0.61253583  0.41139472  0.00216397  1
  Ti  Ti144  1  0.81567157  0.39440159  0.48744601  1
  Ti  Ti145  1  0.29560194  0.90836700  0.63420621  1
  Ti  Ti146  1  0.59340001  0.41375576  0.25351759  1
  Ti  Ti147  1  0.11379460  0.28548813  0.63026853  1
  Ti  Ti148  1  0.00124917  0.00402663  0.74896261  1
  Ti  Ti149  1  0.19628804  0.79642729  0.74057596  1
  Ti  Ti150  1  0.59829950  0.79559754  0.73968335  1
  Ti  Ti151  1  0.29078577  0.69488725  0.87275089  1
  Ti  Ti152  1  0.18784864  0.20368376  -0.01412446  1
  Ti  Ti153  1  0.10505272  0.69171787  0.37287445  1
  Ti  Ti154  1  0.38616464  0.59286998  0.49154263  1
  Ti  Ti155  1  0.20127315  0.40037567  0.23582644  1
  Ti  Ti156  1  0.81227649  0.19977532  0.27062511  1
  Ti  Ti157  1  0.79342055  0.60612699  0.74389210  1
  Ti  Ti158  1  0.49171015  0.10336191  0.89286030  1
  Ti  Ti159  1  0.20750065  0.57869519  0.75221312  1
  Mo  Mo160  1  0.29574104  0.29643435  0.64137161  1
  Mo  Mo161  1  0.00866562  0.59487768  0.49390690  1
  Mo  Mo162  1  0.90639282  0.29989430  0.37211135  1
  Mo  Mo163  1  0.90337762  0.09495526  0.13030625  1
  Mo  Mo164  1  0.20620698  0.59997914  0.49273614  1
  Mo  Mo165  1  0.39440322  0.00590018  0.76951963  1
  Mo  Mo166  1  0.59920043  0.00459917  0.51508972  1
  Mo  Mo167  1  0.40542151  0.40038326  0.22636260  1
  Mo  Mo168  1  0.80451489  0.00597307  0.73369166  1
  Mo  Mo169  1  0.59956245  0.59386740  0.26094598  1
  Mo  Mo170  1  0.40046473  0.20848050  -0.01241317  1
  Mo  Mo171  1  0.49046132  0.11021915  0.62512463  1
  Mo  Mo172  1  0.39592102  0.20621551  0.23241876  1
  Mo  Mo173  1  0.20200628  0.59611645  0.24069421  1
  Mo  Mo174  1  0.19832050  0.39514543  0.01328741  1
  Mo  Mo175  1  0.09202327  0.08868449  0.89361367  1
  Mo  Mo176  1  0.60561933  0.59523453  0.00826882  1
  Mo  Mo177  1  0.08888584  0.89383081  0.14063322  1
  Mo  Mo178  1  0.50634758  0.69970051  0.86577068  1
  Mo  Mo179  1  0.80129372  0.40431546  0.75630639  1
  Mo  Mo180  1  0.29596085  0.88999624  0.14084961  1
  Mo  Mo181  1  0.90916072  0.49834855  0.40166078  1
  Mo  Mo182  1  0.20978285  -0.00927743  0.49934512  1
  Mo  Mo183  1  0.02216982  0.39381533  0.72609023  1
  Mo  Mo184  1  0.90461647  0.09805527  0.37168575  1
  Mo  Mo185  1  0.59763603  0.80251183  0.26557906  1
  Mo  Mo186  1  -0.00470881  0.00177404  0.50393217  1
  Mo  Mo187  1  0.19779258  0.20268418  0.77363911  1
  Mo  Mo188  1  0.10511671  0.29939216  0.87359362  1
  Mo  Mo189  1  0.39965586  0.39715573  0.50722120  1
  Mo  Mo190  1  0.29255668  0.50283736  0.89255201  1
  Mo  Mo191  1  0.00013093  0.39858066  0.01231907  1
  Mo  Mo192  1  0.80057741  0.59875256  0.27136379  1
  Mo  Mo193  1  0.20341725  0.20021278  0.48405821  1
  Mo  Mo194  1  0.59992570  0.60072360  0.50786883  1
  Mo  Mo195  1  0.01842595  0.59561708  0.74134491  1
  Mo  Mo196  1  0.80011189  0.60243194  0.49176154  1
  Mo  Mo197  1  0.79169867  0.79861887  0.73196314  1
  Mo  Mo198  1  0.30157979  0.49560804  0.61628618  1
  Mo  Mo199  1  0.00645341  0.39567346  0.24234937  1
