# generated using pymatgen
data_HfZrTaTiMo
_symmetry_space_group_name_H-M   'P 1'
_cell_length_a   15.92897652
_cell_length_b   15.92881878
_cell_length_c   15.19936109
_cell_angle_alpha   90.03353395
_cell_angle_beta   89.96721659
_cell_angle_gamma   90.12948475
_symmetry_Int_Tables_number   1
_chemical_formula_structural   HfZrTaTiMo
_chemical_formula_sum   'Hf40 Zr40 Ta40 Ti40 Mo40'
_cell_volume   3856.51941321
_cell_formula_units_Z   40
loop_
 _symmetry_equiv_pos_site_id
 _symmetry_equiv_pos_as_xyz
  1  'x, y, z'
loop_
 _atom_site_type_symbol
 _atom_site_label
 _atom_site_symmetry_multiplicity
 _atom_site_fract_x
 _atom_site_fract_y
 _atom_site_fract_z
 _atom_site_occupancy
  Hf  Hf0  1  0.69888283  0.29948205  0.36841345  1
  Hf  Hf1  1  0.30458900  0.50385541  0.62519068  1
  Hf  Hf2  1  0.58477159  0.18511117  0.24815259  1
  Hf  Hf3  1  0.30065965  0.10018165  0.63006703  1
  Hf  Hf4  1  0.80323615  0.59631512  0.74545611  1
  Hf  Hf5  1  0.40681400  0.80348572  0.22954577  1
  Hf  Hf6  1  0.70266433  0.69503685  0.88054001  1
  Hf  Hf7  1  0.29762493  0.29190698  0.13066743  1
  Hf  Hf8  1  0.89892185  0.28559807  0.86250318  1
  Hf  Hf9  1  0.10281992  0.29845723  0.84923323  1
  Hf  Hf10  1  0.69259031  0.29285284  0.13293147  1
  Hf  Hf11  1  0.71750146  0.09859018  0.88334908  1
  Hf  Hf12  1  0.40173816  0.59795556  0.25027151  1
  Hf  Hf13  1  0.19059513  0.59989509  0.26498117  1
  Hf  Hf14  1  0.47805248  0.09034030  0.11191214  1
  Hf  Hf15  1  0.49878815  0.49726444  0.38297176  1
  Hf  Hf16  1  0.81241269  0.19349563  0.01703448  1
  Hf  Hf17  1  0.50619759  0.29505190  0.89008911  1
  Hf  Hf18  1  0.89224266  0.50111154  0.38398925  1
  Hf  Hf19  1  0.10528011  0.52314679  0.61650188  1
  Hf  Hf20  1  0.09828864  0.92252371  0.12724370  1
  Hf  Hf21  1  0.10048020  0.11277288  0.37182272  1
  Hf  Hf22  1  0.00287411  0.80639260  0.74945776  1
  Hf  Hf23  1  0.80111246  0.40788051  0.23639638  1
  Hf  Hf24  1  0.09242242  0.70076657  0.11551971  1
  Hf  Hf25  1  0.90114865  0.09498304  0.63320207  1
  Hf  Hf26  1  0.49370702  0.69442531  0.63863388  1
  Hf  Hf27  1  0.89401867  0.50015331  0.88150294  1
  Hf  Hf28  1  0.09725616  0.30615721  0.37525297  1
  Hf  Hf29  1  0.59669009  0.79587283  0.22361018  1
  Hf  Hf30  1  0.79660095  0.79851565  0.50077834  1
  Hf  Hf31  1  0.89216803  0.91277247  0.88793493  1
  Hf  Hf32  1  0.59979246  0.38806035  0.74812699  1
  Hf  Hf33  1  0.79711691  0.19792397  0.50610694  1
  Hf  Hf34  1  0.59511829  0.18350738  0.51034088  1
  Hf  Hf35  1  0.60217171  0.80395322  0.50599187  1
  Hf  Hf36  1  0.20634121  0.80411203  0.01458326  1
  Hf  Hf37  1  0.79278583  0.60315343  0.50824850  1
  Hf  Hf38  1  0.19718452  0.02228515  -0.00728523  1
  Hf  Hf39  1  0.31389765  0.92987780  0.12537999  1
  Zr  Zr40  1  0.29710112  0.90364354  0.63151608  1
  Zr  Zr41  1  0.38149612  0.17386568  0.27081013  1
  Zr  Zr42  1  0.70242556  0.89340189  0.87731595  1
  Zr  Zr43  1  0.49222488  0.48980634  0.11903654  1
  Zr  Zr44  1  0.29275265  0.48804845  0.13298341  1
  Zr  Zr45  1  0.31019921  0.90460857  0.37690234  1
  Zr  Zr46  1  -0.00883374  0.40635307  0.73527267  1
  Zr  Zr47  1  0.69364713  0.49553360  0.62508650  1
  Zr  Zr48  1  0.69353807  0.89184317  0.35712334  1
  Zr  Zr49  1  0.48765149  0.28922639  0.11287514  1
  Zr  Zr50  1  0.10588011  0.91239436  0.37074694  1
  Zr  Zr51  1  0.00299974  0.39580785  -0.00048734  1
  Zr  Zr52  1  0.42027055  0.19737231  0.74803549  1
  Zr  Zr53  1  0.10142278  0.50424208  0.12129960  1
  Zr  Zr54  1  0.29827803  0.70140561  0.38444975  1
  Zr  Zr55  1  0.30514270  0.30524565  0.62469015  1
  Zr  Zr56  1  0.20400790  0.80084685  0.24197175  1
  Zr  Zr57  1  0.49655559  0.29841888  0.38368666  1
  Zr  Zr58  1  0.69992900  0.68278109  0.34985361  1
  Zr  Zr59  1  -0.00162111  0.61071795  0.75394576  1
  Zr  Zr60  1  0.28277575  0.89288947  0.86625525  1
  Zr  Zr61  1  0.59303094  0.00940649  0.76705656  1
  Zr  Zr62  1  0.71076688  0.89689067  0.10861697  1
  Zr  Zr63  1  0.40343293  0.79853602  -0.00048004  1
  Zr  Zr64  1  0.40276856  0.80044135  0.75953778  1
  Zr  Zr65  1  0.10995299  0.71092084  0.87737244  1
  Zr  Zr66  1  0.11275572  0.30740804  0.14398275  1
  Zr  Zr67  1  0.49918695  0.70850100  0.37478662  1
  Zr  Zr68  1  0.68844390  0.08646821  0.36224273  1
  Zr  Zr69  1  0.00927365  0.19361455  0.00406100  1
  Zr  Zr70  1  0.61001017  0.40532387  0.00196317  1
  Zr  Zr71  1  0.90117283  0.29976128  0.37400433  1
  Zr  Zr72  1  0.91507362  0.89727370  0.10116875  1
  Zr  Zr73  1  -0.00443194  0.80450714  0.26205301  1
  Zr  Zr74  1  0.80284556  0.39875918  0.01185053  1
  Zr  Zr75  1  0.79988352  -0.00508974  0.49151634  1
  Zr  Zr76  1  0.50794866  0.90602855  0.63416079  1
  Zr  Zr77  1  0.81993143  -0.01164538  0.25176843  1
  Zr  Zr78  1  0.00032598  0.80444833  0.49572359  1
  Zr  Zr79  1  0.59643212  0.60103365  0.50867805  1
  Ta  Ta80  1  0.90079181  0.69527472  0.11198050  1
  Ta  Ta81  1  0.20305755  0.39873258  -0.02074322  1
  Ta  Ta82  1  0.50609901  0.69531858  0.87744888  1
  Ta  Ta83  1  0.89735693  0.90237401  0.62802831  1
  Ta  Ta84  1  0.00253434  0.41466753  0.25343533  1
  Ta  Ta85  1  0.10552324  0.50288016  0.86643542  1
  Ta  Ta86  1  0.21029022  0.59263219  -0.01462452  1
  Ta  Ta87  1  0.80653357  0.19148158  0.24281783  1
  Ta  Ta88  1  0.10315281  0.30048937  0.62867927  1
  Ta  Ta89  1  -0.00643735  0.60670718  0.26237140  1
  Ta  Ta90  1  0.81048211  0.79520413  0.74892761  1
  Ta  Ta91  1  0.80780830  0.78621717  0.23581198  1
  Ta  Ta92  1  0.29424191  0.30079945  0.38830066  1
  Ta  Ta93  1  0.59611777  0.59362986  0.75636433  1
  Ta  Ta94  1  0.69714581  0.09126071  0.12568207  1
  Ta  Ta95  1  0.51302031  0.67858000  0.10641138  1
  Ta  Ta96  1  0.39760900  0.00251526  -0.03159660  1
  Ta  Ta97  1  0.19716405  0.40388274  0.50369604  1
  Ta  Ta98  1  0.38297680  0.39874241  -0.02021062  1
  Ta  Ta99  1  0.20466429  0.20972887  -0.01542689  1
  Ta  Ta100  1  0.79286256  0.20173720  0.73375330  1
  Ta  Ta101  1  0.40444328  0.00457757  0.76923031  1
  Ta  Ta102  1  0.70431131  0.89894848  0.64551111  1
  Ta  Ta103  1  -0.00142850  0.20181533  0.51524218  1
  Ta  Ta104  1  0.41382625  0.00578375  0.49765568  1
  Ta  Ta105  1  0.79560445  0.38968438  0.73997173  1
  Ta  Ta106  1  0.39506367  0.59393983  -0.01377877  1
  Ta  Ta107  1  0.19573171  0.79894173  0.51020817  1
  Ta  Ta108  1  0.69667403  0.49319329  0.36877860  1
  Ta  Ta109  1  0.59549199  -0.00365670  -0.00050863  1
  Ta  Ta110  1  0.10033393  0.10064981  0.63318291  1
  Ta  Ta111  1  0.90556828  0.70020995  0.61827101  1
  Ta  Ta112  1  0.49826647  0.49603005  0.87352457  1
  Ta  Ta113  1  0.39963093  0.80262788  0.51224421  1
  Ta  Ta114  1  0.09274977  0.10830766  0.85120086  1
  Ta  Ta115  1  0.28611147  0.69406892  0.63202750  1
  Ta  Ta116  1  0.10916079  0.11312285  0.14463538  1
  Ta  Ta117  1  0.09022046  0.90887943  0.88584884  1
  Ta  Ta118  1  0.22316202  0.02692476  0.25541457  1
  Ta  Ta119  1  0.09290493  0.50520386  0.39191694  1
  Ti  Ti120  1  -0.00109813  0.00333512  0.49606935  1
  Ti  Ti121  1  0.70112533  0.49431773  0.86991105  1
  Ti  Ti122  1  0.19639736  0.20129752  0.50700974  1
  Ti  Ti123  1  0.60222307  0.39357278  0.50536139  1
  Ti  Ti124  1  0.29249539  0.11251282  0.85719577  1
  Ti  Ti125  1  0.30172386  0.68507998  0.12072689  1
  Ti  Ti126  1  0.20448502  0.41142057  0.74638596  1
  Ti  Ti127  1  -0.00641017  0.00113132  0.75661876  1
  Ti  Ti128  1  0.49054558  0.49117562  0.62764330  1
  Ti  Ti129  1  0.30326012  0.30190112  0.85184385  1
  Ti  Ti130  1  0.20083829  0.00432789  0.50241143  1
  Ti  Ti131  1  0.79579720  0.39164383  0.51469144  1
  Ti  Ti132  1  0.29705416  0.49601317  0.38846437  1
  Ti  Ti133  1  0.00425917  0.59981526  -0.01113334  1
  Ti  Ti134  1  0.49571047  0.30551214  0.61573600  1
  Ti  Ti135  1  0.59183235  0.40308099  0.24767069  1
  Ti  Ti136  1  0.60799577  0.20050738  0.73684312  1
  Ti  Ti137  1  0.90610308  0.51094390  0.12391116  1
  Ti  Ti138  1  0.50916615  0.91035035  0.37222801  1
  Ti  Ti139  1  0.91348144  0.29686443  0.14065037  1
  Ti  Ti140  1  0.51044689  0.11425426  0.89639419  1
  Ti  Ti141  1  0.29580034  0.69526636  0.86146993  1
  Ti  Ti142  1  0.70167946  0.28930447  0.88211176  1
  Ti  Ti143  1  -0.00241884  0.39732287  0.51071915  1
  Ti  Ti144  1  0.39172187  0.39343738  0.26471979  1
  Ti  Ti145  1  0.39686554  0.59110735  0.76142134  1
  Ti  Ti146  1  0.69444278  0.70768409  0.64589206  1
  Ti  Ti147  1  0.39601879  0.60288127  0.50295538  1
  Ti  Ti148  1  0.59998118  0.79425118  0.00213229  1
  Ti  Ti149  1  0.89829232  0.70994350  0.89581945  1
  Ti  Ti150  1  0.91057259  0.10206558  0.36923985  1
  Ti  Ti151  1  0.78957070  0.59724039  0.01139279  1
  Ti  Ti152  1  0.91999259  0.08898769  0.13472527  1
  Ti  Ti153  1  0.69642517  0.08331902  0.62938331  1
  Ti  Ti154  1  0.89602265  0.69722088  0.37712799  1
  Ti  Ti155  1  0.68575193  0.52419480  0.14071869  1
  Ti  Ti156  1  0.90183956  0.50442265  0.61238285  1
  Ti  Ti157  1  0.19181587  -0.00096519  0.75269192  1
  Ti  Ti158  1  0.09625105  0.90844684  0.62554659  1
  Ti  Ti159  1  0.40157868  0.19340046  0.50098349  1
  Mo  Mo160  1  0.80110647  -0.00173449  0.74373833  1
  Mo  Mo161  1  -0.00372743  0.20267217  0.24464195  1
  Mo  Mo162  1  0.60001330  0.59441743  -0.01773576  1
  Mo  Mo163  1  0.20162515  0.20095234  0.74434681  1
  Mo  Mo164  1  0.80794414  0.59762453  0.23650152  1
  Mo  Mo165  1  0.59209897  0.59297399  0.25364038  1
  Mo  Mo166  1  0.80161531  0.78961480  0.00521254  1
  Mo  Mo167  1  0.18887513  0.80287093  0.73034235  1
  Mo  Mo168  1  0.20313817  0.40651348  0.28067111  1
  Mo  Mo169  1  0.89826895  0.30202471  0.61955019  1
  Mo  Mo170  1  0.20183178  0.60365354  0.75950049  1
  Mo  Mo171  1  0.89828611  0.90010074  0.38259490  1
  Mo  Mo172  1  0.30007144  0.49732651  0.85750362  1
  Mo  Mo173  1  0.20050741  0.60543250  0.49021311  1
  Mo  Mo174  1  0.70163332  0.69325987  0.11671153  1
  Mo  Mo175  1  0.90106484  0.10281229  0.85573285  1
  Mo  Mo176  1  0.60477418  0.79285771  0.75799257  1
  Mo  Mo177  1  0.69576531  0.29453240  0.61927026  1
  Mo  Mo178  1  -0.00459059  0.60602343  0.49089572  1
  Mo  Mo179  1  0.10196684  0.70762564  0.61899858  1
  Mo  Mo180  1  0.50323928  0.89803883  0.88412971  1
  Mo  Mo181  1  0.29406988  0.10938531  0.10996895  1
  Mo  Mo182  1  0.50001014  0.89939581  0.10366958  1
  Mo  Mo183  1  0.60672770  0.19284943  0.01176713  1
  Mo  Mo184  1  0.38310109  0.19797067  -0.02152484  1
  Mo  Mo185  1  0.60094994  -0.00747340  0.51181368  1
  Mo  Mo186  1  0.00495674  0.01744987  -0.01416520  1
  Mo  Mo187  1  0.80592442  0.01179033  0.01230715  1
  Mo  Mo188  1  0.40713324  0.40135011  0.75739629  1
  Mo  Mo189  1  0.40952658  0.00023320  0.26618471  1
  Mo  Mo190  1  0.29554694  0.10132315  0.40703265  1
  Mo  Mo191  1  0.00820972  0.00641692  0.26327160  1
  Mo  Mo192  1  0.39913403  0.40148569  0.49607864  1
  Mo  Mo193  1  0.49902892  0.09895949  0.62391980  1
  Mo  Mo194  1  0.58449218  -0.01003942  0.22291678  1
  Mo  Mo195  1  0.50025295  0.08825151  0.38236909  1
  Mo  Mo196  1  0.09675560  0.69727590  0.38869137  1
  Mo  Mo197  1  0.00380062  0.80047736  -0.00855940  1
  Mo  Mo198  1  0.20303263  0.20564333  0.26562640  1
  Mo  Mo199  1  -0.00282734  0.20069859  0.73051209  1
