# generated using pymatgen
data_HfZrTaTiMo
_symmetry_space_group_name_H-M   'P 1'
_cell_length_a   15.93373033
_cell_length_b   15.93195196
_cell_length_c   15.19641411
_cell_angle_alpha   89.97218712
_cell_angle_beta   90.00081409
_cell_angle_gamma   89.97774141
_symmetry_Int_Tables_number   1
_chemical_formula_structural   HfZrTaTiMo
_chemical_formula_sum   'Hf40 Zr40 Ta40 Ti40 Mo40'
_cell_volume   3857.69143613
_cell_formula_units_Z   40
loop_
 _symmetry_equiv_pos_site_id
 _symmetry_equiv_pos_as_xyz
  1  'x, y, z'
loop_
 _atom_site_type_symbol
 _atom_site_label
 _atom_site_symmetry_multiplicity
 _atom_site_fract_x
 _atom_site_fract_y
 _atom_site_fract_z
 _atom_site_occupancy
  Hf  Hf0  1  -0.00636067  0.00440588  0.49323044  1
  Hf  Hf1  1  0.90127361  0.09274682  0.87888041  1
  Hf  Hf2  1  0.10099201  0.10973167  0.61217542  1
  Hf  Hf3  1  0.19376061  0.40771425  0.25823336  1
  Hf  Hf4  1  0.78772214  0.59752378  0.76298638  1
  Hf  Hf5  1  0.31627493  0.30893015  0.36151386  1
  Hf  Hf6  1  0.79530449  0.79130847  0.23640266  1
  Hf  Hf7  1  0.09872278  0.71101588  0.87512726  1
  Hf  Hf8  1  0.60568305  -0.02876341  0.76013903  1
  Hf  Hf9  1  0.09727901  0.30963083  0.11720220  1
  Hf  Hf10  1  0.00535556  0.00063145  0.74615357  1
  Hf  Hf11  1  0.80468823  0.40185479  0.76482777  1
  Hf  Hf12  1  0.70960417  0.30152249  0.61965425  1
  Hf  Hf13  1  0.30550199  0.71150962  0.88759368  1
  Hf  Hf14  1  0.70399216  0.68225278  0.37531178  1
  Hf  Hf15  1  0.10523400  0.09299202  0.12621184  1
  Hf  Hf16  1  0.19751797  0.20501186  0.25179050  1
  Hf  Hf17  1  0.47469298  0.68144122  0.35968771  1
  Hf  Hf18  1  0.30273228  0.69382753  0.62829937  1
  Hf  Hf19  1  0.79246336  -0.02041365  0.01502220  1
  Hf  Hf20  1  0.30984902  0.89271097  0.60202940  1
  Hf  Hf21  1  0.88434974  0.91243437  0.62411127  1
  Hf  Hf22  1  0.59947054  0.79101984  0.25049376  1
  Hf  Hf23  1  0.49610962  0.29774632  0.38634766  1
  Hf  Hf24  1  0.89323899  0.50771980  0.38845412  1
  Hf  Hf25  1  0.80316677  0.59772787  0.00246727  1
  Hf  Hf26  1  0.20584488  0.20938466  0.49130367  1
  Hf  Hf27  1  0.50560835  0.29627245  0.61590918  1
  Hf  Hf28  1  0.40607753  0.20390378  0.00652945  1
  Hf  Hf29  1  0.40405403  0.00449062  0.01285589  1
  Hf  Hf30  1  0.60744497  0.20620968  0.25297952  1
  Hf  Hf31  1  0.58583701  0.78653943  0.74847988  1
  Hf  Hf32  1  0.39384001  0.19325147  0.73730810  1
  Hf  Hf33  1  0.30756093  0.70739872  0.12499662  1
  Hf  Hf34  1  0.80021434  0.58765058  0.22958649  1
  Hf  Hf35  1  0.00104606  0.39981442  0.76016383  1
  Hf  Hf36  1  0.09646169  0.89946882  0.36733893  1
  Hf  Hf37  1  -0.00840078  0.40774120  0.25266977  1
  Hf  Hf38  1  -0.01634038  0.20286785  0.23789320  1
  Hf  Hf39  1  0.29294027  0.89848264  0.90503467  1
  Zr  Zr40  1  0.19372959  0.60287191  -0.00043029  1
  Zr  Zr41  1  0.70677544  0.08643268  0.86093410  1
  Zr  Zr42  1  -0.00118247  0.59417011  0.75969647  1
  Zr  Zr43  1  0.89275670  0.69949693  0.63285446  1
  Zr  Zr44  1  0.12900723  0.50312328  0.65039896  1
  Zr  Zr45  1  0.58688936  0.79073235  0.48284097  1
  Zr  Zr46  1  0.89474950  0.71079380  0.87674839  1
  Zr  Zr47  1  0.00909322  0.40338410  0.50498583  1
  Zr  Zr48  1  0.40285074  0.39899272  0.74778597  1
  Zr  Zr49  1  0.20446551  0.20385949  0.00616638  1
  Zr  Zr50  1  0.00164412  0.20413816  0.75766478  1
  Zr  Zr51  1  0.29989604  0.09847249  0.88632148  1
  Zr  Zr52  1  0.20840141  0.00851523  0.73968317  1
  Zr  Zr53  1  0.20137884  0.20898693  0.75376905  1
  Zr  Zr54  1  0.79835772  0.79528429  0.49793288  1
  Zr  Zr55  1  0.60708457  0.40369064  0.75675563  1
  Zr  Zr56  1  0.71031119  0.29168420  0.39577229  1
  Zr  Zr57  1  0.50772724  0.08490327  0.62547262  1
  Zr  Zr58  1  0.69765259  0.10185126  0.12914882  1
  Zr  Zr59  1  0.20963584  0.01142856  0.47665379  1
  Zr  Zr60  1  0.69538194  0.48276281  0.10589720  1
  Zr  Zr61  1  0.20385636  0.81082171  0.75217562  1
  Zr  Zr62  1  0.59852435  -0.00675432  0.00349750  1
  Zr  Zr63  1  0.89230798  0.89447254  0.86921465  1
  Zr  Zr64  1  0.70822780  0.08632902  0.61953675  1
  Zr  Zr65  1  0.01054107  0.59824247  0.51193390  1
  Zr  Zr66  1  0.40223167  -0.01646062  0.75350213  1
  Zr  Zr67  1  0.19617000  0.60252976  0.24708355  1
  Zr  Zr68  1  0.90199102  0.89461879  0.36802419  1
  Zr  Zr69  1  0.40364377  0.00384892  0.47999695  1
  Zr  Zr70  1  0.20385152  0.41535501  0.48227978  1
  Zr  Zr71  1  0.00105397  -0.01083964  0.01567621  1
  Zr  Zr72  1  0.60535638  0.40305841  0.25840039  1
  Zr  Zr73  1  0.50106223  0.51277302  0.62371561  1
  Zr  Zr74  1  0.79239430  0.20584585  -0.00326622  1
  Zr  Zr75  1  0.59976238  0.19914895  -0.00903110  1
  Zr  Zr76  1  0.10658539  0.89646949  0.60623443  1
  Zr  Zr77  1  0.40231605  0.58848129  0.00021982  1
  Zr  Zr78  1  0.09054825  0.69885084  0.37075119  1
  Zr  Zr79  1  0.80087635  0.01201999  0.25203713  1
  Ta  Ta80  1  0.80891928  0.20296227  0.74507451  1
  Ta  Ta81  1  0.29617831  0.90681311  0.13160017  1
  Ta  Ta82  1  0.29510740  0.50277741  0.86147818  1
  Ta  Ta83  1  0.90051862  0.69481738  0.37025777  1
  Ta  Ta84  1  0.80154797  0.39325559  0.25363946  1
  Ta  Ta85  1  0.09559043  0.49997982  0.11498482  1
  Ta  Ta86  1  0.20594888  0.40673910  -0.00669162  1
  Ta  Ta87  1  0.10298782  0.09290259  0.89178709  1
  Ta  Ta88  1  0.00012066  0.79526887  0.50781798  1
  Ta  Ta89  1  0.70241538  0.50581498  0.61238247  1
  Ta  Ta90  1  0.20062052  0.80288324  0.24790698  1
  Ta  Ta91  1  0.39509806  0.41008678  0.50737302  1
  Ta  Ta92  1  0.89894967  0.29825518  0.39485795  1
  Ta  Ta93  1  0.10250123  0.30544201  0.62482545  1
  Ta  Ta94  1  0.69716114  0.90493151  0.37731419  1
  Ta  Ta95  1  0.59460290  -0.00141519  0.26172744  1
  Ta  Ta96  1  0.39709664  -0.00020237  0.25446649  1
  Ta  Ta97  1  -0.00341893  0.20088166  0.00473163  1
  Ta  Ta98  1  0.21228169  0.60142688  0.48192589  1
  Ta  Ta99  1  0.59817965  0.60118542  0.76960317  1
  Ta  Ta100  1  0.77220157  0.80968765  0.74207962  1
  Ta  Ta101  1  0.69524811  0.70983250  0.89421767  1
  Ta  Ta102  1  0.11366861  0.69976164  0.62701321  1
  Ta  Ta103  1  -0.00679855  0.79559998  0.02323402  1
  Ta  Ta104  1  0.32230697  0.51610036  0.35775049  1
  Ta  Ta105  1  0.88884030  0.31589767  0.10782962  1
  Ta  Ta106  1  0.30413934  0.49215452  0.12621505  1
  Ta  Ta107  1  0.50640343  0.69331800  0.11894666  1
  Ta  Ta108  1  0.49735088  0.10382901  0.14325804  1
  Ta  Ta109  1  0.88639711  0.11633674  0.39065225  1
  Ta  Ta110  1  0.41224670  0.61094576  0.76807443  1
  Ta  Ta111  1  0.50893052  0.31210566  0.11600377  1
  Ta  Ta112  1  0.68708197  0.90050395  0.60159689  1
  Ta  Ta113  1  0.68497261  0.69140644  0.61956994  1
  Ta  Ta114  1  0.50009035  0.88872377  0.60471427  1
  Ta  Ta115  1  0.50064784  0.09685801  0.86375420  1
  Ta  Ta116  1  0.49614974  0.89630794  0.13728520  1
  Ta  Ta117  1  0.30997382  0.30892629  0.12991556  1
  Ta  Ta118  1  0.70277971  0.49710230  0.39011016  1
  Ta  Ta119  1  0.88889817  0.49306437  0.62003708  1
  Ti  Ti120  1  0.49765924  0.49753590  0.38188747  1
  Ti  Ti121  1  -0.00692145  0.59810364  0.23260230  1
  Ti  Ti122  1  0.09863023  0.90392038  0.88281574  1
  Ti  Ti123  1  0.59489536  0.58739362  0.23685733  1
  Ti  Ti124  1  0.41729162  0.41063649  0.23780606  1
  Ti  Ti125  1  0.00212517  0.80450436  0.73520152  1
  Ti  Ti126  1  0.20909893  0.79116164  0.47645353  1
  Ti  Ti127  1  0.30275525  0.10295520  0.13615325  1
  Ti  Ti128  1  -0.00214921  0.60243312  0.00413805  1
  Ti  Ti129  1  0.17706430  0.81183304  0.02907700  1
  Ti  Ti130  1  0.50493361  0.70501764  0.90268973  1
  Ti  Ti131  1  0.89889897  0.10798868  0.61763189  1
  Ti  Ti132  1  0.60244966  0.18272563  0.49629616  1
  Ti  Ti133  1  0.59943404  0.40332115  0.50084129  1
  Ti  Ti134  1  -0.00818419  0.01094091  0.24923612  1
  Ti  Ti135  1  0.40546957  0.80037492  0.75398470  1
  Ti  Ti136  1  0.00175502  0.78935097  0.23122191  1
  Ti  Ti137  1  0.61333290  0.38696552  -0.02199939  1
  Ti  Ti138  1  0.39092101  0.19683783  0.51397824  1
  Ti  Ti139  1  0.49935404  0.10840016  0.36537445  1
  Ti  Ti140  1  0.90023969  0.29997209  0.88789348  1
  Ti  Ti141  1  0.31470501  0.11651064  0.35657749  1
  Ti  Ti142  1  0.50116567  0.49257524  0.88680817  1
  Ti  Ti143  1  0.49863960  0.29509235  0.87115511  1
  Ti  Ti144  1  0.08605129  0.11101021  0.37188883  1
  Ti  Ti145  1  -0.00294521  0.41170041  -0.01086699  1
  Ti  Ti146  1  0.28961394  0.31517682  0.62647464  1
  Ti  Ti147  1  0.48682770  0.69806371  0.61228088  1
  Ti  Ti148  1  0.08947473  0.29884249  0.37625686  1
  Ti  Ti149  1  0.10391586  0.30437636  0.88584520  1
  Ti  Ti150  1  0.61671610  0.80456402  0.02502110  1
  Ti  Ti151  1  0.30461195  0.51107990  0.64259721  1
  Ti  Ti152  1  0.59280121  0.59668563  0.49378339  1
  Ti  Ti153  1  0.60446701  0.19847059  0.75169285  1
  Ti  Ti154  1  0.49765455  0.88439639  0.89788724  1
  Ti  Ti155  1  0.20291409  0.00205337  0.25886714  1
  Ti  Ti156  1  0.80239762  0.20851094  0.23985153  1
  Ti  Ti157  1  0.90000558  0.89875771  0.13761635  1
  Ti  Ti158  1  0.30751483  0.30930539  0.88086566  1
  Ti  Ti159  1  0.48605526  0.88915205  0.36702308  1
  Mo  Mo160  1  0.90574527  0.29892217  0.61904059  1
  Mo  Mo161  1  0.00267283  0.20506519  0.50304726  1
  Mo  Mo162  1  0.39859582  0.79959768  0.23755902  1
  Mo  Mo163  1  0.90120159  0.10678940  0.11811529  1
  Mo  Mo164  1  0.09684017  0.90042308  0.15189807  1
  Mo  Mo165  1  0.80004879  -0.00488536  0.74762919  1
  Mo  Mo166  1  0.69401901  0.69230779  0.11672428  1
  Mo  Mo167  1  0.39087642  0.79180402  0.48611091  1
  Mo  Mo168  1  0.69754804  0.88223238  0.88061461  1
  Mo  Mo169  1  0.39214571  0.59305641  0.50221735  1
  Mo  Mo170  1  0.19979736  0.39694022  0.77131898  1
  Mo  Mo171  1  0.90619041  0.49274665  0.11037499  1
  Mo  Mo172  1  0.40963120  0.59047461  0.22291831  1
  Mo  Mo173  1  0.80222928  0.40207963  0.50147052  1
  Mo  Mo174  1  0.59985112  0.59809477  -0.01092159  1
  Mo  Mo175  1  0.70056627  0.29235983  0.85055828  1
  Mo  Mo176  1  0.90113904  0.50034371  0.88886101  1
  Mo  Mo177  1  0.19871998  -0.00414326  0.01753169  1
  Mo  Mo178  1  0.30049920  0.10367804  0.61539124  1
  Mo  Mo179  1  0.90123096  0.69530195  0.12413778  1
  Mo  Mo180  1  0.80025224  0.39807762  -0.02190918  1
  Mo  Mo181  1  0.40618080  0.20756470  0.23473793  1
  Mo  Mo182  1  0.09672052  0.69881544  0.12660024  1
  Mo  Mo183  1  0.09687411  0.50608694  0.36223142  1
  Mo  Mo184  1  0.70303481  0.30360296  0.12951045  1
  Mo  Mo185  1  0.79753566  0.60206290  0.50923415  1
  Mo  Mo186  1  0.30071597  0.89578050  0.35855752  1
  Mo  Mo187  1  0.59440845  -0.00299214  0.47423185  1
  Mo  Mo188  1  0.10038302  0.50180388  0.88762361  1
  Mo  Mo189  1  0.40114159  0.39506138  -0.00725361  1
  Mo  Mo190  1  0.41112506  0.80463295  0.01834019  1
  Mo  Mo191  1  0.30077323  0.70174028  0.36026952  1
  Mo  Mo192  1  0.69565794  0.50211219  0.88560017  1
  Mo  Mo193  1  0.80547673  0.20086224  0.52078626  1
  Mo  Mo194  1  0.50391521  0.49013665  0.10430480  1
  Mo  Mo195  1  0.79723202  0.79739590  0.02578343  1
  Mo  Mo196  1  0.20702911  0.60835518  0.76785483  1
  Mo  Mo197  1  0.79579435  0.00315394  0.48474429  1
  Mo  Mo198  1  0.69907341  0.09978165  0.38408247  1
  Mo  Mo199  1  0.69283480  0.89871338  0.15255231  1
