# generated using pymatgen
data_HfZrTaTiMo
_symmetry_space_group_name_H-M   'P 1'
_cell_length_a   15.93179833
_cell_length_b   15.92044207
_cell_length_c   15.19462315
_cell_angle_alpha   90.09908136
_cell_angle_beta   89.99752984
_cell_angle_gamma   90.18052609
_symmetry_Int_Tables_number   1
_chemical_formula_structural   HfZrTaTiMo
_chemical_formula_sum   'Hf40 Zr40 Ta40 Ti40 Mo40'
_cell_volume   3853.95865565
_cell_formula_units_Z   40
loop_
 _symmetry_equiv_pos_site_id
 _symmetry_equiv_pos_as_xyz
  1  'x, y, z'
loop_
 _atom_site_type_symbol
 _atom_site_label
 _atom_site_symmetry_multiplicity
 _atom_site_fract_x
 _atom_site_fract_y
 _atom_site_fract_z
 _atom_site_occupancy
  Hf  Hf0  1  0.30789059  0.71849552  0.13253482  1
  Hf  Hf1  1  0.30730879  0.70484916  0.38082911  1
  Hf  Hf2  1  0.39350318  0.39780800  0.50379353  1
  Hf  Hf3  1  0.00640320  0.21854674  0.49561411  1
  Hf  Hf4  1  0.29050335  0.10313390  0.13000979  1
  Hf  Hf5  1  0.60456246  0.78807026  0.24966238  1
  Hf  Hf6  1  0.89968679  0.10254916  0.11991567  1
  Hf  Hf7  1  0.50424791  0.49719341  0.38984794  1
  Hf  Hf8  1  0.10688895  0.70058881  0.87518729  1
  Hf  Hf9  1  0.50123852  0.69788312  0.10551864  1
  Hf  Hf10  1  0.79868122  0.78831260  0.50160639  1
  Hf  Hf11  1  0.90704072  0.30915731  0.63118893  1
  Hf  Hf12  1  0.10091406  0.10224954  0.61259162  1
  Hf  Hf13  1  0.00397520  0.21339167  -0.01561671  1
  Hf  Hf14  1  0.48257489  0.47893151  0.86723613  1
  Hf  Hf15  1  0.40515783  0.18329014  0.47832214  1
  Hf  Hf16  1  -0.00973537  0.60207120  0.24638586  1
  Hf  Hf17  1  0.00795784  0.80527725  0.74711366  1
  Hf  Hf18  1  0.49425407  0.08855753  0.63191092  1
  Hf  Hf19  1  0.00723961  0.01018451  0.76228228  1
  Hf  Hf20  1  0.48868927  0.88279111  0.12719333  1
  Hf  Hf21  1  0.70043025  0.89224310  0.37804818  1
  Hf  Hf22  1  -0.00613603  0.60005651  0.50273024  1
  Hf  Hf23  1  0.29951365  0.10219081  0.87627966  1
  Hf  Hf24  1  0.10632804  0.29929079  0.14501696  1
  Hf  Hf25  1  0.90766494  0.30782576  0.14117056  1
  Hf  Hf26  1  0.10263649  0.90771848  0.89470513  1
  Hf  Hf27  1  0.50455566  0.69699949  0.38634992  1
  Hf  Hf28  1  0.60346096  0.39047690  -0.00247122  1
  Hf  Hf29  1  0.90012712  0.10310417  0.62686189  1
  Hf  Hf30  1  0.50741638  0.29375848  0.61011450  1
  Hf  Hf31  1  0.89275108  0.50226257  0.63572675  1
  Hf  Hf32  1  0.50050573  0.09649564  0.12329303  1
  Hf  Hf33  1  0.70537499  0.09942002  0.88137610  1
  Hf  Hf34  1  0.71077217  0.30600271  0.36731950  1
  Hf  Hf35  1  0.19264179  0.79781212  0.51183675  1
  Hf  Hf36  1  0.19742153  0.60114241  0.73289978  1
  Hf  Hf37  1  0.59291310  -0.00903077  -0.00850644  1
  Hf  Hf38  1  0.89512798  0.10554024  0.37821273  1
  Hf  Hf39  1  0.09687629  0.70388940  0.36573314  1
  Zr  Zr40  1  0.21708590  0.41167083  0.01203588  1
  Zr  Zr41  1  0.29503346  0.90295900  0.38708629  1
  Zr  Zr42  1  0.89467769  0.10514103  0.87732431  1
  Zr  Zr43  1  0.70225464  0.69786366  0.65706517  1
  Zr  Zr44  1  0.60445177  0.39524026  0.75032798  1
  Zr  Zr45  1  0.80334534  0.79522548  0.24472490  1
  Zr  Zr46  1  0.19218476  0.59573509  0.51007228  1
  Zr  Zr47  1  0.89646905  0.90681015  0.62876846  1
  Zr  Zr48  1  0.20047157  0.21402891  -0.01173265  1
  Zr  Zr49  1  0.30301931  0.10294218  0.62918356  1
  Zr  Zr50  1  0.10239911  0.31111221  0.35987163  1
  Zr  Zr51  1  0.50059208  0.69123613  0.86345774  1
  Zr  Zr52  1  0.61231176  0.41596848  0.24419480  1
  Zr  Zr53  1  0.09827489  0.09113045  0.11319703  1
  Zr  Zr54  1  0.31427782  0.32942820  0.85850467  1
  Zr  Zr55  1  0.29659100  0.30585645  0.36205978  1
  Zr  Zr56  1  0.40750309  0.60019698  0.25099419  1
  Zr  Zr57  1  -0.00399436  0.79490293  0.50642834  1
  Zr  Zr58  1  0.90123780  0.90732589  0.10586620  1
  Zr  Zr59  1  0.11015010  0.49961517  0.87837957  1
  Zr  Zr60  1  0.78690195  0.59392313  0.24466132  1
  Zr  Zr61  1  0.30326924  0.91635379  0.62207720  1
  Zr  Zr62  1  0.50516132  0.50532211  0.11719544  1
  Zr  Zr63  1  0.40358601  0.21775477  0.00518240  1
  Zr  Zr64  1  0.09144733  0.49589910  0.12531691  1
  Zr  Zr65  1  0.61228069  0.18320392  0.25932924  1
  Zr  Zr66  1  0.69765500  0.90201731  0.63741868  1
  Zr  Zr67  1  0.79722178  0.20803565  0.50658531  1
  Zr  Zr68  1  -0.00455850  0.79111651  -0.00378226  1
  Zr  Zr69  1  0.39923596  0.00221903  0.26158059  1
  Zr  Zr70  1  0.38786007  -0.01651888  -0.00697904  1
  Zr  Zr71  1  0.60645920  0.20156630  0.75493790  1
  Zr  Zr72  1  0.59902003  0.79399787  0.51354970  1
  Zr  Zr73  1  0.18994225  0.21028628  0.75456015  1
  Zr  Zr74  1  0.58308241  -0.00281008  0.49041593  1
  Zr  Zr75  1  0.80442641  0.59181153  -0.00587396  1
  Zr  Zr76  1  0.20216571  0.60006031  0.24341003  1
  Zr  Zr77  1  0.79367821  0.00151324  0.25408040  1
  Zr  Zr78  1  0.39884497  0.79968656  0.75045978  1
  Zr  Zr79  1  0.00581961  -0.01282712  0.26254233  1
  Ta  Ta80  1  0.39035661  0.58697541  0.74056352  1
  Ta  Ta81  1  0.89317313  0.90380296  0.87770555  1
  Ta  Ta82  1  0.00254670  0.19266022  0.25939188  1
  Ta  Ta83  1  0.60632424  0.58887835  -0.02503577  1
  Ta  Ta84  1  0.79930523  0.20934865  0.00947413  1
  Ta  Ta85  1  0.61018486  0.59503397  0.51606609  1
  Ta  Ta86  1  0.10110254  0.91561174  0.61377733  1
  Ta  Ta87  1  0.69680035  0.89421054  0.10886544  1
  Ta  Ta88  1  0.89554725  0.69488699  0.64797428  1
  Ta  Ta89  1  0.70151007  0.89352814  0.86924300  1
  Ta  Ta90  1  0.70960680  0.29959801  0.13521649  1
  Ta  Ta91  1  0.49849372  0.10466418  0.87950865  1
  Ta  Ta92  1  0.59275042  -0.00449088  0.76191844  1
  Ta  Ta93  1  0.18956154  0.39564479  0.51407954  1
  Ta  Ta94  1  0.70422748  0.09350637  0.11143603  1
  Ta  Ta95  1  0.40360344  0.19925390  0.25759279  1
  Ta  Ta96  1  0.50470774  0.29891216  0.14431366  1
  Ta  Ta97  1  0.60290346  0.20353688  0.00357364  1
  Ta  Ta98  1  0.89908421  0.31157867  0.36114087  1
  Ta  Ta99  1  0.60239198  -0.00957878  0.24938873  1
  Ta  Ta100  1  0.20615988  0.20710947  0.49792658  1
  Ta  Ta101  1  0.79702520  0.60099135  0.50322360  1
  Ta  Ta102  1  0.69691723  0.10168821  0.62712647  1
  Ta  Ta103  1  0.89710813  0.69528732  0.85993641  1
  Ta  Ta104  1  0.41073456  0.80678985  0.51927051  1
  Ta  Ta105  1  -0.00112134  0.59631198  -0.00127575  1
  Ta  Ta106  1  0.50314624  0.49604076  0.62311757  1
  Ta  Ta107  1  0.50803633  0.30289350  0.37019879  1
  Ta  Ta108  1  0.19687172  0.00087916  0.76199060  1
  Ta  Ta109  1  0.10578241  0.09931350  0.38609597  1
  Ta  Ta110  1  0.20675312  0.61053957  0.00775962  1
  Ta  Ta111  1  0.10144717  0.70966382  0.12203128  1
  Ta  Ta112  1  0.79408575  0.79244718  -0.01381875  1
  Ta  Ta113  1  0.00617815  0.39691004  0.76230313  1
  Ta  Ta114  1  0.10894637  0.90056716  0.11107634  1
  Ta  Ta115  1  0.29378389  0.49954267  0.38168996  1
  Ta  Ta116  1  0.69301993  0.69583263  0.10211072  1
  Ta  Ta117  1  0.38265380  0.59352739  -0.01271390  1
  Ta  Ta118  1  0.60470598  0.19336386  0.48676658  1
  Ta  Ta119  1  0.30330498  0.70183437  0.62377346  1
  Ti  Ti120  1  0.89503433  0.49260569  0.37775460  1
  Ti  Ti121  1  0.89595057  0.49099164  0.12747965  1
  Ti  Ti122  1  0.79619548  0.00520638  0.75249903  1
  Ti  Ti123  1  -0.00312535  0.39969880  -0.01595298  1
  Ti  Ti124  1  0.40093416  -0.00676347  0.76973121  1
  Ti  Ti125  1  0.90437458  0.89918937  0.38718398  1
  Ti  Ti126  1  0.41016280  0.21123702  0.75766895  1
  Ti  Ti127  1  0.18973364  0.81392373  0.25539270  1
  Ti  Ti128  1  0.20046033  0.80587573  0.74414229  1
  Ti  Ti129  1  0.40091677  0.60079592  0.51575215  1
  Ti  Ti130  1  0.00053663  0.80425143  0.24675837  1
  Ti  Ti131  1  0.49247883  0.88873889  0.36685695  1
  Ti  Ti132  1  0.71067736  0.29470001  0.87765819  1
  Ti  Ti133  1  0.80176602  0.39780067  -0.00077976  1
  Ti  Ti134  1  0.19270006  0.00114059  0.26338646  1
  Ti  Ti135  1  0.30266999  0.29842838  0.62787526  1
  Ti  Ti136  1  0.29159685  0.90332479  0.13452299  1
  Ti  Ti137  1  0.70188738  0.50192903  0.38934027  1
  Ti  Ti138  1  0.29955269  0.30340351  0.14931116  1
  Ti  Ti139  1  0.40077021  0.40794521  0.24966557  1
  Ti  Ti140  1  0.79269729  0.00421926  0.49763443  1
  Ti  Ti141  1  0.50329632  0.69403775  0.63824222  1
  Ti  Ti142  1  0.60785568  0.60175264  0.24980579  1
  Ti  Ti143  1  0.89885036  0.49371671  0.86665886  1
  Ti  Ti144  1  0.08347804  0.48726018  0.62217048  1
  Ti  Ti145  1  0.20242732  0.40825997  0.73089276  1
  Ti  Ti146  1  0.39190313  0.79357121  -0.02856178  1
  Ti  Ti147  1  0.21678921  0.80339041  -0.00706062  1
  Ti  Ti148  1  0.78695445  0.58558977  0.76822592  1
  Ti  Ti149  1  0.89232249  0.69674141  0.37043696  1
  Ti  Ti150  1  0.89126421  0.30084203  0.86221636  1
  Ti  Ti151  1  0.60341871  0.58417965  0.75714101  1
  Ti  Ti152  1  0.00572958  0.20730612  0.75764839  1
  Ti  Ti153  1  0.79398464  0.40585810  0.51055411  1
  Ti  Ti154  1  0.00327524  0.59680922  0.75162914  1
  Ti  Ti155  1  0.39968918  0.40171443  0.01946535  1
  Ti  Ti156  1  0.59817626  0.79543621  -0.02122550  1
  Ti  Ti157  1  0.78950229  0.39399729  0.74565180  1
  Ti  Ti158  1  0.89807191  0.69916743  0.11965267  1
  Ti  Ti159  1  0.09730885  0.49486828  0.37159186  1
  Mo  Mo160  1  0.19904697  0.00675567  0.49291647  1
  Mo  Mo161  1  0.70054280  0.30055379  0.61353399  1
  Mo  Mo162  1  0.30471398  0.50699644  0.13332525  1
  Mo  Mo163  1  0.20114450  0.18885192  0.25809914  1
  Mo  Mo164  1  0.29285752  0.10316837  0.37083870  1
  Mo  Mo165  1  0.21016290  0.41160027  0.24373843  1
  Mo  Mo166  1  0.69954179  0.69453099  0.87384799  1
  Mo  Mo167  1  0.29867702  0.50774116  0.86107669  1
  Mo  Mo168  1  0.80177067  0.40900783  0.24574372  1
  Mo  Mo169  1  0.29374438  0.69656564  0.86428931  1
  Mo  Mo170  1  0.30031375  0.49902644  0.61207558  1
  Mo  Mo171  1  0.79722863  0.20688318  0.73855959  1
  Mo  Mo172  1  0.49926366  0.90179614  0.64383503  1
  Mo  Mo173  1  0.70284264  0.09402846  0.38604740  1
  Mo  Mo174  1  -0.00185247  0.41071822  0.26381729  1
  Mo  Mo175  1  0.29289282  0.89612285  0.86128010  1
  Mo  Mo176  1  0.20439373  -0.00181825  -0.00441304  1
  Mo  Mo177  1  0.80488569  0.80055587  0.76679776  1
  Mo  Mo178  1  0.09961066  0.30572504  0.62928865  1
  Mo  Mo179  1  0.59851601  0.80131843  0.75640316  1
  Mo  Mo180  1  0.50235258  0.09500414  0.36329500  1
  Mo  Mo181  1  0.10220243  0.31063524  0.86473329  1
  Mo  Mo182  1  -0.00573230  0.41029335  0.48828820  1
  Mo  Mo183  1  0.39987989  0.80082867  0.25461897  1
  Mo  Mo184  1  -0.00244943  0.00179108  0.49115870  1
  Mo  Mo185  1  0.50087999  0.29376283  0.87975642  1
  Mo  Mo186  1  0.09371193  0.90253697  0.38868533  1
  Mo  Mo187  1  0.70623215  0.48667781  0.87749825  1
  Mo  Mo188  1  0.79415142  -0.00389888  -0.00461305  1
  Mo  Mo189  1  0.69916124  0.68707508  0.38306332  1
  Mo  Mo190  1  -0.00050358  0.00507139  -0.01088583  1
  Mo  Mo191  1  0.49999167  0.89749745  0.86889527  1
  Mo  Mo192  1  0.39980734  0.39667624  0.72256547  1
  Mo  Mo193  1  0.60638342  0.39685559  0.50042293  1
  Mo  Mo194  1  0.70114228  0.49841126  0.62402888  1
  Mo  Mo195  1  0.10122946  0.10420923  0.88209711  1
  Mo  Mo196  1  0.40269188  -0.00542354  0.48766361  1
  Mo  Mo197  1  0.09496694  0.70450992  0.63885538  1
  Mo  Mo198  1  0.70570032  0.49807421  0.10223078  1
  Mo  Mo199  1  0.80471133  0.19951392  0.23843691  1
