# generated using pymatgen
data_HfZrTaTiMo
_symmetry_space_group_name_H-M   'P 1'
_cell_length_a   15.92269297
_cell_length_b   15.92361864
_cell_length_c   15.19519883
_cell_angle_alpha   90.01682142
_cell_angle_beta   89.92659089
_cell_angle_gamma   90.07233523
_symmetry_Int_Tables_number   1
_chemical_formula_structural   HfZrTaTiMo
_chemical_formula_sum   'Hf40 Zr40 Ta40 Ti40 Mo40'
_cell_volume   3852.68901766
_cell_formula_units_Z   40
loop_
 _symmetry_equiv_pos_site_id
 _symmetry_equiv_pos_as_xyz
  1  'x, y, z'
loop_
 _atom_site_type_symbol
 _atom_site_label
 _atom_site_symmetry_multiplicity
 _atom_site_fract_x
 _atom_site_fract_y
 _atom_site_fract_z
 _atom_site_occupancy
  Hf  Hf0  1  0.90432741  0.29908972  0.86906810  1
  Hf  Hf1  1  -0.01006243  0.40224864  0.24350518  1
  Hf  Hf2  1  -0.01177365  0.79579191  0.00194500  1
  Hf  Hf3  1  0.20118350  0.60143307  0.75067637  1
  Hf  Hf4  1  0.70410007  0.10415797  0.38574468  1
  Hf  Hf5  1  0.29366751  0.90260084  0.14239500  1
  Hf  Hf6  1  0.81239049  0.78736699  0.50430790  1
  Hf  Hf7  1  0.29183262  0.10793120  0.38043125  1
  Hf  Hf8  1  0.69767247  0.09243082  0.11072573  1
  Hf  Hf9  1  0.40099955  -0.00177536  0.00657894  1
  Hf  Hf10  1  0.18157534  0.80295252  0.50636530  1
  Hf  Hf11  1  0.10031226  0.69817133  0.87670422  1
  Hf  Hf12  1  0.80148632  0.59257431  0.49795735  1
  Hf  Hf13  1  -0.00868822  0.20641931  0.24065795  1
  Hf  Hf14  1  0.50342184  0.90268193  0.61971973  1
  Hf  Hf15  1  0.70354034  0.29838658  0.38048479  1
  Hf  Hf16  1  0.19139720  0.59937030  0.50291999  1
  Hf  Hf17  1  0.50129810  0.10909596  0.39037553  1
  Hf  Hf18  1  0.80728160  0.20007602  0.24088197  1
  Hf  Hf19  1  0.29916166  0.29447794  0.86504777  1
  Hf  Hf20  1  0.30197081  0.49488188  0.37388413  1
  Hf  Hf21  1  0.08837383  0.69105520  0.12592414  1
  Hf  Hf22  1  -0.00479591  0.40321232  0.50341163  1
  Hf  Hf23  1  0.61703693  0.01892083  0.75018191  1
  Hf  Hf24  1  0.11661924  0.11313970  0.13038620  1
  Hf  Hf25  1  0.50910059  0.70850236  0.13885079  1
  Hf  Hf26  1  0.20154830  0.40414967  0.74707760  1
  Hf  Hf27  1  0.49687337  0.09913078  0.12797179  1
  Hf  Hf28  1  0.68535530  0.89289406  0.12504704  1
  Hf  Hf29  1  0.49529472  0.89338227  0.40418405  1
  Hf  Hf30  1  0.07997948  0.70412718  0.63760553  1
  Hf  Hf31  1  0.80779106  0.40173918  0.00024892  1
  Hf  Hf32  1  0.50151413  0.89797953  0.86734707  1
  Hf  Hf33  1  0.61275265  0.78855306  0.50543148  1
  Hf  Hf34  1  0.59501477  -0.00961343  0.25985545  1
  Hf  Hf35  1  0.89786270  0.29342291  0.64434531  1
  Hf  Hf36  1  0.28675597  0.28553604  0.13719355  1
  Hf  Hf37  1  0.80911897  0.58122684  0.23105955  1
  Hf  Hf38  1  0.90977570  0.89568773  0.37370735  1
  Hf  Hf39  1  0.69678747  0.69642367  0.35234246  1
  Zr  Zr40  1  0.79817524  0.79310105  0.00763607  1
  Zr  Zr41  1  0.89673302  0.50137018  0.64302734  1
  Zr  Zr42  1  -0.00838215  0.01410988  0.24832975  1
  Zr  Zr43  1  0.60524092  0.40177710  0.24017296  1
  Zr  Zr44  1  0.49149584  0.69296636  0.61389115  1
  Zr  Zr45  1  0.80105506  0.00473674  0.25131826  1
  Zr  Zr46  1  0.19413813  0.58814890  0.00147715  1
  Zr  Zr47  1  0.20600755  0.01436353  -0.00212480  1
  Zr  Zr48  1  0.49893552  0.30510801  0.37298006  1
  Zr  Zr49  1  0.39371342  0.61381358  0.00627362  1
  Zr  Zr50  1  0.49640793  0.50249442  0.87571612  1
  Zr  Zr51  1  0.10907638  0.89914552  0.35645597  1
  Zr  Zr52  1  0.19682477  -0.00296490  0.73365328  1
  Zr  Zr53  1  0.48682647  0.29649081  0.13383221  1
  Zr  Zr54  1  -0.00835648  0.61016813  0.49232337  1
  Zr  Zr55  1  0.30434566  0.89522211  0.87330152  1
  Zr  Zr56  1  0.29720726  0.70723006  0.38206824  1
  Zr  Zr57  1  0.59888420  0.58556419  0.50443970  1
  Zr  Zr58  1  0.69960057  0.49409253  0.36706109  1
  Zr  Zr59  1  0.09816623  0.90239093  0.13026985  1
  Zr  Zr60  1  0.19715665  0.21178961  0.51421543  1
  Zr  Zr61  1  0.29777046  0.48544633  0.13491760  1
  Zr  Zr62  1  0.69927842  0.69655062  0.86892757  1
  Zr  Zr63  1  0.01009852  0.21342534  0.00138295  1
  Zr  Zr64  1  0.10268903  0.50025369  0.36895551  1
  Zr  Zr65  1  0.70611553  0.90057615  0.86908151  1
  Zr  Zr66  1  0.71560904  0.90492228  0.63104923  1
  Zr  Zr67  1  0.40371348  0.80257881  0.25929841  1
  Zr  Zr68  1  0.10315690  0.29993548  0.37539743  1
  Zr  Zr69  1  0.59584280  0.20163178  -0.01416756  1
  Zr  Zr70  1  0.50964404  0.10750471  0.61174584  1
  Zr  Zr71  1  0.31109823  0.89848350  0.60196426  1
  Zr  Zr72  1  0.91209340  0.89555711  0.62663777  1
  Zr  Zr73  1  0.10816867  0.89749194  0.88797208  1
  Zr  Zr74  1  0.69809213  0.29489486  0.62587102  1
  Zr  Zr75  1  0.39600137  0.39359115  -0.00258184  1
  Zr  Zr76  1  0.90375867  0.70217743  0.35155831  1
  Zr  Zr77  1  0.49497434  0.09895174  0.86874340  1
  Zr  Zr78  1  0.39845796  0.00030679  0.26535645  1
  Zr  Zr79  1  0.00496141  0.00319215  0.75858891  1
  Ta  Ta80  1  0.20163412  0.60369647  0.24328591  1
  Ta  Ta81  1  0.30834440  0.50640886  0.62019667  1
  Ta  Ta82  1  0.69985001  0.29651975  0.11541497  1
  Ta  Ta83  1  0.89967144  0.09973497  0.09938457  1
  Ta  Ta84  1  0.29782182  0.10191815  0.85630121  1
  Ta  Ta85  1  0.78123084  0.18555541  0.77025847  1
  Ta  Ta86  1  0.19652141  0.19677538  0.73659923  1
  Ta  Ta87  1  0.60646519  0.40040608  0.76189973  1
  Ta  Ta88  1  0.90053401  0.09832881  0.87618275  1
  Ta  Ta89  1  0.20129778  0.80081796  0.73627077  1
  Ta  Ta90  1  0.49712257  0.49294643  0.63943909  1
  Ta  Ta91  1  0.89804237  0.69805385  0.86222875  1
  Ta  Ta92  1  0.08871705  0.30397376  0.63826890  1
  Ta  Ta93  1  0.50164257  0.50320996  0.12714200  1
  Ta  Ta94  1  0.39852923  0.19885791  0.73560994  1
  Ta  Ta95  1  0.18599928  0.39306082  -0.00942327  1
  Ta  Ta96  1  0.50396364  0.30520272  0.63369052  1
  Ta  Ta97  1  0.80951092  0.39163350  0.22971752  1
  Ta  Ta98  1  0.60172690  0.60349346  0.00590724  1
  Ta  Ta99  1  0.60042772  0.39959966  -0.00520529  1
  Ta  Ta100  1  0.09454354  0.50219919  0.63433436  1
  Ta  Ta101  1  0.39763890  0.79381977  0.74231685  1
  Ta  Ta102  1  0.89434805  0.09852541  0.63400330  1
  Ta  Ta103  1  0.40477064  0.59659517  0.25437866  1
  Ta  Ta104  1  0.79875180  0.20190723  -0.00933734  1
  Ta  Ta105  1  0.09250642  0.10431701  0.38257045  1
  Ta  Ta106  1  0.70940572  0.69160972  0.64271735  1
  Ta  Ta107  1  0.30478338  0.10086677  0.61543135  1
  Ta  Ta108  1  0.59072020  0.79761052  -0.00594496  1
  Ta  Ta109  1  0.89834913  0.29914768  0.38478124  1
  Ta  Ta110  1  0.70678459  0.89220149  0.37582253  1
  Ta  Ta111  1  0.59853480  0.79383539  0.74387095  1
  Ta  Ta112  1  0.30150343  0.30533265  0.36094468  1
  Ta  Ta113  1  0.30144593  0.69699951  0.61537885  1
  Ta  Ta114  1  0.59888321  0.59572143  0.75034607  1
  Ta  Ta115  1  0.21399211  0.78604418  0.01811809  1
  Ta  Ta116  1  0.49625370  0.29939712  0.85566139  1
  Ta  Ta117  1  0.39627053  0.60234304  0.75429491  1
  Ta  Ta118  1  0.40516671  0.40711351  0.50280542  1
  Ta  Ta119  1  0.60590133  0.19517296  0.24676963  1
  Ti  Ti120  1  0.69993779  0.50257225  0.88719718  1
  Ti  Ti121  1  0.61459096  -0.00119074  0.50126380  1
  Ti  Ti122  1  0.80271449  -0.00410798  -0.01190820  1
  Ti  Ti123  1  0.10437718  0.11342173  0.87374341  1
  Ti  Ti124  1  0.81147511  0.00205713  0.49207454  1
  Ti  Ti125  1  0.89651803  0.69803550  0.65022936  1
  Ti  Ti126  1  0.09249054  0.71188534  0.35400362  1
  Ti  Ti127  1  0.69541927  0.69565364  0.13431867  1
  Ti  Ti128  1  0.92558503  0.50295317  0.09955304  1
  Ti  Ti129  1  0.81198651  0.19905664  0.50200256  1
  Ti  Ti130  1  0.50363073  0.68837319  0.37508828  1
  Ti  Ti131  1  0.19446211  0.00103142  0.50073436  1
  Ti  Ti132  1  0.39996577  0.80035121  0.01193358  1
  Ti  Ti133  1  0.79810666  0.58914677  0.76188045  1
  Ti  Ti134  1  0.30007031  0.10628253  0.14882080  1
  Ti  Ti135  1  0.20187599  0.40158656  0.51504571  1
  Ti  Ti136  1  -0.00076172  0.80947382  0.76565502  1
  Ti  Ti137  1  -0.00180742  0.59107017  0.24842710  1
  Ti  Ti138  1  0.89785144  0.90556180  0.12295919  1
  Ti  Ti139  1  0.80319683  0.80142625  0.23541353  1
  Ti  Ti140  1  -0.00072719  0.00078269  -0.00758840  1
  Ti  Ti141  1  0.69607593  0.50015167  0.11385750  1
  Ti  Ti142  1  0.39823886  0.21471911  0.50726992  1
  Ti  Ti143  1  0.10402936  0.31393735  0.12884395  1
  Ti  Ti144  1  0.30745012  0.30980434  0.63291136  1
  Ti  Ti145  1  0.10028359  0.29853409  0.86054232  1
  Ti  Ti146  1  0.80254943  0.40328702  0.50244880  1
  Ti  Ti147  1  0.49653054  0.70186567  0.87201717  1
  Ti  Ti148  1  -0.00020686  0.41263317  0.76563136  1
  Ti  Ti149  1  0.00402042  -0.00046316  0.50145521  1
  Ti  Ti150  1  0.80993431  0.60350658  0.00439664  1
  Ti  Ti151  1  0.70929886  0.10567330  0.61441080  1
  Ti  Ti152  1  0.08725879  0.10594835  0.61713810  1
  Ti  Ti153  1  0.79158132  0.40008585  0.76972493  1
  Ti  Ti154  1  0.30016792  0.49730605  0.87310344  1
  Ti  Ti155  1  0.69809715  0.49451962  0.63377689  1
  Ti  Ti156  1  0.59591188  0.39957543  0.50384243  1
  Ti  Ti157  1  0.38567809  0.19234389  -0.00568478  1
  Ti  Ti158  1  0.30131984  0.70670688  0.87026933  1
  Ti  Ti159  1  0.39939212  0.00013763  0.73977837  1
  Mo  Mo160  1  0.40007646  0.40288442  0.25175519  1
  Mo  Mo161  1  0.40097696  0.20056861  0.25936898  1
  Mo  Mo162  1  0.39836052  0.79179247  0.49469441  1
  Mo  Mo163  1  0.19790639  0.00683371  0.26213005  1
  Mo  Mo164  1  0.39362442  0.00683892  0.49488960  1
  Mo  Mo165  1  0.19901304  0.79215403  0.23913698  1
  Mo  Mo166  1  0.10163110  0.49670162  0.13133028  1
  Mo  Mo167  1  0.69825592  0.30598695  0.87945754  1
  Mo  Mo168  1  0.90092250  0.90030611  0.87655115  1
  Mo  Mo169  1  0.20459421  0.20565120  -0.01782418  1
  Mo  Mo170  1  0.19201911  0.20119708  0.26503271  1
  Mo  Mo171  1  0.19433709  0.40104368  0.24494465  1
  Mo  Mo172  1  0.80706320  0.00503865  0.76220130  1
  Mo  Mo173  1  0.60148666  0.80205185  0.26563929  1
  Mo  Mo174  1  0.89446740  0.48649718  0.37012799  1
  Mo  Mo175  1  0.90682515  0.10654839  0.39929959  1
  Mo  Mo176  1  -0.00964788  0.80151579  0.22499726  1
  Mo  Mo177  1  -0.00077061  0.80056165  0.50138677  1
  Mo  Mo178  1  0.89842595  0.50577527  0.87771155  1
  Mo  Mo179  1  0.39933655  0.40140634  0.74304442  1
  Mo  Mo180  1  -0.00043881  0.19773690  0.74823136  1
  Mo  Mo181  1  0.29445054  0.90575312  0.38273342  1
  Mo  Mo182  1  0.09850878  0.90257507  0.62199822  1
  Mo  Mo183  1  0.89822086  0.69178605  0.12971659  1
  Mo  Mo184  1  0.90025604  0.30157976  0.10634415  1
  Mo  Mo185  1  -0.00652287  0.59644059  -0.01792880  1
  Mo  Mo186  1  0.59999254  0.59772162  0.23359867  1
  Mo  Mo187  1  -0.00568349  0.19896806  0.51466396  1
  Mo  Mo188  1  0.59604673  -0.00948391  -0.00021868  1
  Mo  Mo189  1  0.49623335  0.50281034  0.36410790  1
  Mo  Mo190  1  0.30119824  0.69918911  0.13975575  1
  Mo  Mo191  1  0.50137974  0.90013686  0.11432531  1
  Mo  Mo192  1  0.70191227  0.09799963  0.89299269  1
  Mo  Mo193  1  0.60121398  0.20481352  0.75498467  1
  Mo  Mo194  1  -0.00220824  0.59739382  0.76393487  1
  Mo  Mo195  1  0.60604083  0.20728461  0.50416761  1
  Mo  Mo196  1  0.40043481  0.59082888  0.49025595  1
  Mo  Mo197  1  0.09998972  0.49617435  0.86420023  1
  Mo  Mo198  1  0.01229549  0.40721042  -0.01113160  1
  Mo  Mo199  1  0.80496715  0.79665333  0.74881152  1
