# generated using pymatgen
data_HfZrTaTiMo
_symmetry_space_group_name_H-M   'P 1'
_cell_length_a   16.54148122
_cell_length_b   16.46254496
_cell_length_c   14.10021041
_cell_angle_alpha   89.92022782
_cell_angle_beta   90.05607598
_cell_angle_gamma   90.19064244
_symmetry_Int_Tables_number   1
_chemical_formula_structural   HfZrTaTiMo
_chemical_formula_sum   'Hf40 Zr40 Ta40 Ti40 Mo40'
_cell_volume   3839.67028279
_cell_formula_units_Z   40
loop_
 _symmetry_equiv_pos_site_id
 _symmetry_equiv_pos_as_xyz
  1  'x, y, z'
loop_
 _atom_site_type_symbol
 _atom_site_label
 _atom_site_symmetry_multiplicity
 _atom_site_fract_x
 _atom_site_fract_y
 _atom_site_fract_z
 _atom_site_occupancy
  Hf  Hf0  1  0.69858585  0.50017671  0.12851978  1
  Hf  Hf1  1  0.40344603  0.19985847  0.25332387  1
  Hf  Hf2  1  0.19476434  -0.00501765  0.25692666  1
  Hf  Hf3  1  0.39055705  0.79766374  0.26310807  1
  Hf  Hf4  1  0.78981276  0.20591209  0.74650268  1
  Hf  Hf5  1  0.09922172  0.90783675  0.88403754  1
  Hf  Hf6  1  0.89599918  0.30082687  0.12282353  1
  Hf  Hf7  1  0.20638221  0.19994493  -0.00275621  1
  Hf  Hf8  1  0.51301084  0.89719374  0.62536701  1
  Hf  Hf9  1  0.18991449  0.79616871  0.00018479  1
  Hf  Hf10  1  0.09118545  0.30013489  0.87812451  1
  Hf  Hf11  1  0.48252651  0.90319003  0.11955432  1
  Hf  Hf12  1  0.39880791  0.40749848  0.73832050  1
  Hf  Hf13  1  0.09577346  0.69840720  0.63268200  1
  Hf  Hf14  1  0.78612148  0.80297115  0.48579164  1
  Hf  Hf15  1  0.29730727  0.91350552  0.39324778  1
  Hf  Hf16  1  0.09339125  0.50604034  0.86980773  1
  Hf  Hf17  1  0.90268656  0.90292988  0.89572169  1
  Hf  Hf18  1  0.70029473  0.49370218  0.88180615  1
  Hf  Hf19  1  0.30586253  0.30634404  0.11969154  1
  Hf  Hf20  1  0.89486496  0.49545467  0.12244011  1
  Hf  Hf21  1  0.50457575  0.30089114  0.62811200  1
  Hf  Hf22  1  0.89661840  0.89736665  0.61771192  1
  Hf  Hf23  1  0.49593331  0.89953222  0.87592072  1
  Hf  Hf24  1  0.60797963  0.20002598  0.50308461  1
  Hf  Hf25  1  0.89560415  0.50261896  0.62216913  1
  Hf  Hf26  1  0.89563009  0.09960852  0.60886368  1
  Hf  Hf27  1  0.39367366  0.79505633  0.74530218  1
  Hf  Hf28  1  0.62992569  0.00139943  0.49647273  1
  Hf  Hf29  1  0.11333245  0.51058183  0.37336428  1
  Hf  Hf30  1  0.50623716  0.09577979  0.37278012  1
  Hf  Hf31  1  0.50328565  0.70104185  0.86918350  1
  Hf  Hf32  1  0.00344949  0.39870222  0.49488939  1
  Hf  Hf33  1  0.19646872  0.79589866  0.50209158  1
  Hf  Hf34  1  0.60563267  0.20788009  0.24820550  1
  Hf  Hf35  1  0.60654585  0.80030000  0.25041734  1
  Hf  Hf36  1  0.30439180  0.70021039  0.11268816  1
  Hf  Hf37  1  0.90251394  0.71314757  0.13012439  1
  Hf  Hf38  1  0.20497858  0.40236173  0.50167213  1
  Hf  Hf39  1  0.89421387  0.90487199  0.36242110  1
  Zr  Zr40  1  0.29229892  0.90811686  0.62785187  1
  Zr  Zr41  1  0.10186105  0.09899216  0.13058043  1
  Zr  Zr42  1  0.70979595  0.10146625  0.11835707  1
  Zr  Zr43  1  0.00957851  -0.00200252  0.48749174  1
  Zr  Zr44  1  0.30751299  0.09180811  0.11768758  1
  Zr  Zr45  1  0.39393059  0.19368658  0.74717356  1
  Zr  Zr46  1  0.78182463  0.60701508  0.49592104  1
  Zr  Zr47  1  0.89265986  0.29989616  0.60633929  1
  Zr  Zr48  1  0.88927387  0.50272215  0.37287600  1
  Zr  Zr49  1  0.50094358  0.90262294  0.38381042  1
  Zr  Zr50  1  0.50525211  0.68865892  0.37851088  1
  Zr  Zr51  1  -0.00505315  0.39204190  0.74055563  1
  Zr  Zr52  1  0.10435817  0.29033881  0.37007198  1
  Zr  Zr53  1  0.80335628  0.60008157  0.75946998  1
  Zr  Zr54  1  0.00072903  0.40009656  0.25368973  1
  Zr  Zr55  1  0.89415911  0.09876755  0.89132698  1
  Zr  Zr56  1  0.49741993  0.49332837  0.11899007  1
  Zr  Zr57  1  0.61095047  0.80011026  0.01082127  1
  Zr  Zr58  1  0.09951111  0.69545993  0.36660225  1
  Zr  Zr59  1  0.50284668  0.49491773  0.86877511  1
  Zr  Zr60  1  -0.00168971  0.19809408  0.01017345  1
  Zr  Zr61  1  0.10296974  0.09399597  0.87565690  1
  Zr  Zr62  1  0.39688576  0.00614259  0.74607209  1
  Zr  Zr63  1  0.79865606  0.61271939  -0.00054559  1
  Zr  Zr64  1  0.09553822  0.51514163  0.62660026  1
  Zr  Zr65  1  0.60419050  -0.00498710  0.00352032  1
  Zr  Zr66  1  0.00091327  0.60919541  -0.00020117  1
  Zr  Zr67  1  0.49621417  0.69594479  0.12500544  1
  Zr  Zr68  1  -0.00389398  0.00292999  0.74241677  1
  Zr  Zr69  1  0.20087914  0.80047688  0.25144082  1
  Zr  Zr70  1  0.39817675  0.19126998  0.50433611  1
  Zr  Zr71  1  0.39736838  0.78697204  0.50748564  1
  Zr  Zr72  1  0.39713864  0.40064266  0.26284639  1
  Zr  Zr73  1  0.20129436  0.40388457  -0.00726589  1
  Zr  Zr74  1  0.50501600  0.50447650  0.37947304  1
  Zr  Zr75  1  0.78197316  0.19043945  0.49136834  1
  Zr  Zr76  1  0.89560832  0.70154464  0.35715014  1
  Zr  Zr77  1  0.19946736  0.39764034  0.74234622  1
  Zr  Zr78  1  0.70089260  0.10466055  0.88063539  1
  Zr  Zr79  1  0.89983682  0.70169553  0.62797335  1
  Ta  Ta80  1  0.50028006  0.09918252  0.11792022  1
  Ta  Ta81  1  0.10183711  0.90102266  0.62924797  1
  Ta  Ta82  1  0.10456753  0.30416349  0.13206829  1
  Ta  Ta83  1  0.30673990  0.30014344  0.86960327  1
  Ta  Ta84  1  0.29897433  0.69962567  0.87494235  1
  Ta  Ta85  1  0.40592094  0.20050164  -0.00910939  1
  Ta  Ta86  1  -0.00493093  0.19990757  0.74429559  1
  Ta  Ta87  1  0.79816697  0.20226732  0.25249360  1
  Ta  Ta88  1  0.10462730  0.49838913  0.12419518  1
  Ta  Ta89  1  0.79469367  0.39481284  0.75365548  1
  Ta  Ta90  1  0.39904912  0.59725092  -0.01144372  1
  Ta  Ta91  1  0.00362010  0.80269575  0.49197897  1
  Ta  Ta92  1  0.30028692  0.29663720  0.38637473  1
  Ta  Ta93  1  0.89779263  0.09937778  0.36881598  1
  Ta  Ta94  1  0.29931689  0.90264866  0.10784653  1
  Ta  Ta95  1  0.40065754  0.40513033  0.50713677  1
  Ta  Ta96  1  0.39082937  0.59423947  0.25104350  1
  Ta  Ta97  1  0.78871899  0.39230125  0.26083254  1
  Ta  Ta98  1  0.60909534  -0.00506815  0.24489274  1
  Ta  Ta99  1  0.50230840  0.30365305  0.38564169  1
  Ta  Ta100  1  0.61100219  0.79255711  0.49632516  1
  Ta  Ta101  1  0.19739918  0.80001619  0.75514723  1
  Ta  Ta102  1  0.60301387  0.60448314  -0.00009068  1
  Ta  Ta103  1  0.69776647  0.70828382  0.86858921  1
  Ta  Ta104  1  0.60779302  0.40333552  0.50098976  1
  Ta  Ta105  1  0.29487854  0.90397547  0.88296274  1
  Ta  Ta106  1  0.50913300  0.69620452  0.63254742  1
  Ta  Ta107  1  0.69316814  0.70910055  0.64555912  1
  Ta  Ta108  1  0.89020617  0.30285918  0.88934541  1
  Ta  Ta109  1  0.60242147  0.39341107  0.25429419  1
  Ta  Ta110  1  0.50348198  0.29895864  0.86914476  1
  Ta  Ta111  1  0.79678903  -0.00137193  0.74646658  1
  Ta  Ta112  1  0.52044499  0.09750182  0.63655888  1
  Ta  Ta113  1  0.90385314  0.48986758  0.88329242  1
  Ta  Ta114  1  0.29402302  0.29377804  0.62162466  1
  Ta  Ta115  1  0.59831782  0.20744753  -0.00155641  1
  Ta  Ta116  1  0.30314733  0.50073554  0.11265467  1
  Ta  Ta117  1  -0.00193305  0.79869665  0.76177516  1
  Ta  Ta118  1  0.50449194  0.10234872  0.87484717  1
  Ta  Ta119  1  0.89522139  0.29346190  0.37848788  1
  Ti  Ti120  1  0.19716983  0.19668958  0.75057418  1
  Ti  Ti121  1  0.30253952  0.50198752  0.87477344  1
  Ti  Ti122  1  -0.00340680  0.60639324  0.49049135  1
  Ti  Ti123  1  0.70734623  0.90003597  0.87686219  1
  Ti  Ti124  1  -0.00400945  0.19542700  0.25317023  1
  Ti  Ti125  1  0.27736383  0.09827279  0.61352266  1
  Ti  Ti126  1  0.20021707  0.60044414  -0.00384919  1
  Ti  Ti127  1  0.20984978  0.40535122  0.25297104  1
  Ti  Ti128  1  0.10678649  0.10604979  0.38243008  1
  Ti  Ti129  1  0.21243782  0.19609244  0.25648497  1
  Ti  Ti130  1  0.29668351  0.50984486  0.62027890  1
  Ti  Ti131  1  0.29354490  0.67711996  0.38745548  1
  Ti  Ti132  1  0.70222403  0.49441855  0.62700511  1
  Ti  Ti133  1  0.89551432  0.09029556  0.12964593  1
  Ti  Ti134  1  0.20771823  0.60615964  0.75141981  1
  Ti  Ti135  1  0.70687962  0.30366550  0.11041032  1
  Ti  Ti136  1  0.00046116  0.59629867  0.24284731  1
  Ti  Ti137  1  0.70455358  0.89593555  0.63483985  1
  Ti  Ti138  1  0.10275558  0.10159536  0.62001779  1
  Ti  Ti139  1  0.60403319  0.59977893  0.51476603  1
  Ti  Ti140  1  0.49717876  0.30155851  0.11546455  1
  Ti  Ti141  1  0.40360156  0.01059067  0.50996747  1
  Ti  Ti142  1  0.01167591  0.81639764  0.24343126  1
  Ti  Ti143  1  0.39682475  0.00264865  0.25655746  1
  Ti  Ti144  1  0.61030560  -0.00138534  0.75416204  1
  Ti  Ti145  1  0.39929834  0.59942084  0.74222861  1
  Ti  Ti146  1  0.78774249  0.80556679  0.24185054  1
  Ti  Ti147  1  0.69390383  0.50801548  0.36356323  1
  Ti  Ti148  1  0.61033324  0.39179310  0.74288119  1
  Ti  Ti149  1  0.80442397  0.80345968  0.76148535  1
  Ti  Ti150  1  0.29589385  0.08934540  0.87855643  1
  Ti  Ti151  1  0.59996136  0.39282734  -0.00127882  1
  Ti  Ti152  1  0.79801256  0.80549802  0.01050571  1
  Ti  Ti153  1  0.00302796  -0.00237442  0.24669452  1
  Ti  Ti154  1  0.10092607  0.27943958  0.61198778  1
  Ti  Ti155  1  0.09435272  0.69918836  0.86854773  1
  Ti  Ti156  1  0.09858425  0.69833642  0.12919816  1
  Ti  Ti157  1  0.39991824  0.59467275  0.51476285  1
  Ti  Ti158  1  0.21035948  0.59369488  0.23797262  1
  Ti  Ti159  1  0.60211350  0.59327023  0.74604175  1
  Mo  Mo160  1  0.19714196  0.00178944  0.74433486  1
  Mo  Mo161  1  0.39174806  0.79926416  -0.01377420  1
  Mo  Mo162  1  0.69950669  0.09426637  0.64577882  1
  Mo  Mo163  1  0.20605670  0.60247255  0.51254226  1
  Mo  Mo164  1  0.19905233  0.19707709  0.49957577  1
  Mo  Mo165  1  0.29912386  0.69174971  0.63785735  1
  Mo  Mo166  1  0.09682887  0.90021574  0.12193501  1
  Mo  Mo167  1  0.69805810  0.30582486  0.37769594  1
  Mo  Mo168  1  0.59940744  0.59687180  0.23526603  1
  Mo  Mo169  1  0.60534419  0.80595800  0.75258753  1
  Mo  Mo170  1  0.79633997  0.39895317  -0.00376794  1
  Mo  Mo171  1  0.70347670  0.69894001  0.12676574  1
  Mo  Mo172  1  0.69502439  0.69140561  0.35626412  1
  Mo  Mo173  1  0.30271625  0.50259594  0.38355546  1
  Mo  Mo174  1  0.79755722  0.20359557  0.00923581  1
  Mo  Mo175  1  -0.00617087  0.60683404  0.76938330  1
  Mo  Mo176  1  0.90190357  0.90279176  0.12895544  1
  Mo  Mo177  1  0.40198529  0.39741501  -0.01700203  1
  Mo  Mo178  1  0.39952490  0.00562885  -0.01242734  1
  Mo  Mo179  1  0.20089496  -0.00329594  0.00663024  1
  Mo  Mo180  1  0.80242004  -0.00885617  0.01192788  1
  Mo  Mo181  1  -0.00053168  -0.00533932  0.02704216  1
  Mo  Mo182  1  0.59992753  0.20393056  0.75524329  1
  Mo  Mo183  1  0.09705645  0.89922574  0.37425661  1
  Mo  Mo184  1  0.70304327  0.89924784  0.36182911  1
  Mo  Mo185  1  0.30001611  0.10021249  0.37779100  1
  Mo  Mo186  1  0.69606374  0.30288712  0.88307171  1
  Mo  Mo187  1  0.19363480  0.00347962  0.49943946  1
  Mo  Mo188  1  0.00351560  0.79903310  0.00490844  1
  Mo  Mo189  1  0.69851800  0.31001308  0.62198828  1
  Mo  Mo190  1  0.79100128  0.60386362  0.24501261  1
  Mo  Mo191  1  0.70459450  0.09720759  0.35059835  1
  Mo  Mo192  1  0.71110357  0.90118881  0.12845474  1
  Mo  Mo193  1  0.80184163  0.00240838  0.24958560  1
  Mo  Mo194  1  0.79851089  -0.00280554  0.49525193  1
  Mo  Mo195  1  0.89864950  0.71346043  0.88095589  1
  Mo  Mo196  1  0.50747518  0.50397177  0.62339422  1
  Mo  Mo197  1  0.00100821  0.40091954  0.00854340  1
  Mo  Mo198  1  0.78741320  0.40281207  0.48992356  1
  Mo  Mo199  1  0.00079243  0.19540745  0.49320392  1
