# generated using pymatgen
data_HfZrTaTiMo
_symmetry_space_group_name_H-M   'P 1'
_cell_length_a   15.93634105
_cell_length_b   15.93013283
_cell_length_c   15.21381991
_cell_angle_alpha   90.07121723
_cell_angle_beta   90.01930396
_cell_angle_gamma   90.02904349
_symmetry_Int_Tables_number   1
_chemical_formula_structural   HfZrTaTiMo
_chemical_formula_sum   'Hf40 Zr40 Ta40 Ti40 Mo40'
_cell_volume   3862.29878514
_cell_formula_units_Z   40
loop_
 _symmetry_equiv_pos_site_id
 _symmetry_equiv_pos_as_xyz
  1  'x, y, z'
loop_
 _atom_site_type_symbol
 _atom_site_label
 _atom_site_symmetry_multiplicity
 _atom_site_fract_x
 _atom_site_fract_y
 _atom_site_fract_z
 _atom_site_occupancy
  Hf  Hf0  1  0.29682763  0.10956551  0.62536227  1
  Hf  Hf1  1  0.09157789  0.11719033  0.88383739  1
  Hf  Hf2  1  0.18672377  0.81134274  0.48391030  1
  Hf  Hf3  1  0.58041716  0.78054899  0.74508768  1
  Hf  Hf4  1  0.68709396  0.09359427  0.35042052  1
  Hf  Hf5  1  0.19219085  0.21741817  0.49182548  1
  Hf  Hf6  1  0.70021048  0.69707387  0.87897963  1
  Hf  Hf7  1  0.88859811  0.88736663  0.86298469  1
  Hf  Hf8  1  0.50038678  0.10657278  0.11900622  1
  Hf  Hf9  1  0.69459282  0.09484183  0.63995523  1
  Hf  Hf10  1  0.60256463  0.00348252  0.50106010  1
  Hf  Hf11  1  0.59969821  0.78735207  0.23685297  1
  Hf  Hf12  1  0.88717922  0.70788359  0.61315666  1
  Hf  Hf13  1  0.77876768  0.57799786  0.48400576  1
  Hf  Hf14  1  0.50785738  0.91007973  0.36109399  1
  Hf  Hf15  1  0.11050223  0.48868368  0.39138332  1
  Hf  Hf16  1  0.90863881  0.29745948  0.89539923  1
  Hf  Hf17  1  0.39964311  0.59058674  0.02676381  1
  Hf  Hf18  1  0.40457836  0.59400344  0.50931916  1
  Hf  Hf19  1  0.51342939  0.50176337  0.87839865  1
  Hf  Hf20  1  0.49095072  0.10320341  0.63001539  1
  Hf  Hf21  1  0.10476981  0.30448974  0.12190898  1
  Hf  Hf22  1  0.59543328  0.39624564  0.24207347  1
  Hf  Hf23  1  0.69355175  0.10862671  0.12828700  1
  Hf  Hf24  1  0.70260624  0.49782023  0.88898060  1
  Hf  Hf25  1  0.90785899  0.29828883  0.38276955  1
  Hf  Hf26  1  0.10384769  0.10719200  0.11671773  1
  Hf  Hf27  1  0.49058697  0.90716703  0.11791623  1
  Hf  Hf28  1  0.39360225  0.79692165  0.24512352  1
  Hf  Hf29  1  0.39151726  0.01449566  0.25067094  1
  Hf  Hf30  1  -0.00643120  -0.00614879  0.00774552  1
  Hf  Hf31  1  0.19657522  0.59877106  -0.01175595  1
  Hf  Hf32  1  0.21159172  0.59300924  0.50873073  1
  Hf  Hf33  1  0.19446471  0.79530892  -0.00085425  1
  Hf  Hf34  1  0.89671510  0.69007868  0.39176860  1
  Hf  Hf35  1  0.70615615  0.31204780  0.60870754  1
  Hf  Hf36  1  0.60942562  0.80330524  0.49431062  1
  Hf  Hf37  1  0.39976987  0.01053907  0.48330468  1
  Hf  Hf38  1  0.59577010  0.21182321  0.75921534  1
  Hf  Hf39  1  0.89385931  0.09698789  0.36508047  1
  Zr  Zr40  1  0.01825920  0.40641670  -0.00402992  1
  Zr  Zr41  1  0.30287202  0.32240060  0.38169345  1
  Zr  Zr42  1  -0.00078853  -0.00001160  0.75468383  1
  Zr  Zr43  1  0.49885499  0.69285747  0.89641098  1
  Zr  Zr44  1  0.28634141  0.91677477  0.61344651  1
  Zr  Zr45  1  0.20633731  0.80667718  0.75202577  1
  Zr  Zr46  1  0.80207624  0.58937042  0.74938386  1
  Zr  Zr47  1  0.80458440  -0.03102655  0.48766314  1
  Zr  Zr48  1  0.21564053  0.40548811  -0.01102951  1
  Zr  Zr49  1  0.91372698  0.49995835  0.12198468  1
  Zr  Zr50  1  0.90914105  0.69385374  0.88314303  1
  Zr  Zr51  1  0.58926264  -0.00835418  0.75990394  1
  Zr  Zr52  1  0.11099209  0.09819753  0.62758943  1
  Zr  Zr53  1  0.72300596  0.88848610  0.64812048  1
  Zr  Zr54  1  0.21527709  0.60796340  0.73318898  1
  Zr  Zr55  1  0.69733054  0.90736154  0.13792575  1
  Zr  Zr56  1  0.89305932  0.10771729  0.88183883  1
  Zr  Zr57  1  0.28482400  0.68664354  0.14347753  1
  Zr  Zr58  1  0.19294504  -0.00745501  -0.00179009  1
  Zr  Zr59  1  0.39817240  0.21046753  0.76758406  1
  Zr  Zr60  1  0.89001735  0.08057260  0.63246979  1
  Zr  Zr61  1  0.20738923  0.20551234  0.25205799  1
  Zr  Zr62  1  0.49455665  0.69537096  0.37498703  1
  Zr  Zr63  1  0.48392820  0.88590491  0.89163462  1
  Zr  Zr64  1  0.79619157  -0.00267456  0.00299072  1
  Zr  Zr65  1  0.79572345  0.18802128  0.50164522  1
  Zr  Zr66  1  0.00831921  0.59604176  0.26629038  1
  Zr  Zr67  1  0.89452531  0.48267585  0.60458107  1
  Zr  Zr68  1  0.49360243  0.09929708  0.89554716  1
  Zr  Zr69  1  0.09702531  0.50762935  0.85416546  1
  Zr  Zr70  1  0.00521887  -0.00398784  0.49475036  1
  Zr  Zr71  1  0.69245067  0.68831965  0.62361057  1
  Zr  Zr72  1  0.32044659  0.50991515  0.85853161  1
  Zr  Zr73  1  0.80257627  0.21471437  0.74374014  1
  Zr  Zr74  1  0.60174513  0.41473929  0.48244776  1
  Zr  Zr75  1  0.09170243  0.70399565  0.61542853  1
  Zr  Zr76  1  0.70472639  0.29721732  0.36425462  1
  Zr  Zr77  1  0.47872039  0.88682577  0.61814283  1
  Zr  Zr78  1  0.00151087  0.00157034  0.24487215  1
  Zr  Zr79  1  0.00359812  0.79623175  0.26798108  1
  Ta  Ta80  1  0.50948256  0.49846764  0.64020793  1
  Ta  Ta81  1  0.29856706  0.10345014  0.89179446  1
  Ta  Ta82  1  0.09540741  0.11260088  0.36883494  1
  Ta  Ta83  1  0.09207817  0.69385842  0.12333029  1
  Ta  Ta84  1  0.20288741  0.40613796  0.24183534  1
  Ta  Ta85  1  0.60761062  0.39384204  0.75676983  1
  Ta  Ta86  1  -0.00450193  0.39351752  0.74526160  1
  Ta  Ta87  1  -0.00181378  0.21037913  0.73693557  1
  Ta  Ta88  1  0.90393659  0.70045498  0.12462959  1
  Ta  Ta89  1  0.30385784  0.10711995  0.10855618  1
  Ta  Ta90  1  0.08930301  0.88913183  0.86937712  1
  Ta  Ta91  1  0.00804899  0.39488894  0.25364119  1
  Ta  Ta92  1  0.70690298  0.30289023  0.89344133  1
  Ta  Ta93  1  0.40973294  0.39478079  0.00082549  1
  Ta  Ta94  1  0.20012230  -0.00053470  0.25306430  1
  Ta  Ta95  1  0.40647400  0.21126140  0.24979675  1
  Ta  Ta96  1  0.29586828  0.69521421  0.37444726  1
  Ta  Ta97  1  0.10219437  0.49270300  0.62319199  1
  Ta  Ta98  1  -0.01238001  0.81534597  0.48983233  1
  Ta  Ta99  1  0.89640050  0.89428335  0.13624004  1
  Ta  Ta100  1  -0.00490772  0.59502412  0.73154226  1
  Ta  Ta101  1  0.59041983  0.19886181  0.49195139  1
  Ta  Ta102  1  0.70065897  0.10427605  0.87787880  1
  Ta  Ta103  1  0.18989580  0.79655900  0.26446583  1
  Ta  Ta104  1  0.79861276  0.59621120  0.24749777  1
  Ta  Ta105  1  0.38473796  -0.00301590  0.76391542  1
  Ta  Ta106  1  0.80168745  0.59994341  0.01546705  1
  Ta  Ta107  1  -0.00128166  0.20430160  0.24154346  1
  Ta  Ta108  1  0.41741688  0.62459220  0.73056228  1
  Ta  Ta109  1  0.30729373  0.30601744  0.62372582  1
  Ta  Ta110  1  0.60223482  0.79214295  0.01775985  1
  Ta  Ta111  1  0.90111202  0.29723870  0.11890649  1
  Ta  Ta112  1  0.20077911  0.00439604  0.77187050  1
  Ta  Ta113  1  0.32022871  0.72684012  0.60468959  1
  Ta  Ta114  1  0.31572045  0.71054167  0.88058456  1
  Ta  Ta115  1  0.20938554  0.39533287  0.74879445  1
  Ta  Ta116  1  0.50251725  0.30615566  0.61426259  1
  Ta  Ta117  1  0.90256512  0.49970778  0.88350876  1
  Ta  Ta118  1  0.70384706  0.49384647  0.12830700  1
  Ta  Ta119  1  0.80186771  0.78962303  0.25382495  1
  Ti  Ti120  1  0.69596942  0.49329603  0.63440951  1
  Ti  Ti121  1  0.59355205  0.59600902  0.23346302  1
  Ti  Ti122  1  -0.00128980  0.79892012  0.00805923  1
  Ti  Ti123  1  0.20370262  0.21759681  -0.01365050  1
  Ti  Ti124  1  0.09340865  0.70201365  0.86413643  1
  Ti  Ti125  1  0.60462000  0.59995930  0.02889970  1
  Ti  Ti126  1  0.19438278  0.00893971  0.47524022  1
  Ti  Ti127  1  0.80841665  0.40232897  0.25148362  1
  Ti  Ti128  1  0.30645638  0.50814115  0.35710819  1
  Ti  Ti129  1  0.60302823  -0.00591412  -0.00674421  1
  Ti  Ti130  1  0.08991438  0.89823578  0.63758881  1
  Ti  Ti131  1  0.30675285  0.29904949  0.11748895  1
  Ti  Ti132  1  0.49613292  0.30353369  0.37577981  1
  Ti  Ti133  1  0.40103373  0.40611858  0.22803886  1
  Ti  Ti134  1  0.60019441  0.21154576  -0.00806881  1
  Ti  Ti135  1  0.20260141  0.20858215  0.76346571  1
  Ti  Ti136  1  0.69618451  0.89084541  0.87221833  1
  Ti  Ti137  1  0.90534210  0.49027538  0.38386732  1
  Ti  Ti138  1  0.10766017  0.30150514  0.63680092  1
  Ti  Ti139  1  0.00096128  0.19801184  0.51294233  1
  Ti  Ti140  1  0.29386052  0.90144978  0.12383020  1
  Ti  Ti141  1  0.59325245  0.59320858  0.49514375  1
  Ti  Ti142  1  0.49182474  0.50124470  0.35679629  1
  Ti  Ti143  1  0.70194490  0.29865334  0.12113910  1
  Ti  Ti144  1  0.40301984  0.20747084  0.49274718  1
  Ti  Ti145  1  0.01508340  0.38381266  0.50603022  1
  Ti  Ti146  1  0.80691625  0.20103592  0.23618077  1
  Ti  Ti147  1  0.50452534  0.29705700  0.11464071  1
  Ti  Ti148  1  0.69469956  0.69149461  0.36720944  1
  Ti  Ti149  1  0.29933488  0.11303960  0.37509123  1
  Ti  Ti150  1  0.80156655  0.40073516  0.01002812  1
  Ti  Ti151  1  0.41257889  0.39403434  0.75488977  1
  Ti  Ti152  1  0.70378090  0.89967547  0.35219151  1
  Ti  Ti153  1  0.39806971  0.41241467  0.50993813  1
  Ti  Ti154  1  0.11365964  0.51150675  0.13259300  1
  Ti  Ti155  1  0.80604010  0.39566155  0.75849232  1
  Ti  Ti156  1  0.79389781  0.79485194  0.01509859  1
  Ti  Ti157  1  0.29886285  0.90034860  0.37074915  1
  Ti  Ti158  1  0.10110130  0.88989064  0.13338329  1
  Ti  Ti159  1  0.30357047  0.89758808  0.88942498  1
  Mo  Mo160  1  0.38954470  0.00169988  0.00350248  1
  Mo  Mo161  1  -0.00283644  0.79311640  0.74132039  1
  Mo  Mo162  1  0.79972247  0.39658339  0.47533752  1
  Mo  Mo163  1  0.39468888  0.80568574  0.47004257  1
  Mo  Mo164  1  0.50136740  0.69957281  0.60283160  1
  Mo  Mo165  1  0.90817915  0.29872518  0.60885190  1
  Mo  Mo166  1  0.38922420  0.79617866  0.02483100  1
  Mo  Mo167  1  0.00076088  0.20093283  0.01829285  1
  Mo  Mo168  1  0.31345433  0.49548660  0.64327033  1
  Mo  Mo169  1  0.58892581  0.20828263  0.25116152  1
  Mo  Mo170  1  0.29756947  0.49283433  0.13563960  1
  Mo  Mo171  1  0.00312590  0.59221572  0.50709996  1
  Mo  Mo172  1  0.39623672  0.21095906  0.00273622  1
  Mo  Mo173  1  0.10172519  0.30060133  0.85809376  1
  Mo  Mo174  1  0.09788099  0.30257370  0.36605418  1
  Mo  Mo175  1  0.19584275  0.59853421  0.26884205  1
  Mo  Mo176  1  0.30579728  0.30503570  0.87439012  1
  Mo  Mo177  1  0.00589970  0.60685176  0.00213107  1
  Mo  Mo178  1  0.49793497  0.69920834  0.12452531  1
  Mo  Mo179  1  0.70623531  0.69401154  0.12734421  1
  Mo  Mo180  1  0.79157612  -0.00261200  0.77220795  1
  Mo  Mo181  1  0.50267613  0.49379649  0.12520191  1
  Mo  Mo182  1  0.80137833  -0.00188212  0.24256205  1
  Mo  Mo183  1  0.39221290  0.80247857  0.75094333  1
  Mo  Mo184  1  0.60631485  0.39909013  0.01575941  1
  Mo  Mo185  1  0.10136385  0.90851441  0.36539649  1
  Mo  Mo186  1  0.89408269  0.89586986  0.35403544  1
  Mo  Mo187  1  0.89710480  0.10323800  0.12946972  1
  Mo  Mo188  1  0.59188730  0.00217393  0.24514145  1
  Mo  Mo189  1  0.79322681  0.79408473  0.47401623  1
  Mo  Mo190  1  0.49641387  0.11500264  0.36718623  1
  Mo  Mo191  1  0.79440264  0.78914703  0.76309585  1
  Mo  Mo192  1  0.50918464  0.31055921  0.89061743  1
  Mo  Mo193  1  0.59954542  0.59133830  0.74683321  1
  Mo  Mo194  1  0.69619237  0.50378838  0.34397732  1
  Mo  Mo195  1  0.90595095  0.88420688  0.64086589  1
  Mo  Mo196  1  0.40207112  0.59163457  0.24558610  1
  Mo  Mo197  1  0.79467231  0.20467483  0.01355741  1
  Mo  Mo198  1  0.20839341  0.40201055  0.52418516  1
  Mo  Mo199  1  0.09849478  0.69457705  0.39900163  1
