# generated using pymatgen
data_HfZrTaTiMo
_symmetry_space_group_name_H-M   'P 1'
_cell_length_a   15.92982935
_cell_length_b   15.92915006
_cell_length_c   15.18928150
_cell_angle_alpha   89.96511661
_cell_angle_beta   89.97981539
_cell_angle_gamma   90.03070241
_symmetry_Int_Tables_number   1
_chemical_formula_structural   HfZrTaTiMo
_chemical_formula_sum   'Hf40 Zr40 Ta40 Ti40 Mo40'
_cell_volume   3854.25804898
_cell_formula_units_Z   40
loop_
 _symmetry_equiv_pos_site_id
 _symmetry_equiv_pos_as_xyz
  1  'x, y, z'
loop_
 _atom_site_type_symbol
 _atom_site_label
 _atom_site_symmetry_multiplicity
 _atom_site_fract_x
 _atom_site_fract_y
 _atom_site_fract_z
 _atom_site_occupancy
  Hf  Hf0  1  0.61760223  0.41883341  -0.00298961  1
  Hf  Hf1  1  0.79434780  0.57469384  -0.00865990  1
  Hf  Hf2  1  0.50333710  0.70307883  0.63404733  1
  Hf  Hf3  1  0.39935031  0.80092838  0.49944110  1
  Hf  Hf4  1  0.20486154  0.79689160  0.50551500  1
  Hf  Hf5  1  0.09907756  0.30075537  0.12065053  1
  Hf  Hf6  1  0.19516158  0.60309522  0.72453282  1
  Hf  Hf7  1  0.09621889  0.49749136  0.38796292  1
  Hf  Hf8  1  -0.00808613  -0.00289276  0.75167184  1
  Hf  Hf9  1  0.40565840  0.80198393  -0.01448202  1
  Hf  Hf10  1  0.40172557  0.20547623  0.25055232  1
  Hf  Hf11  1  0.08560367  0.88923865  0.61712587  1
  Hf  Hf12  1  0.19915029  -0.00201432  0.50643697  1
  Hf  Hf13  1  0.79272111  -0.00165147  0.73245932  1
  Hf  Hf14  1  0.89212079  0.29677293  0.37547960  1
  Hf  Hf15  1  0.80365062  -0.01023560  0.23494216  1
  Hf  Hf16  1  0.50351886  0.70058626  0.13434724  1
  Hf  Hf17  1  0.79917049  0.79115465  0.25355972  1
  Hf  Hf18  1  0.60377760  0.59354506  0.49311056  1
  Hf  Hf19  1  0.09596068  0.69793102  0.37990791  1
  Hf  Hf20  1  0.79698778  -0.00381274  0.50151135  1
  Hf  Hf21  1  0.78662446  0.40519601  0.49846026  1
  Hf  Hf22  1  0.21494621  0.79845832  0.00973453  1
  Hf  Hf23  1  0.40197165  0.19974586  0.76650164  1
  Hf  Hf24  1  0.10381452  0.90320572  0.13095653  1
  Hf  Hf25  1  0.69128277  0.29908663  0.37038878  1
  Hf  Hf26  1  -0.00328263  0.19114666  0.49549170  1
  Hf  Hf27  1  0.29796383  0.30355854  0.39029987  1
  Hf  Hf28  1  0.19193011  0.18979367  0.51574033  1
  Hf  Hf29  1  0.30135986  0.89925040  0.85731722  1
  Hf  Hf30  1  0.11311620  0.10575935  0.88542949  1
  Hf  Hf31  1  0.60224242  0.19528695  -0.00425255  1
  Hf  Hf32  1  0.69433720  0.10123296  0.35776448  1
  Hf  Hf33  1  -0.00536603  -0.00503608  0.48824652  1
  Hf  Hf34  1  -0.00672610  0.20135593  -0.00172311  1
  Hf  Hf35  1  0.11320504  0.69316038  0.88002310  1
  Hf  Hf36  1  0.80227718  0.40765486  0.74322170  1
  Hf  Hf37  1  0.01526304  0.20066852  0.73595634  1
  Hf  Hf38  1  0.09976612  0.31207343  0.88059896  1
  Hf  Hf39  1  0.70764997  0.70173031  0.61971383  1
  Zr  Zr40  1  0.50226317  0.10467909  0.63938910  1
  Zr  Zr41  1  0.49394474  0.90525541  0.64859227  1
  Zr  Zr42  1  0.49828289  0.49652735  0.86014743  1
  Zr  Zr43  1  0.38242756  0.42394712  -0.00259875  1
  Zr  Zr44  1  0.29844557  0.29823383  0.62958981  1
  Zr  Zr45  1  0.61327642  0.60184827  0.76117683  1
  Zr  Zr46  1  0.29069821  0.30269762  0.10869839  1
  Zr  Zr47  1  0.89995835  0.68135386  0.12969297  1
  Zr  Zr48  1  0.59691016  0.80340252  -0.00162813  1
  Zr  Zr49  1  0.09838612  0.69192734  0.13862187  1
  Zr  Zr50  1  0.50367536  0.91313644  0.35970933  1
  Zr  Zr51  1  0.39727493  -0.00092088  0.49749846  1
  Zr  Zr52  1  0.90137304  0.30180121  0.86532989  1
  Zr  Zr53  1  0.60614646  0.20124617  0.76334908  1
  Zr  Zr54  1  0.70134861  0.30695638  0.13090645  1
  Zr  Zr55  1  0.00321930  0.78839000  0.75020354  1
  Zr  Zr56  1  0.71867750  0.71286708  0.88192908  1
  Zr  Zr57  1  0.21454426  0.59116630  0.26130021  1
  Zr  Zr58  1  0.60568574  0.00744435  0.50961750  1
  Zr  Zr59  1  0.29879630  0.09804835  0.36538118  1
  Zr  Zr60  1  0.50233492  0.51734048  0.12259361  1
  Zr  Zr61  1  -0.00759672  0.39887228  0.25716726  1
  Zr  Zr62  1  0.89566549  0.89528742  0.89036824  1
  Zr  Zr63  1  0.39439788  0.41065671  0.25201703  1
  Zr  Zr64  1  0.71010625  0.91682191  0.88955967  1
  Zr  Zr65  1  0.31642512  0.69051407  0.13492052  1
  Zr  Zr66  1  0.60642877  0.80754427  0.49585444  1
  Zr  Zr67  1  0.09490696  0.50050582  0.13565057  1
  Zr  Zr68  1  0.00404958  0.79745984  0.01220791  1
  Zr  Zr69  1  0.21350473  0.58589882  0.00314617  1
  Zr  Zr70  1  0.79497000  0.19437255  0.74562400  1
  Zr  Zr71  1  0.28687420  0.29581469  0.87611712  1
  Zr  Zr72  1  0.00503450  0.58072564  0.74075163  1
  Zr  Zr73  1  0.30041317  0.10423181  0.10933675  1
  Zr  Zr74  1  0.18984085  0.00188015  0.74512363  1
  Zr  Zr75  1  0.10155784  0.10050196  0.12763757  1
  Zr  Zr76  1  0.17105640  0.40392451  0.72167755  1
  Zr  Zr77  1  0.90346264  0.69615663  0.88320650  1
  Zr  Zr78  1  0.49494204  0.30382242  0.10977936  1
  Zr  Zr79  1  0.40718185  0.19487577  0.50262808  1
  Ta  Ta80  1  0.60024004  0.60618209  -0.01748510  1
  Ta  Ta81  1  0.90145510  0.09881445  0.62035315  1
  Ta  Ta82  1  0.10031064  0.29900011  0.38385947  1
  Ta  Ta83  1  0.60872404  0.60073395  0.27122794  1
  Ta  Ta84  1  0.90035303  0.30249620  0.61649540  1
  Ta  Ta85  1  0.30301123  0.09386909  0.64748105  1
  Ta  Ta86  1  0.79651284  0.19853122  0.00433541  1
  Ta  Ta87  1  0.59671700  0.41175077  0.25472419  1
  Ta  Ta88  1  0.80859875  0.80487334  0.72963340  1
  Ta  Ta89  1  0.49864144  0.69944863  0.37598742  1
  Ta  Ta90  1  0.20189812  0.39700458  0.26112670  1
  Ta  Ta91  1  0.39728573  0.60093380  0.51489111  1
  Ta  Ta92  1  0.39194617  0.60532032  0.74529520  1
  Ta  Ta93  1  0.20736034  0.80244928  0.25264562  1
  Ta  Ta94  1  0.50337550  0.49737554  0.63047939  1
  Ta  Ta95  1  0.88673519  0.09123044  0.88740425  1
  Ta  Ta96  1  0.10308991  0.90027511  0.36700889  1
  Ta  Ta97  1  0.40231258  0.61376951  -0.02998019  1
  Ta  Ta98  1  0.40232422  0.40605035  0.51352257  1
  Ta  Ta99  1  0.91077893  0.70145603  0.60362549  1
  Ta  Ta100  1  -0.01123488  0.41049379  0.00349139  1
  Ta  Ta101  1  0.49572694  0.30458256  0.88805700  1
  Ta  Ta102  1  0.89707410  0.30175419  0.12804311  1
  Ta  Ta103  1  0.90068290  0.10006095  0.12179565  1
  Ta  Ta104  1  0.10279253  0.89633346  0.88204625  1
  Ta  Ta105  1  0.28354194  0.49899701  0.85062085  1
  Ta  Ta106  1  0.81280209  0.59965801  0.74463413  1
  Ta  Ta107  1  0.69655841  0.68508981  0.12380788  1
  Ta  Ta108  1  0.50360566  0.30512443  0.38328010  1
  Ta  Ta109  1  0.79275833  0.19345115  0.50641837  1
  Ta  Ta110  1  0.69980208  0.90412512  0.35926203  1
  Ta  Ta111  1  0.80558535  0.80924571  0.49493509  1
  Ta  Ta112  1  0.39872634  0.80127540  0.25876919  1
  Ta  Ta113  1  0.49744925  0.90204870  0.13452352  1
  Ta  Ta114  1  0.40435040  -0.00642724  -0.00624023  1
  Ta  Ta115  1  0.60562641  0.79575297  0.25228032  1
  Ta  Ta116  1  0.20457233  0.59916964  0.51617748  1
  Ta  Ta117  1  0.61022478  0.81095926  0.75859561  1
  Ta  Ta118  1  0.10037667  0.09803083  0.35840683  1
  Ta  Ta119  1  -0.00620786  0.80452503  0.25755054  1
  Ti  Ti120  1  0.89237575  0.49918185  0.13836266  1
  Ti  Ti121  1  0.90164752  0.69929779  0.38392534  1
  Ti  Ti122  1  0.49605683  0.09927431  0.11761615  1
  Ti  Ti123  1  0.69693724  0.09518358  0.12521501  1
  Ti  Ti124  1  0.50717430  0.30723741  0.62154175  1
  Ti  Ti125  1  0.59252055  0.20425501  0.23757276  1
  Ti  Ti126  1  0.19838911  0.20643153  0.25340870  1
  Ti  Ti127  1  0.39748336  0.40144992  0.74308316  1
  Ti  Ti128  1  0.79581179  0.60240063  0.49057088  1
  Ti  Ti129  1  0.20783819  -0.00421444  0.24501870  1
  Ti  Ti130  1  0.29897871  0.89971463  0.36733914  1
  Ti  Ti131  1  -0.00455591  -0.00285622  0.25374133  1
  Ti  Ti132  1  0.20084009  0.79005956  0.73582323  1
  Ti  Ti133  1  0.89922315  0.50325713  0.38226510  1
  Ti  Ti134  1  0.50058698  0.49322700  0.39111013  1
  Ti  Ti135  1  0.60328380  0.39448201  0.75347848  1
  Ti  Ti136  1  0.30851071  0.89791184  0.64304589  1
  Ti  Ti137  1  0.90468510  0.50073763  0.60452913  1
  Ti  Ti138  1  0.79303461  0.59714068  0.26810418  1
  Ti  Ti139  1  0.79900059  0.81612924  0.03802176  1
  Ti  Ti140  1  0.79083776  0.40959824  0.25606058  1
  Ti  Ti141  1  0.40678533  0.59491430  0.27113653  1
  Ti  Ti142  1  0.50763118  0.10371547  0.36259103  1
  Ti  Ti143  1  0.70273160  0.30401147  0.87962438  1
  Ti  Ti144  1  0.69461267  0.49970659  0.62783121  1
  Ti  Ti145  1  -0.00311251  0.19765093  0.25235203  1
  Ti  Ti146  1  0.80239349  0.19819504  0.23741752  1
  Ti  Ti147  1  0.60216339  0.20127404  0.50142446  1
  Ti  Ti148  1  0.69320145  0.30043980  0.61967933  1
  Ti  Ti149  1  0.30044835  0.49769387  0.39902590  1
  Ti  Ti150  1  0.39675204  0.00063078  0.23794101  1
  Ti  Ti151  1  0.60066580  -0.00300155  0.01080427  1
  Ti  Ti152  1  0.60951229  0.00731029  0.75765964  1
  Ti  Ti153  1  0.89313321  0.09853116  0.36512830  1
  Ti  Ti154  1  0.00012927  0.58443286  -0.01146038  1
  Ti  Ti155  1  0.80602551  0.39899973  -0.00403203  1
  Ti  Ti156  1  0.21012159  -0.00735947  -0.00143428  1
  Ti  Ti157  1  0.50174667  0.09090539  0.88172697  1
  Ti  Ti158  1  -0.00287171  -0.00319252  0.00283687  1
  Ti  Ti159  1  0.30377762  0.69689989  0.38009633  1
  Mo  Mo160  1  0.70853274  0.49537161  0.85726272  1
  Mo  Mo161  1  0.30366395  0.50129224  0.13479592  1
  Mo  Mo162  1  0.50661998  0.90937533  0.86915154  1
  Mo  Mo163  1  0.69909616  0.10605637  0.61723716  1
  Mo  Mo164  1  0.80064670  0.00524184  0.02422130  1
  Mo  Mo165  1  0.30492249  0.70737672  0.63067783  1
  Mo  Mo166  1  0.18789992  0.40821853  -0.00388793  1
  Mo  Mo167  1  0.40468352  0.79642402  0.76133088  1
  Mo  Mo168  1  -0.00321411  0.80170373  0.47820344  1
  Mo  Mo169  1  0.19667413  0.19886063  0.00232981  1
  Mo  Mo170  1  -0.00855798  0.39575244  0.49714589  1
  Mo  Mo171  1  0.70357140  0.09912754  0.89455050  1
  Mo  Mo172  1  0.40287625  0.19032467  -0.01759213  1
  Mo  Mo173  1  0.90728567  0.90010011  0.13054063  1
  Mo  Mo174  1  0.40336563  0.00299555  0.77213828  1
  Mo  Mo175  1  0.08992440  0.30184269  0.59961145  1
  Mo  Mo176  1  0.70456478  0.50870276  0.14402750  1
  Mo  Mo177  1  0.29915784  0.69918728  0.85604820  1
  Mo  Mo178  1  0.09591070  0.69966410  0.60448507  1
  Mo  Mo179  1  0.70303114  0.70231912  0.38454058  1
  Mo  Mo180  1  0.59812135  0.00457664  0.23028230  1
  Mo  Mo181  1  0.69065239  0.89446780  0.13370346  1
  Mo  Mo182  1  -0.00678074  0.59984455  0.49632195  1
  Mo  Mo183  1  0.19779244  0.19855612  0.73466802  1
  Mo  Mo184  1  0.90567189  0.49390826  0.86815651  1
  Mo  Mo185  1  0.30425292  0.49972385  0.62572686  1
  Mo  Mo186  1  0.69742681  0.89882802  0.63220644  1
  Mo  Mo187  1  0.09088457  0.49806182  0.59263460  1
  Mo  Mo188  1  0.70083754  0.49776120  0.37053176  1
  Mo  Mo189  1  0.59528972  0.39719940  0.50542640  1
  Mo  Mo190  1  0.19888000  0.39897909  0.50041343  1
  Mo  Mo191  1  0.30728865  0.90110796  0.13405648  1
  Mo  Mo192  1  0.50255569  0.70521111  0.85764516  1
  Mo  Mo193  1  -0.01928723  0.60099749  0.27158950  1
  Mo  Mo194  1  0.89874017  0.89526107  0.61444902  1
  Mo  Mo195  1  0.89988762  0.89904538  0.36669879  1
  Mo  Mo196  1  0.09608939  0.09505239  0.62546125  1
  Mo  Mo197  1  -0.00747034  0.39901207  0.72474656  1
  Mo  Mo198  1  0.09830209  0.49520847  0.88014826  1
  Mo  Mo199  1  0.30203399  0.09739320  0.87977826  1
