# generated using pymatgen
data_HfZrTaTiMo
_symmetry_space_group_name_H-M   'P 1'
_cell_length_a   15.92042399
_cell_length_b   15.93304676
_cell_length_c   15.20210830
_cell_angle_alpha   90.00193417
_cell_angle_beta   90.07085942
_cell_angle_gamma   89.91455177
_symmetry_Int_Tables_number   1
_chemical_formula_structural   HfZrTaTiMo
_chemical_formula_sum   'Hf40 Zr40 Ta40 Ti40 Mo40'
_cell_volume   3856.17262362
_cell_formula_units_Z   40
loop_
 _symmetry_equiv_pos_site_id
 _symmetry_equiv_pos_as_xyz
  1  'x, y, z'
loop_
 _atom_site_type_symbol
 _atom_site_label
 _atom_site_symmetry_multiplicity
 _atom_site_fract_x
 _atom_site_fract_y
 _atom_site_fract_z
 _atom_site_occupancy
  Hf  Hf0  1  0.60391206  0.40242390  0.00180808  1
  Hf  Hf1  1  0.19225932  0.39528221  -0.00815180  1
  Hf  Hf2  1  0.51439122  0.31405433  0.37328167  1
  Hf  Hf3  1  0.29685179  0.89876383  0.14213229  1
  Hf  Hf4  1  0.48804017  0.90545060  0.87214391  1
  Hf  Hf5  1  0.00131461  0.00089252  0.25757364  1
  Hf  Hf6  1  0.87355320  0.49105748  0.62176591  1
  Hf  Hf7  1  0.09558476  0.29659497  0.63176606  1
  Hf  Hf8  1  -0.00003102  0.79759493  0.01620348  1
  Hf  Hf9  1  0.09477208  0.50150808  0.13005110  1
  Hf  Hf10  1  0.59148096  0.60191802  0.75275810  1
  Hf  Hf11  1  0.19037782  0.79000729  0.74171437  1
  Hf  Hf12  1  0.49699136  0.89864081  0.38305960  1
  Hf  Hf13  1  0.70434347  0.89790734  0.37896751  1
  Hf  Hf14  1  0.10969888  0.10709937  0.13756082  1
  Hf  Hf15  1  0.41089302  0.19475438  0.23150049  1
  Hf  Hf16  1  0.20255633  0.79645244  0.01012168  1
  Hf  Hf17  1  -0.01240880  0.80547453  0.74266434  1
  Hf  Hf18  1  0.39665926  0.40705896  0.00876871  1
  Hf  Hf19  1  -0.00402173  0.59831163  0.74816574  1
  Hf  Hf20  1  0.50170114  0.12328268  0.38928706  1
  Hf  Hf21  1  0.60113137  0.59818780  0.47440362  1
  Hf  Hf22  1  0.19906341  0.00576418  0.00203899  1
  Hf  Hf23  1  0.61801399  0.21533515  0.23246213  1
  Hf  Hf24  1  0.31456851  0.09238317  0.86415283  1
  Hf  Hf25  1  0.29121696  0.89968052  0.38179533  1
  Hf  Hf26  1  -0.00442671  0.79500994  0.24287440  1
  Hf  Hf27  1  0.40032528  0.41103296  0.24637996  1
  Hf  Hf28  1  -0.01664430  0.60320177  0.49166572  1
  Hf  Hf29  1  0.31394844  0.29296880  0.37809983  1
  Hf  Hf30  1  0.29195223  0.28898353  0.12387425  1
  Hf  Hf31  1  0.38528112  0.01949723  0.50332050  1
  Hf  Hf32  1  0.90677205  0.30112037  0.63773334  1
  Hf  Hf33  1  0.70826085  0.10509751  0.63582439  1
  Hf  Hf34  1  0.50118635  0.89983182  0.14548627  1
  Hf  Hf35  1  0.90076224  0.10960975  0.38777525  1
  Hf  Hf36  1  0.39916874  0.41072161  0.74898768  1
  Hf  Hf37  1  0.49812873  0.10712483  0.62871735  1
  Hf  Hf38  1  0.72006028  0.11086794  0.11582262  1
  Hf  Hf39  1  0.29656095  0.90331325  0.62117749  1
  Zr  Zr40  1  0.61502417  0.41128252  0.51697558  1
  Zr  Zr41  1  0.70928879  0.29664316  0.38287536  1
  Zr  Zr42  1  0.20680873  0.40287212  0.75549784  1
  Zr  Zr43  1  0.70632992  0.10175371  0.87249319  1
  Zr  Zr44  1  0.08800227  0.49722277  0.61997614  1
  Zr  Zr45  1  0.30442872  0.69833899  0.87606418  1
  Zr  Zr46  1  0.09702354  0.90167088  0.61544867  1
  Zr  Zr47  1  0.88472946  0.69930148  0.62421453  1
  Zr  Zr48  1  0.69484964  0.68619278  0.61642213  1
  Zr  Zr49  1  0.01448259  0.19917788  -0.01883929  1
  Zr  Zr50  1  0.89343440  0.90679499  0.12125905  1
  Zr  Zr51  1  0.49325940  0.50894288  0.88023973  1
  Zr  Zr52  1  0.90416562  0.88985147  0.38643973  1
  Zr  Zr53  1  0.81542164  -0.01452940  0.74412915  1
  Zr  Zr54  1  0.49813893  0.88979307  0.61099039  1
  Zr  Zr55  1  0.20062959  0.39970011  0.49045623  1
  Zr  Zr56  1  0.60251306  0.01659635  0.25363033  1
  Zr  Zr57  1  0.60849974  0.00959107  0.49957805  1
  Zr  Zr58  1  0.39511443  0.21668261  0.73244169  1
  Zr  Zr59  1  0.20003771  0.59673713  0.73334827  1
  Zr  Zr60  1  0.09130494  0.70394370  0.37188340  1
  Zr  Zr61  1  0.70675918  0.88399948  0.87148048  1
  Zr  Zr62  1  0.79633909  0.37777406  0.23065647  1
  Zr  Zr63  1  0.20196743  0.20582053  0.75636602  1
  Zr  Zr64  1  0.08717467  0.91265690  0.87436708  1
  Zr  Zr65  1  0.49682043  0.69844074  0.14716270  1
  Zr  Zr66  1  -0.00142427  0.39021336  0.48370563  1
  Zr  Zr67  1  0.09318436  0.29649723  0.13127953  1
  Zr  Zr68  1  0.59928014  0.00113795  0.00879673  1
  Zr  Zr69  1  0.30271643  0.89881316  0.86675656  1
  Zr  Zr70  1  0.59877013  0.80246547  0.01192676  1
  Zr  Zr71  1  0.10015910  0.69300090  0.88716088  1
  Zr  Zr72  1  0.30681115  0.70031696  0.60439832  1
  Zr  Zr73  1  0.21438156  0.19320305  0.51378352  1
  Zr  Zr74  1  0.70716577  0.87650644  0.60990367  1
  Zr  Zr75  1  0.70448110  0.50158395  0.12183502  1
  Zr  Zr76  1  0.49908182  0.10743735  0.87193723  1
  Zr  Zr77  1  0.88983738  0.70300790  0.88235457  1
  Zr  Zr78  1  0.60076959  -0.00810537  0.74384087  1
  Zr  Zr79  1  0.19690177  0.39957962  0.26344486  1
  Ta  Ta80  1  0.29529258  0.51282441  0.89018509  1
  Ta  Ta81  1  0.20782039  0.19415984  -0.01739665  1
  Ta  Ta82  1  0.90803172  0.10370428  0.11194760  1
  Ta  Ta83  1  0.40036867  0.00787490  0.25096154  1
  Ta  Ta84  1  0.10439989  0.68889416  0.13578024  1
  Ta  Ta85  1  0.91316882  0.10056566  0.62318549  1
  Ta  Ta86  1  0.91571199  0.08179139  0.87835819  1
  Ta  Ta87  1  0.89999528  0.89821910  0.89096281  1
  Ta  Ta88  1  -0.01044017  0.39346450  0.25232520  1
  Ta  Ta89  1  0.69936374  0.69515384  0.13460222  1
  Ta  Ta90  1  0.39644415  0.60980549  0.01710326  1
  Ta  Ta91  1  0.49711718  0.70169240  0.59573758  1
  Ta  Ta92  1  0.59674261  0.60485678  0.00406210  1
  Ta  Ta93  1  0.80394968  0.00881287  0.25537657  1
  Ta  Ta94  1  0.50477869  0.30191297  0.11284997  1
  Ta  Ta95  1  0.10328034  0.10884489  0.37978233  1
  Ta  Ta96  1  0.49641313  0.70824732  0.88498941  1
  Ta  Ta97  1  -0.00342499  0.39799338  -0.00812598  1
  Ta  Ta98  1  0.70382674  0.30251545  0.87543854  1
  Ta  Ta99  1  0.60356893  0.22020743  0.74460552  1
  Ta  Ta100  1  0.39770718  0.01271925  0.02694713  1
  Ta  Ta101  1  0.49596135  0.51417571  0.61929554  1
  Ta  Ta102  1  0.89284397  0.50213873  0.89032808  1
  Ta  Ta103  1  0.80029950  0.59746587  0.25706957  1
  Ta  Ta104  1  0.88817614  0.49022591  0.37042240  1
  Ta  Ta105  1  0.50227580  0.30036945  0.88308673  1
  Ta  Ta106  1  0.69664006  0.69363963  0.88328220  1
  Ta  Ta107  1  0.81043996  0.19968724  0.75712072  1
  Ta  Ta108  1  0.09824047  0.09786926  0.62540905  1
  Ta  Ta109  1  0.19659969  0.59678021  0.48839153  1
  Ta  Ta110  1  0.89710957  0.89481407  0.60111395  1
  Ta  Ta111  1  0.29848764  0.10475559  0.36233379  1
  Ta  Ta112  1  0.39850174  0.80481683  0.01399153  1
  Ta  Ta113  1  0.00788956  0.00150231  0.49417640  1
  Ta  Ta114  1  0.79904974  0.79385810  0.24949597  1
  Ta  Ta115  1  0.20553653  0.59881465  0.26414109  1
  Ta  Ta116  1  0.79011852  0.59275426  0.76370351  1
  Ta  Ta117  1  -0.00041741  0.40071834  0.77450524  1
  Ta  Ta118  1  0.80435862  0.20767786  0.52171244  1
  Ta  Ta119  1  0.60114776  0.40574756  0.74979900  1
  Ti  Ti120  1  0.70222696  0.90090011  0.14055822  1
  Ti  Ti121  1  0.09947607  0.50713539  0.88511395  1
  Ti  Ti122  1  0.10121784  0.90318861  0.13045087  1
  Ti  Ti123  1  0.39861612  0.60680442  0.74593350  1
  Ti  Ti124  1  0.79956948  0.76268197  0.46838975  1
  Ti  Ti125  1  0.59711707  0.79026297  0.75027488  1
  Ti  Ti126  1  0.89595813  0.29964023  0.87630870  1
  Ti  Ti127  1  0.31328641  0.29840430  0.88855760  1
  Ti  Ti128  1  0.40715195  0.41466419  0.48833407  1
  Ti  Ti129  1  0.19755259  0.00159551  0.26065065  1
  Ti  Ti130  1  0.70409207  0.49915173  0.88473743  1
  Ti  Ti131  1  -0.00256588  0.59760921  0.00781340  1
  Ti  Ti132  1  0.39463035  0.79378236  0.26564904  1
  Ti  Ti133  1  0.60988724  0.21330207  0.52236414  1
  Ti  Ti134  1  0.40737959  0.79379089  0.74210362  1
  Ti  Ti135  1  0.79468864  0.79138233  0.01871041  1
  Ti  Ti136  1  0.18745102  0.79691455  0.49643186  1
  Ti  Ti137  1  0.00510698  0.19061919  0.76600304  1
  Ti  Ti138  1  0.30853752  0.50304576  0.60610186  1
  Ti  Ti139  1  -0.00831278  0.20367031  0.25353087  1
  Ti  Ti140  1  0.71985608  0.32039373  0.64506399  1
  Ti  Ti141  1  0.50147424  0.50563716  0.13286459  1
  Ti  Ti142  1  0.80083379  -0.00231993  -0.00278480  1
  Ti  Ti143  1  0.71075630  0.11387728  0.37906168  1
  Ti  Ti144  1  0.89813131  0.49628397  0.11809643  1
  Ti  Ti145  1  0.29657727  0.69644115  0.13970356  1
  Ti  Ti146  1  0.80187184  0.00778449  0.50175188  1
  Ti  Ti147  1  0.08730373  0.50292763  0.36371687  1
  Ti  Ti148  1  0.89619768  0.29235321  0.37968920  1
  Ti  Ti149  1  0.59410979  0.59294676  0.26025304  1
  Ti  Ti150  1  0.69653658  0.48410346  0.35604311  1
  Ti  Ti151  1  0.60194565  0.20124157  0.00090071  1
  Ti  Ti152  1  0.49480508  0.31452563  0.61481277  1
  Ti  Ti153  1  0.19341628  0.00589375  0.75077671  1
  Ti  Ti154  1  0.19469010  0.79928838  0.25660675  1
  Ti  Ti155  1  0.29145507  0.51112531  0.12387974  1
  Ti  Ti156  1  0.89052136  0.28668469  0.10512661  1
  Ti  Ti157  1  0.89545178  0.68252336  0.12889037  1
  Ti  Ti158  1  0.60484313  0.79365192  0.26578461  1
  Ti  Ti159  1  0.30550659  0.69557052  0.38249411  1
  Mo  Mo160  1  -0.00390840  0.79532957  0.50375042  1
  Mo  Mo161  1  0.30051458  0.50415071  0.38016052  1
  Mo  Mo162  1  0.09340617  0.29073266  0.36473579  1
  Mo  Mo163  1  0.59837158  0.40066340  0.22781216  1
  Mo  Mo164  1  0.60010386  0.79209857  0.47756299  1
  Mo  Mo165  1  0.30966780  0.31693691  0.60732423  1
  Mo  Mo166  1  0.80599248  0.39562534  -0.00363294  1
  Mo  Mo167  1  0.80033531  0.40146920  0.77404297  1
  Mo  Mo168  1  0.20144311  0.59911958  0.01560979  1
  Mo  Mo169  1  0.40185825  0.59534991  0.47832206  1
  Mo  Mo170  1  0.20006238  0.19971597  0.26379932  1
  Mo  Mo171  1  0.79611527  0.60192131  0.00367581  1
  Mo  Mo172  1  0.69756376  0.69270244  0.35431953  1
  Mo  Mo173  1  0.70875262  0.29542351  0.09254907  1
  Mo  Mo174  1  0.19501766  0.00424485  0.48874200  1
  Mo  Mo175  1  0.39554852  0.79760114  0.48443249  1
  Mo  Mo176  1  0.10557697  0.09727703  0.86356571  1
  Mo  Mo177  1  0.81287033  0.19211577  0.24442813  1
  Mo  Mo178  1  0.50649866  0.10405006  0.11735751  1
  Mo  Mo179  1  0.00379682  0.19894158  0.50105924  1
  Mo  Mo180  1  0.10112474  0.30400068  0.86987818  1
  Mo  Mo181  1  0.89884235  0.68879071  0.35903149  1
  Mo  Mo182  1  0.10288036  0.90377780  0.37988638  1
  Mo  Mo183  1  0.09480757  0.70025842  0.60225392  1
  Mo  Mo184  1  0.40382245  0.21363422  0.51269029  1
  Mo  Mo185  1  0.40240516  0.19957181  0.00930841  1
  Mo  Mo186  1  0.79447322  0.79330115  0.75590400  1
  Mo  Mo187  1  0.80980517  0.19429354  -0.02709929  1
  Mo  Mo188  1  0.29637742  0.09483267  0.64124337  1
  Mo  Mo189  1  0.50089991  0.49886658  0.35994574  1
  Mo  Mo190  1  0.00398743  0.00027001  0.01541798  1
  Mo  Mo191  1  0.29621054  0.09806032  0.13874577  1
  Mo  Mo192  1  0.80006258  0.39602876  0.49465421  1
  Mo  Mo193  1  0.78880475  0.58234883  0.47364842  1
  Mo  Mo194  1  0.69668839  0.50170787  0.63818718  1
  Mo  Mo195  1  -0.00165872  0.00054823  0.73392193  1
  Mo  Mo196  1  -0.00642194  0.58932811  0.24615130  1
  Mo  Mo197  1  0.39129951  0.59866543  0.25328735  1
  Mo  Mo198  1  0.39541337  -0.00337070  0.73060866  1
  Mo  Mo199  1  0.49494666  0.70089169  0.37049521  1
