# generated using pymatgen
data_HfZrTaTiMo
_symmetry_space_group_name_H-M   'P 1'
_cell_length_a   15.93793660
_cell_length_b   15.92367174
_cell_length_c   15.20859789
_cell_angle_alpha   90.05741446
_cell_angle_beta   89.93788914
_cell_angle_gamma   90.05114492
_symmetry_Int_Tables_number   1
_chemical_formula_structural   HfZrTaTiMo
_chemical_formula_sum   'Hf40 Zr40 Ta40 Ti40 Mo40'
_cell_volume   3859.79147735
_cell_formula_units_Z   40
loop_
 _symmetry_equiv_pos_site_id
 _symmetry_equiv_pos_as_xyz
  1  'x, y, z'
loop_
 _atom_site_type_symbol
 _atom_site_label
 _atom_site_symmetry_multiplicity
 _atom_site_fract_x
 _atom_site_fract_y
 _atom_site_fract_z
 _atom_site_occupancy
  Hf  Hf0  1  0.11308989  0.30448065  0.37934595  1
  Hf  Hf1  1  0.49933388  0.68913583  0.12025602  1
  Hf  Hf2  1  0.29352138  0.69326397  0.36498354  1
  Hf  Hf3  1  0.29959857  0.89779966  0.63249588  1
  Hf  Hf4  1  0.29679743  0.89521258  0.36415470  1
  Hf  Hf5  1  0.40236554  0.00155650  0.76105894  1
  Hf  Hf6  1  0.90785358  0.70846658  0.61735680  1
  Hf  Hf7  1  0.29416788  0.09723505  0.36458475  1
  Hf  Hf8  1  0.39257434  0.00504928  0.00192972  1
  Hf  Hf9  1  0.30762173  0.10753421  0.14093499  1
  Hf  Hf10  1  0.80189215  0.60112157  0.50777135  1
  Hf  Hf11  1  0.68554625  0.90548370  0.36123559  1
  Hf  Hf12  1  -0.00442833  0.01188803  0.48137353  1
  Hf  Hf13  1  0.80252741  0.19953267  0.49366302  1
  Hf  Hf14  1  0.29468077  0.10440999  0.62797585  1
  Hf  Hf15  1  0.39774029  -0.00550507  0.49518097  1
  Hf  Hf16  1  0.49667128  0.88928867  0.63030072  1
  Hf  Hf17  1  0.58895677  0.81115439  0.23700968  1
  Hf  Hf18  1  0.01173154  0.20078204  0.74621376  1
  Hf  Hf19  1  0.60031919  0.39757163  -0.00317858  1
  Hf  Hf20  1  0.01462993  0.61235604  0.75093542  1
  Hf  Hf21  1  0.29789774  0.29542025  0.62655957  1
  Hf  Hf22  1  0.08997125  0.69665985  0.37473641  1
  Hf  Hf23  1  0.61118621  0.19580307  0.26903592  1
  Hf  Hf24  1  0.61274645  0.62010261  0.50828354  1
  Hf  Hf25  1  0.09490638  0.89564462  0.37095228  1
  Hf  Hf26  1  -0.00733592  -0.00065608  0.74861042  1
  Hf  Hf27  1  0.51237722  0.10540198  0.12711848  1
  Hf  Hf28  1  0.80795813  0.40905966  0.25747707  1
  Hf  Hf29  1  0.60862824  0.00442616  0.75540100  1
  Hf  Hf30  1  0.90088947  0.90719506  0.12240301  1
  Hf  Hf31  1  0.90782729  0.49776265  0.11345612  1
  Hf  Hf32  1  0.20292684  0.59846037  -0.00516436  1
  Hf  Hf33  1  0.50017823  0.30026383  0.13315429  1
  Hf  Hf34  1  0.20616851  0.40452569  0.01231766  1
  Hf  Hf35  1  0.60563393  0.79915140  0.75628743  1
  Hf  Hf36  1  0.90517140  0.50022746  0.63379521  1
  Hf  Hf37  1  0.18102811  0.78600937  0.74692134  1
  Hf  Hf38  1  0.41231823  -0.01603209  0.24314697  1
  Hf  Hf39  1  0.19290086  0.79814862  0.02095063  1
  Zr  Zr40  1  0.90679411  0.89741217  0.89520372  1
  Zr  Zr41  1  0.60882120  0.78694140  -0.00039186  1
  Zr  Zr42  1  0.70678259  0.91202520  0.11640042  1
  Zr  Zr43  1  0.30748396  0.68334960  0.13315432  1
  Zr  Zr44  1  0.17935042  -0.00405852  0.74223467  1
  Zr  Zr45  1  0.79629655  0.39700620  -0.00178484  1
  Zr  Zr46  1  0.60517137  0.20122111  0.50006097  1
  Zr  Zr47  1  0.28771515  0.10530246  0.86776843  1
  Zr  Zr48  1  0.38582090  0.40477889  0.27636392  1
  Zr  Zr49  1  0.09205799  0.29896526  0.12245496  1
  Zr  Zr50  1  0.80456889  0.19651493  0.75134790  1
  Zr  Zr51  1  0.89135317  0.69778547  0.36733368  1
  Zr  Zr52  1  0.49697529  0.69697773  0.62919552  1
  Zr  Zr53  1  0.89593029  0.28193363  0.13894138  1
  Zr  Zr54  1  0.49688904  0.10123319  0.62257939  1
  Zr  Zr55  1  0.60132841  0.59951681  0.25388017  1
  Zr  Zr56  1  0.49131359  0.49838179  0.12426935  1
  Zr  Zr57  1  0.39207174  0.78703518  -0.00806573  1
  Zr  Zr58  1  0.70902144  0.50566556  0.37792216  1
  Zr  Zr59  1  0.30467517  0.49861369  0.63584440  1
  Zr  Zr60  1  0.91456837  0.31939421  0.86464317  1
  Zr  Zr61  1  0.01324350  0.40815018  0.25458866  1
  Zr  Zr62  1  0.08569625  0.48704145  0.87665082  1
  Zr  Zr63  1  0.89003773  0.90723730  0.61060442  1
  Zr  Zr64  1  0.20014829  0.79914801  0.50483955  1
  Zr  Zr65  1  0.09323657  0.09344253  0.89319116  1
  Zr  Zr66  1  0.70321860  0.49812280  0.85721665  1
  Zr  Zr67  1  0.79450194  0.20148594  -0.01800853  1
  Zr  Zr68  1  0.51524809  0.07681427  0.37324230  1
  Zr  Zr69  1  0.39665483  0.40551824  -0.02015899  1
  Zr  Zr70  1  0.28437813  0.89364868  0.87252559  1
  Zr  Zr71  1  0.19538153  0.56617285  0.23991825  1
  Zr  Zr72  1  0.50865458  0.49965836  0.39723961  1
  Zr  Zr73  1  0.40580499  0.21187906  -0.01319420  1
  Zr  Zr74  1  0.20907148  0.20005376  0.01244578  1
  Zr  Zr75  1  0.50397322  0.89833915  0.88393633  1
  Zr  Zr76  1  0.71572286  0.69413722  0.86614075  1
  Zr  Zr77  1  0.30775564  0.69931089  0.64329007  1
  Zr  Zr78  1  0.88770657  0.89053271  0.36782902  1
  Zr  Zr79  1  0.20067500  0.60027279  0.51334672  1
  Ta  Ta80  1  0.89768371  0.69792889  0.13662173  1
  Ta  Ta81  1  0.28803057  0.30483845  0.85180204  1
  Ta  Ta82  1  0.08466853  0.10501911  0.13209346  1
  Ta  Ta83  1  0.60896907  0.20782231  -0.00965441  1
  Ta  Ta84  1  0.49784285  0.30541017  0.62222238  1
  Ta  Ta85  1  -0.00032606  0.40128514  0.50342779  1
  Ta  Ta86  1  0.61116061  -0.01736662  0.51597322  1
  Ta  Ta87  1  0.08508654  0.89416009  0.60472610  1
  Ta  Ta88  1  0.70939609  0.09376444  0.62350476  1
  Ta  Ta89  1  0.69988056  0.50021444  0.13083039  1
  Ta  Ta90  1  0.19309069  0.00359529  0.49610341  1
  Ta  Ta91  1  0.50115336  0.49876121  0.62529614  1
  Ta  Ta92  1  0.00089524  0.80763417  0.74767093  1
  Ta  Ta93  1  0.61531384  0.01947728  -0.00649599  1
  Ta  Ta94  1  0.70002126  0.50105717  0.63367077  1
  Ta  Ta95  1  0.80051795  0.00081679  0.76108348  1
  Ta  Ta96  1  -0.00506606  0.00883458  0.25191873  1
  Ta  Ta97  1  0.60458560  0.20564820  0.73899352  1
  Ta  Ta98  1  0.89382345  0.51174596  0.86464642  1
  Ta  Ta99  1  0.79775298  0.60156652  0.00845173  1
  Ta  Ta100  1  0.40090749  0.20463340  0.48323906  1
  Ta  Ta101  1  0.50380001  0.70813149  0.37650266  1
  Ta  Ta102  1  0.40180838  0.79628389  0.48833612  1
  Ta  Ta103  1  0.10399023  0.29575427  0.88160847  1
  Ta  Ta104  1  0.40473862  0.20540673  0.75563657  1
  Ta  Ta105  1  0.10556997  0.49709225  0.39518617  1
  Ta  Ta106  1  0.69733943  0.30114101  0.14072575  1
  Ta  Ta107  1  0.79562951  0.01937770  0.25650991  1
  Ta  Ta108  1  0.71258440  0.90353246  0.88789653  1
  Ta  Ta109  1  0.39972861  0.59173489  0.26986800  1
  Ta  Ta110  1  0.17915862  0.39436383  0.73745535  1
  Ta  Ta111  1  0.39504750  0.39522978  0.49617380  1
  Ta  Ta112  1  0.77027051  0.80032700  0.50938055  1
  Ta  Ta113  1  0.19090100  -0.00404368  0.23743215  1
  Ta  Ta114  1  0.90575820  0.30275312  0.37878059  1
  Ta  Ta115  1  0.19510471  -0.00640496  0.02912869  1
  Ta  Ta116  1  -0.00698965  0.60579681  -0.00664967  1
  Ta  Ta117  1  0.19490897  0.79865031  0.23244992  1
  Ta  Ta118  1  0.90609429  0.29819509  0.61729644  1
  Ta  Ta119  1  0.40916540  0.20937909  0.27534152  1
  Ti  Ti120  1  0.51089211  0.49935022  0.85875114  1
  Ti  Ti121  1  0.70520762  0.30702759  0.37429712  1
  Ti  Ti122  1  0.81364151  0.02519418  -0.00929008  1
  Ti  Ti123  1  0.28514258  0.50012486  0.85090958  1
  Ti  Ti124  1  0.80800059  0.78779501  0.00804660  1
  Ti  Ti125  1  0.40391560  0.60575982  0.77013395  1
  Ti  Ti126  1  0.30601636  0.30769179  0.14240414  1
  Ti  Ti127  1  0.40090485  0.79661713  0.24683221  1
  Ti  Ti128  1  0.71399059  0.11568916  0.12838859  1
  Ti  Ti129  1  0.59589391  0.39796012  0.26019255  1
  Ti  Ti130  1  0.79795708  0.39458176  0.73525667  1
  Ti  Ti131  1  0.80347639  0.80704455  0.74502010  1
  Ti  Ti132  1  0.00189101  0.80172166  0.23622705  1
  Ti  Ti133  1  0.50388659  0.90418472  0.10192219  1
  Ti  Ti134  1  0.39750221  0.59961999  0.49232987  1
  Ti  Ti135  1  0.60287511  0.60211960  0.74401494  1
  Ti  Ti136  1  0.90244619  0.10213531  0.62021269  1
  Ti  Ti137  1  0.80150380  0.39912611  0.50537391  1
  Ti  Ti138  1  0.70503133  0.71103830  0.35630056  1
  Ti  Ti139  1  0.50940284  0.11095962  0.87548608  1
  Ti  Ti140  1  0.79490534  0.00515653  0.48717106  1
  Ti  Ti141  1  0.10030192  0.29558466  0.61019305  1
  Ti  Ti142  1  0.09945304  0.10312227  0.61351187  1
  Ti  Ti143  1  0.69245758  0.30539629  0.85353682  1
  Ti  Ti144  1  0.70899527  0.69632706  0.13785439  1
  Ti  Ti145  1  0.08659080  0.68566472  0.12843562  1
  Ti  Ti146  1  -0.01651259  0.19092806  -0.00539884  1
  Ti  Ti147  1  0.50802129  0.30463506  0.85647354  1
  Ti  Ti148  1  -0.00706347  0.58793117  0.25669174  1
  Ti  Ti149  1  0.60984012  0.39559874  0.51371554  1
  Ti  Ti150  1  0.60494976  0.59429494  -0.00509263  1
  Ti  Ti151  1  0.39765541  0.59273375  -0.02484764  1
  Ti  Ti152  1  0.09722636  0.50320430  0.62177331  1
  Ti  Ti153  1  0.19877013  0.20648820  0.25206155  1
  Ti  Ti154  1  0.20212988  0.19481520  0.49074536  1
  Ti  Ti155  1  0.90270487  0.70370226  0.87190972  1
  Ti  Ti156  1  0.08842047  0.89713324  0.90050627  1
  Ti  Ti157  1  0.09377111  0.70955205  0.88930749  1
  Ti  Ti158  1  0.00292057  0.19682125  0.48689689  1
  Ti  Ti159  1  0.40389566  0.40069063  0.75177326  1
  Mo  Mo160  1  0.30745192  0.49556237  0.11845491  1
  Mo  Mo161  1  0.20313197  0.39582373  0.23878263  1
  Mo  Mo162  1  0.80323466  0.59857894  0.23859330  1
  Mo  Mo163  1  0.00223219  0.39657392  0.72747880  1
  Mo  Mo164  1  0.30068613  0.89827570  0.13400342  1
  Mo  Mo165  1  0.50344025  0.68475977  0.87553365  1
  Mo  Mo166  1  0.70454134  0.30223411  0.62652434  1
  Mo  Mo167  1  0.10385112  0.10212521  0.36239052  1
  Mo  Mo168  1  -0.00056236  0.59541934  0.49578894  1
  Mo  Mo169  1  0.80684004  0.60578351  0.73773278  1
  Mo  Mo170  1  0.90335514  0.10056971  0.86668717  1
  Mo  Mo171  1  0.19296431  0.20358372  0.74332925  1
  Mo  Mo172  1  0.09186515  0.89996869  0.13327164  1
  Mo  Mo173  1  0.89637204  0.10441091  0.13982364  1
  Mo  Mo174  1  -0.00218741  0.78906277  0.01432137  1
  Mo  Mo175  1  0.50071314  0.88942200  0.38191616  1
  Mo  Mo176  1  0.39818863  0.79144758  0.77435110  1
  Mo  Mo177  1  0.50720611  0.30406931  0.39172557  1
  Mo  Mo178  1  -0.00175565  0.00608690  0.01911046  1
  Mo  Mo179  1  0.90815452  0.49884216  0.39158477  1
  Mo  Mo180  1  0.09062292  0.70207793  0.61072411  1
  Mo  Mo181  1  0.79846149  0.20574649  0.27194039  1
  Mo  Mo182  1  0.89964346  0.10657081  0.36696948  1
  Mo  Mo183  1  -0.00705418  0.79990560  0.49586743  1
  Mo  Mo184  1  0.29328428  0.69179429  0.86389870  1
  Mo  Mo185  1  0.59892821  0.80163219  0.50120970  1
  Mo  Mo186  1  0.60598305  0.00332930  0.22298888  1
  Mo  Mo187  1  0.59599121  0.40038934  0.73242790  1
  Mo  Mo188  1  0.70298887  0.90308527  0.63441948  1
  Mo  Mo189  1  0.00050392  0.39872843  0.00351001  1
  Mo  Mo190  1  0.29599431  0.29652434  0.38234515  1
  Mo  Mo191  1  0.29068414  0.49344174  0.39858619  1
  Mo  Mo192  1  0.70640848  0.70232358  0.64331879  1
  Mo  Mo193  1  0.00240377  0.19734832  0.27111639  1
  Mo  Mo194  1  0.70177259  0.09351864  0.38713828  1
  Mo  Mo195  1  0.69749255  0.10305901  0.86502661  1
  Mo  Mo196  1  0.19382559  0.59666068  0.75411727  1
  Mo  Mo197  1  0.09289667  0.50377392  0.10482438  1
  Mo  Mo198  1  0.19749752  0.39682274  0.52016081  1
  Mo  Mo199  1  0.79626963  0.80324253  0.23676655  1
