# generated using pymatgen
data_HfZrTaTiMo
_symmetry_space_group_name_H-M   'P 1'
_cell_length_a   15.93179363
_cell_length_b   15.92393991
_cell_length_c   15.20357279
_cell_angle_alpha   89.96017389
_cell_angle_beta   90.04924409
_cell_angle_gamma   89.87432417
_symmetry_Int_Tables_number   1
_chemical_formula_structural   HfZrTaTiMo
_chemical_formula_sum   'Hf40 Zr40 Ta40 Ti40 Mo40'
_cell_volume   3857.08801798
_cell_formula_units_Z   40
loop_
 _symmetry_equiv_pos_site_id
 _symmetry_equiv_pos_as_xyz
  1  'x, y, z'
loop_
 _atom_site_type_symbol
 _atom_site_label
 _atom_site_symmetry_multiplicity
 _atom_site_fract_x
 _atom_site_fract_y
 _atom_site_fract_z
 _atom_site_occupancy
  Hf  Hf0  1  0.49594929  0.30276406  0.13931152  1
  Hf  Hf1  1  0.89770600  0.29804583  0.37271144  1
  Hf  Hf2  1  0.20512870  -0.00263894  0.74864132  1
  Hf  Hf3  1  0.09679417  0.88929559  0.63236468  1
  Hf  Hf4  1  -0.01140496  -0.01032855  0.76026768  1
  Hf  Hf5  1  0.49705557  0.30485071  0.86404528  1
  Hf  Hf6  1  0.50104529  0.49615901  0.14285976  1
  Hf  Hf7  1  -0.00265869  -0.00659310  0.26020544  1
  Hf  Hf8  1  0.69662013  0.70365492  0.63110086  1
  Hf  Hf9  1  0.89054391  0.10273206  0.38540923  1
  Hf  Hf10  1  0.68879360  0.09809170  0.11388776  1
  Hf  Hf11  1  0.20158347  0.20286607  0.75250004  1
  Hf  Hf12  1  0.19581333  -0.00788250  0.50169909  1
  Hf  Hf13  1  0.11423859  0.69405147  0.64458194  1
  Hf  Hf14  1  0.39627342  0.60980896  0.74743394  1
  Hf  Hf15  1  0.19695553  0.61176302  0.00107272  1
  Hf  Hf16  1  0.69472501  0.49044935  0.63397373  1
  Hf  Hf17  1  0.00643836  0.19538946  0.24593255  1
  Hf  Hf18  1  0.50910766  0.08818053  0.87373250  1
  Hf  Hf19  1  0.49397234  0.89717817  0.37550423  1
  Hf  Hf20  1  0.40148374  0.80091003  0.00837799  1
  Hf  Hf21  1  0.60018282  0.40172295  0.00895107  1
  Hf  Hf22  1  0.08330505  0.30432239  0.62099587  1
  Hf  Hf23  1  0.49764906  0.69120981  0.13938924  1
  Hf  Hf24  1  0.69651587  0.30519211  0.86906621  1
  Hf  Hf25  1  0.09817452  0.89650500  0.13127038  1
  Hf  Hf26  1  0.81060233  0.81588116  0.75525819  1
  Hf  Hf27  1  0.68845811  0.90199153  0.12368757  1
  Hf  Hf28  1  0.69294277  0.70279321  0.86400976  1
  Hf  Hf29  1  0.00716021  0.58903799  0.50720108  1
  Hf  Hf30  1  0.18824253  0.20549679  -0.00308917  1
  Hf  Hf31  1  0.70224148  0.89619670  0.37547654  1
  Hf  Hf32  1  0.48799069  0.89672791  0.60663903  1
  Hf  Hf33  1  0.00216278  0.19330255  0.00228390  1
  Hf  Hf34  1  0.61418972  0.60408751  0.00471600  1
  Hf  Hf35  1  0.89570690  0.09040667  0.12144446  1
  Hf  Hf36  1  0.90751435  0.70307141  0.63006865  1
  Hf  Hf37  1  0.90727942  0.10321362  0.60921056  1
  Hf  Hf38  1  0.30429177  0.30755584  0.11833945  1
  Hf  Hf39  1  0.30318937  0.10331090  0.12516058  1
  Zr  Zr40  1  0.10909065  0.48712433  0.89388017  1
  Zr  Zr41  1  0.01575687  0.58898927  0.76621743  1
  Zr  Zr42  1  0.20703558  0.61685553  0.24245200  1
  Zr  Zr43  1  0.80349878  0.59551982  0.50092001  1
  Zr  Zr44  1  0.80059455  0.79012360  0.23716645  1
  Zr  Zr45  1  0.88498482  0.30036442  0.13885784  1
  Zr  Zr46  1  0.79302618  0.78894621  0.00528291  1
  Zr  Zr47  1  0.38346653  0.41779008  0.74411351  1
  Zr  Zr48  1  0.01146014  0.78931711  0.49408012  1
  Zr  Zr49  1  0.79627009  -0.00227195  0.25182936  1
  Zr  Zr50  1  0.29925214  0.91115007  0.13512298  1
  Zr  Zr51  1  0.50969430  0.50143563  0.86665055  1
  Zr  Zr52  1  0.31359306  0.50063707  0.11787268  1
  Zr  Zr53  1  0.09680241  0.10176243  0.62195161  1
  Zr  Zr54  1  0.88754740  0.10747604  0.87614356  1
  Zr  Zr55  1  0.00064274  -0.01008252  -0.01594874  1
  Zr  Zr56  1  0.59813717  0.00566138  0.49802189  1
  Zr  Zr57  1  0.11086664  0.87411255  0.87285506  1
  Zr  Zr58  1  0.40547586  0.20460262  -0.00620613  1
  Zr  Zr59  1  0.79359436  0.00525355  0.74609625  1
  Zr  Zr60  1  0.09145342  0.51181601  0.35670306  1
  Zr  Zr61  1  0.30713723  0.10192271  0.87477154  1
  Zr  Zr62  1  0.20876363  0.39774887  0.25586554  1
  Zr  Zr63  1  0.80894963  0.60373594  0.75767495  1
  Zr  Zr64  1  0.30053521  0.89740638  0.38177951  1
  Zr  Zr65  1  0.29411415  0.30953681  0.61710459  1
  Zr  Zr66  1  0.20499723  0.19639917  0.26273584  1
  Zr  Zr67  1  0.00800331  0.38547710  0.01929412  1
  Zr  Zr68  1  0.40225003  0.60857239  -0.01884587  1
  Zr  Zr69  1  0.40815509  0.20475972  0.49730545  1
  Zr  Zr70  1  0.50881099  0.31417173  0.62769543  1
  Zr  Zr71  1  0.31263709  0.90084452  0.87609817  1
  Zr  Zr72  1  0.89094002  0.50552368  0.12962234  1
  Zr  Zr73  1  0.80212528  0.21414040  0.72685227  1
  Zr  Zr74  1  0.68031339  0.90352089  0.87704492  1
  Zr  Zr75  1  0.89638749  0.31280478  0.87306685  1
  Zr  Zr76  1  0.91008813  0.47809486  0.64582596  1
  Zr  Zr77  1  0.60443977  0.19389475  0.73610408  1
  Zr  Zr78  1  0.59854121  0.19494280  0.26609211  1
  Zr  Zr79  1  0.91249778  0.68984318  0.35922549  1
  Ta  Ta80  1  0.59743947  -0.00118235  0.72595319  1
  Ta  Ta81  1  -0.00391441  0.40156015  0.49039096  1
  Ta  Ta82  1  0.89950255  0.49884397  0.89081073  1
  Ta  Ta83  1  0.49939520  0.69995143  0.37696153  1
  Ta  Ta84  1  0.10074065  0.50304471  0.12595745  1
  Ta  Ta85  1  0.20240185  0.79377541  0.01833922  1
  Ta  Ta86  1  0.49905473  0.70204931  0.61588976  1
  Ta  Ta87  1  0.80520816  0.80043846  0.50226679  1
  Ta  Ta88  1  0.70492895  0.29660367  0.38204389  1
  Ta  Ta89  1  0.09668288  0.30060926  0.37881860  1
  Ta  Ta90  1  0.78915472  0.20671599  0.00770136  1
  Ta  Ta91  1  0.18998399  0.41091308  0.49431456  1
  Ta  Ta92  1  0.39837757  0.19826986  0.74214943  1
  Ta  Ta93  1  0.58847391  0.79763586  0.01418893  1
  Ta  Ta94  1  0.60144154  0.59953368  0.49325875  1
  Ta  Ta95  1  0.79595257  -0.00573371  -0.00667177  1
  Ta  Ta96  1  0.49698610  0.50766954  0.61000375  1
  Ta  Ta97  1  0.89484816  0.49466529  0.35530617  1
  Ta  Ta98  1  0.39692373  0.21087138  0.27158245  1
  Ta  Ta99  1  0.10607927  0.09088726  0.12772052  1
  Ta  Ta100  1  0.70706436  0.49483795  0.86236731  1
  Ta  Ta101  1  0.70289222  0.10344279  0.60269564  1
  Ta  Ta102  1  0.49993458  0.50340297  0.37457101  1
  Ta  Ta103  1  0.91345485  0.69638265  0.89658413  1
  Ta  Ta104  1  0.59803801  0.79483573  0.25071307  1
  Ta  Ta105  1  0.80167275  0.39654437  0.50166153  1
  Ta  Ta106  1  0.10638662  0.88023507  0.36260031  1
  Ta  Ta107  1  0.20031847  0.20428156  0.49274763  1
  Ta  Ta108  1  0.21603359  0.59086744  0.76044794  1
  Ta  Ta109  1  0.49744933  0.09631506  0.13149357  1
  Ta  Ta110  1  0.60180003  0.40344916  0.48773659  1
  Ta  Ta111  1  0.39250418  0.79142170  0.25062014  1
  Ta  Ta112  1  0.19520417  0.00457202  -0.00962197  1
  Ta  Ta113  1  0.60383547  0.79287042  0.49528570  1
  Ta  Ta114  1  0.50604113  0.72042193  0.85638789  1
  Ta  Ta115  1  0.30618383  0.09650733  0.61499985  1
  Ta  Ta116  1  0.29165113  0.32262879  0.88115646  1
  Ta  Ta117  1  0.30368205  0.70769266  0.61136808  1
  Ta  Ta118  1  -0.00181210  -0.01329514  0.48981321  1
  Ta  Ta119  1  0.30156777  0.50553277  0.38422410  1
  Ti  Ti120  1  0.90207790  0.88784086  0.37538039  1
  Ti  Ti121  1  0.19739831  0.00369253  0.26327461  1
  Ti  Ti122  1  0.18859310  0.41171615  0.73868978  1
  Ti  Ti123  1  0.40985033  -0.00246361  0.00571129  1
  Ti  Ti124  1  0.69306398  0.10006606  0.88553900  1
  Ti  Ti125  1  0.90593562  0.68976306  0.11765138  1
  Ti  Ti126  1  0.49904317  0.90660149  0.14007930  1
  Ti  Ti127  1  0.80323117  -0.00886151  0.50234851  1
  Ti  Ti128  1  0.70428287  0.50617581  0.14446092  1
  Ti  Ti129  1  0.40487975  0.00458485  0.73248216  1
  Ti  Ti130  1  0.19121908  0.61106226  0.49007849  1
  Ti  Ti131  1  0.90538174  0.88876319  0.11365900  1
  Ti  Ti132  1  0.29147866  0.71065225  0.38589725  1
  Ti  Ti133  1  0.60163724  0.39775025  0.26843916  1
  Ti  Ti134  1  0.39964349  0.01043807  0.25790318  1
  Ti  Ti135  1  0.09534570  0.09765570  0.38536902  1
  Ti  Ti136  1  0.39984929  0.40339690  0.48792082  1
  Ti  Ti137  1  0.70475413  0.69858582  0.37549461  1
  Ti  Ti138  1  0.59314408  0.60143082  0.74187409  1
  Ti  Ti139  1  0.00389610  0.39592743  0.24359895  1
  Ti  Ti140  1  0.50281872  0.89949485  0.86297273  1
  Ti  Ti141  1  0.70638233  0.49924698  0.37085041  1
  Ti  Ti142  1  0.60217185  0.20521091  0.49565207  1
  Ti  Ti143  1  0.28903536  0.71549850  0.86467213  1
  Ti  Ti144  1  0.60867974  0.60379314  0.26159419  1
  Ti  Ti145  1  0.78744409  0.19203048  0.25063073  1
  Ti  Ti146  1  0.49537049  0.09849406  0.37917500  1
  Ti  Ti147  1  0.69563155  0.30470511  0.13849015  1
  Ti  Ti148  1  0.78759506  0.40583461  0.00825591  1
  Ti  Ti149  1  0.40081498  0.60600491  0.49255706  1
  Ti  Ti150  1  0.29230638  0.51316737  0.60326598  1
  Ti  Ti151  1  0.70104846  0.89709134  0.61875748  1
  Ti  Ti152  1  0.59970122  0.00454563  0.26234002  1
  Ti  Ti153  1  0.59753009  0.20366895  0.00311044  1
  Ti  Ti154  1  0.09930639  0.30299286  0.86585607  1
  Ti  Ti155  1  -0.00446092  0.79498060  0.76482073  1
  Ti  Ti156  1  0.39528124  0.60116019  0.26610486  1
  Ti  Ti157  1  0.39542896  0.80725232  0.73831526  1
  Ti  Ti158  1  0.30315084  0.09754813  0.38875583  1
  Ti  Ti159  1  0.00100133  0.19951057  0.75863555  1
  Mo  Mo160  1  0.20011869  0.79479140  0.50907958  1
  Mo  Mo161  1  0.10226389  0.29533693  0.14481619  1
  Mo  Mo162  1  0.59460208  0.80624748  0.72837841  1
  Mo  Mo163  1  0.09068270  0.70314896  0.13550341  1
  Mo  Mo164  1  0.79229769  0.59852323  0.25786106  1
  Mo  Mo165  1  0.09952552  0.10181071  0.86591249  1
  Mo  Mo166  1  0.90078659  0.89959261  0.60941547  1
  Mo  Mo167  1  0.40029215  0.79226365  0.48992165  1
  Mo  Mo168  1  0.40222640  0.40083105  0.27569562  1
  Mo  Mo169  1  0.10567702  0.70420226  0.35807056  1
  Mo  Mo170  1  0.79916020  0.39890898  0.74580208  1
  Mo  Mo171  1  0.79825136  0.59328111  -0.01087396  1
  Mo  Mo172  1  0.00438345  0.39108078  0.76092536  1
  Mo  Mo173  1  0.10742806  0.69652309  0.86597956  1
  Mo  Mo174  1  0.40289151  0.40531234  -0.01217047  1
  Mo  Mo175  1  0.00200997  0.59876569  0.00740541  1
  Mo  Mo176  1  -0.00071942  0.79605656  0.24147923  1
  Mo  Mo177  1  0.70178645  0.30342523  0.60384206  1
  Mo  Mo178  1  0.79845485  0.20441194  0.50406783  1
  Mo  Mo179  1  0.89762593  0.88931458  0.89287133  1
  Mo  Mo180  1  0.78706181  0.39745966  0.26235264  1
  Mo  Mo181  1  0.21444497  0.79506692  0.73642115  1
  Mo  Mo182  1  0.50310412  0.30678286  0.37518223  1
  Mo  Mo183  1  0.20137951  0.39776930  0.01608657  1
  Mo  Mo184  1  0.69602864  0.69179387  0.13362747  1
  Mo  Mo185  1  0.59912900  0.40374500  0.74147772  1
  Mo  Mo186  1  0.58842983  -0.00415521  0.00479216  1
  Mo  Mo187  1  0.30133391  0.50091282  0.88818267  1
  Mo  Mo188  1  0.30397100  0.70423720  0.12739128  1
  Mo  Mo189  1  0.70084919  0.10069387  0.39119632  1
  Mo  Mo190  1  -0.00164443  0.59885235  0.23059893  1
  Mo  Mo191  1  0.20441821  0.80076161  0.23925193  1
  Mo  Mo192  1  0.90406098  0.29711913  0.61159978  1
  Mo  Mo193  1  0.00831385  0.78683794  0.00712037  1
  Mo  Mo194  1  0.11137986  0.49807615  0.62166340  1
  Mo  Mo195  1  0.39581885  0.00567395  0.49887146  1
  Mo  Mo196  1  0.00446600  0.19942632  0.48432810  1
  Mo  Mo197  1  0.49865938  0.10233647  0.62510902  1
  Mo  Mo198  1  0.30011810  0.89872859  0.61744154  1
  Mo  Mo199  1  0.29852970  0.30627543  0.39275047  1
