# generated using pymatgen
data_HfZrTaTiMo
_symmetry_space_group_name_H-M   'P 1'
_cell_length_a   15.92288438
_cell_length_b   15.92776123
_cell_length_c   15.19545106
_cell_angle_alpha   89.94695363
_cell_angle_beta   90.07771160
_cell_angle_gamma   89.98629371
_symmetry_Int_Tables_number   1
_chemical_formula_structural   HfZrTaTiMo
_chemical_formula_sum   'Hf40 Zr40 Ta40 Ti40 Mo40'
_cell_volume   3853.80269433
_cell_formula_units_Z   40
loop_
 _symmetry_equiv_pos_site_id
 _symmetry_equiv_pos_as_xyz
  1  'x, y, z'
loop_
 _atom_site_type_symbol
 _atom_site_label
 _atom_site_symmetry_multiplicity
 _atom_site_fract_x
 _atom_site_fract_y
 _atom_site_fract_z
 _atom_site_occupancy
  Hf  Hf0  1  0.20457251  0.01479827  0.26909855  1
  Hf  Hf1  1  0.70669816  0.69064708  0.89674621  1
  Hf  Hf2  1  0.40228586  0.80934785  0.00947217  1
  Hf  Hf3  1  0.20212953  0.01263578  -0.00446662  1
  Hf  Hf4  1  0.30285387  0.90772500  0.86675452  1
  Hf  Hf5  1  0.19685185  0.60129714  0.49221457  1
  Hf  Hf6  1  0.19737160  0.20308609  0.00689377  1
  Hf  Hf7  1  0.38232438  0.39710611  0.00503636  1
  Hf  Hf8  1  0.70286940  0.48989733  0.90100286  1
  Hf  Hf9  1  0.10068735  0.90723050  0.13485067  1
  Hf  Hf10  1  0.68879648  0.08298634  0.11135241  1
  Hf  Hf11  1  0.69827399  0.69537757  0.34464003  1
  Hf  Hf12  1  0.60211602  0.78922638  0.49575429  1
  Hf  Hf13  1  0.80422978  0.79898697  0.48939227  1
  Hf  Hf14  1  0.60838585  -0.00248022  0.49919946  1
  Hf  Hf15  1  0.60964126  -0.00126245  0.74972649  1
  Hf  Hf16  1  0.48548565  0.52560199  0.61731042  1
  Hf  Hf17  1  0.29120548  0.29690140  0.86013137  1
  Hf  Hf18  1  0.70248483  0.50250803  0.62679247  1
  Hf  Hf19  1  0.49705707  0.88440420  0.62554473  1
  Hf  Hf20  1  0.79281724  0.20290856  0.74300987  1
  Hf  Hf21  1  0.01156530  0.78859257  0.75247480  1
  Hf  Hf22  1  0.49849433  0.10183391  0.87925808  1
  Hf  Hf23  1  0.59393305  0.18218980  0.24586675  1
  Hf  Hf24  1  0.50394488  0.29772460  0.88330463  1
  Hf  Hf25  1  0.49956628  0.90628201  0.87969806  1
  Hf  Hf26  1  0.90117340  0.90598550  0.12047215  1
  Hf  Hf27  1  0.19543490  0.80926934  -0.00806207  1
  Hf  Hf28  1  0.90470297  0.31381536  0.13227275  1
  Hf  Hf29  1  0.00588781  0.00869254  -0.00347441  1
  Hf  Hf30  1  0.28349363  0.50796054  0.87864213  1
  Hf  Hf31  1  -0.00254779  0.59685153  0.48584737  1
  Hf  Hf32  1  0.70725513  0.89125409  0.62490070  1
  Hf  Hf33  1  0.60425586  0.79465536  0.76696841  1
  Hf  Hf34  1  0.39158516  0.19905672  0.25977631  1
  Hf  Hf35  1  0.09380955  0.69735772  0.11532762  1
  Hf  Hf36  1  0.59664578  0.58926962  0.01845126  1
  Hf  Hf37  1  0.70117089  0.09363303  0.88647245  1
  Hf  Hf38  1  0.19095729  0.60250461  0.73803149  1
  Hf  Hf39  1  0.29136429  0.69217882  0.11995604  1
  Zr  Zr40  1  0.70930657  0.69577836  0.13082628  1
  Zr  Zr41  1  0.59065220  0.59979534  0.76421731  1
  Zr  Zr42  1  0.19785012  0.20198390  0.72520279  1
  Zr  Zr43  1  0.30485395  0.91417499  0.13041323  1
  Zr  Zr44  1  0.01119813  0.20859151  0.00116865  1
  Zr  Zr45  1  0.89026954  0.11767274  0.37967837  1
  Zr  Zr46  1  0.79305377  -0.00426723  0.26130097  1
  Zr  Zr47  1  0.19936768  0.78919394  0.26748669  1
  Zr  Zr48  1  -0.00537494  0.80271042  0.26318788  1
  Zr  Zr49  1  0.89897632  0.10349397  0.13983218  1
  Zr  Zr50  1  0.39538716  0.40953446  0.75248458  1
  Zr  Zr51  1  0.80387881  0.40007139  0.49207050  1
  Zr  Zr52  1  0.50371383  0.09736235  0.62081317  1
  Zr  Zr53  1  0.32793019  0.68678747  0.62328719  1
  Zr  Zr54  1  0.79579519  0.59745082  0.49299684  1
  Zr  Zr55  1  0.20271030  0.79825079  0.74296311  1
  Zr  Zr56  1  0.60174560  0.39821452  0.75131069  1
  Zr  Zr57  1  0.49854767  0.30932234  0.61930735  1
  Zr  Zr58  1  0.40390369  0.81184501  0.25023914  1
  Zr  Zr59  1  0.80287073  0.39884067  0.76358177  1
  Zr  Zr60  1  0.48502881  0.49798584  0.14319979  1
  Zr  Zr61  1  0.81724119  0.19707439  -0.00623355  1
  Zr  Zr62  1  0.60247181  0.39132186  0.25199011  1
  Zr  Zr63  1  0.38663210  0.19419634  0.00552766  1
  Zr  Zr64  1  0.60587881  0.40275743  0.48841980  1
  Zr  Zr65  1  0.50338370  0.70287415  0.13584071  1
  Zr  Zr66  1  0.39388521  0.40262710  0.48731618  1
  Zr  Zr67  1  0.70140561  0.29686008  0.11271385  1
  Zr  Zr68  1  0.00721262  0.20875157  0.26335289  1
  Zr  Zr69  1  0.00168489  0.79274388  0.49679992  1
  Zr  Zr70  1  0.91548398  0.10569740  0.84938918  1
  Zr  Zr71  1  0.80216363  0.79320735  0.76538960  1
  Zr  Zr72  1  0.51115726  0.69381383  0.34737665  1
  Zr  Zr73  1  0.19991010  0.79167831  0.50775805  1
  Zr  Zr74  1  0.49286615  0.29540194  0.12274786  1
  Zr  Zr75  1  0.30332861  0.90614349  0.38472700  1
  Zr  Zr76  1  0.90228506  0.91066069  0.86536515  1
  Zr  Zr77  1  0.90699171  0.30733776  0.62867906  1
  Zr  Zr78  1  0.89671352  0.68838584  0.63291799  1
  Zr  Zr79  1  -0.00267011  0.59874066  0.24717219  1
  Ta  Ta80  1  0.30120432  0.09791871  0.85414692  1
  Ta  Ta81  1  0.40847563  0.78618502  0.75898349  1
  Ta  Ta82  1  0.40194170  -0.00339014  0.49942032  1
  Ta  Ta83  1  0.30191854  0.69698962  0.88262243  1
  Ta  Ta84  1  0.49534913  0.50295541  0.36114905  1
  Ta  Ta85  1  0.71492331  0.28545109  0.36540037  1
  Ta  Ta86  1  0.09553697  0.30730624  0.61976222  1
  Ta  Ta87  1  0.80760548  0.80166114  0.00208774  1
  Ta  Ta88  1  -0.00351248  0.40374059  0.48334482  1
  Ta  Ta89  1  0.90890980  0.09975460  0.62445521  1
  Ta  Ta90  1  0.79456913  0.20026659  0.51547070  1
  Ta  Ta91  1  0.39607022  0.20143881  0.49740149  1
  Ta  Ta92  1  0.00011994  0.80102297  -0.01062906  1
  Ta  Ta93  1  0.19912492  0.00074527  0.72684903  1
  Ta  Ta94  1  0.49500704  0.69665807  0.89802449  1
  Ta  Ta95  1  0.40252933  0.20013457  0.73705972  1
  Ta  Ta96  1  0.10538555  0.68266211  0.89000163  1
  Ta  Ta97  1  0.40764951  0.78732841  0.48463877  1
  Ta  Ta98  1  0.80395410  0.00050268  0.50127865  1
  Ta  Ta99  1  0.18622672  0.39435094  -0.00276723  1
  Ta  Ta100  1  0.10080882  0.90518054  0.38805587  1
  Ta  Ta101  1  0.60811224  0.20375034  0.50332232  1
  Ta  Ta102  1  0.00176502  0.00124741  0.27569598  1
  Ta  Ta103  1  0.20137155  0.20608755  0.25273320  1
  Ta  Ta104  1  0.50109930  0.10124694  0.38939039  1
  Ta  Ta105  1  0.60757124  0.81034326  0.00766432  1
  Ta  Ta106  1  0.90478948  0.90346526  0.62804772  1
  Ta  Ta107  1  0.30406630  0.09838875  0.61620983  1
  Ta  Ta108  1  0.00008500  0.40891742  0.76077146  1
  Ta  Ta109  1  -0.00169770  0.00245273  0.49823055  1
  Ta  Ta110  1  0.10635309  0.10180572  0.84974476  1
  Ta  Ta111  1  0.69241211  0.69309833  0.63096753  1
  Ta  Ta112  1  0.60855459  0.20155902  0.73739603  1
  Ta  Ta113  1  0.19307219  0.40280977  0.49894100  1
  Ta  Ta114  1  0.28342664  0.49217760  0.13579897  1
  Ta  Ta115  1  0.29409766  0.49781494  0.62019055  1
  Ta  Ta116  1  0.08598282  0.49727349  0.61684189  1
  Ta  Ta117  1  0.69353670  0.29298093  0.89642259  1
  Ta  Ta118  1  0.09246699  0.29767602  0.85970040  1
  Ta  Ta119  1  0.09335481  0.49615007  0.11277995  1
  Ti  Ti120  1  0.00624061  0.40535978  0.26471037  1
  Ti  Ti121  1  0.09928804  0.10047786  0.13980607  1
  Ti  Ti122  1  0.69789236  0.50663349  0.35728536  1
  Ti  Ti123  1  0.50119585  0.29743256  0.37382009  1
  Ti  Ti124  1  0.29530436  0.49736940  0.36955738  1
  Ti  Ti125  1  0.00026309  0.59037965  0.75993413  1
  Ti  Ti126  1  0.37867759  0.60158704  0.25864439  1
  Ti  Ti127  1  0.49310960  0.49939753  0.88806061  1
  Ti  Ti128  1  0.09976632  0.91195124  0.86077684  1
  Ti  Ti129  1  0.19334006  0.40015956  0.25753222  1
  Ti  Ti130  1  -0.00140837  0.20732163  0.49943103  1
  Ti  Ti131  1  0.30351495  0.09972929  0.13177970  1
  Ti  Ti132  1  0.18816818  0.40781361  0.74439498  1
  Ti  Ti133  1  -0.01278547  0.41133411  -0.01988274  1
  Ti  Ti134  1  0.10584818  0.10711535  0.39129870  1
  Ti  Ti135  1  0.10148508  0.31062878  0.13085726  1
  Ti  Ti136  1  0.79858722  0.00298084  0.73750673  1
  Ti  Ti137  1  0.80535656  0.80446598  0.24099500  1
  Ti  Ti138  1  0.69809398  0.10165940  0.37629616  1
  Ti  Ti139  1  0.88915310  0.69430062  0.36057149  1
  Ti  Ti140  1  0.09629925  0.90287307  0.61895265  1
  Ti  Ti141  1  0.29834124  0.30825270  0.62154454  1
  Ti  Ti142  1  0.80406814  0.59324558  0.75985334  1
  Ti  Ti143  1  0.90712105  0.68688210  0.89152400  1
  Ti  Ti144  1  0.29292274  0.30098161  0.37439668  1
  Ti  Ti145  1  0.10262319  0.30292786  0.38505379  1
  Ti  Ti146  1  0.20258701  0.20370220  0.50363286  1
  Ti  Ti147  1  0.41153499  0.01401989  0.26291754  1
  Ti  Ti148  1  0.39210017  0.59499700  0.00642889  1
  Ti  Ti149  1  0.50982098  0.90258083  0.36978297  1
  Ti  Ti150  1  0.30800916  0.89461257  0.61886961  1
  Ti  Ti151  1  0.89215795  0.49924787  0.35671706  1
  Ti  Ti152  1  0.82205997  0.58254756  0.02166957  1
  Ti  Ti153  1  0.39862354  -0.00123174  0.73540228  1
  Ti  Ti154  1  0.18771549  0.59485752  0.26275125  1
  Ti  Ti155  1  0.20004150  0.00573966  0.50875625  1
  Ti  Ti156  1  0.59553127  0.60194204  0.49209003  1
  Ti  Ti157  1  0.69763433  0.89444377  0.36891965  1
  Ti  Ti158  1  0.51440287  0.92747930  0.12388677  1
  Ti  Ti159  1  0.80011071  0.40332406  0.24766554  1
  Mo  Mo160  1  0.20040596  0.59295367  0.00910270  1
  Mo  Mo161  1  0.29922267  0.10785520  0.39678841  1
  Mo  Mo162  1  0.89751452  0.90419121  0.38640680  1
  Mo  Mo163  1  0.70521389  0.90129217  0.89135508  1
  Mo  Mo164  1  0.48978880  0.09074427  0.11651331  1
  Mo  Mo165  1  0.89972302  0.50848589  0.87237272  1
  Mo  Mo166  1  0.09725214  0.49735256  0.88519275  1
  Mo  Mo167  1  0.39629875  0.00501665  0.00198371  1
  Mo  Mo168  1  0.61308560  0.82770787  0.23331278  1
  Mo  Mo169  1  0.39805321  0.60346571  0.77094847  1
  Mo  Mo170  1  0.89785439  0.30642701  0.36949383  1
  Mo  Mo171  1  0.10060782  0.49390448  0.37735213  1
  Mo  Mo172  1  0.71138291  0.48827642  0.12056591  1
  Mo  Mo173  1  0.90242779  0.30441485  0.86947967  1
  Mo  Mo174  1  0.79339600  0.20268678  0.24328775  1
  Mo  Mo175  1  0.80916002  0.39725594  -0.00533238  1
  Mo  Mo176  1  0.30335535  0.69275773  0.37606352  1
  Mo  Mo177  1  0.90253598  0.70360548  0.11386388  1
  Mo  Mo178  1  0.59321209  0.39782838  0.00361937  1
  Mo  Mo179  1  0.80551937  0.59001953  0.23510433  1
  Mo  Mo180  1  -0.00111749  0.59806171  0.00286510  1
  Mo  Mo181  1  0.09981986  0.10376374  0.60528048  1
  Mo  Mo182  1  0.50738357  0.69946535  0.62112023  1
  Mo  Mo183  1  0.80305259  -0.00850538  -0.00502663  1
  Mo  Mo184  1  0.09875306  0.69809775  0.36819823  1
  Mo  Mo185  1  0.69846679  0.30033913  0.61723856  1
  Mo  Mo186  1  0.38389139  0.39724896  0.26415544  1
  Mo  Mo187  1  0.60990976  0.57774235  0.23407196  1
  Mo  Mo188  1  0.00357425  0.20547576  0.73719689  1
  Mo  Mo189  1  0.90724423  0.49288270  0.13397208  1
  Mo  Mo190  1  0.70312169  0.90094631  0.11797727  1
  Mo  Mo191  1  0.40014296  0.60040804  0.47277810  1
  Mo  Mo192  1  0.28537292  0.30579779  0.14195071  1
  Mo  Mo193  1  0.59480647  0.00035818  0.26673374  1
  Mo  Mo194  1  0.90507885  0.50167807  0.64002591  1
  Mo  Mo195  1  0.70615997  0.09706291  0.62029378  1
  Mo  Mo196  1  0.59546761  0.19498045  0.00791887  1
  Mo  Mo197  1  0.09291463  0.69133610  0.63259520  1
  Mo  Mo198  1  0.59786616  -0.00587839  -0.01249006  1
  Mo  Mo199  1  0.01154373  -0.00024043  0.72441209  1
