# generated using pymatgen
data_HfZrTaTiMo
_symmetry_space_group_name_H-M   'P 1'
_cell_length_a   15.94054317
_cell_length_b   15.92363998
_cell_length_c   15.18403764
_cell_angle_alpha   90.02450889
_cell_angle_beta   89.93801883
_cell_angle_gamma   90.03304284
_symmetry_Int_Tables_number   1
_chemical_formula_structural   HfZrTaTiMo
_chemical_formula_sum   'Hf40 Zr40 Ta40 Ti40 Mo40'
_cell_volume   3854.18335642
_cell_formula_units_Z   40
loop_
 _symmetry_equiv_pos_site_id
 _symmetry_equiv_pos_as_xyz
  1  'x, y, z'
loop_
 _atom_site_type_symbol
 _atom_site_label
 _atom_site_symmetry_multiplicity
 _atom_site_fract_x
 _atom_site_fract_y
 _atom_site_fract_z
 _atom_site_occupancy
  Hf  Hf0  1  0.81056780  0.60404826  0.74994186  1
  Hf  Hf1  1  0.40772404  0.00348068  0.51576384  1
  Hf  Hf2  1  0.58126779  0.60807725  0.50750873  1
  Hf  Hf3  1  0.90452970  0.29562025  0.61694712  1
  Hf  Hf4  1  -0.00157621  0.19133928  -0.01248250  1
  Hf  Hf5  1  0.50171417  0.11074693  0.13512964  1
  Hf  Hf6  1  0.39889649  0.40154804  -0.00881701  1
  Hf  Hf7  1  0.29801693  0.28982768  0.11917882  1
  Hf  Hf8  1  0.18650264  0.01201802  0.74097012  1
  Hf  Hf9  1  0.69403554  0.49666224  0.37605970  1
  Hf  Hf10  1  0.70403147  0.49474036  0.87550023  1
  Hf  Hf11  1  0.19388019  0.40018843  0.24634373  1
  Hf  Hf12  1  0.59516460  0.39540401  0.50565727  1
  Hf  Hf13  1  0.10431907  0.10107045  0.38014764  1
  Hf  Hf14  1  0.31493191  0.90296587  0.37275546  1
  Hf  Hf15  1  -0.00491031  -0.02014766  0.73856696  1
  Hf  Hf16  1  0.71304470  0.91036762  0.11698196  1
  Hf  Hf17  1  0.62254575  0.80545103  0.76233968  1
  Hf  Hf18  1  0.09166821  0.29825773  0.37829040  1
  Hf  Hf19  1  0.49722790  0.09869005  0.38145119  1
  Hf  Hf20  1  0.37906046  0.40697394  0.26597695  1
  Hf  Hf21  1  0.60490803  0.60840790  0.24278398  1
  Hf  Hf22  1  -0.00734787  -0.00458941  -0.01315703  1
  Hf  Hf23  1  0.89111754  0.28069286  0.13898447  1
  Hf  Hf24  1  0.01030237  0.18633715  0.74046208  1
  Hf  Hf25  1  0.82100867  0.80461621  0.75836276  1
  Hf  Hf26  1  0.48899126  0.50386981  0.13853461  1
  Hf  Hf27  1  0.48400916  0.49894654  0.64490971  1
  Hf  Hf28  1  0.60728314  0.00929930  0.26054573  1
  Hf  Hf29  1  0.80504560  0.40215994  0.73077491  1
  Hf  Hf30  1  0.89586097  0.69954827  0.12316745  1
  Hf  Hf31  1  0.00739407  0.39975246  0.74450970  1
  Hf  Hf32  1  0.83511300  0.58929978  0.48128408  1
  Hf  Hf33  1  0.20258996  0.59174231  0.01526186  1
  Hf  Hf34  1  0.20345728  -0.00286506  0.50712745  1
  Hf  Hf35  1  0.29420406  0.90437172  0.86865220  1
  Hf  Hf36  1  0.49700776  0.90295251  0.86469115  1
  Hf  Hf37  1  0.01826408  0.77281835  0.47006615  1
  Hf  Hf38  1  0.49538651  0.70159030  0.87685338  1
  Hf  Hf39  1  0.09919122  0.91349402  0.13470846  1
  Zr  Zr40  1  0.69334274  0.47833158  0.13259756  1
  Zr  Zr41  1  0.19919289  0.42095190  0.48269626  1
  Zr  Zr42  1  0.59616039  0.39466624  -0.01568923  1
  Zr  Zr43  1  0.29668934  0.30968013  0.62991140  1
  Zr  Zr44  1  0.88586395  0.08717678  0.85340324  1
  Zr  Zr45  1  0.11174232  0.29453035  0.88301709  1
  Zr  Zr46  1  0.09042177  0.49618573  0.89518899  1
  Zr  Zr47  1  0.08840162  0.52315375  0.61616661  1
  Zr  Zr48  1  0.10566565  0.86601624  0.62350749  1
  Zr  Zr49  1  0.61036224  0.21284338  -0.01018530  1
  Zr  Zr50  1  0.40207995  0.20478606  -0.01613445  1
  Zr  Zr51  1  0.30660143  0.88977511  0.64179340  1
  Zr  Zr52  1  0.60734191  0.00821620  -0.01252333  1
  Zr  Zr53  1  0.60063585  0.59985194  0.00157801  1
  Zr  Zr54  1  0.51026721  0.10674130  0.84388988  1
  Zr  Zr55  1  0.39027878  0.19347706  0.26508386  1
  Zr  Zr56  1  0.27834246  0.70772341  0.63201649  1
  Zr  Zr57  1  0.09876675  0.10234061  0.13850695  1
  Zr  Zr58  1  0.68625763  0.08907897  0.62786026  1
  Zr  Zr59  1  0.48974055  0.71151515  0.36395843  1
  Zr  Zr60  1  0.90576331  0.09069532  0.14205095  1
  Zr  Zr61  1  0.71548414  0.11749220  0.11951785  1
  Zr  Zr62  1  0.92656992  0.69388074  0.62064518  1
  Zr  Zr63  1  0.51099233  0.30864635  0.14517489  1
  Zr  Zr64  1  0.70449431  0.50847177  0.61229049  1
  Zr  Zr65  1  0.38477151  0.60302034  0.50191953  1
  Zr  Zr66  1  0.60787753  0.80916181  0.24564171  1
  Zr  Zr67  1  0.39283274  0.01069678  -0.00828920  1
  Zr  Zr68  1  0.69822898  0.70121363  0.38636815  1
  Zr  Zr69  1  0.28275441  0.50393135  0.64455050  1
  Zr  Zr70  1  0.70950316  0.71380609  0.60928438  1
  Zr  Zr71  1  0.60780646  0.60748154  0.74883628  1
  Zr  Zr72  1  0.79750382  -0.00102226  0.27625144  1
  Zr  Zr73  1  0.89720968  0.49041968  0.89517263  1
  Zr  Zr74  1  0.09645844  0.69840408  0.12297365  1
  Zr  Zr75  1  0.29108932  0.49469348  0.86813837  1
  Zr  Zr76  1  0.51448406  0.91265421  0.64527205  1
  Zr  Zr77  1  0.50019599  0.91228775  0.12230137  1
  Zr  Zr78  1  0.21696306  0.59089583  0.23362294  1
  Zr  Zr79  1  0.39849355  0.40278383  0.49033408  1
  Ta  Ta80  1  0.49511388  0.50911788  0.36147950  1
  Ta  Ta81  1  0.49973649  0.70625428  0.11674723  1
  Ta  Ta82  1  0.78793201  0.38179461  0.26404096  1
  Ta  Ta83  1  0.80859126  0.81173016  -0.00797073  1
  Ta  Ta84  1  0.90895066  0.89859952  0.37569471  1
  Ta  Ta85  1  0.20729143  0.80480604  0.23872636  1
  Ta  Ta86  1  0.79625112  0.19803234  0.50340903  1
  Ta  Ta87  1  0.89546318  0.48650183  0.12900590  1
  Ta  Ta88  1  0.39676375  0.80483587  0.00432109  1
  Ta  Ta89  1  0.00212256  0.79961384  0.25166267  1
  Ta  Ta90  1  0.89351511  0.28914014  0.86418823  1
  Ta  Ta91  1  0.22072006  0.00785360  0.25758803  1
  Ta  Ta92  1  0.49665320  0.29423591  0.63698424  1
  Ta  Ta93  1  0.80111385  0.59507030  0.24697666  1
  Ta  Ta94  1  0.80217645  0.79695692  0.25931897  1
  Ta  Ta95  1  0.90207786  0.29395650  0.38283131  1
  Ta  Ta96  1  0.79695327  0.19430131  0.28411921  1
  Ta  Ta97  1  0.90236440  0.90075716  0.13857865  1
  Ta  Ta98  1  0.80094343  0.39512133  0.49519346  1
  Ta  Ta99  1  0.29341617  0.70644786  0.88520303  1
  Ta  Ta100  1  -0.01430039  0.41847121  0.49084219  1
  Ta  Ta101  1  0.70972882  0.28996087  0.84556126  1
  Ta  Ta102  1  0.79325401  0.36946966  0.00501323  1
  Ta  Ta103  1  0.20094480  0.20005021  0.25454969  1
  Ta  Ta104  1  0.89373028  0.08730079  0.61552195  1
  Ta  Ta105  1  0.39071692  0.80578893  0.22419301  1
  Ta  Ta106  1  0.48699274  0.71580267  0.64359438  1
  Ta  Ta107  1  0.17832716  0.61428898  0.76892980  1
  Ta  Ta108  1  0.90740718  0.69076760  0.89993219  1
  Ta  Ta109  1  0.71112495  0.10688316  0.85300152  1
  Ta  Ta110  1  0.60361695  0.39786769  0.74148974  1
  Ta  Ta111  1  0.60824741  0.80491568  -0.00880847  1
  Ta  Ta112  1  0.61739461  0.21158940  0.27200323  1
  Ta  Ta113  1  0.00534604  -0.01000727  0.50199366  1
  Ta  Ta114  1  0.29881383  0.70641124  0.36306117  1
  Ta  Ta115  1  0.10289697  0.89515002  0.87773139  1
  Ta  Ta116  1  0.09137439  0.29007355  0.13195023  1
  Ta  Ta117  1  0.49423658  0.50173983  0.85967030  1
  Ta  Ta118  1  0.00018288  0.80550262  0.00479578  1
  Ta  Ta119  1  0.11085640  0.89878583  0.36644985  1
  Ti  Ti120  1  0.29886725  0.09625432  0.12123388  1
  Ti  Ti121  1  0.18233786  0.62484129  0.47740801  1
  Ti  Ti122  1  0.09346200  0.50839446  0.36235160  1
  Ti  Ti123  1  0.50017285  0.90323021  0.36918135  1
  Ti  Ti124  1  -0.00288893  0.59940341  0.76571883  1
  Ti  Ti125  1  0.72439498  0.92127853  0.87406041  1
  Ti  Ti126  1  0.29097941  0.30319457  0.86389406  1
  Ti  Ti127  1  0.40019453  0.20156217  0.50411842  1
  Ti  Ti128  1  0.90693381  0.09542682  0.39002929  1
  Ti  Ti129  1  0.28712276  0.28496327  0.39122868  1
  Ti  Ti130  1  0.58573196  0.80857981  0.50563959  1
  Ti  Ti131  1  0.39914774  0.80013061  0.50428016  1
  Ti  Ti132  1  0.19010257  0.20359720  0.73313729  1
  Ti  Ti133  1  0.29393734  0.11389211  0.61615415  1
  Ti  Ti134  1  0.89898107  0.88941530  0.60188528  1
  Ti  Ti135  1  -0.00697153  0.38870187  0.01516829  1
  Ti  Ti136  1  0.10505789  0.30736881  0.60709547  1
  Ti  Ti137  1  0.00394651  0.19301092  0.50796222  1
  Ti  Ti138  1  0.59290357  0.20100416  0.51086734  1
  Ti  Ti139  1  0.81856447  0.79157276  0.48011695  1
  Ti  Ti140  1  0.27806416  0.11777569  0.87269092  1
  Ti  Ti141  1  0.19227623  0.01357839  -0.00579146  1
  Ti  Ti142  1  0.38991432  0.01611811  0.74328286  1
  Ti  Ti143  1  0.01312825  0.78093130  0.77079930  1
  Ti  Ti144  1  0.70397466  0.70963464  0.11577422  1
  Ti  Ti145  1  0.79818443  0.58961417  0.01588167  1
  Ti  Ti146  1  0.70131377  0.89966569  0.39955813  1
  Ti  Ti147  1  -0.00657797  0.39585279  0.24966321  1
  Ti  Ti148  1  -0.00350970  0.59409553  0.24636363  1
  Ti  Ti149  1  0.39042192  0.20153522  0.74622256  1
  Ti  Ti150  1  0.50134125  0.30328228  0.84830432  1
  Ti  Ti151  1  0.20537005  0.81076803  0.01419621  1
  Ti  Ti152  1  0.50209484  0.30157992  0.37573881  1
  Ti  Ti153  1  0.69571697  0.09427775  0.40596773  1
  Ti  Ti154  1  0.09820385  0.69885908  0.90534630  1
  Ti  Ti155  1  0.39517153  0.60145876  0.00543142  1
  Ti  Ti156  1  0.19473766  0.39638238  0.02032657  1
  Ti  Ti157  1  0.71068063  0.90344317  0.60923986  1
  Ti  Ti158  1  0.38692510  0.61145451  0.75754902  1
  Ti  Ti159  1  0.71406629  0.69869921  0.89048412  1
  Mo  Mo160  1  0.70372922  0.29377612  0.13630777  1
  Mo  Mo161  1  0.80449818  0.19818507  0.72240782  1
  Mo  Mo162  1  0.39788038  0.79546482  0.76827458  1
  Mo  Mo163  1  0.60307159  0.20492555  0.73502821  1
  Mo  Mo164  1  0.00520492  -0.00365017  0.27491584  1
  Mo  Mo165  1  0.20809247  0.79702151  0.47478204  1
  Mo  Mo166  1  0.69867600  0.29663705  0.62246793  1
  Mo  Mo167  1  0.39838481  0.39574462  0.76292616  1
  Mo  Mo168  1  0.29417871  0.91129715  0.11725230  1
  Mo  Mo169  1  0.10207634  0.69677241  0.62800528  1
  Mo  Mo170  1  0.30637788  0.70512973  0.11044025  1
  Mo  Mo171  1  0.80689351  -0.00088950  0.00078387  1
  Mo  Mo172  1  0.39951361  0.00104666  0.24650226  1
  Mo  Mo173  1  0.29989099  0.10344815  0.39299441  1
  Mo  Mo174  1  0.59701300  -0.00740156  0.48983941  1
  Mo  Mo175  1  0.19197513  0.79473323  0.77755130  1
  Mo  Mo176  1  0.30392593  0.49129985  0.11021298  1
  Mo  Mo177  1  0.29692841  0.51750772  0.37775043  1
  Mo  Mo178  1  0.10460561  0.09338939  0.87179588  1
  Mo  Mo179  1  0.40057423  0.60932871  0.23992722  1
  Mo  Mo180  1  0.80403144  0.19725546  -0.01195149  1
  Mo  Mo181  1  -0.00624732  0.59382135  0.02098076  1
  Mo  Mo182  1  0.49050306  0.10826905  0.62764678  1
  Mo  Mo183  1  0.09513993  0.10045493  0.60918957  1
  Mo  Mo184  1  0.08697050  0.48626072  0.12509765  1
  Mo  Mo185  1  -0.00316900  0.20061841  0.26947313  1
  Mo  Mo186  1  0.18964727  0.40113404  0.74514272  1
  Mo  Mo187  1  0.00780151  0.59504034  0.46861748  1
  Mo  Mo188  1  0.80584370  -0.00787924  0.49921290  1
  Mo  Mo189  1  0.19938117  0.19646224  0.00907897  1
  Mo  Mo190  1  0.80160317  -0.01448566  0.72310461  1
  Mo  Mo191  1  0.61229147  -0.00261879  0.75966995  1
  Mo  Mo192  1  0.90625761  0.49948930  0.62547682  1
  Mo  Mo193  1  0.59375070  0.39760521  0.27403586  1
  Mo  Mo194  1  0.89935690  0.48925161  0.34506052  1
  Mo  Mo195  1  0.10894378  0.69725925  0.33936720  1
  Mo  Mo196  1  0.19761609  0.20261660  0.50856166  1
  Mo  Mo197  1  0.90781036  0.89060730  0.87392040  1
  Mo  Mo198  1  0.90425447  0.69521832  0.34689602  1
  Mo  Mo199  1  0.69714150  0.29265193  0.40168160  1
