# generated using pymatgen
data_HfZrTaTiMo
_symmetry_space_group_name_H-M   'P 1'
_cell_length_a   15.93716383
_cell_length_b   15.93342248
_cell_length_c   15.20313163
_cell_angle_alpha   90.03253342
_cell_angle_beta   89.97797003
_cell_angle_gamma   89.86152057
_symmetry_Int_Tables_number   1
_chemical_formula_structural   HfZrTaTiMo
_chemical_formula_sum   'Hf40 Zr40 Ta40 Ti40 Mo40'
_cell_volume   3860.57322034
_cell_formula_units_Z   40
loop_
 _symmetry_equiv_pos_site_id
 _symmetry_equiv_pos_as_xyz
  1  'x, y, z'
loop_
 _atom_site_type_symbol
 _atom_site_label
 _atom_site_symmetry_multiplicity
 _atom_site_fract_x
 _atom_site_fract_y
 _atom_site_fract_z
 _atom_site_occupancy
  Hf  Hf0  1  0.10462827  0.70104607  0.87579058  1
  Hf  Hf1  1  0.31498023  0.88969944  0.12723809  1
  Hf  Hf2  1  -0.00146583  0.20670387  0.22869578  1
  Hf  Hf3  1  0.20293395  0.00510210  0.49833650  1
  Hf  Hf4  1  0.50067541  0.49397379  0.62574192  1
  Hf  Hf5  1  0.30817097  0.70229027  0.61994213  1
  Hf  Hf6  1  0.19627386  0.59600817  0.74612878  1
  Hf  Hf7  1  0.39702755  0.39825348  0.24403693  1
  Hf  Hf8  1  0.80059906  -0.00484358  0.49002335  1
  Hf  Hf9  1  0.38647055  0.38515409  -0.01000131  1
  Hf  Hf10  1  0.50452038  0.89266057  0.61825592  1
  Hf  Hf11  1  -0.00511667  0.60715146  0.00403193  1
  Hf  Hf12  1  0.30409078  0.49054122  0.63513569  1
  Hf  Hf13  1  0.78833178  0.60211631  0.74628739  1
  Hf  Hf14  1  0.30990403  0.11012527  0.11736026  1
  Hf  Hf15  1  0.88987990  0.70446700  0.87550712  1
  Hf  Hf16  1  0.29921709  0.10649095  0.63885705  1
  Hf  Hf17  1  0.48395177  0.71068866  0.13149177  1
  Hf  Hf18  1  -0.02433360  0.61706121  0.24094890  1
  Hf  Hf19  1  -0.00541100  0.00349686  0.76656112  1
  Hf  Hf20  1  0.50120857  0.28952222  0.36977350  1
  Hf  Hf21  1  0.09503285  0.49884475  0.12385356  1
  Hf  Hf22  1  0.40450313  0.20384713  0.76393078  1
  Hf  Hf23  1  0.18996265  0.39518241  0.49335104  1
  Hf  Hf24  1  0.18737790  0.39040211  0.25696949  1
  Hf  Hf25  1  0.20028760  0.21013965  0.50169734  1
  Hf  Hf26  1  0.29598101  0.50696190  0.37216999  1
  Hf  Hf27  1  0.60493304  0.38552096  0.23361739  1
  Hf  Hf28  1  0.40308870  -0.00550073  0.75286578  1
  Hf  Hf29  1  0.40481000  0.00796481  0.50917200  1
  Hf  Hf30  1  0.40978258  -0.00245055  -0.00288546  1
  Hf  Hf31  1  0.09670279  0.30787373  0.10448906  1
  Hf  Hf32  1  0.60683332  -0.00140935  0.49572665  1
  Hf  Hf33  1  0.79268005  0.60365215  0.48807732  1
  Hf  Hf34  1  0.20013508  -0.00434117  0.75951094  1
  Hf  Hf35  1  0.09478995  0.10934274  0.63549391  1
  Hf  Hf36  1  0.60300522  0.19801515  0.50807442  1
  Hf  Hf37  1  0.19370225  0.59457069  0.51138471  1
  Hf  Hf38  1  0.08383428  0.50144933  0.36040638  1
  Hf  Hf39  1  -0.00662949  0.81274590  -0.00962418  1
  Zr  Zr40  1  0.50025480  0.50661418  0.88656981  1
  Zr  Zr41  1  0.10524818  0.90753213  0.11769579  1
  Zr  Zr42  1  0.48515837  0.69517427  0.37000370  1
  Zr  Zr43  1  0.20311899  0.81041892  0.74479678  1
  Zr  Zr44  1  0.10037637  0.69299679  0.37773939  1
  Zr  Zr45  1  0.50047215  0.30763977  0.63037178  1
  Zr  Zr46  1  0.79651704  0.19892360  0.23228484  1
  Zr  Zr47  1  0.19821410  0.00565811  0.24616512  1
  Zr  Zr48  1  -0.00779108  0.00965406  -0.00214930  1
  Zr  Zr49  1  0.38688162  0.60807932  0.00788313  1
  Zr  Zr50  1  0.89757909  0.49593200  0.62885911  1
  Zr  Zr51  1  0.60706995  0.00946845  0.24722198  1
  Zr  Zr52  1  0.89825673  0.90642661  0.62303072  1
  Zr  Zr53  1  0.30997838  0.90547136  0.36909637  1
  Zr  Zr54  1  0.10304323  0.11184252  0.37080532  1
  Zr  Zr55  1  0.60746586  0.79740404  0.26261749  1
  Zr  Zr56  1  0.29252870  0.30739537  0.64405116  1
  Zr  Zr57  1  0.49849893  0.49349799  0.36987167  1
  Zr  Zr58  1  0.48951812  0.27838422  0.11265445  1
  Zr  Zr59  1  0.80432216  0.00198583  0.25268063  1
  Zr  Zr60  1  0.69856309  0.29574125  0.64426959  1
  Zr  Zr61  1  -0.00084023  0.81148112  0.76022540  1
  Zr  Zr62  1  0.09669926  0.11961255  0.87718051  1
  Zr  Zr63  1  0.90825346  0.10324965  0.37959545  1
  Zr  Zr64  1  0.60286523  0.80243333  0.01090053  1
  Zr  Zr65  1  0.69022214  0.49661951  0.63042332  1
  Zr  Zr66  1  0.70722863  0.09565609  0.87579182  1
  Zr  Zr67  1  0.20466030  0.79360841  0.26028081  1
  Zr  Zr68  1  0.61100718  -0.00548416  0.01004008  1
  Zr  Zr69  1  0.90481218  0.30536205  0.63879745  1
  Zr  Zr70  1  0.40209407  0.80284922  0.75394935  1
  Zr  Zr71  1  0.69408185  0.69934440  0.88591190  1
  Zr  Zr72  1  0.79442155  0.39682396  0.49100839  1
  Zr  Zr73  1  0.51152419  0.69276788  0.62027711  1
  Zr  Zr74  1  0.90000301  0.48566228  0.12079861  1
  Zr  Zr75  1  -0.00350327  0.59285134  0.75519494  1
  Zr  Zr76  1  0.70692809  0.49126139  0.12177726  1
  Zr  Zr77  1  0.08684907  0.70543875  0.62072950  1
  Zr  Zr78  1  0.20985515  0.79312740  0.00058268  1
  Zr  Zr79  1  -0.00739674  0.81234513  0.48047689  1
  Ta  Ta80  1  0.51004139  0.10097369  0.87820936  1
  Ta  Ta81  1  0.00089219  0.39656274  0.48790828  1
  Ta  Ta82  1  0.90003673  0.10387342  0.62483183  1
  Ta  Ta83  1  0.59732483  0.59504087  0.23990762  1
  Ta  Ta84  1  0.60633269  -0.00823139  0.75112471  1
  Ta  Ta85  1  0.80011941  0.19916971  0.50342355  1
  Ta  Ta86  1  0.50094656  0.90421471  0.37133288  1
  Ta  Ta87  1  0.20378226  0.80700020  0.49733559  1
  Ta  Ta88  1  0.80931606  0.19562900  0.76523399  1
  Ta  Ta89  1  0.69941718  0.89216597  0.62391047  1
  Ta  Ta90  1  0.00098191  0.80860505  0.26171940  1
  Ta  Ta91  1  0.59932182  0.60056942  0.01937357  1
  Ta  Ta92  1  0.60228944  0.39263956  -0.00237903  1
  Ta  Ta93  1  0.60574557  0.39548714  0.77911710  1
  Ta  Ta94  1  0.29049055  0.49198008  0.12044969  1
  Ta  Ta95  1  0.80329868  -0.00325998  0.01886689  1
  Ta  Ta96  1  0.90305682  0.29779194  0.37416734  1
  Ta  Ta97  1  0.30908214  0.11033567  0.36428206  1
  Ta  Ta98  1  0.79263169  0.79874879  0.48086937  1
  Ta  Ta99  1  0.88789465  0.70555753  0.61677656  1
  Ta  Ta100  1  0.71311365  0.88974298  0.14388788  1
  Ta  Ta101  1  0.29256502  0.29372180  0.13201459  1
  Ta  Ta102  1  0.00249996  0.21215785  0.50836732  1
  Ta  Ta103  1  0.29895856  0.29056000  0.36186053  1
  Ta  Ta104  1  0.29044998  0.50240700  0.87786620  1
  Ta  Ta105  1  0.60668951  0.59937511  0.48301585  1
  Ta  Ta106  1  0.09447119  0.70657555  0.12752534  1
  Ta  Ta107  1  0.49362004  0.49576903  0.12008442  1
  Ta  Ta108  1  0.90093643  0.89271135  0.13844826  1
  Ta  Ta109  1  0.49805990  0.70293027  0.88288010  1
  Ta  Ta110  1  0.79113429  0.80134125  0.74584154  1
  Ta  Ta111  1  0.09708518  0.91173698  0.61065046  1
  Ta  Ta112  1  0.39928256  0.20132434  0.50193613  1
  Ta  Ta113  1  0.71371965  0.69771468  0.13670661  1
  Ta  Ta114  1  0.61178772  0.79377141  0.48348838  1
  Ta  Ta115  1  0.80105086  0.39536034  0.77969723  1
  Ta  Ta116  1  0.21261035  0.22022281  -0.01742275  1
  Ta  Ta117  1  0.49920906  0.89903588  0.14106365  1
  Ta  Ta118  1  0.70051274  0.49530844  0.35281078  1
  Ta  Ta119  1  0.70198699  0.50100019  0.89202235  1
  Ti  Ti120  1  0.70670170  0.09581373  0.63775729  1
  Ti  Ti121  1  0.00351891  0.00011775  0.24774810  1
  Ti  Ti122  1  0.80865659  0.38451929  0.24245990  1
  Ti  Ti123  1  0.59944226  0.18856253  0.22988504  1
  Ti  Ti124  1  0.09483591  0.30255470  0.65300604  1
  Ti  Ti125  1  0.39816333  0.80182769  0.49264598  1
  Ti  Ti126  1  -0.01008712  0.59316571  0.50007889  1
  Ti  Ti127  1  0.51115045  0.10541262  0.64213374  1
  Ti  Ti128  1  0.41169786  0.01168345  0.24265571  1
  Ti  Ti129  1  0.59807068  0.59931652  0.75775872  1
  Ti  Ti130  1  0.11193571  0.11154820  0.10748757  1
  Ti  Ti131  1  0.40655372  0.40208400  0.77147201  1
  Ti  Ti132  1  0.80415300  0.38466233  -0.01537220  1
  Ti  Ti133  1  0.40279687  0.59867449  0.75552246  1
  Ti  Ti134  1  0.89297642  0.49571298  0.36176411  1
  Ti  Ti135  1  0.70419839  0.28777295  0.10073978  1
  Ti  Ti136  1  0.60400736  0.40036221  0.48880702  1
  Ti  Ti137  1  0.69875075  0.11035450  0.37543030  1
  Ti  Ti138  1  0.30442197  0.69875307  0.87019917  1
  Ti  Ti139  1  0.79633791  0.80973411  0.00188450  1
  Ti  Ti140  1  0.20149359  0.60437430  0.23872527  1
  Ti  Ti141  1  0.38342669  0.60532106  0.24083149  1
  Ti  Ti142  1  0.30177350  0.10334894  0.88015976  1
  Ti  Ti143  1  0.81753159  0.18950281  -0.00262709  1
  Ti  Ti144  1  0.51447075  0.28583403  0.88433550  1
  Ti  Ti145  1  0.19668665  0.59885864  0.00602936  1
  Ti  Ti146  1  0.30134864  0.90089242  0.89014253  1
  Ti  Ti147  1  0.08879875  0.48307930  0.63170105  1
  Ti  Ti148  1  0.81548431  0.78431408  0.27173877  1
  Ti  Ti149  1  0.49944542  0.10368576  0.37382223  1
  Ti  Ti150  1  0.39949500  0.59366908  0.50052797  1
  Ti  Ti151  1  0.00019500  0.39606277  -0.02610103  1
  Ti  Ti152  1  0.51171279  0.89512905  0.87411875  1
  Ti  Ti153  1  0.18320944  0.40205905  0.77825501  1
  Ti  Ti154  1  0.39284188  0.39184208  0.49202968  1
  Ti  Ti155  1  0.89620824  0.50212031  0.88085314  1
  Ti  Ti156  1  0.60554102  0.79317367  0.75066730  1
  Ti  Ti157  1  0.80194163  0.60544448  0.01103433  1
  Ti  Ti158  1  0.86835031  0.91518200  0.86784491  1
  Ti  Ti159  1  0.70210289  0.29448833  0.36874508  1
  Mo  Mo160  1  0.89844296  0.30034772  0.10077185  1
  Mo  Mo161  1  0.00278345  0.00946692  0.49759241  1
  Mo  Mo162  1  0.69813340  0.70588877  0.62123146  1
  Mo  Mo163  1  0.90150628  0.90133714  0.36196086  1
  Mo  Mo164  1  0.70317382  0.29419002  0.88399140  1
  Mo  Mo165  1  -0.00998250  0.39599736  0.25831140  1
  Mo  Mo166  1  0.90640546  0.29118605  0.87878743  1
  Mo  Mo167  1  0.90844875  0.09569704  0.12418761  1
  Mo  Mo168  1  0.89955851  0.69416684  0.38926994  1
  Mo  Mo169  1  0.79743659  0.59835495  0.25219217  1
  Mo  Mo170  1  0.11685691  0.91059992  0.89340299  1
  Mo  Mo171  1  -0.00458409  0.20406426  0.74409406  1
  Mo  Mo172  1  0.40506254  0.19440315  0.25677942  1
  Mo  Mo173  1  0.09696364  0.30318414  0.87600393  1
  Mo  Mo174  1  0.29905118  0.69487910  0.39321346  1
  Mo  Mo175  1  0.09211940  0.29762831  0.37064672  1
  Mo  Mo176  1  0.70035595  0.89736385  0.86270193  1
  Mo  Mo177  1  -0.00269195  0.20440823  0.00945344  1
  Mo  Mo178  1  0.19952914  0.20530636  0.76453167  1
  Mo  Mo179  1  0.60671061  0.19374257  0.00425346  1
  Mo  Mo180  1  0.09630872  0.91108657  0.38470000  1
  Mo  Mo181  1  0.40519545  0.80345077  -0.01469152  1
  Mo  Mo182  1  0.60465373  0.19491245  0.75114139  1
  Mo  Mo183  1  0.40024299  0.80261069  0.26541029  1
  Mo  Mo184  1  0.19967331  0.40681617  -0.00838914  1
  Mo  Mo185  1  0.29827122  0.30521584  0.85978546  1
  Mo  Mo186  1  0.69976946  0.68881978  0.35763657  1
  Mo  Mo187  1  0.10006202  0.50378738  0.89156833  1
  Mo  Mo188  1  0.89155257  0.71681612  0.11510186  1
  Mo  Mo189  1  0.40053109  0.19612184  -0.02249840  1
  Mo  Mo190  1  0.70268824  0.89647078  0.36943651  1
  Mo  Mo191  1  0.70612015  0.10080183  0.11071686  1
  Mo  Mo192  1  0.50165750  0.09571419  0.11104412  1
  Mo  Mo193  1  0.30002559  0.90074582  0.61014128  1
  Mo  Mo194  1  0.20632351  0.00723444  -0.00910605  1
  Mo  Mo195  1  -0.00133820  0.40132532  0.77539294  1
  Mo  Mo196  1  0.20078126  0.20111049  0.23866185  1
  Mo  Mo197  1  0.79699475  -0.00007772  0.73425583  1
  Mo  Mo198  1  0.29322982  0.69494486  0.12868494  1
  Mo  Mo199  1  0.89650000  0.09947110  0.87263900  1
