# generated using pymatgen
data_HfZrTaTiMo
_symmetry_space_group_name_H-M   'P 1'
_cell_length_a   15.93363457
_cell_length_b   15.92456576
_cell_length_c   15.22235997
_cell_angle_alpha   90.00924616
_cell_angle_beta   89.98724109
_cell_angle_gamma   90.09630927
_symmetry_Int_Tables_number   1
_chemical_formula_structural   HfZrTaTiMo
_chemical_formula_sum   'Hf40 Zr40 Ta40 Ti40 Mo40'
_cell_volume   3862.45834532
_cell_formula_units_Z   40
loop_
 _symmetry_equiv_pos_site_id
 _symmetry_equiv_pos_as_xyz
  1  'x, y, z'
loop_
 _atom_site_type_symbol
 _atom_site_label
 _atom_site_symmetry_multiplicity
 _atom_site_fract_x
 _atom_site_fract_y
 _atom_site_fract_z
 _atom_site_occupancy
  Hf  Hf0  1  0.70331960  0.90318687  0.86881873  1
  Hf  Hf1  1  0.30031307  0.90058294  0.12364678  1
  Hf  Hf2  1  0.80425506  -0.00309457  0.25270401  1
  Hf  Hf3  1  0.90363535  0.71309961  0.86592549  1
  Hf  Hf4  1  0.29200802  0.91043405  0.61801429  1
  Hf  Hf5  1  0.20038623  0.40126046  0.24113468  1
  Hf  Hf6  1  0.79561023  0.59628145  0.23637086  1
  Hf  Hf7  1  0.79028244  0.00261346  0.73406017  1
  Hf  Hf8  1  0.40821480  0.40529150  0.24421650  1
  Hf  Hf9  1  0.80057670  0.59944455  0.74566009  1
  Hf  Hf10  1  0.39695875  0.80426673  0.25527715  1
  Hf  Hf11  1  0.88998916  0.10562446  0.88368298  1
  Hf  Hf12  1  0.79649557  0.20677171  0.48842857  1
  Hf  Hf13  1  0.57753783  0.01064955  0.26926579  1
  Hf  Hf14  1  0.19497033  0.00684265  -0.00531054  1
  Hf  Hf15  1  0.18653083  0.21089346  0.01131574  1
  Hf  Hf16  1  0.09674624  0.90313323  0.14008888  1
  Hf  Hf17  1  0.30679777  0.29699066  0.36967783  1
  Hf  Hf18  1  0.90804849  0.31956212  0.62576996  1
  Hf  Hf19  1  0.50047550  0.90341592  0.11572621  1
  Hf  Hf20  1  0.90824707  0.49878136  0.88874351  1
  Hf  Hf21  1  0.11290841  0.10085320  0.61434846  1
  Hf  Hf22  1  0.91211096  0.88402612  0.38256012  1
  Hf  Hf23  1  -0.00879843  0.00384861  0.74878291  1
  Hf  Hf24  1  0.10423231  0.30564414  0.36884411  1
  Hf  Hf25  1  0.58929715  0.60807848  0.00584953  1
  Hf  Hf26  1  0.69828605  0.89675472  0.38415796  1
  Hf  Hf27  1  0.10640449  0.49241049  0.87478806  1
  Hf  Hf28  1  0.41211118  0.39692745  0.49896573  1
  Hf  Hf29  1  0.39049047  0.20122571  -0.00074241  1
  Hf  Hf30  1  0.50804486  0.28875613  0.13482840  1
  Hf  Hf31  1  0.17765941  0.80319000  0.50009062  1
  Hf  Hf32  1  0.00768963  0.42374548  0.48735226  1
  Hf  Hf33  1  -0.00866913  -0.00855662  0.00264513  1
  Hf  Hf34  1  0.40870703  0.60755384  0.23930646  1
  Hf  Hf35  1  0.51205256  0.90149540  0.86236516  1
  Hf  Hf36  1  0.59869029  0.40366777  0.01349665  1
  Hf  Hf37  1  0.39356047  0.00412375  -0.01765255  1
  Hf  Hf38  1  0.29799243  0.50329672  0.38177538  1
  Hf  Hf39  1  0.68994722  0.11023660  0.13428724  1
  Zr  Zr40  1  0.29488239  0.88964294  0.86466475  1
  Zr  Zr41  1  0.29430557  0.69678912  0.39445645  1
  Zr  Zr42  1  0.40241589  0.01427578  0.74840715  1
  Zr  Zr43  1  0.69088351  0.90660824  0.12906522  1
  Zr  Zr44  1  0.69871218  0.50189336  0.88166455  1
  Zr  Zr45  1  0.79855979  -0.00313185  0.50310733  1
  Zr  Zr46  1  0.90978127  0.09349264  0.37352190  1
  Zr  Zr47  1  0.29905685  0.49634658  0.88091493  1
  Zr  Zr48  1  0.70668916  0.48473409  0.62093271  1
  Zr  Zr49  1  0.80966220  0.39917820  0.48011378  1
  Zr  Zr50  1  0.39187796  0.19735860  0.75971758  1
  Zr  Zr51  1  0.20031605  0.01704562  0.76448030  1
  Zr  Zr52  1  0.40881208  0.78300975  -0.00589007  1
  Zr  Zr53  1  0.58981587  0.79428252  0.26107554  1
  Zr  Zr54  1  0.07191731  0.69413128  0.37431169  1
  Zr  Zr55  1  0.10032522  0.50553337  0.11583382  1
  Zr  Zr56  1  0.00202580  0.20478808  0.74216276  1
  Zr  Zr57  1  0.11825740  0.31046103  0.62168596  1
  Zr  Zr58  1  0.00350431  0.20714795  0.24581383  1
  Zr  Zr59  1  0.70113344  0.50736047  0.37666945  1
  Zr  Zr60  1  0.81026978  0.80558902  0.00312467  1
  Zr  Zr61  1  0.10103937  0.68686515  0.85913242  1
  Zr  Zr62  1  0.50087450  0.30531659  0.87810437  1
  Zr  Zr63  1  0.79766784  0.19704075  0.73697512  1
  Zr  Zr64  1  0.70504809  0.69277502  0.38753840  1
  Zr  Zr65  1  0.79790542  0.00140937  0.00900460  1
  Zr  Zr66  1  0.00564595  0.37126198  0.01536177  1
  Zr  Zr67  1  0.49132352  0.49988931  0.87113919  1
  Zr  Zr68  1  0.08222849  0.88665664  0.86251252  1
  Zr  Zr69  1  0.19130207  0.79180419  -0.00113223  1
  Zr  Zr70  1  0.40360928  0.17226006  0.25300669  1
  Zr  Zr71  1  0.50722390  0.29485438  0.63331755  1
  Zr  Zr72  1  -0.00076199  0.20762145  0.49271377  1
  Zr  Zr73  1  0.29800807  0.68252172  0.86189338  1
  Zr  Zr74  1  0.40260067  0.79769605  0.73556995  1
  Zr  Zr75  1  0.28435867  0.48075860  0.62374885  1
  Zr  Zr76  1  0.49902666  0.69616560  0.39550102  1
  Zr  Zr77  1  0.69357704  0.70190218  0.12501470  1
  Zr  Zr78  1  0.80492360  0.39437959  0.76244518  1
  Zr  Zr79  1  0.30100037  0.90635381  0.38951929  1
  Ta  Ta80  1  0.60489111  0.41393341  0.24269787  1
  Ta  Ta81  1  0.09174082  0.49250304  0.64680389  1
  Ta  Ta82  1  0.20373629  0.60628508  0.24254971  1
  Ta  Ta83  1  0.59635862  0.20593205  0.47831671  1
  Ta  Ta84  1  0.70287874  0.69862701  0.62198272  1
  Ta  Ta85  1  0.10311995  0.10033962  0.13732701  1
  Ta  Ta86  1  0.21771139  0.00956144  0.24895923  1
  Ta  Ta87  1  0.60303963  0.80291691  0.51215658  1
  Ta  Ta88  1  0.90534273  0.09797579  0.13319910  1
  Ta  Ta89  1  0.09817148  0.70237749  0.13263316  1
  Ta  Ta90  1  0.51714381  0.91665192  0.62353587  1
  Ta  Ta91  1  0.01402696  -0.01106992  0.50261982  1
  Ta  Ta92  1  0.50279443  0.70194102  0.62554479  1
  Ta  Ta93  1  0.59510038  0.58929478  0.52203503  1
  Ta  Ta94  1  -0.00075641  0.61227392  0.00554954  1
  Ta  Ta95  1  0.70835462  0.29137498  0.88858539  1
  Ta  Ta96  1  0.09000039  0.69332572  0.62934826  1
  Ta  Ta97  1  0.60085220  0.79887111  -0.00922060  1
  Ta  Ta98  1  0.60663047  0.19227058  0.75763671  1
  Ta  Ta99  1  0.90476933  0.89369803  0.62191401  1
  Ta  Ta100  1  0.59818202  0.39327394  0.48620554  1
  Ta  Ta101  1  0.17732594  0.58529814  0.50873277  1
  Ta  Ta102  1  0.30309382  0.50121766  0.11377487  1
  Ta  Ta103  1  0.40173847  0.59133710  0.72749462  1
  Ta  Ta104  1  0.11046733  0.09425267  0.36838490  1
  Ta  Ta105  1  0.20737726  0.19927230  0.48333970  1
  Ta  Ta106  1  0.29021340  0.69274664  0.61688018  1
  Ta  Ta107  1  0.67951019  0.09740248  0.60935257  1
  Ta  Ta108  1  -0.00989703  0.40636238  0.24554978  1
  Ta  Ta109  1  0.80165251  0.39575563  0.01194210  1
  Ta  Ta110  1  0.19871279  0.79676890  0.25670774  1
  Ta  Ta111  1  0.91043797  0.52516312  0.36119654  1
  Ta  Ta112  1  0.40415774  0.59107850  0.52036628  1
  Ta  Ta113  1  0.70432508  0.30276136  0.13640769  1
  Ta  Ta114  1  0.69639623  0.70441895  0.86504122  1
  Ta  Ta115  1  0.80521522  0.79702887  0.25105397  1
  Ta  Ta116  1  0.50239966  0.09287169  0.11010040  1
  Ta  Ta117  1  0.59961671  0.59780071  0.73733959  1
  Ta  Ta118  1  0.80274298  0.20555185  0.25687747  1
  Ta  Ta119  1  0.08486804  0.11749173  0.88743542  1
  Ti  Ti120  1  -0.00772201  0.79587506  0.24310732  1
  Ti  Ti121  1  0.29963161  0.29086713  0.13691207  1
  Ti  Ti122  1  0.40865645  0.20220509  0.49144884  1
  Ti  Ti123  1  0.30038582  0.10623962  0.60698886  1
  Ti  Ti124  1  0.20361635  0.39265829  0.01198039  1
  Ti  Ti125  1  0.09949048  0.90568478  0.36203990  1
  Ti  Ti126  1  0.81131290  0.20925710  0.02165639  1
  Ti  Ti127  1  0.48964103  0.91361770  0.40059969  1
  Ti  Ti128  1  0.20218269  0.20639763  0.76513774  1
  Ti  Ti129  1  0.60536907  0.20117544  -0.00341650  1
  Ti  Ti130  1  0.69729587  0.10066866  0.88428126  1
  Ti  Ti131  1  0.50660040  0.69812813  0.85189395  1
  Ti  Ti132  1  0.89714802  0.49993012  0.11967164  1
  Ti  Ti133  1  0.82209023  0.59933269  0.51293216  1
  Ti  Ti134  1  0.90245607  0.10056369  0.60954100  1
  Ti  Ti135  1  0.80267675  0.80369870  0.73782663  1
  Ti  Ti136  1  0.79913739  0.60305529  0.00153383  1
  Ti  Ti137  1  0.29505235  0.69873873  0.12008902  1
  Ti  Ti138  1  0.60641796  0.39468674  0.75442457  1
  Ti  Ti139  1  0.90219887  0.69911311  0.12650368  1
  Ti  Ti140  1  -0.00604965  0.80300290  0.01002442  1
  Ti  Ti141  1  0.30969310  0.08817480  0.39078264  1
  Ti  Ti142  1  0.10005497  0.51184953  0.35546287  1
  Ti  Ti143  1  0.40341268  0.80183286  0.51674166  1
  Ti  Ti144  1  0.50613821  0.50577189  0.37219858  1
  Ti  Ti145  1  0.39507177  0.39485684  0.74153675  1
  Ti  Ti146  1  -0.01026777  0.59332710  0.74297375  1
  Ti  Ti147  1  0.29852292  0.29188417  0.61575345  1
  Ti  Ti148  1  0.90968126  0.29163710  0.88129789  1
  Ti  Ti149  1  0.09653173  0.90016750  0.63284836  1
  Ti  Ti150  1  0.69506766  0.29349743  0.61902415  1
  Ti  Ti151  1  0.80790316  0.79001339  0.50934207  1
  Ti  Ti152  1  0.51232490  0.10006795  0.88125531  1
  Ti  Ti153  1  0.50360278  0.10307185  0.61272376  1
  Ti  Ti154  1  0.69649425  0.30561462  0.35327582  1
  Ti  Ti155  1  0.69440074  0.10186262  0.37487109  1
  Ti  Ti156  1  0.61197336  0.80450131  0.73280165  1
  Ti  Ti157  1  0.19649507  0.79275221  0.73582343  1
  Ti  Ti158  1  0.40379384  0.59745648  0.00982990  1
  Ti  Ti159  1  0.29474152  0.30985348  0.88040794  1
  Mo  Mo160  1  0.10163209  0.30039981  0.86801877  1
  Mo  Mo161  1  0.80274510  0.40381128  0.24368787  1
  Mo  Mo162  1  0.20473959  0.38720119  0.76141288  1
  Mo  Mo163  1  0.89724328  0.31401518  0.35876165  1
  Mo  Mo164  1  0.90310059  0.89632991  0.14367138  1
  Mo  Mo165  1  0.40078922  0.00559633  0.52322710  1
  Mo  Mo166  1  0.20729887  0.19244034  0.25600640  1
  Mo  Mo167  1  0.20068006  0.60260766  0.01531454  1
  Mo  Mo168  1  0.49974761  0.50155164  0.12466239  1
  Mo  Mo169  1  0.28705046  0.11293331  0.88776406  1
  Mo  Mo170  1  0.60170570  0.20218693  0.26432404  1
  Mo  Mo171  1  0.49428013  0.70588279  0.12334791  1
  Mo  Mo172  1  0.10537106  0.29962759  0.14648340  1
  Mo  Mo173  1  0.89511183  0.90052021  0.85172754  1
  Mo  Mo174  1  0.19631738  0.00272468  0.49000205  1
  Mo  Mo175  1  0.59823463  0.00459066  -0.00995771  1
  Mo  Mo176  1  0.59186624  0.59290638  0.23529151  1
  Mo  Mo177  1  0.89336171  0.30056896  0.13873908  1
  Mo  Mo178  1  0.59793770  0.00405185  0.48892601  1
  Mo  Mo179  1  0.89864152  0.70106667  0.63535504  1
  Mo  Mo180  1  0.60437189  0.01317251  0.75051721  1
  Mo  Mo181  1  0.29947766  0.09546712  0.11631784  1
  Mo  Mo182  1  -0.00392900  0.60267834  0.22703496  1
  Mo  Mo183  1  0.00253186  0.39863050  0.76706854  1
  Mo  Mo184  1  -0.00391192  0.79806563  0.73310461  1
  Mo  Mo185  1  0.70108528  0.89624063  0.61838225  1
  Mo  Mo186  1  0.00694344  -0.00270631  0.25203015  1
  Mo  Mo187  1  0.40061912  -0.00320350  0.24585881  1
  Mo  Mo188  1  0.90777272  0.50130738  0.62964738  1
  Mo  Mo189  1  0.19889246  0.59401275  0.72984578  1
  Mo  Mo190  1  0.70343403  0.49945838  0.11454005  1
  Mo  Mo191  1  0.19787885  0.40285421  0.47977457  1
  Mo  Mo192  1  0.50304573  0.49107400  0.63550732  1
  Mo  Mo193  1  -0.00642426  0.59973574  0.51553347  1
  Mo  Mo194  1  0.89368311  0.69861329  0.36975341  1
  Mo  Mo195  1  -0.00416774  0.79812880  0.51511937  1
  Mo  Mo196  1  -0.00471195  0.19207216  0.01782304  1
  Mo  Mo197  1  0.39311226  0.39399248  0.02061318  1
  Mo  Mo198  1  0.50808768  0.30306810  0.36054330  1
  Mo  Mo199  1  0.49276396  0.09891669  0.39526502  1
