# generated using pymatgen
data_HfZrTaTiMo
_symmetry_space_group_name_H-M   'P 1'
_cell_length_a   15.93037746
_cell_length_b   15.92115927
_cell_length_c   15.19960090
_cell_angle_alpha   90.06438600
_cell_angle_beta   90.03300226
_cell_angle_gamma   89.92576188
_symmetry_Int_Tables_number   1
_chemical_formula_structural   HfZrTaTiMo
_chemical_formula_sum   'Hf40 Zr40 Ta40 Ti40 Mo40'
_cell_volume   3855.06963417
_cell_formula_units_Z   40
loop_
 _symmetry_equiv_pos_site_id
 _symmetry_equiv_pos_as_xyz
  1  'x, y, z'
loop_
 _atom_site_type_symbol
 _atom_site_label
 _atom_site_symmetry_multiplicity
 _atom_site_fract_x
 _atom_site_fract_y
 _atom_site_fract_z
 _atom_site_occupancy
  Hf  Hf0  1  0.20423288  0.19091529  0.00418305  1
  Hf  Hf1  1  0.70870292  0.69770078  0.12514918  1
  Hf  Hf2  1  0.81130538  0.00207562  -0.00873860  1
  Hf  Hf3  1  -0.00437915  0.18866008  0.00612155  1
  Hf  Hf4  1  0.89717785  0.89799013  0.13637914  1
  Hf  Hf5  1  -0.01748684  0.58737888  0.49141952  1
  Hf  Hf6  1  0.09929237  0.30300765  0.62647852  1
  Hf  Hf7  1  0.70281735  0.10130648  0.11363568  1
  Hf  Hf8  1  0.89118790  0.10552800  0.62479356  1
  Hf  Hf9  1  0.29798985  0.70491997  0.87739790  1
  Hf  Hf10  1  0.69933074  0.09987065  0.61099137  1
  Hf  Hf11  1  0.60092151  0.59645977  0.51144093  1
  Hf  Hf12  1  0.21738070  0.39471083  0.25766137  1
  Hf  Hf13  1  0.20214561  -0.00692594  0.01353654  1
  Hf  Hf14  1  0.49755138  0.29775105  0.89026192  1
  Hf  Hf15  1  0.88483094  0.90028587  0.62153015  1
  Hf  Hf16  1  0.30756450  0.70740081  0.36623868  1
  Hf  Hf17  1  0.00347497  -0.00408827  0.73374986  1
  Hf  Hf18  1  0.68930678  0.89965942  0.62322461  1
  Hf  Hf19  1  0.59587709  0.40766842  0.51281539  1
  Hf  Hf20  1  0.40589301  -0.00338534  0.74084154  1
  Hf  Hf21  1  0.21150583  0.00862937  0.25836432  1
  Hf  Hf22  1  0.10141091  0.88913445  0.86170130  1
  Hf  Hf23  1  0.10768273  0.10934423  0.61337210  1
  Hf  Hf24  1  0.30680192  0.30578774  0.88792607  1
  Hf  Hf25  1  0.20927172  0.59944268  0.49174615  1
  Hf  Hf26  1  0.59291332  0.00724216  0.75682371  1
  Hf  Hf27  1  0.19887713  0.41176610  0.75488400  1
  Hf  Hf28  1  0.78553560  0.40962560  0.76308216  1
  Hf  Hf29  1  0.70157249  0.70223370  0.87018880  1
  Hf  Hf30  1  0.39890699  0.19566937  0.23090990  1
  Hf  Hf31  1  0.60164887  0.58977285  0.75394821  1
  Hf  Hf32  1  0.69831871  0.30439292  0.37695799  1
  Hf  Hf33  1  0.59191066  0.00742824  0.24599064  1
  Hf  Hf34  1  -0.00364783  0.59562022  0.25372323  1
  Hf  Hf35  1  0.50035035  0.68949821  0.36852977  1
  Hf  Hf36  1  0.81183095  0.41289653  0.50377586  1
  Hf  Hf37  1  0.89658921  0.29893817  0.86834275  1
  Hf  Hf38  1  -0.00654986  0.39428428  0.24641921  1
  Hf  Hf39  1  0.21797185  0.38474168  0.49015220  1
  Zr  Zr40  1  0.09673362  0.48875022  0.38330099  1
  Zr  Zr41  1  0.60033262  0.21263261  0.23782560  1
  Zr  Zr42  1  0.19386002  0.79530488  0.01283592  1
  Zr  Zr43  1  0.69628710  0.90750528  0.88345321  1
  Zr  Zr44  1  0.09952360  0.68827428  0.62814963  1
  Zr  Zr45  1  0.10968506  0.69201021  0.86233348  1
  Zr  Zr46  1  0.48595499  0.10605893  0.37621923  1
  Zr  Zr47  1  -0.00033880  0.79266706  0.50349555  1
  Zr  Zr48  1  0.09557919  0.89167289  0.14787859  1
  Zr  Zr49  1  -0.01221632  0.41269029  -0.01104000  1
  Zr  Zr50  1  0.10924231  0.50147612  0.11695668  1
  Zr  Zr51  1  0.89885794  0.11497069  0.37729367  1
  Zr  Zr52  1  0.10005716  0.29977286  0.12260481  1
  Zr  Zr53  1  0.00142033  0.61352005  -0.00085868  1
  Zr  Zr54  1  0.78651323  0.39661345  0.24000885  1
  Zr  Zr55  1  0.21498954  -0.00091635  0.73447925  1
  Zr  Zr56  1  0.49665937  0.10694260  0.60958635  1
  Zr  Zr57  1  0.10038643  0.29652137  0.87313605  1
  Zr  Zr58  1  0.49957230  0.70616777  0.62548224  1
  Zr  Zr59  1  0.09952674  0.28348699  0.37450837  1
  Zr  Zr60  1  0.40857733  0.60666232  0.00810900  1
  Zr  Zr61  1  0.69962062  0.29732615  0.62643870  1
  Zr  Zr62  1  0.39164205  0.60557271  0.74815581  1
  Zr  Zr63  1  0.28337632  0.50730698  0.89526046  1
  Zr  Zr64  1  0.80872410  0.59234065  -0.01663884  1
  Zr  Zr65  1  0.50661064  0.70415209  0.14287186  1
  Zr  Zr66  1  0.40044320  0.80476113  0.01085500  1
  Zr  Zr67  1  0.00265588  -0.00088640  0.49990301  1
  Zr  Zr68  1  -0.00235363  0.00317809  0.26575483  1
  Zr  Zr69  1  0.59473077  -0.00268612  0.48456499  1
  Zr  Zr70  1  0.89347712  0.89436427  0.38005874  1
  Zr  Zr71  1  0.41049705  0.40500424  0.50449962  1
  Zr  Zr72  1  0.70672481  0.51104099  0.37336766  1
  Zr  Zr73  1  0.90529481  0.50115162  0.64105231  1
  Zr  Zr74  1  0.49454786  0.48947483  0.88099904  1
  Zr  Zr75  1  0.69825876  0.89775704  0.11785960  1
  Zr  Zr76  1  0.90636780  0.09845276  0.86190879  1
  Zr  Zr77  1  0.40263857  0.19200729  0.75735554  1
  Zr  Zr78  1  0.88303960  0.68685775  0.36920807  1
  Zr  Zr79  1  0.10533591  0.09132853  0.86807591  1
  Ta  Ta80  1  0.58617719  0.80684116  0.76206480  1
  Ta  Ta81  1  0.20822931  0.19718653  0.75194997  1
  Ta  Ta82  1  0.78666472  0.00804288  0.26376112  1
  Ta  Ta83  1  0.90913736  0.70835946  0.84857888  1
  Ta  Ta84  1  0.29669779  0.50336374  0.62364745  1
  Ta  Ta85  1  0.88773379  0.29602941  0.11584869  1
  Ta  Ta86  1  0.30430464  0.30443880  0.11057048  1
  Ta  Ta87  1  0.69151032  0.30506048  0.89034794  1
  Ta  Ta88  1  0.09486560  0.09962320  0.14050512  1
  Ta  Ta89  1  0.21439331  0.79435086  0.73149472  1
  Ta  Ta90  1  0.48683783  0.89534781  0.36048757  1
  Ta  Ta91  1  0.60235817  0.19690270  0.76761113  1
  Ta  Ta92  1  0.78729183  0.79057350  0.50263739  1
  Ta  Ta93  1  0.20823632  -0.00481155  0.49279627  1
  Ta  Ta94  1  0.69669490  0.69912915  0.36863480  1
  Ta  Ta95  1  0.11074395  0.89203027  0.37497964  1
  Ta  Ta96  1  0.60332908  0.80647328  0.25790928  1
  Ta  Ta97  1  0.40181850  0.80785289  0.75111143  1
  Ta  Ta98  1  0.20532550  0.59463751  0.25590018  1
  Ta  Ta99  1  0.81329111  0.79559159  -0.01089653  1
  Ta  Ta100  1  0.89080179  0.50360170  0.13072549  1
  Ta  Ta101  1  0.10227238  0.70418495  0.36727128  1
  Ta  Ta102  1  0.30942903  0.89811184  0.14740794  1
  Ta  Ta103  1  0.60109875  0.59984096  -0.00564094  1
  Ta  Ta104  1  0.30037126  0.90276612  0.87510420  1
  Ta  Ta105  1  0.59472392  0.79411336  -0.00719520  1
  Ta  Ta106  1  0.29522989  0.69881954  0.14287371  1
  Ta  Ta107  1  0.30331863  0.49833630  0.11809634  1
  Ta  Ta108  1  0.70218137  0.70353084  0.63696207  1
  Ta  Ta109  1  0.41496310  0.39868836  0.23199780  1
  Ta  Ta110  1  0.59684649  0.79916921  0.48848297  1
  Ta  Ta111  1  0.59285893  0.21039136  0.48747299  1
  Ta  Ta112  1  0.49156320  0.90800744  0.89449360  1
  Ta  Ta113  1  0.89415439  0.69935418  0.63987794  1
  Ta  Ta114  1  0.10129295  0.49162515  0.61096476  1
  Ta  Ta115  1  0.10627152  0.10499468  0.38028621  1
  Ta  Ta116  1  0.89768413  0.10086436  0.13642498  1
  Ta  Ta117  1  -0.00626513  0.80244562  -0.00245556  1
  Ta  Ta118  1  0.78641133  0.19831600  0.76204396  1
  Ta  Ta119  1  0.90146226  0.29861210  0.64015709  1
  Ti  Ti120  1  0.00322351  0.40489985  0.76191905  1
  Ti  Ti121  1  0.10715521  0.89333775  0.61900791  1
  Ti  Ti122  1  0.49892723  0.31528408  0.36348742  1
  Ti  Ti123  1  0.09873652  0.70397053  0.14647670  1
  Ti  Ti124  1  0.79531475  0.80785669  0.75374756  1
  Ti  Ti125  1  0.39150434  0.22274829  0.49072059  1
  Ti  Ti126  1  0.31329621  0.09115739  0.89009002  1
  Ti  Ti127  1  0.01286764  0.58435973  0.76010052  1
  Ti  Ti128  1  0.70146614  0.49842153  0.11303715  1
  Ti  Ti129  1  0.79751811  0.20653081  0.49596748  1
  Ti  Ti130  1  0.60422761  0.58461985  0.24219208  1
  Ti  Ti131  1  0.30000109  0.29605472  0.63484992  1
  Ti  Ti132  1  0.79441962  0.80105143  0.25621741  1
  Ti  Ti133  1  0.78850225  0.00711669  0.76041895  1
  Ti  Ti134  1  0.29683118  0.11266758  0.38637612  1
  Ti  Ti135  1  0.20637925  0.19874014  0.24206068  1
  Ti  Ti136  1  -0.00565362  0.21123178  0.50702009  1
  Ti  Ti137  1  0.40390615  0.80206407  0.50292870  1
  Ti  Ti138  1  0.40198438  0.40275277  0.74000038  1
  Ti  Ti139  1  0.30637505  0.89812846  0.36628826  1
  Ti  Ti140  1  0.90781760  0.89612642  0.86286611  1
  Ti  Ti141  1  0.69886045  0.90010928  0.37820968  1
  Ti  Ti142  1  0.39671966  -0.00851378  0.49993362  1
  Ti  Ti143  1  0.30747071  0.89368445  0.61663670  1
  Ti  Ti144  1  0.79639490  0.20113248  -0.00974268  1
  Ti  Ti145  1  0.79576098  0.59351541  0.75682243  1
  Ti  Ti146  1  0.40591838  0.59440314  0.50711333  1
  Ti  Ti147  1  0.59887282  0.40057890  0.01914250  1
  Ti  Ti148  1  0.32264800  0.49811044  0.37103117  1
  Ti  Ti149  1  0.59788793  0.39970886  0.74583973  1
  Ti  Ti150  1  0.49963675  0.29435657  0.63342613  1
  Ti  Ti151  1  0.30265526  0.10970342  0.60639820  1
  Ti  Ti152  1  0.40439259  0.58795836  0.24240231  1
  Ti  Ti153  1  0.59712887  0.19700186  0.00602909  1
  Ti  Ti154  1  0.20905133  0.79822952  0.50174230  1
  Ti  Ti155  1  0.49971882  0.09341059  0.90194444  1
  Ti  Ti156  1  0.90174473  0.70625323  0.13600215  1
  Ti  Ti157  1  0.00277563  -0.00735876  0.00534869  1
  Ti  Ti158  1  0.79693838  0.20142212  0.24871972  1
  Ti  Ti159  1  0.90128735  0.30636629  0.37434615  1
  Mo  Mo160  1  0.30257705  0.70430943  0.60878479  1
  Mo  Mo161  1  0.29746238  0.09825168  0.11878284  1
  Mo  Mo162  1  0.50139834  0.70812448  0.86993188  1
  Mo  Mo163  1  0.40518850  0.79943095  0.24677434  1
  Mo  Mo164  1  0.89450784  0.49325909  0.35972891  1
  Mo  Mo165  1  0.49834913  0.09671078  0.11055039  1
  Mo  Mo166  1  0.50209205  0.29922765  0.10941014  1
  Mo  Mo167  1  0.70047600  0.50621108  0.62455266  1
  Mo  Mo168  1  0.70345364  0.29758277  0.10442621  1
  Mo  Mo169  1  0.59414449  -0.00197205  0.00931577  1
  Mo  Mo170  1  0.79412160  0.39947218  -0.00251716  1
  Mo  Mo171  1  -0.00002397  0.80095995  0.73617076  1
  Mo  Mo172  1  0.59707850  0.40417423  0.23240014  1
  Mo  Mo173  1  -0.00129023  0.20287190  0.73720969  1
  Mo  Mo174  1  0.79100547  -0.00005115  0.48250478  1
  Mo  Mo175  1  0.40244997  0.19431607  0.00932756  1
  Mo  Mo176  1  0.90065848  0.50705794  0.85979859  1
  Mo  Mo177  1  0.50856322  0.50157852  0.12560959  1
  Mo  Mo178  1  0.39638975  -0.00059138  0.01956660  1
  Mo  Mo179  1  0.20236233  0.79895805  0.25819480  1
  Mo  Mo180  1  0.69451547  0.10716057  0.88896475  1
  Mo  Mo181  1  0.39909236  0.00195146  0.24323940  1
  Mo  Mo182  1  0.49618686  0.89658020  0.61380104  1
  Mo  Mo183  1  0.40517406  0.40104602  0.01718407  1
  Mo  Mo184  1  0.79357183  0.60642870  0.52127560  1
  Mo  Mo185  1  0.31341172  0.29434957  0.35613101  1
  Mo  Mo186  1  -0.00257039  0.79447902  0.26259815  1
  Mo  Mo187  1  0.79469294  0.59963471  0.23152356  1
  Mo  Mo188  1  0.50378308  0.49899155  0.35404725  1
  Mo  Mo189  1  0.19948850  0.59618807  0.73098232  1
  Mo  Mo190  1  0.49599782  0.49665752  0.64323050  1
  Mo  Mo191  1  -0.00837747  0.20312096  0.23870427  1
  Mo  Mo192  1  0.10010075  0.50211140  0.88647810  1
  Mo  Mo193  1  0.20033756  0.40062763  -0.00291088  1
  Mo  Mo194  1  0.20873431  0.19919024  0.50277452  1
  Mo  Mo195  1  0.69243214  0.49419654  0.89164509  1
  Mo  Mo196  1  0.50214920  0.90321034  0.12809156  1
  Mo  Mo197  1  -0.00586756  0.39090979  0.49818371  1
  Mo  Mo198  1  0.20105990  0.60777055  0.02725568  1
  Mo  Mo199  1  0.70129189  0.10689449  0.38060625  1
