# generated using pymatgen
data_HfZrTaTiMo
_symmetry_space_group_name_H-M   'P 1'
_cell_length_a   15.92568166
_cell_length_b   15.93355967
_cell_length_c   15.20393016
_cell_angle_alpha   89.96720453
_cell_angle_beta   90.03028123
_cell_angle_gamma   90.08132304
_symmetry_Int_Tables_number   1
_chemical_formula_structural   HfZrTaTiMo
_chemical_formula_sum   'Hf40 Zr40 Ta40 Ti40 Mo40'
_cell_volume   3858.03477890
_cell_formula_units_Z   40
loop_
 _symmetry_equiv_pos_site_id
 _symmetry_equiv_pos_as_xyz
  1  'x, y, z'
loop_
 _atom_site_type_symbol
 _atom_site_label
 _atom_site_symmetry_multiplicity
 _atom_site_fract_x
 _atom_site_fract_y
 _atom_site_fract_z
 _atom_site_occupancy
  Hf  Hf0  1  0.69592957  0.49491232  0.12717267  1
  Hf  Hf1  1  0.29677728  0.49544505  0.61730465  1
  Hf  Hf2  1  -0.00937696  0.60884558  0.23313233  1
  Hf  Hf3  1  0.59711686  0.20071559  0.23588486  1
  Hf  Hf4  1  -0.00378647  0.00964957  0.75857500  1
  Hf  Hf5  1  0.47965615  0.29870632  0.14069599  1
  Hf  Hf6  1  0.10925119  0.89965150  0.87448023  1
  Hf  Hf7  1  0.19332628  0.60833245  0.24621643  1
  Hf  Hf8  1  0.70687077  0.09930213  0.36279741  1
  Hf  Hf9  1  0.79533486  0.59945052  0.49318891  1
  Hf  Hf10  1  0.29252869  0.90529089  0.37583271  1
  Hf  Hf11  1  0.70672462  0.70435202  0.63515264  1
  Hf  Hf12  1  0.40362331  0.19822609  0.50935816  1
  Hf  Hf13  1  0.80888526  0.79325763  0.23927117  1
  Hf  Hf14  1  0.89195824  0.92637726  0.13187510  1
  Hf  Hf15  1  0.60222217  0.59911824  0.75501388  1
  Hf  Hf16  1  0.90983418  0.11562073  0.35622589  1
  Hf  Hf17  1  0.40218261  0.80615605  0.23695198  1
  Hf  Hf18  1  0.30315356  0.70294377  0.37379942  1
  Hf  Hf19  1  0.09321338  0.48596290  0.12497331  1
  Hf  Hf20  1  0.59712333  0.79612147  0.23106353  1
  Hf  Hf21  1  0.50375137  0.48530870  0.86299414  1
  Hf  Hf22  1  0.59312369  0.38595399  0.00891983  1
  Hf  Hf23  1  0.09653894  0.28970040  0.87317382  1
  Hf  Hf24  1  0.89985286  0.89907566  0.61824481  1
  Hf  Hf25  1  0.29166525  0.28957833  0.13290913  1
  Hf  Hf26  1  0.81004346  0.20039778  0.50740550  1
  Hf  Hf27  1  0.39105730  0.37983953  -0.01901955  1
  Hf  Hf28  1  0.10104260  0.69597288  0.87757350  1
  Hf  Hf29  1  0.38963539  0.58721811  -0.02073674  1
  Hf  Hf30  1  0.09731449  0.49110042  0.62432237  1
  Hf  Hf31  1  0.00880815  0.80132776  0.23091660  1
  Hf  Hf32  1  0.08637584  0.51114624  0.37498812  1
  Hf  Hf33  1  0.19474990  0.81183088  0.23746809  1
  Hf  Hf34  1  0.31418000  0.11513955  0.84756697  1
  Hf  Hf35  1  0.68567095  0.48469825  0.61579800  1
  Hf  Hf36  1  0.70723808  0.89729537  0.36437694  1
  Hf  Hf37  1  0.50650780  0.27162140  0.85466974  1
  Hf  Hf38  1  0.09970992  0.71615213  0.39343518  1
  Hf  Hf39  1  0.11533894  0.11279669  0.11106202  1
  Zr  Zr40  1  0.30129697  0.49148860  0.13332721  1
  Zr  Zr41  1  0.71909961  0.08938516  0.13445381  1
  Zr  Zr42  1  0.88674329  0.49869359  0.63521723  1
  Zr  Zr43  1  -0.00426801  0.80095894  0.01151036  1
  Zr  Zr44  1  0.29403453  0.70581852  0.86768117  1
  Zr  Zr45  1  -0.00757678  0.60214390  0.51428629  1
  Zr  Zr46  1  0.78027466  0.37782809  0.75361666  1
  Zr  Zr47  1  0.30916755  0.69067708  0.12060807  1
  Zr  Zr48  1  0.70334829  0.89544872  0.63114673  1
  Zr  Zr49  1  0.20871956  0.80038705  0.01095131  1
  Zr  Zr50  1  0.39782177  -0.00355929  0.52463104  1
  Zr  Zr51  1  0.49880407  0.70176447  0.37862059  1
  Zr  Zr52  1  0.58696590  0.01108081  -0.00929361  1
  Zr  Zr53  1  -0.00210202  0.39819007  0.75967376  1
  Zr  Zr54  1  0.88344271  0.49601180  0.11756608  1
  Zr  Zr55  1  0.19858926  0.19308323  0.26501685  1
  Zr  Zr56  1  0.59067828  -0.00675036  0.23990101  1
  Zr  Zr57  1  0.18937708  0.39045367  0.26720753  1
  Zr  Zr58  1  0.19227478  0.39026628  0.48288127  1
  Zr  Zr59  1  0.20123447  0.40189090  -0.01552249  1
  Zr  Zr60  1  0.21997512  0.01386841  -0.01583399  1
  Zr  Zr61  1  0.79913792  0.80456003  -0.00559758  1
  Zr  Zr62  1  0.70803605  0.49179120  0.88803448  1
  Zr  Zr63  1  0.39671513  0.59933832  0.74564695  1
  Zr  Zr64  1  0.80691717  0.00047376  0.76714900  1
  Zr  Zr65  1  -0.00829460  0.80425401  0.75829598  1
  Zr  Zr66  1  0.02164231  0.00804868  0.24884506  1
  Zr  Zr67  1  0.70575039  0.68832748  0.11524238  1
  Zr  Zr68  1  0.90625627  0.70532494  0.38066364  1
  Zr  Zr69  1  0.51007624  0.70328918  0.62779991  1
  Zr  Zr70  1  0.39244935  0.39134881  0.74776852  1
  Zr  Zr71  1  0.60343178  0.00566694  0.50471754  1
  Zr  Zr72  1  0.58868884  0.60158902  -0.00477507  1
  Zr  Zr73  1  0.49433850  0.89996427  0.38486737  1
  Zr  Zr74  1  0.50973360  0.89632304  0.64122544  1
  Zr  Zr75  1  0.29847822  0.09227881  0.38452072  1
  Zr  Zr76  1  -0.01181662  0.38879947  0.49038245  1
  Zr  Zr77  1  0.70058089  0.12717720  0.87390710  1
  Zr  Zr78  1  0.21587259  0.80610788  0.52585283  1
  Zr  Zr79  1  0.70174438  0.29496798  0.36918163  1
  Ta  Ta80  1  0.88896199  0.28953261  0.87954921  1
  Ta  Ta81  1  0.60442853  0.19969399  0.50731424  1
  Ta  Ta82  1  -0.00156867  0.59574789  0.00124783  1
  Ta  Ta83  1  0.09982246  0.90473377  0.62467280  1
  Ta  Ta84  1  0.80255341  0.79970036  0.49302122  1
  Ta  Ta85  1  0.10243038  0.90657344  0.39747268  1
  Ta  Ta86  1  0.69201309  0.50105739  0.37217847  1
  Ta  Ta87  1  0.51300836  0.11026612  0.65214380  1
  Ta  Ta88  1  0.39540094  0.60356814  0.50739933  1
  Ta  Ta89  1  0.38942750  0.39472189  0.27793919  1
  Ta  Ta90  1  0.59712874  0.19947691  0.01951321  1
  Ta  Ta91  1  0.91078346  0.90381365  0.37620188  1
  Ta  Ta92  1  0.80560770  0.20473669  0.01807725  1
  Ta  Ta93  1  0.49908269  0.29729606  0.37990497  1
  Ta  Ta94  1  -0.00519488  0.19721990  0.73980366  1
  Ta  Ta95  1  0.51334683  0.31136783  0.61849890  1
  Ta  Ta96  1  0.80092208  0.39936971  0.48366527  1
  Ta  Ta97  1  0.50097649  0.49462145  0.61214890  1
  Ta  Ta98  1  0.48664096  0.49947202  0.13979995  1
  Ta  Ta99  1  0.60648365  -0.00149615  0.76921453  1
  Ta  Ta100  1  -0.00360215  0.59974126  0.75462154  1
  Ta  Ta101  1  0.59127531  0.80347579  -0.00797513  1
  Ta  Ta102  1  0.90935638  0.30401541  0.13845101  1
  Ta  Ta103  1  -0.00197591  0.00949902  0.50365779  1
  Ta  Ta104  1  0.89602148  0.69094581  0.88069649  1
  Ta  Ta105  1  0.80772226  0.00340075  0.49095807  1
  Ta  Ta106  1  0.59347204  0.59761064  0.25121007  1
  Ta  Ta107  1  0.69837382  0.90198214  0.11366226  1
  Ta  Ta108  1  -0.00596908  0.39253537  -0.00787177  1
  Ta  Ta109  1  0.80613039  0.00739353  -0.01888893  1
  Ta  Ta110  1  0.19548335  0.59658901  0.74284516  1
  Ta  Ta111  1  -0.00306132  0.00977188  -0.01089973  1
  Ta  Ta112  1  0.49965735  0.10606782  0.36797697  1
  Ta  Ta113  1  0.09784283  0.70561413  0.63446647  1
  Ta  Ta114  1  0.19056691  0.19801700  0.50784884  1
  Ta  Ta115  1  0.41043146  0.17953867  -0.00206664  1
  Ta  Ta116  1  0.49528766  0.50210287  0.37924827  1
  Ta  Ta117  1  0.10806949  0.91726940  0.10874257  1
  Ta  Ta118  1  0.59250376  0.40231575  0.25425092  1
  Ta  Ta119  1  0.29328776  0.29834774  0.62009259  1
  Ti  Ti120  1  0.71197943  0.30673090  0.13239347  1
  Ti  Ti121  1  0.10064165  0.09720790  0.62556784  1
  Ti  Ti122  1  0.40296961  0.79989968  0.75241163  1
  Ti  Ti123  1  0.10409701  0.10676171  0.87309721  1
  Ti  Ti124  1  0.49210572  0.69036336  0.12045310  1
  Ti  Ti125  1  0.89727568  0.49668859  0.88182688  1
  Ti  Ti126  1  0.30699619  0.90208189  0.86317720  1
  Ti  Ti127  1  0.21845505  0.20937117  -0.01407088  1
  Ti  Ti128  1  0.89519930  0.70543868  0.63398679  1
  Ti  Ti129  1  0.60944355  0.79825184  0.49557661  1
  Ti  Ti130  1  0.29682202  0.09730764  0.63229838  1
  Ti  Ti131  1  0.10119942  0.50528168  0.87717574  1
  Ti  Ti132  1  0.70784984  0.09554904  0.62801952  1
  Ti  Ti133  1  0.39823769  0.00568573  0.24848252  1
  Ti  Ti134  1  0.59833678  0.60220647  0.49554004  1
  Ti  Ti135  1  0.79833514  0.59717865  0.26099399  1
  Ti  Ti136  1  0.19428777  0.20507848  0.73574062  1
  Ti  Ti137  1  0.00046422  0.19921904  0.51881019  1
  Ti  Ti138  1  0.69645477  0.70007575  0.36867327  1
  Ti  Ti139  1  0.20247468  0.60784361  0.51128569  1
  Ti  Ti140  1  0.30494398  0.91703068  0.11842386  1
  Ti  Ti141  1  0.80613088  0.40118557  0.26569119  1
  Ti  Ti142  1  0.20137984  -0.00259304  0.74492290  1
  Ti  Ti143  1  0.89961790  0.30334554  0.63005729  1
  Ti  Ti144  1  0.19912989  0.39758380  0.75682057  1
  Ti  Ti145  1  0.69860278  0.69931367  0.87826943  1
  Ti  Ti146  1  0.80111738  0.59929705  0.76018967  1
  Ti  Ti147  1  0.39781512  0.39833776  0.49230040  1
  Ti  Ti148  1  0.10575830  0.09199145  0.38869398  1
  Ti  Ti149  1  0.39736914  0.79859755  0.52194209  1
  Ti  Ti150  1  0.41029277  -0.00003799  0.75436717  1
  Ti  Ti151  1  0.07382470  0.27854742  0.36747327  1
  Ti  Ti152  1  0.48833412  0.91206517  0.10579295  1
  Ti  Ti153  1  0.40754157  0.80511507  -0.01203810  1
  Ti  Ti154  1  0.29924210  0.50937532  0.37997381  1
  Ti  Ti155  1  0.79563751  0.80609686  0.77297741  1
  Ti  Ti156  1  0.62946446  0.22145703  0.72810333  1
  Ti  Ti157  1  -0.00308779  0.20102419  0.00750167  1
  Ti  Ti158  1  0.81291575  0.19215818  0.73759157  1
  Ti  Ti159  1  0.31375146  0.10111179  0.13069586  1
  Mo  Mo160  1  0.90213811  0.09835160  0.61919974  1
  Mo  Mo161  1  0.28809880  0.49785582  0.86044425  1
  Mo  Mo162  1  0.90067319  0.29811386  0.35701990  1
  Mo  Mo163  1  0.30022794  0.69928537  0.63768799  1
  Mo  Mo164  1  0.19007233  0.59509352  0.00240971  1
  Mo  Mo165  1  0.90953573  0.10717028  0.12206719  1
  Mo  Mo166  1  0.69831539  0.29460286  0.89552977  1
  Mo  Mo167  1  0.39707534  0.20150843  0.71866546  1
  Mo  Mo168  1  0.89908761  0.69385151  0.10929618  1
  Mo  Mo169  1  0.29804576  0.29174209  0.85584411  1
  Mo  Mo170  1  0.10390936  0.69206852  0.10597828  1
  Mo  Mo171  1  0.80288341  0.59699390  -0.01485256  1
  Mo  Mo172  1  0.49977949  0.70449592  0.87112677  1
  Mo  Mo173  1  0.69670065  0.90118372  0.88745154  1
  Mo  Mo174  1  0.90276810  0.90112050  0.88115765  1
  Mo  Mo175  1  0.59532343  0.40045380  0.47793586  1
  Mo  Mo176  1  0.60469506  0.80067789  0.78208220  1
  Mo  Mo177  1  0.89204492  0.50131550  0.36347721  1
  Mo  Mo178  1  0.00976826  0.20543741  0.22854899  1
  Mo  Mo179  1  0.20089365  0.80256652  0.74273340  1
  Mo  Mo180  1  0.30196858  0.29464730  0.39912547  1
  Mo  Mo181  1  0.30234295  0.90216037  0.65442039  1
  Mo  Mo182  1  0.70444771  0.29973220  0.60069655  1
  Mo  Mo183  1  0.59754683  0.39585546  0.74882550  1
  Mo  Mo184  1  0.90744345  0.11388157  0.88692836  1
  Mo  Mo185  1  0.48819021  0.09950215  0.13685585  1
  Mo  Mo186  1  0.80891642  -0.00307587  0.26532796  1
  Mo  Mo187  1  -0.00601868  0.39986600  0.25960763  1
  Mo  Mo188  1  0.40070639  0.59474078  0.26164529  1
  Mo  Mo189  1  0.80598943  0.20383161  0.23313249  1
  Mo  Mo190  1  0.20697689  -0.00299785  0.23819365  1
  Mo  Mo191  1  0.09956535  0.29440686  0.63579141  1
  Mo  Mo192  1  0.50491239  0.10380506  0.85313884  1
  Mo  Mo193  1  0.09632978  0.29932049  0.11129646  1
  Mo  Mo194  1  0.80270354  0.38847469  -0.00227666  1
  Mo  Mo195  1  0.39691255  0.19903017  0.26776739  1
  Mo  Mo196  1  0.40075580  0.00078177  -0.01734335  1
  Mo  Mo197  1  0.00035685  0.80778626  0.51587054  1
  Mo  Mo198  1  0.19577364  0.00504361  0.52521777  1
  Mo  Mo199  1  0.49281324  0.89903302  0.87358064  1
