# generated using pymatgen
data_HfZrTaTiMo
_symmetry_space_group_name_H-M   'P 1'
_cell_length_a   15.91883638
_cell_length_b   15.93844172
_cell_length_c   15.21515449
_cell_angle_alpha   89.98723062
_cell_angle_beta   89.97698192
_cell_angle_gamma   90.00287251
_symmetry_Int_Tables_number   1
_chemical_formula_structural   HfZrTaTiMo
_chemical_formula_sum   'Hf40 Zr40 Ta40 Ti40 Mo40'
_cell_volume   3860.41058652
_cell_formula_units_Z   40
loop_
 _symmetry_equiv_pos_site_id
 _symmetry_equiv_pos_as_xyz
  1  'x, y, z'
loop_
 _atom_site_type_symbol
 _atom_site_label
 _atom_site_symmetry_multiplicity
 _atom_site_fract_x
 _atom_site_fract_y
 _atom_site_fract_z
 _atom_site_occupancy
  Hf  Hf0  1  0.69296944  0.70892024  0.64560880  1
  Hf  Hf1  1  0.60089376  0.79437439  -0.00722820  1
  Hf  Hf2  1  0.82009480  0.20923449  0.26068284  1
  Hf  Hf3  1  0.20472677  0.20303839  0.50876236  1
  Hf  Hf4  1  0.60474219  -0.00167634  -0.00626213  1
  Hf  Hf5  1  0.70725415  0.32120033  0.37888593  1
  Hf  Hf6  1  0.80289685  0.60052926  0.51057622  1
  Hf  Hf7  1  0.89279393  0.69982921  0.12665596  1
  Hf  Hf8  1  0.78293406  0.58318321  0.24922492  1
  Hf  Hf9  1  0.39013923  0.79908624  0.76009397  1
  Hf  Hf10  1  0.00019127  0.57695655  -0.01122966  1
  Hf  Hf11  1  -0.00863024  0.38445757  0.26813739  1
  Hf  Hf12  1  0.49586774  0.90487086  0.87001928  1
  Hf  Hf13  1  0.89778598  0.90691235  0.38170015  1
  Hf  Hf14  1  0.61030486  0.41660124  0.23757126  1
  Hf  Hf15  1  0.91012986  0.49137949  0.13051578  1
  Hf  Hf16  1  0.28840718  0.68736980  0.62794163  1
  Hf  Hf17  1  -0.00088481  0.78517304  0.50955932  1
  Hf  Hf18  1  0.19755230  0.79189111  0.23093721  1
  Hf  Hf19  1  0.09978619  0.90196069  0.86691636  1
  Hf  Hf20  1  0.89536999  0.69594666  0.86407330  1
  Hf  Hf21  1  0.49048728  0.49199804  0.61574111  1
  Hf  Hf22  1  0.40145876  0.59205017  0.22788490  1
  Hf  Hf23  1  0.50334595  0.31008941  0.61392548  1
  Hf  Hf24  1  0.10703475  0.50230431  0.64092260  1
  Hf  Hf25  1  0.79489922  0.79954578  0.50830938  1
  Hf  Hf26  1  0.49216231  0.10368588  0.63190731  1
  Hf  Hf27  1  0.40741425  0.79182448  0.23762334  1
  Hf  Hf28  1  0.91466531  0.49863742  0.63621745  1
  Hf  Hf29  1  0.49997844  0.90031961  0.64033403  1
  Hf  Hf30  1  0.80140301  0.20652260  0.50759709  1
  Hf  Hf31  1  0.19335196  0.59787601  0.49390630  1
  Hf  Hf32  1  0.69356914  0.90597772  0.36764140  1
  Hf  Hf33  1  0.19678733  0.00579770  0.01008768  1
  Hf  Hf34  1  0.89703218  0.09723802  0.62414912  1
  Hf  Hf35  1  0.38840852  0.80427453  0.50653245  1
  Hf  Hf36  1  0.70084276  0.10243048  0.37845443  1
  Hf  Hf37  1  0.78913102  0.80641528  -0.01077598  1
  Hf  Hf38  1  0.48486346  0.11551452  0.87700232  1
  Hf  Hf39  1  0.69579868  0.50887053  0.85845517  1
  Zr  Zr40  1  0.10038282  0.69292858  0.86662046  1
  Zr  Zr41  1  0.20563863  0.40065488  0.49474024  1
  Zr  Zr42  1  0.36231329  0.00813325  0.75563500  1
  Zr  Zr43  1  0.39551039  0.20068470  0.23905302  1
  Zr  Zr44  1  0.23156878  0.19658674  0.74075753  1
  Zr  Zr45  1  0.00032680  0.20420517  0.75083391  1
  Zr  Zr46  1  0.10732050  0.89243403  0.38297490  1
  Zr  Zr47  1  0.40201842  0.79049654  0.00322970  1
  Zr  Zr48  1  0.11096729  0.10048678  0.86632402  1
  Zr  Zr49  1  0.89737517  0.90256323  0.86694385  1
  Zr  Zr50  1  0.59759967  0.80657356  0.49589300  1
  Zr  Zr51  1  0.50808243  0.29446700  0.11080628  1
  Zr  Zr52  1  0.70663056  0.31266422  0.85941105  1
  Zr  Zr53  1  0.61217025  0.59389321  0.50091951  1
  Zr  Zr54  1  0.89178133  0.69829585  0.36711302  1
  Zr  Zr55  1  0.70087843  0.90257537  0.13643172  1
  Zr  Zr56  1  0.60299724  0.20617918  0.24995176  1
  Zr  Zr57  1  0.29747201  0.09545912  0.37228773  1
  Zr  Zr58  1  0.50062831  0.09757875  0.38498356  1
  Zr  Zr59  1  0.69867674  0.10893871  0.87199385  1
  Zr  Zr60  1  -0.00008720  0.00948601  0.24977657  1
  Zr  Zr61  1  0.89944114  0.90361479  0.12221939  1
  Zr  Zr62  1  0.61251567  0.40513742  0.00640270  1
  Zr  Zr63  1  0.29399776  0.69883982  0.37703848  1
  Zr  Zr64  1  0.10192546  0.09818839  0.62596312  1
  Zr  Zr65  1  0.30582357  0.90681802  0.13037929  1
  Zr  Zr66  1  0.49474252  0.69047681  0.37922488  1
  Zr  Zr67  1  0.30047093  0.90301571  0.36558440  1
  Zr  Zr68  1  0.08466486  0.69387406  0.12196159  1
  Zr  Zr69  1  0.21022293  0.39418724  0.25244599  1
  Zr  Zr70  1  0.70315934  0.11132839  0.12123721  1
  Zr  Zr71  1  0.11554906  0.31145890  0.87497512  1
  Zr  Zr72  1  0.20177483  0.80089015  0.00139291  1
  Zr  Zr73  1  0.59819046  0.20704164  0.74209563  1
  Zr  Zr74  1  0.38705894  0.57889416  0.75526404  1
  Zr  Zr75  1  0.19997422  0.58837456  0.01077299  1
  Zr  Zr76  1  0.78876353  0.60055026  -0.00088923  1
  Zr  Zr77  1  0.09627505  0.31997853  0.11132005  1
  Zr  Zr78  1  0.10074527  0.09468208  0.38644659  1
  Zr  Zr79  1  0.49660574  0.69414948  0.63385186  1
  Ta  Ta80  1  0.89450413  0.89824124  0.63001340  1
  Ta  Ta81  1  0.40192872  0.38523751  0.76859125  1
  Ta  Ta82  1  0.79952731  0.40754190  0.51704077  1
  Ta  Ta83  1  0.70017973  0.90412411  0.64481288  1
  Ta  Ta84  1  0.90172629  0.30446922  0.87635008  1
  Ta  Ta85  1  0.20918549  0.19968808  0.01742973  1
  Ta  Ta86  1  0.50210175  0.49422931  0.38396730  1
  Ta  Ta87  1  0.50529575  0.68544309  0.86762031  1
  Ta  Ta88  1  0.90422132  0.29693764  0.11055083  1
  Ta  Ta89  1  -0.00425663  0.79502805  0.73870692  1
  Ta  Ta90  1  0.80153934  0.00591050  -0.00889384  1
  Ta  Ta91  1  0.89833441  0.48872245  0.85609523  1
  Ta  Ta92  1  0.88623086  0.48679645  0.37615757  1
  Ta  Ta93  1  0.21016366  -0.01217084  0.51965415  1
  Ta  Ta94  1  0.00327806  0.19852531  -0.00599599  1
  Ta  Ta95  1  -0.00196188  0.79984918  0.25361958  1
  Ta  Ta96  1  -0.00014923  0.59178286  0.48880190  1
  Ta  Ta97  1  0.29951632  0.69102870  0.87773438  1
  Ta  Ta98  1  0.89941246  0.10497563  0.87336702  1
  Ta  Ta99  1  0.00355143  0.19736733  0.25255394  1
  Ta  Ta100  1  0.59301900  0.00429654  0.24122991  1
  Ta  Ta101  1  0.41028343  0.40033064  0.24578691  1
  Ta  Ta102  1  0.20044246  0.59326016  0.24139318  1
  Ta  Ta103  1  0.50116409  0.49682964  0.88102283  1
  Ta  Ta104  1  0.09995047  0.49848698  0.36615149  1
  Ta  Ta105  1  0.20497548  0.80515312  0.74918336  1
  Ta  Ta106  1  0.10037560  0.30988106  0.63207086  1
  Ta  Ta107  1  -0.00281303  -0.00259142  0.74342366  1
  Ta  Ta108  1  0.39802939  0.20353047  0.50335242  1
  Ta  Ta109  1  0.19407476  0.19704372  0.23180906  1
  Ta  Ta110  1  0.80257763  0.60119097  0.73795210  1
  Ta  Ta111  1  0.80613878  0.40452594  0.00604458  1
  Ta  Ta112  1  0.60585850  0.00343883  0.51841230  1
  Ta  Ta113  1  0.39755772  0.39981900  -0.00006057  1
  Ta  Ta114  1  -0.00098258  0.59406039  0.26144416  1
  Ta  Ta115  1  0.80520394  0.01412735  0.25636776  1
  Ta  Ta116  1  0.80039503  0.20820805  -0.00354735  1
  Ta  Ta117  1  0.50473858  0.30558875  0.38477383  1
  Ta  Ta118  1  0.00252284  0.39873167  0.49307244  1
  Ta  Ta119  1  0.09964583  0.89331032  0.62821972  1
  Ti  Ti120  1  -0.00243023  -0.00293529  0.50762185  1
  Ti  Ti121  1  0.90715948  0.30872032  0.63147840  1
  Ti  Ti122  1  0.09917049  0.69842842  0.36921733  1
  Ti  Ti123  1  0.49945967  0.90816861  0.37411605  1
  Ti  Ti124  1  0.40268678  0.59661700  0.00845554  1
  Ti  Ti125  1  0.59194412  0.59885422  0.23799393  1
  Ti  Ti126  1  0.68949326  0.49121972  0.64502271  1
  Ti  Ti127  1  0.08792704  0.90171937  0.12303163  1
  Ti  Ti128  1  0.30939817  0.29808482  0.37352877  1
  Ti  Ti129  1  0.21933617  0.40661507  0.74664077  1
  Ti  Ti130  1  0.29712974  0.48526965  0.11913296  1
  Ti  Ti131  1  0.79338906  0.00240395  0.50652873  1
  Ti  Ti132  1  0.69326410  0.70304413  0.13382047  1
  Ti  Ti133  1  0.79776280  0.80316791  0.25267354  1
  Ti  Ti134  1  0.09471458  0.68912340  0.63827589  1
  Ti  Ti135  1  0.31395236  0.31461314  0.61899730  1
  Ti  Ti136  1  0.10569140  0.29314182  0.37702140  1
  Ti  Ti137  1  0.49939159  0.10076376  0.10667733  1
  Ti  Ti138  1  0.50439404  0.29782862  0.88679453  1
  Ti  Ti139  1  -0.00137545  0.00607534  -0.00302063  1
  Ti  Ti140  1  0.60305488  0.00567271  0.75210435  1
  Ti  Ti141  1  0.69384060  0.69964696  0.36565793  1
  Ti  Ti142  1  -0.00460627  0.80008391  -0.00414378  1
  Ti  Ti143  1  0.38861168  0.00592467  -0.00471250  1
  Ti  Ti144  1  -0.00317118  0.20708361  0.49616661  1
  Ti  Ti145  1  0.31284107  0.50255968  0.37705172  1
  Ti  Ti146  1  0.39947484  -0.00177338  0.50916768  1
  Ti  Ti147  1  0.59243920  0.79991800  0.24764946  1
  Ti  Ti148  1  0.79617629  0.00506238  0.75308870  1
  Ti  Ti149  1  0.69336854  0.70457059  0.85276900  1
  Ti  Ti150  1  0.29109231  0.48962512  0.88744277  1
  Ti  Ti151  1  0.80113989  0.20358991  0.73982438  1
  Ti  Ti152  1  0.90304865  0.10485643  0.11261006  1
  Ti  Ti153  1  0.60630543  0.19968401  0.50821954  1
  Ti  Ti154  1  0.69747651  0.31225766  0.62930944  1
  Ti  Ti155  1  0.50328306  0.90421412  0.11914374  1
  Ti  Ti156  1  0.31189973  0.28629397  0.89126895  1
  Ti  Ti157  1  0.19356467  0.01171534  0.22983691  1
  Ti  Ti158  1  0.59399532  0.60170736  0.01373712  1
  Ti  Ti159  1  0.40894010  0.00561242  0.24075834  1
  Mo  Mo160  1  0.20330250  0.59627395  0.76200075  1
  Mo  Mo161  1  0.00654379  0.39649125  0.75915702  1
  Mo  Mo162  1  0.00130899  0.59808388  0.76159619  1
  Mo  Mo163  1  0.30314687  0.10149047  0.12602137  1
  Mo  Mo164  1  0.30362344  0.49255224  0.61611622  1
  Mo  Mo165  1  0.69974650  0.50375115  0.38052467  1
  Mo  Mo166  1  0.39965212  0.39683605  0.47835987  1
  Mo  Mo167  1  0.70323117  0.50724451  0.11661267  1
  Mo  Mo168  1  0.59397345  0.59718598  0.74736825  1
  Mo  Mo169  1  0.29843989  0.10498205  0.89606188  1
  Mo  Mo170  1  0.49759218  0.49968284  0.10805910  1
  Mo  Mo171  1  0.19684449  -0.00639392  0.73955865  1
  Mo  Mo172  1  0.69771627  0.90399830  0.85787245  1
  Mo  Mo173  1  0.30353599  0.30392469  0.11857735  1
  Mo  Mo174  1  0.79846920  0.80337362  0.74896685  1
  Mo  Mo175  1  0.60442452  0.20164033  -0.00295366  1
  Mo  Mo176  1  0.39836799  0.21245802  0.74264126  1
  Mo  Mo177  1  0.09044654  0.10868168  0.11907856  1
  Mo  Mo178  1  0.30159092  0.68894892  0.11831708  1
  Mo  Mo179  1  0.39862804  0.19857379  0.01201640  1
  Mo  Mo180  1  0.59497154  0.80522763  0.76689413  1
  Mo  Mo181  1  -0.00050230  0.39970819  -0.01757475  1
  Mo  Mo182  1  0.71689430  0.30540278  0.12833973  1
  Mo  Mo183  1  0.18973142  0.79443862  0.51822676  1
  Mo  Mo184  1  0.80214470  0.39731936  0.73268292  1
  Mo  Mo185  1  0.90278910  0.30139401  0.39506449  1
  Mo  Mo186  1  0.90305142  0.69666056  0.63487959  1
  Mo  Mo187  1  0.90171052  0.09965181  0.39589445  1
  Mo  Mo188  1  0.80175873  0.39523615  0.23446037  1
  Mo  Mo189  1  0.58846901  0.40361500  0.75850516  1
  Mo  Mo190  1  0.29759441  0.89228219  0.62145896  1
  Mo  Mo191  1  0.20642218  0.39935257  0.00159818  1
  Mo  Mo192  1  0.10587596  0.49460154  0.85646326  1
  Mo  Mo193  1  0.29133122  0.89645053  0.88840308  1
  Mo  Mo194  1  0.60944191  0.40203755  0.49664734  1
  Mo  Mo195  1  0.09759637  0.49733299  0.14680860  1
  Mo  Mo196  1  0.70091863  0.09857578  0.62755527  1
  Mo  Mo197  1  0.50816461  0.69858318  0.12010368  1
  Mo  Mo198  1  0.39294463  0.59152413  0.50177235  1
  Mo  Mo199  1  0.30527216  0.09924974  0.60519864  1
