# generated using pymatgen
data_HfZrTaTiMo
_symmetry_space_group_name_H-M   'P 1'
_cell_length_a   15.93063244
_cell_length_b   15.92717212
_cell_length_c   15.21317516
_cell_angle_alpha   90.06411755
_cell_angle_beta   90.01666514
_cell_angle_gamma   89.99413285
_symmetry_Int_Tables_number   1
_chemical_formula_structural   HfZrTaTiMo
_chemical_formula_sum   'Hf40 Zr40 Ta40 Ti40 Mo40'
_cell_volume   3860.03518741
_cell_formula_units_Z   40
loop_
 _symmetry_equiv_pos_site_id
 _symmetry_equiv_pos_as_xyz
  1  'x, y, z'
loop_
 _atom_site_type_symbol
 _atom_site_label
 _atom_site_symmetry_multiplicity
 _atom_site_fract_x
 _atom_site_fract_y
 _atom_site_fract_z
 _atom_site_occupancy
  Hf  Hf0  1  0.29901560  0.90153251  0.87855529  1
  Hf  Hf1  1  0.69881926  0.70291001  0.12153121  1
  Hf  Hf2  1  0.70866198  0.08951690  0.14132174  1
  Hf  Hf3  1  0.21208007  0.39987453  0.51685714  1
  Hf  Hf4  1  0.29703610  0.49318051  0.13643783  1
  Hf  Hf5  1  0.19837905  0.80082545  0.24068836  1
  Hf  Hf6  1  0.79222362  0.79486755  0.26301680  1
  Hf  Hf7  1  0.49988113  0.49920237  0.13757172  1
  Hf  Hf8  1  0.09373836  0.89402877  0.86778156  1
  Hf  Hf9  1  0.20049766  0.39539185  0.74651541  1
  Hf  Hf10  1  0.88864550  0.90533115  0.63032789  1
  Hf  Hf11  1  0.50586437  0.09913102  0.35580804  1
  Hf  Hf12  1  0.89280582  0.69662892  0.87707723  1
  Hf  Hf13  1  0.79555038  0.59288077  0.25663417  1
  Hf  Hf14  1  0.59553846  0.79837762  0.75566137  1
  Hf  Hf15  1  0.79342343  0.79052466  0.48735961  1
  Hf  Hf16  1  0.69710870  0.32018684  0.62493159  1
  Hf  Hf17  1  0.41293787  0.00392651  0.00694764  1
  Hf  Hf18  1  -0.01793302  0.58588337  0.74973666  1
  Hf  Hf19  1  0.59533966  0.19399929  0.02217869  1
  Hf  Hf20  1  0.59417822  0.22477649  0.23633582  1
  Hf  Hf21  1  0.79930295  0.19759008  0.01073074  1
  Hf  Hf22  1  0.19470841  0.79125047  -0.00181534  1
  Hf  Hf23  1  0.87798552  0.89752737  0.09846125  1
  Hf  Hf24  1  0.29708675  0.09856242  0.36737591  1
  Hf  Hf25  1  0.40620928  0.40423472  0.76228085  1
  Hf  Hf26  1  0.30629722  0.10325990  0.64144663  1
  Hf  Hf27  1  0.70958292  0.09018776  0.63237421  1
  Hf  Hf28  1  0.89994550  0.70138147  0.11984546  1
  Hf  Hf29  1  0.69821435  0.70137554  0.88226837  1
  Hf  Hf30  1  0.90664346  0.11130237  0.62182248  1
  Hf  Hf31  1  0.39297786  0.58446878  -0.01423666  1
  Hf  Hf32  1  0.59805609  0.59325912  0.00100272  1
  Hf  Hf33  1  0.39536858  -0.00074791  0.49750482  1
  Hf  Hf34  1  -0.00236546  0.00625518  0.75122963  1
  Hf  Hf35  1  0.50155222  0.69388933  0.61657595  1
  Hf  Hf36  1  0.01629714  0.00038596  0.51746535  1
  Hf  Hf37  1  0.09119589  0.49835389  0.62077087  1
  Hf  Hf38  1  0.41223275  0.38720178  0.26347072  1
  Hf  Hf39  1  0.69899717  0.89350840  0.61659542  1
  Zr  Zr40  1  0.10107521  0.10294102  0.11670727  1
  Zr  Zr41  1  0.40582229  0.20522525  0.49211860  1
  Zr  Zr42  1  0.81052456  0.21303097  0.74695489  1
  Zr  Zr43  1  0.10715233  0.31185967  0.11088808  1
  Zr  Zr44  1  0.50025714  0.89573748  0.62044380  1
  Zr  Zr45  1  0.90204801  0.29801191  0.37935495  1
  Zr  Zr46  1  0.50415447  0.10469121  0.87409950  1
  Zr  Zr47  1  0.10218020  0.10128477  0.37049767  1
  Zr  Zr48  1  0.08751331  0.90565794  0.11680625  1
  Zr  Zr49  1  0.19274082  0.80804776  0.51276091  1
  Zr  Zr50  1  0.90463456  0.09508794  0.38125672  1
  Zr  Zr51  1  0.70385841  0.30012837  0.87992178  1
  Zr  Zr52  1  0.21184899  0.61028330  0.51664486  1
  Zr  Zr53  1  0.11404615  0.49798616  0.38152521  1
  Zr  Zr54  1  -0.00452911  0.38471082  0.75306094  1
  Zr  Zr55  1  0.38926133  0.78923804  0.49390801  1
  Zr  Zr56  1  0.88929743  0.69190068  0.62713876  1
  Zr  Zr57  1  0.90731691  0.09471555  0.13512886  1
  Zr  Zr58  1  0.20084181  0.21822070  0.24541670  1
  Zr  Zr59  1  0.81157626  -0.02393399  0.26475755  1
  Zr  Zr60  1  0.70646507  0.10480782  0.36154138  1
  Zr  Zr61  1  0.09367954  0.69564106  0.86235032  1
  Zr  Zr62  1  -0.00605399  0.01007089  -0.02062269  1
  Zr  Zr63  1  0.80687843  0.41598724  0.74637030  1
  Zr  Zr64  1  0.00121458  0.59688593  0.25566243  1
  Zr  Zr65  1  0.59708880  0.00603999  0.49774265  1
  Zr  Zr66  1  0.29506510  0.10373265  0.10935073  1
  Zr  Zr67  1  0.19699180  0.19685230  0.51370464  1
  Zr  Zr68  1  0.40316023  -0.00895903  0.23946557  1
  Zr  Zr69  1  0.91097291  0.48935376  0.12696419  1
  Zr  Zr70  1  0.40914156  -0.00568929  0.75746481  1
  Zr  Zr71  1  0.50613357  0.49608960  0.62012669  1
  Zr  Zr72  1  0.79175782  0.41275558  0.48629882  1
  Zr  Zr73  1  -0.00031750  0.80115955  0.50015411  1
  Zr  Zr74  1  0.60744875  0.40035384  0.01544503  1
  Zr  Zr75  1  0.21501574  0.40945436  -0.02507509  1
  Zr  Zr76  1  0.60255044  0.20799612  0.49982420  1
  Zr  Zr77  1  0.39970421  0.61191984  0.26188770  1
  Zr  Zr78  1  0.59349508  0.21227668  0.74486278  1
  Zr  Zr79  1  0.39711979  0.80404558  0.25001334  1
  Ta  Ta80  1  0.10023483  0.70649796  0.36725519  1
  Ta  Ta81  1  0.08934372  0.70006795  0.63907093  1
  Ta  Ta82  1  0.49485434  0.69900419  0.11529465  1
  Ta  Ta83  1  0.69728858  0.68840544  0.62763273  1
  Ta  Ta84  1  0.50709004  0.89469760  0.88740383  1
  Ta  Ta85  1  0.90196439  0.30448081  0.89690076  1
  Ta  Ta86  1  0.88862295  0.89566536  0.87215220  1
  Ta  Ta87  1  0.00632293  0.59410807  0.00037327  1
  Ta  Ta88  1  0.20079020  -0.00602880  0.24201619  1
  Ta  Ta89  1  0.29850358  0.69692443  0.86812930  1
  Ta  Ta90  1  0.90838926  0.29869541  0.12700217  1
  Ta  Ta91  1  0.68963799  0.89733666  0.38404177  1
  Ta  Ta92  1  0.00407581  0.20679710  0.25396769  1
  Ta  Ta93  1  0.20121533  0.79729382  0.74292824  1
  Ta  Ta94  1  0.49531448  0.30233403  0.89532070  1
  Ta  Ta95  1  0.40329505  0.20280559  0.23594517  1
  Ta  Ta96  1  0.19484821  0.20701895  0.75057830  1
  Ta  Ta97  1  0.51126645  0.51083114  0.37018366  1
  Ta  Ta98  1  -0.00383329  0.59846199  0.49049919  1
  Ta  Ta99  1  0.09575485  0.90742003  0.36545292  1
  Ta  Ta100  1  0.30177624  0.10690543  0.87518570  1
  Ta  Ta101  1  0.29712383  0.69440279  0.11497850  1
  Ta  Ta102  1  0.50029705  0.10656283  0.63578756  1
  Ta  Ta103  1  0.19593053  0.00250451  0.74964266  1
  Ta  Ta104  1  0.09632139  0.69514724  0.12837240  1
  Ta  Ta105  1  0.59785292  0.40253807  0.47967659  1
  Ta  Ta106  1  0.09801708  0.50103729  0.86703544  1
  Ta  Ta107  1  -0.01233826  0.81332449  0.25533852  1
  Ta  Ta108  1  0.79898756  0.20489049  0.50790721  1
  Ta  Ta109  1  0.79177959  0.80005050  0.75473729  1
  Ta  Ta110  1  0.59876766  0.40877386  0.76246273  1
  Ta  Ta111  1  0.29303004  0.90034592  0.10461934  1
  Ta  Ta112  1  0.32022038  0.30015384  0.63424896  1
  Ta  Ta113  1  0.59011644  0.79938398  0.24423539  1
  Ta  Ta114  1  0.79731803  0.58887675  0.01005168  1
  Ta  Ta115  1  0.39961224  0.79374829  -0.00264398  1
  Ta  Ta116  1  0.29985754  0.89885855  0.63606843  1
  Ta  Ta117  1  0.20770139  0.59541097  0.73935083  1
  Ta  Ta118  1  0.29438765  0.30551617  0.37642972  1
  Ta  Ta119  1  0.01524690  0.39291892  0.26470915  1
  Ti  Ti120  1  0.80098020  0.39885800  0.24958799  1
  Ti  Ti121  1  0.79507681  0.59531546  0.47996478  1
  Ti  Ti122  1  0.28587383  0.90273852  0.37840425  1
  Ti  Ti123  1  0.59757305  0.80625873  0.01018008  1
  Ti  Ti124  1  0.50550304  0.88639683  0.38440057  1
  Ti  Ti125  1  0.90511917  0.69775615  0.37430640  1
  Ti  Ti126  1  0.19781458  -0.00201648  0.52161019  1
  Ti  Ti127  1  0.40196007  0.59792984  0.75440335  1
  Ti  Ti128  1  0.70673720  0.50350176  0.87362117  1
  Ti  Ti129  1  0.10938422  0.10539179  0.87311670  1
  Ti  Ti130  1  0.28849876  0.69936853  0.37269526  1
  Ti  Ti131  1  0.88668633  0.10277010  0.86921184  1
  Ti  Ti132  1  0.10814271  0.49910246  0.12810249  1
  Ti  Ti133  1  0.19992442  0.60264935  0.24806669  1
  Ti  Ti134  1  0.89567665  0.49714354  0.89138601  1
  Ti  Ti135  1  -0.00321616  0.79280309  -0.00295880  1
  Ti  Ti136  1  0.31096536  0.30789231  0.11103578  1
  Ti  Ti137  1  0.19593338  0.59687244  -0.00716176  1
  Ti  Ti138  1  0.60551899  -0.00339495  0.01644493  1
  Ti  Ti139  1  0.59586020  -0.02031919  0.23541967  1
  Ti  Ti140  1  0.30193435  0.49786859  0.36884170  1
  Ti  Ti141  1  0.67373587  0.69271905  0.36927673  1
  Ti  Ti142  1  0.49797627  0.69905706  0.88111210  1
  Ti  Ti143  1  0.31143158  0.29046038  0.87205539  1
  Ti  Ti144  1  0.70232402  0.90255829  0.88944914  1
  Ti  Ti145  1  0.70145142  0.09439908  0.87409047  1
  Ti  Ti146  1  0.59992497  0.59520426  0.75743434  1
  Ti  Ti147  1  0.00293702  0.20404334  -0.00990168  1
  Ti  Ti148  1  0.20140383  0.20749799  -0.01506297  1
  Ti  Ti149  1  0.40485862  0.40297341  0.49492358  1
  Ti  Ti150  1  0.39467504  0.59266005  0.49669113  1
  Ti  Ti151  1  0.60598089  -0.00643940  0.75497780  1
  Ti  Ti152  1  0.07964602  0.29268821  0.61107264  1
  Ti  Ti153  1  0.00987257  0.40309630  -0.00923584  1
  Ti  Ti154  1  0.39916635  0.79205947  0.75593059  1
  Ti  Ti155  1  0.70168863  0.30293838  0.36165074  1
  Ti  Ti156  1  0.89659377  0.49454051  0.60499544  1
  Ti  Ti157  1  0.00501735  0.20495915  0.76219667  1
  Ti  Ti158  1  0.79732648  0.40178968  0.01617075  1
  Ti  Ti159  1  0.61182463  0.59108708  0.49713058  1
  Mo  Mo160  1  0.80564636  0.21058974  0.23986481  1
  Mo  Mo161  1  0.29795103  0.50667388  0.85654155  1
  Mo  Mo162  1  0.69970387  0.51265275  0.63042705  1
  Mo  Mo163  1  0.79328622  -0.00095696  0.76855768  1
  Mo  Mo164  1  0.60732451  0.40754832  0.25386286  1
  Mo  Mo165  1  0.78898754  0.59802003  0.75476279  1
  Mo  Mo166  1  0.80136362  -0.00152276  0.48855367  1
  Mo  Mo167  1  0.90397832  0.49959389  0.37562842  1
  Mo  Mo168  1  0.00189397  0.40174303  0.48946025  1
  Mo  Mo169  1  0.49944310  0.89198165  0.11128370  1
  Mo  Mo170  1  0.71421569  0.30423374  0.13695820  1
  Mo  Mo171  1  0.69391694  0.89509551  0.11904558  1
  Mo  Mo172  1  0.59573700  0.60933657  0.24271888  1
  Mo  Mo173  1  0.60028444  0.78717480  0.49510943  1
  Mo  Mo174  1  0.10218304  0.10676077  0.64379935  1
  Mo  Mo175  1  0.20642736  0.40361671  0.25539821  1
  Mo  Mo176  1  0.90228389  0.30439903  0.60285441  1
  Mo  Mo177  1  0.20189392  0.00250831  -0.02417728  1
  Mo  Mo178  1  0.50722493  0.50223105  0.86993807  1
  Mo  Mo179  1  0.78938679  0.00476995  -0.01493742  1
  Mo  Mo180  1  -0.00799636  0.79956651  0.74509202  1
  Mo  Mo181  1  0.69482222  0.50178938  0.35704486  1
  Mo  Mo182  1  0.50264013  0.69789877  0.39196249  1
  Mo  Mo183  1  0.30774594  0.70082845  0.64536146  1
  Mo  Mo184  1  0.39798225  0.20427412  0.01130615  1
  Mo  Mo185  1  0.40069112  0.20751047  0.75289166  1
  Mo  Mo186  1  0.00098347  0.20250402  0.49677100  1
  Mo  Mo187  1  0.50127509  0.30803986  0.61262387  1
  Mo  Mo188  1  0.49988933  0.30387935  0.38282600  1
  Mo  Mo189  1  0.90124236  0.89775567  0.39608253  1
  Mo  Mo190  1  0.40206334  0.40127278  -0.01205855  1
  Mo  Mo191  1  0.10029066  0.29532010  0.88209624  1
  Mo  Mo192  1  0.79346752  0.79627725  -0.01242795  1
  Mo  Mo193  1  0.30962103  0.49970520  0.63260435  1
  Mo  Mo194  1  0.00426367  -0.00559630  0.25000880  1
  Mo  Mo195  1  0.10199440  0.30147715  0.38964058  1
  Mo  Mo196  1  0.70369542  0.49994907  0.14074599  1
  Mo  Mo197  1  0.48988645  0.30529930  0.11032336  1
  Mo  Mo198  1  0.50404762  0.09820547  0.13679160  1
  Mo  Mo199  1  0.09827958  0.89842184  0.64731509  1
