# generated using pymatgen
data_HfZrTaTiMo
_symmetry_space_group_name_H-M   'P 1'
_cell_length_a   15.91863913
_cell_length_b   15.93113571
_cell_length_c   15.21008548
_cell_angle_alpha   89.99788389
_cell_angle_beta   89.96556265
_cell_angle_gamma   89.87197251
_symmetry_Int_Tables_number   1
_chemical_formula_structural   HfZrTaTiMo
_chemical_formula_sum   'Hf40 Zr40 Ta40 Ti40 Mo40'
_cell_volume   3857.29777450
_cell_formula_units_Z   40
loop_
 _symmetry_equiv_pos_site_id
 _symmetry_equiv_pos_as_xyz
  1  'x, y, z'
loop_
 _atom_site_type_symbol
 _atom_site_label
 _atom_site_symmetry_multiplicity
 _atom_site_fract_x
 _atom_site_fract_y
 _atom_site_fract_z
 _atom_site_occupancy
  Hf  Hf0  1  -0.00442403  0.80597917  0.25687665  1
  Hf  Hf1  1  0.71251052  0.70773354  0.88573194  1
  Hf  Hf2  1  0.39652352  0.20041605  0.74982033  1
  Hf  Hf3  1  0.79880701  0.39860968  0.76574889  1
  Hf  Hf4  1  0.51068632  0.69198891  0.88076023  1
  Hf  Hf5  1  0.79136217  0.19761205  0.50925976  1
  Hf  Hf6  1  0.60288294  0.00109904  -0.01141994  1
  Hf  Hf7  1  0.20893478  0.80277194  0.26082236  1
  Hf  Hf8  1  0.40663154  0.40908115  0.49417511  1
  Hf  Hf9  1  0.00218559  0.77232954  0.00156442  1
  Hf  Hf10  1  0.30432516  0.50340520  0.63553824  1
  Hf  Hf11  1  0.51265462  0.28740081  0.39212596  1
  Hf  Hf12  1  0.89585645  0.10620826  0.65017644  1
  Hf  Hf13  1  -0.01164226  0.80507944  0.48221747  1
  Hf  Hf14  1  0.30264706  0.09883617  0.10417643  1
  Hf  Hf15  1  0.69943829  0.69156045  0.37683851  1
  Hf  Hf16  1  0.69927330  0.30329961  0.63230358  1
  Hf  Hf17  1  0.59411894  0.00155200  0.74590389  1
  Hf  Hf18  1  0.19042986  0.39654283  -0.00537901  1
  Hf  Hf19  1  0.10353292  0.89623459  0.63224735  1
  Hf  Hf20  1  0.80019977  0.59576165  0.74041129  1
  Hf  Hf21  1  0.60724982  0.40144519  -0.00805580  1
  Hf  Hf22  1  -0.00108653  0.00246377  0.49707254  1
  Hf  Hf23  1  0.40468268  0.60278680  0.25058366  1
  Hf  Hf24  1  0.09590241  0.68957991  0.37303119  1
  Hf  Hf25  1  0.69752575  0.68810415  0.12981853  1
  Hf  Hf26  1  0.60777574  0.80236006  0.74627791  1
  Hf  Hf27  1  0.09314066  0.90698555  0.11506099  1
  Hf  Hf28  1  0.19375673  0.39868407  0.49780374  1
  Hf  Hf29  1  0.09707856  0.10345202  0.36513389  1
  Hf  Hf30  1  0.30652628  0.50177710  0.87616569  1
  Hf  Hf31  1  0.49049523  0.90707931  0.37874501  1
  Hf  Hf32  1  0.18006500  0.60715754  -0.00911579  1
  Hf  Hf33  1  0.40821221  0.19448945  0.24274804  1
  Hf  Hf34  1  0.79280897  0.20028939  0.24628492  1
  Hf  Hf35  1  0.09646953  0.89389127  0.88384403  1
  Hf  Hf36  1  0.00310370  0.39269388  -0.00956448  1
  Hf  Hf37  1  0.49552002  0.69733259  0.61784514  1
  Hf  Hf38  1  0.30441517  0.29431704  0.37618967  1
  Hf  Hf39  1  0.69462317  0.68590482  0.60588890  1
  Zr  Zr40  1  0.20184037  0.59703850  0.49416924  1
  Zr  Zr41  1  0.29707297  0.50544919  0.12248054  1
  Zr  Zr42  1  0.59533884  0.80477468  0.24547436  1
  Zr  Zr43  1  0.00759572  0.39276866  0.25259358  1
  Zr  Zr44  1  0.60658583  0.01405744  0.52107838  1
  Zr  Zr45  1  0.71105080  0.90989576  0.37590048  1
  Zr  Zr46  1  0.10713889  0.10086510  0.63883726  1
  Zr  Zr47  1  0.19685121  0.19989499  0.23618298  1
  Zr  Zr48  1  0.29233437  0.90200643  0.62733780  1
  Zr  Zr49  1  0.89858720  0.29218869  0.37410427  1
  Zr  Zr50  1  0.30364269  0.70573326  0.89037012  1
  Zr  Zr51  1  0.30643043  0.30048820  0.11079867  1
  Zr  Zr52  1  0.09085860  0.70367261  0.62557356  1
  Zr  Zr53  1  0.49679700  0.10293096  0.38534332  1
  Zr  Zr54  1  0.29977959  0.30075858  0.62725209  1
  Zr  Zr55  1  0.00034519  0.20214307  0.51148938  1
  Zr  Zr56  1  0.41414352  0.40067842  0.24628633  1
  Zr  Zr57  1  0.90771402  0.88885631  0.63751704  1
  Zr  Zr58  1  0.30000674  0.70547984  0.62292011  1
  Zr  Zr59  1  0.78239994  -0.00978786  0.75903113  1
  Zr  Zr60  1  0.29028937  0.90103691  0.10490601  1
  Zr  Zr61  1  0.49571330  0.70151023  0.38001270  1
  Zr  Zr62  1  0.90020441  0.49898998  0.13419284  1
  Zr  Zr63  1  0.49257933  0.89691278  0.87837723  1
  Zr  Zr64  1  0.90655935  0.29102419  0.12536709  1
  Zr  Zr65  1  0.90835480  0.09191184  0.11252113  1
  Zr  Zr66  1  0.60276751  0.81101281  0.50264622  1
  Zr  Zr67  1  0.59856131  0.01007312  0.24051931  1
  Zr  Zr68  1  0.09099295  0.49949673  0.63447044  1
  Zr  Zr69  1  0.60864174  0.39862775  0.25718767  1
  Zr  Zr70  1  0.88644393  0.68002026  0.37332641  1
  Zr  Zr71  1  0.51198996  0.50643296  0.63097006  1
  Zr  Zr72  1  0.80421560  0.80833793  0.24382797  1
  Zr  Zr73  1  0.79985828  -0.00352612  0.51666149  1
  Zr  Zr74  1  0.89168085  0.88009209  0.88124987  1
  Zr  Zr75  1  0.79790141  0.21131038  -0.01747167  1
  Zr  Zr76  1  0.48937618  0.10704829  0.88296418  1
  Zr  Zr77  1  0.10142559  0.69173064  0.14219670  1
  Zr  Zr78  1  0.79814902  0.40301927  -0.01230301  1
  Zr  Zr79  1  0.90534042  0.09908770  0.87835298  1
  Ta  Ta80  1  0.69906152  0.10556491  0.11206467  1
  Ta  Ta81  1  0.10206918  0.29631440  0.37050791  1
  Ta  Ta82  1  0.79673960  0.79160628  0.73344879  1
  Ta  Ta83  1  0.29996721  0.70244568  0.11708217  1
  Ta  Ta84  1  0.00421521  -0.00305386  0.76466641  1
  Ta  Ta85  1  0.50433514  0.30060040  0.87591323  1
  Ta  Ta86  1  0.79348815  -0.00261036  -0.01049963  1
  Ta  Ta87  1  0.48872930  0.89674787  0.62503039  1
  Ta  Ta88  1  0.60291557  0.79997745  0.00853425  1
  Ta  Ta89  1  0.50416371  0.30350463  0.62054012  1
  Ta  Ta90  1  0.41132607  0.40489996  -0.00454216  1
  Ta  Ta91  1  0.19689814  0.60423831  0.75868528  1
  Ta  Ta92  1  0.19939770  0.79826983  0.76800302  1
  Ta  Ta93  1  -0.00766442  -0.00347090  0.25350914  1
  Ta  Ta94  1  0.29654934  0.90949711  0.88642776  1
  Ta  Ta95  1  0.81041704  0.60470509  0.00261748  1
  Ta  Ta96  1  0.03225184  0.19551455  -0.00752986  1
  Ta  Ta97  1  0.90265158  0.68655669  0.13889576  1
  Ta  Ta98  1  0.19861750  0.19908160  0.49739974  1
  Ta  Ta99  1  0.30353773  0.29742635  0.88039637  1
  Ta  Ta100  1  0.49400041  0.90665054  0.11560843  1
  Ta  Ta101  1  0.29584544  0.10281437  0.62060390  1
  Ta  Ta102  1  0.39561388  0.00167904  0.51078501  1
  Ta  Ta103  1  0.30119018  0.09659918  0.38427286  1
  Ta  Ta104  1  0.70471100  0.90354855  0.11306447  1
  Ta  Ta105  1  0.49903892  0.10418936  0.10512765  1
  Ta  Ta106  1  0.39626612  0.80365780  0.24090690  1
  Ta  Ta107  1  0.00378921  0.20986719  0.76359392  1
  Ta  Ta108  1  0.20295534  0.80224390  0.48120419  1
  Ta  Ta109  1  -0.00298366  0.39836011  0.49884011  1
  Ta  Ta110  1  0.50151817  0.69740418  0.12071423  1
  Ta  Ta111  1  0.90220262  0.30674191  0.63736623  1
  Ta  Ta112  1  0.19929489  0.39949538  0.76220764  1
  Ta  Ta113  1  0.30037205  0.49914631  0.36623953  1
  Ta  Ta114  1  0.61329833  0.40274264  0.48906034  1
  Ta  Ta115  1  0.39712436  0.80278832  0.75584915  1
  Ta  Ta116  1  0.69411724  0.11569566  0.37398082  1
  Ta  Ta117  1  0.90508378  0.50930631  0.87401990  1
  Ta  Ta118  1  0.17705553  0.02300011  -0.00783932  1
  Ta  Ta119  1  0.89112283  0.09363560  0.36777669  1
  Ti  Ti120  1  0.09636800  0.49656135  0.36955420  1
  Ti  Ti121  1  0.59788131  0.20140338  0.74321181  1
  Ti  Ti122  1  0.70185893  0.50407189  0.12953790  1
  Ti  Ti123  1  0.69449914  0.51774381  0.87694863  1
  Ti  Ti124  1  0.69343812  0.11523602  0.86949444  1
  Ti  Ti125  1  0.39688773  0.60000870  0.48613817  1
  Ti  Ti126  1  0.40280129  0.60628650  0.75508013  1
  Ti  Ti127  1  0.90955890  0.69129611  0.86237886  1
  Ti  Ti128  1  -0.00262938  0.40124185  0.75613381  1
  Ti  Ti129  1  0.20116855  0.00127840  0.24654731  1
  Ti  Ti130  1  0.09439513  0.50349982  0.13092947  1
  Ti  Ti131  1  0.39299689  -0.00029026  0.24331734  1
  Ti  Ti132  1  0.49177362  0.11043408  0.61953423  1
  Ti  Ti133  1  0.79650174  0.39884547  0.26050121  1
  Ti  Ti134  1  0.39400469  0.00149992  0.74570552  1
  Ti  Ti135  1  0.20536437  0.59697615  0.25616475  1
  Ti  Ti136  1  0.20120466  0.39966890  0.24593572  1
  Ti  Ti137  1  0.60148692  0.40501009  0.75981950  1
  Ti  Ti138  1  0.40850306  0.59653974  0.00734326  1
  Ti  Ti139  1  0.50724300  0.29434856  0.10545652  1
  Ti  Ti140  1  0.80779122  0.40460100  0.49823715  1
  Ti  Ti141  1  0.29486031  0.10648114  0.88521288  1
  Ti  Ti142  1  0.69994382  0.30262521  0.12095940  1
  Ti  Ti143  1  -0.01502683  0.58004293  0.49649701  1
  Ti  Ti144  1  0.19867290  0.00159249  0.49556581  1
  Ti  Ti145  1  0.80037660  0.00234153  0.24044986  1
  Ti  Ti146  1  0.40330546  0.80027099  0.00723043  1
  Ti  Ti147  1  0.71255789  0.50791573  0.37713129  1
  Ti  Ti148  1  0.90023963  0.89850711  0.10636976  1
  Ti  Ti149  1  0.90016327  0.69062215  0.61606376  1
  Ti  Ti150  1  0.50581937  0.50661102  0.87171079  1
  Ti  Ti151  1  0.30520529  0.90483141  0.38061527  1
  Ti  Ti152  1  0.60134029  0.20372269  0.23789639  1
  Ti  Ti153  1  0.51836381  0.51008314  0.12135589  1
  Ti  Ti154  1  0.08961223  0.50935039  0.86396061  1
  Ti  Ti155  1  0.20350823  0.00480787  0.76462513  1
  Ti  Ti156  1  0.69922916  0.49878105  0.61876914  1
  Ti  Ti157  1  0.10253200  0.29970981  0.63783208  1
  Ti  Ti158  1  0.40684904  0.39918550  0.75798323  1
  Ti  Ti159  1  0.10248065  0.90721813  0.37236220  1
  Mo  Mo160  1  0.20369477  0.20320074  0.76110835  1
  Mo  Mo161  1  -0.00170925  0.79243941  0.75491312  1
  Mo  Mo162  1  0.79552107  0.58777342  0.24019024  1
  Mo  Mo163  1  0.39188509  0.80528203  0.49701524  1
  Mo  Mo164  1  0.39642418  0.19911064  0.51260033  1
  Mo  Mo165  1  0.89747046  0.48993094  0.62635156  1
  Mo  Mo166  1  0.60276255  0.20384183  0.52097244  1
  Mo  Mo167  1  -0.00626221  0.59643796  0.74277338  1
  Mo  Mo168  1  -0.00368089  0.00074898  -0.01130761  1
  Mo  Mo169  1  0.39477024  0.00223727  -0.00264769  1
  Mo  Mo170  1  0.70326629  0.29878559  0.38428278  1
  Mo  Mo171  1  0.59835544  0.59047816  0.25993051  1
  Mo  Mo172  1  0.69639546  0.10478786  0.64891319  1
  Mo  Mo173  1  0.89857913  0.90919312  0.37562494  1
  Mo  Mo174  1  0.89737723  0.49192800  0.37260081  1
  Mo  Mo175  1  0.09697473  0.09723287  0.13772210  1
  Mo  Mo176  1  0.60395645  0.20572695  0.00246037  1
  Mo  Mo177  1  0.69936327  0.89278966  0.62124056  1
  Mo  Mo178  1  0.68956737  0.29933048  0.85651846  1
  Mo  Mo179  1  0.80318860  0.79275409  0.51503272  1
  Mo  Mo180  1  0.79848887  0.20444658  0.75714310  1
  Mo  Mo181  1  0.10547830  0.30388956  0.85970042  1
  Mo  Mo182  1  0.80189332  0.58308295  0.51457662  1
  Mo  Mo183  1  0.50432497  0.50040345  0.37692935  1
  Mo  Mo184  1  0.19726720  0.20494519  -0.00585298  1
  Mo  Mo185  1  0.00092817  0.58986419  0.26576907  1
  Mo  Mo186  1  0.90729181  0.30373989  0.86664036  1
  Mo  Mo187  1  0.60360025  0.59590518  -0.00038535  1
  Mo  Mo188  1  0.30060349  0.70233265  0.36957317  1
  Mo  Mo189  1  0.10710097  0.10111383  0.85765229  1
  Mo  Mo190  1  0.80502050  0.79392643  0.01985898  1
  Mo  Mo191  1  -0.00098286  0.19022173  0.24619063  1
  Mo  Mo192  1  0.69904135  0.88984361  0.89177351  1
  Mo  Mo193  1  0.59888860  0.58440944  0.48090963  1
  Mo  Mo194  1  0.40192142  0.20786705  -0.00800808  1
  Mo  Mo195  1  0.19910046  0.80076090  -0.00769064  1
  Mo  Mo196  1  0.09218956  0.69601926  0.85721880  1
  Mo  Mo197  1  0.60459538  0.59612160  0.75835564  1
  Mo  Mo198  1  -0.00379355  0.59127013  -0.00395836  1
  Mo  Mo199  1  0.10196836  0.29914354  0.13183977  1
