# generated using pymatgen
data_HfZrTaTiMo
_symmetry_space_group_name_H-M   'P 1'
_cell_length_a   15.92677124
_cell_length_b   15.92461354
_cell_length_c   15.20202048
_cell_angle_alpha   89.95055209
_cell_angle_beta   90.04091167
_cell_angle_gamma   90.07868167
_symmetry_Int_Tables_number   1
_chemical_formula_structural   HfZrTaTiMo
_chemical_formula_sum   'Hf40 Zr40 Ta40 Ti40 Mo40'
_cell_volume   3855.64708925
_cell_formula_units_Z   40
loop_
 _symmetry_equiv_pos_site_id
 _symmetry_equiv_pos_as_xyz
  1  'x, y, z'
loop_
 _atom_site_type_symbol
 _atom_site_label
 _atom_site_symmetry_multiplicity
 _atom_site_fract_x
 _atom_site_fract_y
 _atom_site_fract_z
 _atom_site_occupancy
  Hf  Hf0  1  0.20024633  0.40891896  0.25596799  1
  Hf  Hf1  1  0.21292944  0.18482188  0.50096661  1
  Hf  Hf2  1  0.50162308  0.09177316  0.88037801  1
  Hf  Hf3  1  0.30143364  0.30212077  0.12932388  1
  Hf  Hf4  1  0.20431912  0.60870600  0.25089336  1
  Hf  Hf5  1  0.89495771  0.50148256  0.62071980  1
  Hf  Hf6  1  0.68440479  0.87967832  0.85987975  1
  Hf  Hf7  1  0.89826626  0.10077128  0.12150384  1
  Hf  Hf8  1  0.10752258  0.09849047  0.36458051  1
  Hf  Hf9  1  0.68748161  0.89522199  0.37779004  1
  Hf  Hf10  1  0.49620451  0.49413375  0.12073057  1
  Hf  Hf11  1  0.90312373  0.89473823  0.13052085  1
  Hf  Hf12  1  0.70258122  0.50021583  0.61386928  1
  Hf  Hf13  1  0.29430564  0.69977207  0.62329059  1
  Hf  Hf14  1  0.20464368  0.40141720  0.75617809  1
  Hf  Hf15  1  0.50989523  0.49761972  0.88026197  1
  Hf  Hf16  1  0.29242907  0.10444784  0.87523344  1
  Hf  Hf17  1  0.19679309  0.79663586  0.75142112  1
  Hf  Hf18  1  0.00219296  0.60366789  0.75084232  1
  Hf  Hf19  1  0.59307768  0.38590981  0.24874059  1
  Hf  Hf20  1  -0.01101393  0.60252934  0.49208644  1
  Hf  Hf21  1  0.10752463  0.70534994  0.39115892  1
  Hf  Hf22  1  0.09097718  0.29752105  0.14108987  1
  Hf  Hf23  1  0.50710311  0.49743014  0.62504802  1
  Hf  Hf24  1  0.50025401  0.49878938  0.37488863  1
  Hf  Hf25  1  0.70398031  0.29335922  0.11256768  1
  Hf  Hf26  1  0.79809480  0.00230021  0.75928239  1
  Hf  Hf27  1  0.00353217  -0.00789480  0.50109820  1
  Hf  Hf28  1  0.40568896  0.21115392  0.76195143  1
  Hf  Hf29  1  0.80520142  0.20821076  0.50234136  1
  Hf  Hf30  1  0.70250335  0.69447888  0.61710754  1
  Hf  Hf31  1  0.09762575  0.29103189  0.86658806  1
  Hf  Hf32  1  0.40473835  0.39553199  0.75861419  1
  Hf  Hf33  1  -0.00334541  0.40050419  -0.00450260  1
  Hf  Hf34  1  0.50268780  0.70591972  0.38226705  1
  Hf  Hf35  1  0.38014510  0.00498062  0.50420502  1
  Hf  Hf36  1  0.59120073  -0.00675800  0.51061327  1
  Hf  Hf37  1  0.10347457  0.09575280  0.63992327  1
  Hf  Hf38  1  0.09082021  0.70574013  0.11746832  1
  Hf  Hf39  1  0.40253596  0.60347960  0.50519210  1
  Zr  Zr40  1  0.78941203  0.00270113  0.26010955  1
  Zr  Zr41  1  -0.00310338  0.59902866  -0.01296873  1
  Zr  Zr42  1  0.20532597  0.80086137  0.24182397  1
  Zr  Zr43  1  0.60781269  0.60632160  0.76087708  1
  Zr  Zr44  1  0.79850920  0.79419640  -0.00296513  1
  Zr  Zr45  1  0.89710389  0.49342312  0.14355359  1
  Zr  Zr46  1  -0.02006178  0.20416675  0.74173622  1
  Zr  Zr47  1  0.10308549  0.29686219  0.61744299  1
  Zr  Zr48  1  -0.00239532  0.40278469  0.74344007  1
  Zr  Zr49  1  0.30726563  0.29374698  0.36897305  1
  Zr  Zr50  1  0.80728371  0.80783072  0.50355896  1
  Zr  Zr51  1  0.60198852  0.19903222  0.49923273  1
  Zr  Zr52  1  0.10030134  0.10022024  0.13168762  1
  Zr  Zr53  1  0.30537365  0.90825369  0.87306919  1
  Zr  Zr54  1  0.18929010  0.80470784  -0.00930864  1
  Zr  Zr55  1  0.30288792  0.50650209  0.11886938  1
  Zr  Zr56  1  0.42338793  0.81321173  0.00065164  1
  Zr  Zr57  1  0.09663812  0.28960225  0.37062373  1
  Zr  Zr58  1  0.79539290  0.19365801  0.25887117  1
  Zr  Zr59  1  0.80077629  0.59612803  -0.01171715  1
  Zr  Zr60  1  0.59468542  -0.02041927  0.00046165  1
  Zr  Zr61  1  0.29896408  0.91116562  0.11004845  1
  Zr  Zr62  1  0.29779690  0.49931778  0.62380304  1
  Zr  Zr63  1  0.54083257  0.29255611  0.89089485  1
  Zr  Zr64  1  -0.00303646  0.60489751  0.26545771  1
  Zr  Zr65  1  0.20121699  0.82265728  0.51557748  1
  Zr  Zr66  1  0.49026028  0.09926205  0.38090490  1
  Zr  Zr67  1  0.79735036  -0.00580273  -0.01082030  1
  Zr  Zr68  1  0.60267160  0.59837493  0.24716286  1
  Zr  Zr69  1  0.40222297  0.79370986  0.23700855  1
  Zr  Zr70  1  0.49644518  0.09304281  0.11283408  1
  Zr  Zr71  1  0.10697442  0.90428298  0.36671188  1
  Zr  Zr72  1  0.39881788  0.38972514  -0.01677445  1
  Zr  Zr73  1  0.60885208  0.18540391  0.25157165  1
  Zr  Zr74  1  0.80300027  0.78809633  0.26208692  1
  Zr  Zr75  1  0.19067786  0.40398662  -0.00457149  1
  Zr  Zr76  1  0.70088534  0.47385365  0.87610490  1
  Zr  Zr77  1  0.40242781  0.60882438  0.75635418  1
  Zr  Zr78  1  0.41786387  0.21441252  0.24109046  1
  Zr  Zr79  1  0.89723766  0.08902875  0.61720628  1
  Ta  Ta80  1  0.90397244  0.30472078  0.36349022  1
  Ta  Ta81  1  0.39867377  -0.00250294  0.24443415  1
  Ta  Ta82  1  0.49949515  0.29866415  0.61495073  1
  Ta  Ta83  1  0.29739868  0.10337133  0.64885033  1
  Ta  Ta84  1  0.19415127  0.60206627  -0.01401800  1
  Ta  Ta85  1  0.90186232  0.29933210  0.13990812  1
  Ta  Ta86  1  0.20250797  0.40205218  0.49360364  1
  Ta  Ta87  1  -0.00362378  0.39757708  0.49508114  1
  Ta  Ta88  1  0.79870311  0.59106252  0.27803419  1
  Ta  Ta89  1  0.30126049  0.50769531  0.87979692  1
  Ta  Ta90  1  0.40114134  0.39292332  0.49426210  1
  Ta  Ta91  1  0.09021171  0.90651848  0.12677082  1
  Ta  Ta92  1  0.30402173  0.69561759  0.10039678  1
  Ta  Ta93  1  0.30360664  0.70795071  0.39044709  1
  Ta  Ta94  1  0.30167930  0.50693223  0.37917925  1
  Ta  Ta95  1  0.09695531  0.09929427  0.86280928  1
  Ta  Ta96  1  0.40344748  0.81466856  0.51208858  1
  Ta  Ta97  1  -0.00458194  0.19910459  -0.00458841  1
  Ta  Ta98  1  -0.00352504  -0.00182347  -0.01649511  1
  Ta  Ta99  1  0.49079639  0.10396253  0.62803512  1
  Ta  Ta100  1  0.60425219  0.78817550  0.02036882  1
  Ta  Ta101  1  0.59138051  0.80465295  0.51404290  1
  Ta  Ta102  1  0.80277712  0.60061989  0.76182619  1
  Ta  Ta103  1  0.29632918  0.10440168  0.12218941  1
  Ta  Ta104  1  0.09078943  0.90697319  0.85925436  1
  Ta  Ta105  1  0.90918670  0.10490034  0.38495660  1
  Ta  Ta106  1  0.69579317  0.11807686  0.88303730  1
  Ta  Ta107  1  0.49276482  0.89840326  0.36848020  1
  Ta  Ta108  1  -0.00264446  0.80366009  0.51571033  1
  Ta  Ta109  1  0.60587052  0.60596458  0.00104838  1
  Ta  Ta110  1  0.30606493  0.70332279  0.88078066  1
  Ta  Ta111  1  0.78545562  0.20931603  0.73449433  1
  Ta  Ta112  1  0.59875851  0.00246494  0.74090687  1
  Ta  Ta113  1  0.88394011  0.29510199  0.88001241  1
  Ta  Ta114  1  0.10534507  0.50760963  0.61036139  1
  Ta  Ta115  1  0.70844588  0.68855946  0.13336223  1
  Ta  Ta116  1  0.70208814  0.30681104  0.37838742  1
  Ta  Ta117  1  0.69454960  0.69214794  0.39398175  1
  Ta  Ta118  1  0.19369187  0.59970861  0.76576718  1
  Ta  Ta119  1  -0.00636453  -0.00064994  0.25640323  1
  Ti  Ti120  1  0.89551008  0.69745811  0.62445931  1
  Ti  Ti121  1  0.09397983  0.50450492  0.13058427  1
  Ti  Ti122  1  0.09294096  0.70663147  0.87308985  1
  Ti  Ti123  1  0.80325932  0.40703478  0.48504484  1
  Ti  Ti124  1  0.61395376  0.37819238  0.73500098  1
  Ti  Ti125  1  0.29380219  0.09578871  0.35009930  1
  Ti  Ti126  1  0.39783313  0.60469740  0.24891039  1
  Ti  Ti127  1  0.80497704  0.39466383  0.00294964  1
  Ti  Ti128  1  0.30443028  0.29510637  0.62135412  1
  Ti  Ti129  1  0.29869920  0.90673443  0.36965455  1
  Ti  Ti130  1  0.70204136  0.09456270  0.61503544  1
  Ti  Ti131  1  0.70633939  0.90286369  0.62687357  1
  Ti  Ti132  1  0.50436530  0.70343550  0.62598345  1
  Ti  Ti133  1  0.19626821  0.20421405  -0.00120313  1
  Ti  Ti134  1  0.90112616  0.90223306  0.37661407  1
  Ti  Ti135  1  0.51932486  0.72150524  0.86941558  1
  Ti  Ti136  1  0.70543611  0.49400743  0.12699138  1
  Ti  Ti137  1  0.10065154  0.49934714  0.38398166  1
  Ti  Ti138  1  0.89723538  0.71032339  0.86544601  1
  Ti  Ti139  1  0.29550011  0.91225298  0.64317683  1
  Ti  Ti140  1  -0.00949133  0.80418256  0.73854076  1
  Ti  Ti141  1  0.59779186  -0.00209471  0.24748644  1
  Ti  Ti142  1  -0.00274022  0.79783555  0.26124521  1
  Ti  Ti143  1  0.89518096  0.10678706  0.87518337  1
  Ti  Ti144  1  0.40025282  0.20210151  -0.00322758  1
  Ti  Ti145  1  0.09330479  0.91038334  0.64494276  1
  Ti  Ti146  1  0.10083181  0.69541741  0.61934971  1
  Ti  Ti147  1  0.59833492  0.79457238  0.23923187  1
  Ti  Ti148  1  0.41340600  0.61221204  -0.00967210  1
  Ti  Ti149  1  0.60139949  0.39892558  0.49373970  1
  Ti  Ti150  1  0.18798777  0.00515179  -0.00560875  1
  Ti  Ti151  1  0.89717085  0.48998206  0.86394206  1
  Ti  Ti152  1  0.40663059  0.00049581  0.74904299  1
  Ti  Ti153  1  0.89876234  0.69531718  0.12760443  1
  Ti  Ti154  1  -0.00812334  0.80984554  -0.01198969  1
  Ti  Ti155  1  0.79928026  0.79634990  0.74417193  1
  Ti  Ti156  1  0.70048967  0.89644951  0.13393388  1
  Ti  Ti157  1  0.79940090  0.38485596  0.73710516  1
  Ti  Ti158  1  0.60890428  0.19797615  0.73238246  1
  Ti  Ti159  1  0.41103765  0.80593403  0.74559617  1
  Mo  Mo160  1  0.20260811  0.00016121  0.51890401  1
  Mo  Mo161  1  -0.00614452  0.19583278  0.25061480  1
  Mo  Mo162  1  0.49274609  0.90499102  0.63508949  1
  Mo  Mo163  1  0.89620666  0.30629874  0.60724004  1
  Mo  Mo164  1  0.50373656  0.29996396  0.10847310  1
  Mo  Mo165  1  0.29369852  0.29750778  0.88254590  1
  Mo  Mo166  1  0.50740566  0.89772114  0.14652506  1
  Mo  Mo167  1  0.50356263  0.30294179  0.39385087  1
  Mo  Mo168  1  0.70205352  0.08958596  0.10749533  1
  Mo  Mo169  1  0.40302084  0.40738602  0.26517491  1
  Mo  Mo170  1  -0.00869665  0.00036727  0.76272669  1
  Mo  Mo171  1  0.50352497  0.69171231  0.12228568  1
  Mo  Mo172  1  0.19955885  -0.00088733  0.75218425  1
  Mo  Mo173  1  0.39649193  0.19986756  0.51409881  1
  Mo  Mo174  1  0.59886623  0.80363612  0.72483654  1
  Mo  Mo175  1  0.70394514  0.09368801  0.39655980  1
  Mo  Mo176  1  0.69840213  0.49611047  0.38628632  1
  Mo  Mo177  1  0.20564146  0.20529831  0.75061187  1
  Mo  Mo178  1  0.79643116  0.00051428  0.49107477  1
  Mo  Mo179  1  0.80783746  0.19643259  0.00463977  1
  Mo  Mo180  1  0.00072452  0.20133237  0.49927584  1
  Mo  Mo181  1  0.89921051  0.49377705  0.37450003  1
  Mo  Mo182  1  0.50259656  0.89912886  0.85359682  1
  Mo  Mo183  1  0.69989173  0.30779787  0.60730276  1
  Mo  Mo184  1  0.79384611  0.39939125  0.25964286  1
  Mo  Mo185  1  0.09825504  0.50271145  0.87069719  1
  Mo  Mo186  1  0.60667649  0.18974129  0.01628765  1
  Mo  Mo187  1  0.70052922  0.69894129  0.87044100  1
  Mo  Mo188  1  0.00004208  0.40392806  0.26228127  1
  Mo  Mo189  1  0.60692211  0.40375091  0.02176424  1
  Mo  Mo190  1  0.20311449  -0.00040025  0.23620843  1
  Mo  Mo191  1  0.71170310  0.29214573  0.88425678  1
  Mo  Mo192  1  0.80052479  0.59805675  0.48620124  1
  Mo  Mo193  1  0.19848833  0.60033409  0.49134121  1
  Mo  Mo194  1  0.39558199  0.00545074  0.00271425  1
  Mo  Mo195  1  0.20681363  0.19830325  0.24397731  1
  Mo  Mo196  1  0.89978555  0.70612799  0.38696908  1
  Mo  Mo197  1  0.59716171  0.60154775  0.50173255  1
  Mo  Mo198  1  0.90015577  0.89494286  0.85974488  1
  Mo  Mo199  1  0.89838213  0.89664353  0.63821817  1
