# generated using pymatgen
data_HfZrTaTiMo
_symmetry_space_group_name_H-M   'P 1'
_cell_length_a   15.92174606
_cell_length_b   15.93282448
_cell_length_c   15.21150676
_cell_angle_alpha   89.97052424
_cell_angle_beta   89.94404919
_cell_angle_gamma   89.96106295
_symmetry_Int_Tables_number   1
_chemical_formula_structural   HfZrTaTiMo
_chemical_formula_sum   'Hf40 Zr40 Ta40 Ti40 Mo40'
_cell_volume   3858.82723378
_cell_formula_units_Z   40
loop_
 _symmetry_equiv_pos_site_id
 _symmetry_equiv_pos_as_xyz
  1  'x, y, z'
loop_
 _atom_site_type_symbol
 _atom_site_label
 _atom_site_symmetry_multiplicity
 _atom_site_fract_x
 _atom_site_fract_y
 _atom_site_fract_z
 _atom_site_occupancy
  Hf  Hf0  1  0.19053878  0.00074658  0.00326719  1
  Hf  Hf1  1  0.80221409  0.77875188  0.74885035  1
  Hf  Hf2  1  0.50283269  0.10868613  0.10969041  1
  Hf  Hf3  1  0.50759471  0.09604283  0.37601847  1
  Hf  Hf4  1  0.00166784  0.20158584  -0.01387952  1
  Hf  Hf5  1  0.60234975  0.39498413  0.23861131  1
  Hf  Hf6  1  0.20924382  0.19002628  0.75337855  1
  Hf  Hf7  1  0.80674617  0.00677855  0.73294964  1
  Hf  Hf8  1  0.70430524  0.89890666  0.86734481  1
  Hf  Hf9  1  0.30300227  0.89457660  0.12772606  1
  Hf  Hf10  1  0.40321650  0.79640303  -0.00793253  1
  Hf  Hf11  1  0.09562252  0.69213806  0.38038063  1
  Hf  Hf12  1  0.68721661  0.88770406  0.64364606  1
  Hf  Hf13  1  0.40848744  0.20883793  0.49942741  1
  Hf  Hf14  1  0.30050729  0.50058330  0.11705902  1
  Hf  Hf15  1  0.00069841  0.19373361  0.27227868  1
  Hf  Hf16  1  0.30000662  0.50929805  0.37567999  1
  Hf  Hf17  1  0.18339156  0.80452751  0.74207239  1
  Hf  Hf18  1  0.80947850  0.60064892  0.24124471  1
  Hf  Hf19  1  0.40199809  0.20931572  0.25219473  1
  Hf  Hf20  1  0.19881450  0.79367883  0.25566262  1
  Hf  Hf21  1  0.49429061  0.70130147  0.35736598  1
  Hf  Hf22  1  0.68318087  0.69277833  0.13346989  1
  Hf  Hf23  1  0.30357452  0.09790517  0.38837973  1
  Hf  Hf24  1  0.50863472  0.90933785  0.85451302  1
  Hf  Hf25  1  0.20209305  0.20474577  0.26458668  1
  Hf  Hf26  1  0.90582849  0.89450026  0.87703681  1
  Hf  Hf27  1  0.29929287  0.69565417  0.62911601  1
  Hf  Hf28  1  0.69984390  0.09453467  0.87481414  1
  Hf  Hf29  1  -0.00159963  0.59483830  0.24635747  1
  Hf  Hf30  1  0.59034278  0.79126430  -0.00943794  1
  Hf  Hf31  1  0.60285481  -0.00798800  0.00954857  1
  Hf  Hf32  1  0.60715477  0.41210742  -0.00719507  1
  Hf  Hf33  1  0.09640286  0.31029833  0.13009381  1
  Hf  Hf34  1  0.28944507  0.90738185  0.87365465  1
  Hf  Hf35  1  0.51231705  0.70507607  0.64199786  1
  Hf  Hf36  1  0.60040862  0.20033872  0.74823181  1
  Hf  Hf37  1  0.08542994  0.50341079  0.85653110  1
  Hf  Hf38  1  0.61406321  0.20138434  0.50683154  1
  Hf  Hf39  1  0.10445923  0.29683832  0.62505352  1
  Zr  Zr40  1  0.79576427  0.78997610  0.00693416  1
  Zr  Zr41  1  0.71002034  0.30585574  0.87716657  1
  Zr  Zr42  1  0.08794103  0.70289826  0.87890378  1
  Zr  Zr43  1  0.40158575  0.21252407  0.75776917  1
  Zr  Zr44  1  0.50377112  0.51962154  0.12598450  1
  Zr  Zr45  1  0.60752694  0.40671313  0.50763941  1
  Zr  Zr46  1  -0.00795991  0.58116208  0.01653126  1
  Zr  Zr47  1  0.60895435  0.19281289  0.24652277  1
  Zr  Zr48  1  0.71184283  0.29970806  0.11322661  1
  Zr  Zr49  1  0.60371197  0.41244693  0.76075887  1
  Zr  Zr50  1  0.89439320  0.67735742  0.88253280  1
  Zr  Zr51  1  0.49393579  0.90285572  0.62785521  1
  Zr  Zr52  1  0.39572585  0.39813029  0.24348509  1
  Zr  Zr53  1  0.89706017  0.89242071  0.61623988  1
  Zr  Zr54  1  0.38880075  0.01997044  0.75213507  1
  Zr  Zr55  1  0.18621893  0.40878907  -0.00886099  1
  Zr  Zr56  1  0.29964378  0.11124090  0.11248573  1
  Zr  Zr57  1  0.19725706  0.79687349  0.50020619  1
  Zr  Zr58  1  0.49971192  0.50864914  0.36239478  1
  Zr  Zr59  1  0.30136962  0.30642127  0.61967878  1
  Zr  Zr60  1  0.29263627  0.91308152  0.61850384  1
  Zr  Zr61  1  0.89676577  0.88807112  0.39127427  1
  Zr  Zr62  1  0.09560390  0.29891851  0.85551521  1
  Zr  Zr63  1  0.61333467  0.80370258  0.48740728  1
  Zr  Zr64  1  0.31133708  0.89834821  0.37660866  1
  Zr  Zr65  1  -0.00902391  0.40309997  0.50484908  1
  Zr  Zr66  1  0.80723463  0.20401411  0.51182144  1
  Zr  Zr67  1  0.19157960  0.00541768  0.25824635  1
  Zr  Zr68  1  -0.01115887  0.00112045  0.25728743  1
  Zr  Zr69  1  0.78453563  0.00080614  0.50189619  1
  Zr  Zr70  1  0.80412096  0.79745002  0.25297229  1
  Zr  Zr71  1  0.60454316  0.60328871  0.50592421  1
  Zr  Zr72  1  0.39395515  0.79594181  0.75957028  1
  Zr  Zr73  1  0.78890132  0.00735305  0.26095234  1
  Zr  Zr74  1  0.71121674  0.49826303  0.36303762  1
  Zr  Zr75  1  0.90229067  0.28930165  0.13260625  1
  Zr  Zr76  1  0.09209191  0.11084506  0.12011314  1
  Zr  Zr77  1  0.09769830  0.70109899  0.11962006  1
  Zr  Zr78  1  0.08739699  0.89598142  0.12180302  1
  Zr  Zr79  1  0.50407103  0.90477991  0.36324396  1
  Ta  Ta80  1  0.29625773  0.29977926  0.10415117  1
  Ta  Ta81  1  0.49758435  0.10249942  0.62037646  1
  Ta  Ta82  1  0.29885673  0.10715539  0.89642793  1
  Ta  Ta83  1  0.89752429  0.47377414  0.14066980  1
  Ta  Ta84  1  0.40538177  0.41283513  0.50601349  1
  Ta  Ta85  1  0.80404739  0.19286441  0.26346552  1
  Ta  Ta86  1  0.40123272  0.40687147  0.76104660  1
  Ta  Ta87  1  0.09791894  0.49769422  0.37469952  1
  Ta  Ta88  1  0.21022744  0.40677398  0.75127018  1
  Ta  Ta89  1  0.30016687  0.30918867  0.39009693  1
  Ta  Ta90  1  0.70629331  0.29974373  0.37290250  1
  Ta  Ta91  1  0.80072143  0.59019936  0.51022371  1
  Ta  Ta92  1  -0.01123153  0.60131560  0.73033202  1
  Ta  Ta93  1  0.08974668  0.90005935  0.87855478  1
  Ta  Ta94  1  0.10838590  0.09300396  0.62143804  1
  Ta  Ta95  1  0.00397209  0.78880028  0.51345808  1
  Ta  Ta96  1  0.10372845  0.49952529  0.63105601  1
  Ta  Ta97  1  0.50197783  0.10578857  0.89015264  1
  Ta  Ta98  1  0.80741841  0.19887589  0.74624974  1
  Ta  Ta99  1  0.29659577  0.10242810  0.60422466  1
  Ta  Ta100  1  0.09864849  0.08932218  0.86530025  1
  Ta  Ta101  1  0.50605806  0.30802661  0.38304087  1
  Ta  Ta102  1  0.19751909  0.40037999  0.25523131  1
  Ta  Ta103  1  0.19931253  0.59446858  0.24089369  1
  Ta  Ta104  1  0.20036544  0.40948464  0.50168336  1
  Ta  Ta105  1  0.90554515  0.09321033  0.86685365  1
  Ta  Ta106  1  0.69312325  0.89808754  0.13652020  1
  Ta  Ta107  1  0.10321523  0.30201210  0.38826741  1
  Ta  Ta108  1  0.81308078  0.19514891  -0.01575129  1
  Ta  Ta109  1  0.40251313  0.60255105  0.51109897  1
  Ta  Ta110  1  0.60421198  0.00603201  0.50976992  1
  Ta  Ta111  1  0.29308883  0.69322182  0.87380507  1
  Ta  Ta112  1  0.50308309  0.31073424  0.62593566  1
  Ta  Ta113  1  0.19912590  0.60103827  0.00241830  1
  Ta  Ta114  1  0.89134709  0.90540526  0.11530442  1
  Ta  Ta115  1  0.40408130  0.00766730  0.23593980  1
  Ta  Ta116  1  0.70918943  0.31007971  0.63996888  1
  Ta  Ta117  1  0.49718664  0.30019954  0.10073487  1
  Ta  Ta118  1  0.00181657  0.19606383  0.50426262  1
  Ta  Ta119  1  0.20031906  0.79612481  -0.00514546  1
  Ti  Ti120  1  0.00078606  0.79296600  0.72990283  1
  Ti  Ti121  1  0.40347413  -0.00576787  0.00250880  1
  Ti  Ti122  1  0.90011684  0.09767609  0.39587250  1
  Ti  Ti123  1  0.49332504  0.70603921  0.14796851  1
  Ti  Ti124  1  0.00925226  -0.00847013  0.73400538  1
  Ti  Ti125  1  0.70039351  0.69841317  0.36598843  1
  Ti  Ti126  1  0.40516404  0.61051812  -0.01080875  1
  Ti  Ti127  1  -0.00400143  0.59077611  0.51016082  1
  Ti  Ti128  1  0.19537801  0.60220995  0.74823789  1
  Ti  Ti129  1  0.80322581  0.40519040  0.50678859  1
  Ti  Ti130  1  0.00212865  -0.00101022  0.50949229  1
  Ti  Ti131  1  0.30613020  0.69716239  0.12316198  1
  Ti  Ti132  1  0.50143662  0.51282821  0.87185157  1
  Ti  Ti133  1  -0.01171262  0.39828214  -0.00936765  1
  Ti  Ti134  1  0.89686537  0.31253263  0.37067903  1
  Ti  Ti135  1  0.19817516  0.59794215  0.50635862  1
  Ti  Ti136  1  0.71387184  0.09954918  0.10903824  1
  Ti  Ti137  1  0.70220337  0.68569399  0.87626106  1
  Ti  Ti138  1  0.60233982  0.60169521  -0.00961279  1
  Ti  Ti139  1  0.30692821  0.69471273  0.37230251  1
  Ti  Ti140  1  0.40328633  0.40837471  -0.01081386  1
  Ti  Ti141  1  -0.01205814  0.79121272  0.24680701  1
  Ti  Ti142  1  0.40425911  0.79459834  0.50353043  1
  Ti  Ti143  1  0.29968024  0.30381207  0.88806814  1
  Ti  Ti144  1  0.50302060  0.29853984  0.88954122  1
  Ti  Ti145  1  0.29843167  0.50708561  0.87703607  1
  Ti  Ti146  1  0.30291060  0.50255084  0.62921592  1
  Ti  Ti147  1  0.61826773  0.60056984  0.75140619  1
  Ti  Ti148  1  -0.00396098  0.18641499  0.73608286  1
  Ti  Ti149  1  -0.01168798  0.00505318  0.00241083  1
  Ti  Ti150  1  0.89599632  0.68988653  0.39345098  1
  Ti  Ti151  1  0.49987336  0.50428306  0.63693946  1
  Ti  Ti152  1  0.71068652  0.49633589  0.12128364  1
  Ti  Ti153  1  0.89190534  0.69326960  0.61311939  1
  Ti  Ti154  1  0.50237167  0.89275711  0.14115076  1
  Ti  Ti155  1  0.39908471  0.59684623  0.75484089  1
  Ti  Ti156  1  0.08829106  0.89458896  0.37790093  1
  Ti  Ti157  1  0.90183752  0.30661465  0.63968624  1
  Ti  Ti158  1  0.18688597  -0.00150123  0.48987711  1
  Ti  Ti159  1  0.90351564  0.30643059  0.85521723  1
  Mo  Mo160  1  -0.00428450  0.80466056  0.00720885  1
  Mo  Mo161  1  0.80304026  0.00145341  0.00233094  1
  Mo  Mo162  1  0.38609840  0.60783637  0.24245702  1
  Mo  Mo163  1  0.89181112  0.09911016  0.11234910  1
  Mo  Mo164  1  0.69790913  0.10486691  0.63911303  1
  Mo  Mo165  1  0.89754106  0.49528406  0.63618729  1
  Mo  Mo166  1  0.19596386  0.20519514  -0.01626971  1
  Mo  Mo167  1  0.39472772  0.80263994  0.24182256  1
  Mo  Mo168  1  0.70480462  0.69511623  0.62804003  1
  Mo  Mo169  1  0.80452512  0.40344017  0.75467917  1
  Mo  Mo170  1  0.90922419  0.10229874  0.62500723  1
  Mo  Mo171  1  0.00205791  0.39985549  0.73462429  1
  Mo  Mo172  1  0.19097314  0.00392270  0.75411132  1
  Mo  Mo173  1  0.40118772  0.21134635  -0.01081989  1
  Mo  Mo174  1  0.69822055  0.10215079  0.37704889  1
  Mo  Mo175  1  0.09568801  0.69016439  0.61916457  1
  Mo  Mo176  1  0.59853486  0.01125426  0.73726188  1
  Mo  Mo177  1  0.81672289  0.40493776  -0.01554307  1
  Mo  Mo178  1  0.60393844  0.78631913  0.76928539  1
  Mo  Mo179  1  0.09557721  0.09916120  0.39794999  1
  Mo  Mo180  1  0.89631371  0.49072794  0.85893282  1
  Mo  Mo181  1  0.19807574  0.20183266  0.49649673  1
  Mo  Mo182  1  0.00176805  0.39686726  0.27209345  1
  Mo  Mo183  1  0.79677269  0.59226175  0.73210214  1
  Mo  Mo184  1  0.60695193  0.20049615  -0.00482843  1
  Mo  Mo185  1  0.50125852  0.69030841  0.86199037  1
  Mo  Mo186  1  0.89791218  0.69974206  0.11379078  1
  Mo  Mo187  1  0.69191604  0.90297388  0.36137222  1
  Mo  Mo188  1  0.09905542  0.49225435  0.14100258  1
  Mo  Mo189  1  0.40543109  0.00375729  0.50703586  1
  Mo  Mo190  1  0.60240777  0.80305688  0.25757496  1
  Mo  Mo191  1  0.90229656  0.50068242  0.37146082  1
  Mo  Mo192  1  0.79646445  0.78235429  0.49601092  1
  Mo  Mo193  1  0.59945961  0.00284134  0.22905667  1
  Mo  Mo194  1  0.70385900  0.49809745  0.62698868  1
  Mo  Mo195  1  0.80118240  0.39282523  0.25801310  1
  Mo  Mo196  1  0.60308045  0.59945996  0.25017038  1
  Mo  Mo197  1  0.09536820  0.90187020  0.61857583  1
  Mo  Mo198  1  0.71612199  0.51417500  0.88720960  1
  Mo  Mo199  1  0.79796882  0.58632995  0.01899497  1
