# generated using pymatgen
data_HfZrTaTiMo
_symmetry_space_group_name_H-M   'P 1'
_cell_length_a   15.93333808
_cell_length_b   15.92614902
_cell_length_c   15.20710743
_cell_angle_alpha   89.99465700
_cell_angle_beta   89.98075275
_cell_angle_gamma   89.96370171
_symmetry_Int_Tables_number   1
_chemical_formula_structural   HfZrTaTiMo
_chemical_formula_sum   'Hf40 Zr40 Ta40 Ti40 Mo40'
_cell_volume   3858.90464115
_cell_formula_units_Z   40
loop_
 _symmetry_equiv_pos_site_id
 _symmetry_equiv_pos_as_xyz
  1  'x, y, z'
loop_
 _atom_site_type_symbol
 _atom_site_label
 _atom_site_symmetry_multiplicity
 _atom_site_fract_x
 _atom_site_fract_y
 _atom_site_fract_z
 _atom_site_occupancy
  Hf  Hf0  1  0.69535473  0.28665040  0.62248708  1
  Hf  Hf1  1  0.29989874  0.30429131  0.87964852  1
  Hf  Hf2  1  0.70236751  0.30702204  0.11022114  1
  Hf  Hf3  1  0.10349676  0.89705263  0.63981297  1
  Hf  Hf4  1  0.58021233  0.58534290  0.73968267  1
  Hf  Hf5  1  0.79705407  0.60148187  0.00303209  1
  Hf  Hf6  1  0.90351634  0.69354504  0.12711896  1
  Hf  Hf7  1  0.12432035  0.09157880  0.37833108  1
  Hf  Hf8  1  0.79748012  0.80201052  0.74131947  1
  Hf  Hf9  1  0.00932525  0.00646255  0.24415745  1
  Hf  Hf10  1  0.88852200  0.69420675  0.38355946  1
  Hf  Hf11  1  0.68299658  0.48512824  0.61419383  1
  Hf  Hf12  1  0.20134934  0.40470957  0.74678433  1
  Hf  Hf13  1  0.68852989  0.49254120  0.88418893  1
  Hf  Hf14  1  0.11140110  0.11773544  0.11049625  1
  Hf  Hf15  1  0.89843663  0.29979283  0.62652264  1
  Hf  Hf16  1  0.50017534  0.30862122  0.37077795  1
  Hf  Hf17  1  0.38783031  0.18328725  0.24246211  1
  Hf  Hf18  1  0.40889739  0.01118974  0.74294418  1
  Hf  Hf19  1  -0.00031291  0.00428275  -0.00812945  1
  Hf  Hf20  1  0.10770220  0.90127300  0.11681190  1
  Hf  Hf21  1  0.21390237  0.00877127  0.74944009  1
  Hf  Hf22  1  0.49822470  0.70316971  0.13681485  1
  Hf  Hf23  1  0.68917878  0.69681317  0.86830041  1
  Hf  Hf24  1  0.90437337  0.90130902  0.12316818  1
  Hf  Hf25  1  0.70307805  0.09564015  0.12534151  1
  Hf  Hf26  1  0.29899130  0.69978882  0.61771286  1
  Hf  Hf27  1  0.69478682  0.89722449  0.87252795  1
  Hf  Hf28  1  -0.00920032  0.39247559  0.24547867  1
  Hf  Hf29  1  0.31759434  0.31166648  0.62311045  1
  Hf  Hf30  1  0.89347164  0.09893838  0.62190892  1
  Hf  Hf31  1  0.89333187  0.48808701  0.38806539  1
  Hf  Hf32  1  0.90186695  0.69927416  0.62723039  1
  Hf  Hf33  1  -0.00077090  0.59754623  0.26015702  1
  Hf  Hf34  1  0.29990975  0.70478019  0.87268656  1
  Hf  Hf35  1  -0.00450839  0.39992313  0.75823952  1
  Hf  Hf36  1  0.40307025  0.42579957  0.75395137  1
  Hf  Hf37  1  0.00901719  0.80119817  0.48927053  1
  Hf  Hf38  1  0.90660059  0.09977654  0.38164578  1
  Hf  Hf39  1  0.58377645  0.18586282  0.00071631  1
  Zr  Zr40  1  0.79418262  0.79184438  0.25474790  1
  Zr  Zr41  1  0.09156855  0.09569123  0.62971969  1
  Zr  Zr42  1  0.50441997  0.89706490  0.87055223  1
  Zr  Zr43  1  0.90437258  0.90931935  0.62722698  1
  Zr  Zr44  1  0.81620876  0.20641531  0.24531752  1
  Zr  Zr45  1  0.31422843  0.90164247  0.88134340  1
  Zr  Zr46  1  0.49894894  0.68635841  0.60221246  1
  Zr  Zr47  1  0.10426636  0.50001365  0.88152530  1
  Zr  Zr48  1  0.39458557  0.59985226  0.25427010  1
  Zr  Zr49  1  0.20309257  0.19770255  0.51626020  1
  Zr  Zr50  1  0.40536088  0.19050326  0.49844514  1
  Zr  Zr51  1  0.37728218  0.40905175  0.24877883  1
  Zr  Zr52  1  0.00000904  0.20922882  0.49217048  1
  Zr  Zr53  1  0.49551203  0.69915304  0.87454812  1
  Zr  Zr54  1  0.28912243  0.29960563  0.37819314  1
  Zr  Zr55  1  0.39017713  0.57751975  0.47172458  1
  Zr  Zr56  1  0.52532892  0.09783837  0.61959715  1
  Zr  Zr57  1  0.60556563  0.18408718  0.76922211  1
  Zr  Zr58  1  0.69801664  0.49169604  0.11814942  1
  Zr  Zr59  1  0.78349352  0.80848473  0.50583942  1
  Zr  Zr60  1  0.00688850  0.79804260  0.26370294  1
  Zr  Zr61  1  0.79377408  0.59223254  0.74067640  1
  Zr  Zr62  1  0.11503738  0.89480607  0.86865187  1
  Zr  Zr63  1  0.69892359  0.90260708  0.12804369  1
  Zr  Zr64  1  0.08851548  0.50537650  0.11325796  1
  Zr  Zr65  1  0.29924009  0.71578943  0.37909305  1
  Zr  Zr66  1  0.39124505  0.40586929  0.01030315  1
  Zr  Zr67  1  0.49660977  0.89427595  0.37320699  1
  Zr  Zr68  1  0.50911416  0.49730846  0.13401596  1
  Zr  Zr69  1  0.50231858  0.89826026  0.61357048  1
  Zr  Zr70  1  0.60561614  0.19844590  0.25318652  1
  Zr  Zr71  1  0.80171192  0.79598058  -0.00149019  1
  Zr  Zr72  1  0.20457166  0.20496394  0.74778217  1
  Zr  Zr73  1  0.50201293  0.30155614  0.13183961  1
  Zr  Zr74  1  0.19805892  0.59724681  0.25529895  1
  Zr  Zr75  1  0.19675176  0.81245754  0.25734906  1
  Zr  Zr76  1  0.80064620  0.19628167  0.76887544  1
  Zr  Zr77  1  -0.00252783  0.59887352  0.50365250  1
  Zr  Zr78  1  0.00844407  0.20877236  0.24818949  1
  Zr  Zr79  1  0.21286236  0.59679186  0.75187651  1
  Ta  Ta80  1  0.60187256  0.79203809  0.72580480  1
  Ta  Ta81  1  0.28113945  0.28895098  0.11549995  1
  Ta  Ta82  1  0.09828061  0.49041928  0.38407146  1
  Ta  Ta83  1  0.60089936  0.79565649  0.01799063  1
  Ta  Ta84  1  0.79148924  0.39492709  0.75820319  1
  Ta  Ta85  1  0.60328565  0.79410411  0.25504037  1
  Ta  Ta86  1  0.09510635  0.50538649  0.62743443  1
  Ta  Ta87  1  0.61140730  -0.00737247  0.48048280  1
  Ta  Ta88  1  0.00084619  0.60140822  0.75854657  1
  Ta  Ta89  1  0.50396867  0.90666397  0.13765219  1
  Ta  Ta90  1  0.49590005  0.08494895  0.36756044  1
  Ta  Ta91  1  0.31675596  0.11219257  0.88914454  1
  Ta  Ta92  1  0.29911925  0.92782853  0.38451017  1
  Ta  Ta93  1  0.51106541  0.30730934  0.61550757  1
  Ta  Ta94  1  0.60787422  0.19404244  0.48236531  1
  Ta  Ta95  1  0.30742280  0.90457588  0.11751916  1
  Ta  Ta96  1  0.79165493  0.01284970  0.76500020  1
  Ta  Ta97  1  0.00279128  0.79474661  -0.01673976  1
  Ta  Ta98  1  0.49123696  0.29607656  0.88137514  1
  Ta  Ta99  1  0.89957056  0.90616216  0.37434882  1
  Ta  Ta100  1  0.09897081  0.70272873  0.10981237  1
  Ta  Ta101  1  0.79186252  0.59140666  0.25044066  1
  Ta  Ta102  1  0.00053489  0.20209165  0.76884209  1
  Ta  Ta103  1  0.19261907  0.60288662  0.49693956  1
  Ta  Ta104  1  0.39143929  0.60251114  0.01136354  1
  Ta  Ta105  1  -0.00849813  0.00782967  0.77160132  1
  Ta  Ta106  1  0.20109823  0.40960339  0.51516763  1
  Ta  Ta107  1  -0.00428682  0.60719201  -0.01705970  1
  Ta  Ta108  1  0.39838287  0.79564166  0.73489794  1
  Ta  Ta109  1  0.70581184  0.09479600  0.36814383  1
  Ta  Ta110  1  0.18484258  0.39566908  0.23457896  1
  Ta  Ta111  1  0.41552742  0.01693394  0.01503850  1
  Ta  Ta112  1  0.69349184  0.92049731  0.63409579  1
  Ta  Ta113  1  0.60801900  0.60130507  0.26419010  1
  Ta  Ta114  1  0.10367295  0.70436669  0.63623706  1
  Ta  Ta115  1  0.10946529  0.10629604  0.87875095  1
  Ta  Ta116  1  0.21168464  0.00719017  -0.00244079  1
  Ta  Ta117  1  0.00305398  0.79466113  0.76526720  1
  Ta  Ta118  1  0.29415360  0.70741119  0.12297290  1
  Ta  Ta119  1  0.80924149  0.00336583  0.24971601  1
  Ti  Ti120  1  0.89013861  0.49810728  0.87763203  1
  Ti  Ti121  1  0.01508575  -0.00914514  0.48978667  1
  Ti  Ti122  1  0.69568231  0.30058093  0.89378562  1
  Ti  Ti123  1  0.89901082  0.30093329  0.10462503  1
  Ti  Ti124  1  0.29985860  0.90414755  0.61651049  1
  Ti  Ti125  1  0.78633492  0.59810861  0.51365794  1
  Ti  Ti126  1  0.19806250  0.20478634  0.25089869  1
  Ti  Ti127  1  0.19274591  0.39809337  0.00534273  1
  Ti  Ti128  1  0.80589402  0.19100113  -0.00485448  1
  Ti  Ti129  1  0.40680974  0.80309918  0.01065601  1
  Ti  Ti130  1  0.49238617  0.48505593  0.59610942  1
  Ti  Ti131  1  0.79917752  0.39055406  0.50221514  1
  Ti  Ti132  1  0.59578545  0.00017606  -0.00629170  1
  Ti  Ti133  1  0.19262902  0.81182760  0.49302301  1
  Ti  Ti134  1  0.50468406  0.69911698  0.38146689  1
  Ti  Ti135  1  0.40720782  0.20143678  0.74154051  1
  Ti  Ti136  1  0.89661257  0.89848422  0.87218595  1
  Ti  Ti137  1  0.09252285  0.30713184  0.62512851  1
  Ti  Ti138  1  0.20237898  0.60276014  -0.00132774  1
  Ti  Ti139  1  0.89492871  0.30374399  0.88307304  1
  Ti  Ti140  1  0.22268326  0.01567457  0.23455323  1
  Ti  Ti141  1  0.89503484  0.69711993  0.86626284  1
  Ti  Ti142  1  -0.00469662  0.39928556  -0.00652954  1
  Ti  Ti143  1  0.00204679  0.20609468  -0.01213494  1
  Ti  Ti144  1  0.39688362  0.80604695  0.49924200  1
  Ti  Ti145  1  0.89761496  0.49244289  0.62421911  1
  Ti  Ti146  1  0.80396121  0.00447049  -0.00729481  1
  Ti  Ti147  1  0.69005673  0.69734566  0.39338771  1
  Ti  Ti148  1  0.89318148  0.49309020  0.11752068  1
  Ti  Ti149  1  0.79925851  0.39902508  0.25349356  1
  Ti  Ti150  1  0.69460887  0.49574882  0.38645419  1
  Ti  Ti151  1  0.09824825  0.31204929  0.38584612  1
  Ti  Ti152  1  0.49536560  0.50221755  0.89167754  1
  Ti  Ti153  1  0.79590304  -0.00025504  0.49117179  1
  Ti  Ti154  1  0.59353950  0.38857854  0.76186954  1
  Ti  Ti155  1  0.79680119  0.19849956  0.49056839  1
  Ti  Ti156  1  0.39390302  0.80892571  0.24934700  1
  Ti  Ti157  1  0.70608500  0.30418692  0.37518243  1
  Ti  Ti158  1  0.59420222  0.60507105  0.00897627  1
  Ti  Ti159  1  0.20254390  0.79798217  0.00016325  1
  Mo  Mo160  1  0.51261497  0.49543825  0.36692528  1
  Mo  Mo161  1  0.39869993  -0.00308184  0.23715657  1
  Mo  Mo162  1  0.39961400  0.39489142  0.49231114  1
  Mo  Mo163  1  0.69966601  0.09267651  0.89942206  1
  Mo  Mo164  1  0.89522277  0.30531644  0.38714686  1
  Mo  Mo165  1  0.10793249  0.90887701  0.37252840  1
  Mo  Mo166  1  0.90150704  0.10394993  0.10612745  1
  Mo  Mo167  1  0.19838538  0.20675292  -0.01805413  1
  Mo  Mo168  1  0.20778966  0.80169607  0.73997671  1
  Mo  Mo169  1  0.60221766  0.79771363  0.49920918  1
  Mo  Mo170  1  0.39947174  0.20102724  0.01431039  1
  Mo  Mo171  1  0.00280085  0.40168750  0.51399908  1
  Mo  Mo172  1  0.60590942  -0.00489785  0.26353336  1
  Mo  Mo173  1  0.90246906  0.10208219  0.88595302  1
  Mo  Mo174  1  0.31017136  0.09888428  0.61775361  1
  Mo  Mo175  1  0.30313753  0.50500267  0.89595800  1
  Mo  Mo176  1  0.30101356  0.50470908  0.61141713  1
  Mo  Mo177  1  0.59792673  0.59234535  0.48570498  1
  Mo  Mo178  1  0.10053808  0.69843560  0.38740485  1
  Mo  Mo179  1  0.27696916  0.48846826  0.37948834  1
  Mo  Mo180  1  0.10219814  0.70032523  0.87694619  1
  Mo  Mo181  1  0.20443537  -0.00337116  0.51752227  1
  Mo  Mo182  1  0.69341192  0.69559325  0.61643870  1
  Mo  Mo183  1  0.30556275  0.09472162  0.38414570  1
  Mo  Mo184  1  0.28509345  0.50443879  0.11278456  1
  Mo  Mo185  1  0.59274725  0.39359242  -0.01627112  1
  Mo  Mo186  1  0.80598764  0.39662013  -0.01359094  1
  Mo  Mo187  1  0.50575337  0.08893083  0.14595214  1
  Mo  Mo188  1  0.70836965  0.09544839  0.60419370  1
  Mo  Mo189  1  0.69419896  0.69200948  0.13153988  1
  Mo  Mo190  1  0.60777882  -0.00304170  0.76079368  1
  Mo  Mo191  1  0.09414375  0.30517938  0.10603364  1
  Mo  Mo192  1  0.40232414  0.00136162  0.51077891  1
  Mo  Mo193  1  0.49576916  0.10067118  0.86950902  1
  Mo  Mo194  1  0.30043531  0.10395920  0.10811058  1
  Mo  Mo195  1  0.60225803  0.39026339  0.48598900  1
  Mo  Mo196  1  0.40093241  0.59767332  0.75409852  1
  Mo  Mo197  1  0.61740262  0.40506110  0.26824779  1
  Mo  Mo198  1  0.70337681  0.90091866  0.36290425  1
  Mo  Mo199  1  0.09502071  0.30150798  0.88347028  1
