# generated using pymatgen
data_HfZrTaTiMo
_symmetry_space_group_name_H-M   'P 1'
_cell_length_a   15.93031060
_cell_length_b   15.92014562
_cell_length_c   15.20554947
_cell_angle_alpha   89.94898345
_cell_angle_beta   89.97505606
_cell_angle_gamma   89.99247559
_symmetry_Int_Tables_number   1
_chemical_formula_structural   HfZrTaTiMo
_chemical_formula_sum   'Hf40 Zr40 Ta40 Ti40 Mo40'
_cell_volume   3856.32102906
_cell_formula_units_Z   40
loop_
 _symmetry_equiv_pos_site_id
 _symmetry_equiv_pos_as_xyz
  1  'x, y, z'
loop_
 _atom_site_type_symbol
 _atom_site_label
 _atom_site_symmetry_multiplicity
 _atom_site_fract_x
 _atom_site_fract_y
 _atom_site_fract_z
 _atom_site_occupancy
  Hf  Hf0  1  0.40323555  0.40410321  0.22947074  1
  Hf  Hf1  1  0.18981149  0.18728781  0.51559391  1
  Hf  Hf2  1  0.51135206  0.70908972  0.11255419  1
  Hf  Hf3  1  -0.00922889  0.79365367  -0.00250581  1
  Hf  Hf4  1  0.79717322  0.00076239  -0.00111099  1
  Hf  Hf5  1  0.30748412  0.29481972  0.62670028  1
  Hf  Hf6  1  0.69716872  0.89924780  0.13433205  1
  Hf  Hf7  1  0.91058509  0.28904336  0.86235569  1
  Hf  Hf8  1  0.69193256  0.10275588  0.13431143  1
  Hf  Hf9  1  0.11350989  0.89536884  0.37913294  1
  Hf  Hf10  1  0.80253497  0.20482690  0.26378239  1
  Hf  Hf11  1  0.78992447  0.80614448  0.75163603  1
  Hf  Hf12  1  0.39964240  0.60346330  0.22320878  1
  Hf  Hf13  1  0.39091264  -0.00541404  0.51878329  1
  Hf  Hf14  1  0.70971227  0.30516146  0.13263730  1
  Hf  Hf15  1  0.09853401  0.48716976  0.36481933  1
  Hf  Hf16  1  0.71088309  0.69834738  0.38158919  1
  Hf  Hf17  1  0.40290923  0.41364611  0.51267554  1
  Hf  Hf18  1  0.39865575  -0.00492517  0.00557666  1
  Hf  Hf19  1  0.40715336  0.20195257  0.76292190  1
  Hf  Hf20  1  0.69500436  0.69966246  0.62847863  1
  Hf  Hf21  1  0.29299397  0.30214118  0.87614737  1
  Hf  Hf22  1  0.80335431  0.40184429  -0.00922632  1
  Hf  Hf23  1  0.59974885  0.80111631  0.25723327  1
  Hf  Hf24  1  0.28777169  0.50696752  0.10908398  1
  Hf  Hf25  1  0.20612947  0.00247373  0.23375056  1
  Hf  Hf26  1  0.72966387  0.70145400  0.14183362  1
  Hf  Hf27  1  0.29964183  0.69744794  0.88725094  1
  Hf  Hf28  1  0.90923152  0.10841170  0.38317295  1
  Hf  Hf29  1  0.29576833  0.49709056  0.87706830  1
  Hf  Hf30  1  -0.00853218  0.00340041  0.01689602  1
  Hf  Hf31  1  0.90767495  0.92037215  0.86340920  1
  Hf  Hf32  1  0.71005793  0.10398229  0.85550507  1
  Hf  Hf33  1  0.06998858  0.10007174  0.85890513  1
  Hf  Hf34  1  0.38309548  0.19172537  0.24304432  1
  Hf  Hf35  1  0.49449802  0.30268460  0.37524017  1
  Hf  Hf36  1  0.81007479  0.20017444  -0.00344385  1
  Hf  Hf37  1  0.59750773  -0.00316577  -0.00764209  1
  Hf  Hf38  1  0.60226406  0.20376837  0.49242845  1
  Hf  Hf39  1  0.41174713  0.59832809  0.75662002  1
  Zr  Zr40  1  0.51102011  0.30506378  0.62830666  1
  Zr  Zr41  1  0.90732612  0.32180309  0.37558471  1
  Zr  Zr42  1  0.01151243  0.00913274  0.50406512  1
  Zr  Zr43  1  0.18448351  -0.00232117  0.00541923  1
  Zr  Zr44  1  0.10045409  0.29594295  0.37892717  1
  Zr  Zr45  1  0.41858486  0.40183507  -0.00478825  1
  Zr  Zr46  1  0.59497514  -0.00244526  0.50656990  1
  Zr  Zr47  1  0.60228447  0.59744736  0.24801806  1
  Zr  Zr48  1  0.79538781  0.80361621  -0.01886828  1
  Zr  Zr49  1  0.41290071  0.19207823  -0.00895895  1
  Zr  Zr50  1  0.80731130  0.60663598  -0.01295370  1
  Zr  Zr51  1  0.08895911  0.68509983  0.12439518  1
  Zr  Zr52  1  0.00180725  0.59371336  0.49866328  1
  Zr  Zr53  1  0.29515216  0.50099080  0.36722732  1
  Zr  Zr54  1  0.80359715  0.39742142  0.74003025  1
  Zr  Zr55  1  0.39028850  -0.00395061  0.74892621  1
  Zr  Zr56  1  0.00300647  -0.00225918  0.25450820  1
  Zr  Zr57  1  0.48524802  0.09677383  0.37091106  1
  Zr  Zr58  1  0.28499270  0.09598017  0.88287864  1
  Zr  Zr59  1  0.51385063  0.29133428  0.13061660  1
  Zr  Zr60  1  0.48448813  0.90035923  0.36337328  1
  Zr  Zr61  1  0.29469175  0.70136217  0.36331168  1
  Zr  Zr62  1  0.90103942  0.51572373  0.13619083  1
  Zr  Zr63  1  0.29054137  0.29329536  0.10341803  1
  Zr  Zr64  1  0.89507991  0.10354464  0.13957171  1
  Zr  Zr65  1  0.19961175  0.60072993  0.50745745  1
  Zr  Zr66  1  0.59386205  0.59511700  0.50364032  1
  Zr  Zr67  1  0.69423392  0.51010245  0.86246526  1
  Zr  Zr68  1  0.29718076  0.29889403  0.38561921  1
  Zr  Zr69  1  0.60707493  0.20964604  -0.02201724  1
  Zr  Zr70  1  -0.00872178  0.79014185  0.26549184  1
  Zr  Zr71  1  0.29638118  0.49765062  0.64911462  1
  Zr  Zr72  1  0.49532497  0.50296243  0.37426954  1
  Zr  Zr73  1  0.19650810  0.19162120  0.74018990  1
  Zr  Zr74  1  0.48446073  0.70539783  0.37157629  1
  Zr  Zr75  1  0.49765672  0.10698353  0.62912863  1
  Zr  Zr76  1  0.30540735  0.89581725  0.36921563  1
  Zr  Zr77  1  0.00049474  0.80377466  0.74651366  1
  Zr  Zr78  1  0.80497963  0.00126414  0.73005245  1
  Zr  Zr79  1  0.70027561  0.89985236  0.38675206  1
  Ta  Ta80  1  0.20060547  0.79435929  0.23277677  1
  Ta  Ta81  1  0.70609687  0.50105350  0.13329618  1
  Ta  Ta82  1  0.00268664  0.40728447  -0.00201717  1
  Ta  Ta83  1  0.80386009  0.40604187  0.51628426  1
  Ta  Ta84  1  0.09358269  0.89130794  0.12846513  1
  Ta  Ta85  1  0.01009125  0.79052751  0.49996538  1
  Ta  Ta86  1  0.29578661  0.89342179  0.88016136  1
  Ta  Ta87  1  0.39521200  0.79350760  0.52606860  1
  Ta  Ta88  1  0.70511114  0.31019784  0.37909887  1
  Ta  Ta89  1  0.89702454  0.89708318  0.39202886  1
  Ta  Ta90  1  0.19883247  0.39073559  0.23440528  1
  Ta  Ta91  1  0.18883438  0.39988538  0.52125551  1
  Ta  Ta92  1  0.39718011  0.79330341  0.75608649  1
  Ta  Ta93  1  0.60594245  -0.00792466  0.74738854  1
  Ta  Ta94  1  0.29023731  0.09623555  0.38115499  1
  Ta  Ta95  1  0.39612863  0.60922352  0.52463484  1
  Ta  Ta96  1  0.01272016  0.20190284  0.24440597  1
  Ta  Ta97  1  0.89896533  0.69503905  0.85546485  1
  Ta  Ta98  1  0.69728180  0.11069910  0.62641781  1
  Ta  Ta99  1  0.58771308  0.79751427  0.50432861  1
  Ta  Ta100  1  0.29408918  0.70076261  0.10493663  1
  Ta  Ta101  1  0.09547202  0.30365674  0.86373155  1
  Ta  Ta102  1  0.09752566  0.49742031  0.64587695  1
  Ta  Ta103  1  0.10496132  0.89398927  0.62293371  1
  Ta  Ta104  1  0.80339671  0.00819484  0.50911205  1
  Ta  Ta105  1  0.80007917  -0.00506086  0.26577969  1
  Ta  Ta106  1  -0.00551326  0.60280509  0.27539171  1
  Ta  Ta107  1  0.17520725  0.59244377  -0.01427363  1
  Ta  Ta108  1  0.10425105  0.69748542  0.63714136  1
  Ta  Ta109  1  0.69196735  0.49804332  0.63167028  1
  Ta  Ta110  1  0.50075379  0.89375981  0.86577986  1
  Ta  Ta111  1  0.71677237  0.49450179  0.36751148  1
  Ta  Ta112  1  0.18124273  0.40034088  -0.00497442  1
  Ta  Ta113  1  0.90139506  0.69840694  0.62575035  1
  Ta  Ta114  1  0.40695742  0.80161713  -0.00542894  1
  Ta  Ta115  1  0.60493419  0.40229563  0.25109876  1
  Ta  Ta116  1  0.20104356  0.79783735  0.75752130  1
  Ta  Ta117  1  0.80701727  0.59020640  0.50661579  1
  Ta  Ta118  1  0.09335466  0.49750834  0.13549551  1
  Ta  Ta119  1  0.80285864  0.20845418  0.50844810  1
  Ti  Ti120  1  0.09177152  0.30405278  0.64205719  1
  Ti  Ti121  1  0.10220517  0.29422669  0.12117762  1
  Ti  Ti122  1  0.60718992  0.40465862  0.49875083  1
  Ti  Ti123  1  0.60619369  0.40512783  -0.00717393  1
  Ti  Ti124  1  0.49465252  0.90294734  0.13462382  1
  Ti  Ti125  1  0.79624385  0.21198458  0.73361734  1
  Ti  Ti126  1  0.09086403  0.69739041  0.87187269  1
  Ti  Ti127  1  0.41727668  0.59754576  -0.00388947  1
  Ti  Ti128  1  0.20460451  0.78918523  0.51041880  1
  Ti  Ti129  1  0.60328130  0.39316466  0.75809158  1
  Ti  Ti130  1  -0.00582583  0.40575456  0.52412350  1
  Ti  Ti131  1  0.61011258  0.60105070  0.00296813  1
  Ti  Ti132  1  0.28252136  0.10970081  0.10899245  1
  Ti  Ti133  1  0.00168821  0.20688121  0.51665325  1
  Ti  Ti134  1  0.90847137  0.31082609  0.13179448  1
  Ti  Ti135  1  0.90647523  0.10886405  0.63096694  1
  Ti  Ti136  1  0.50351812  0.88853212  0.64269791  1
  Ti  Ti137  1  -0.00082864  0.59799158  0.74848468  1
  Ti  Ti138  1  0.70560199  0.09972654  0.38347791  1
  Ti  Ti139  1  0.59898950  0.00389748  0.25943434  1
  Ti  Ti140  1  0.10053284  0.90324826  0.86836331  1
  Ti  Ti141  1  0.80503218  0.79748045  0.50882795  1
  Ti  Ti142  1  0.50977897  0.09313777  0.86000900  1
  Ti  Ti143  1  0.19057562  0.79900124  -0.00199826  1
  Ti  Ti144  1  0.60291127  0.19981902  0.26657683  1
  Ti  Ti145  1  0.61018283  0.80167659  -0.01838342  1
  Ti  Ti146  1  0.50088492  0.09439760  0.13636308  1
  Ti  Ti147  1  0.19387718  -0.00443353  0.74016998  1
  Ti  Ti148  1  0.90658723  0.89811722  0.61342459  1
  Ti  Ti149  1  0.19504498  0.60323651  0.76115755  1
  Ti  Ti150  1  0.51724774  0.69627494  0.87269111  1
  Ti  Ti151  1  0.88811050  0.88228410  0.14004068  1
  Ti  Ti152  1  0.69380332  0.89705676  0.61686950  1
  Ti  Ti153  1  0.50366122  0.70109671  0.63811733  1
  Ti  Ti154  1  0.29307695  0.88929776  0.63575955  1
  Ti  Ti155  1  0.80130318  0.59962573  0.74129143  1
  Ti  Ti156  1  0.41633284  0.40310783  0.76223582  1
  Ti  Ti157  1  0.91211259  0.49998650  0.86313771  1
  Ti  Ti158  1  0.00513375  0.20162048  0.00942271  1
  Ti  Ti159  1  0.20146276  -0.00103258  0.51350615  1
  Mo  Mo160  1  0.10752342  0.69823684  0.36966930  1
  Mo  Mo161  1  0.59778195  0.59697222  0.74134831  1
  Mo  Mo162  1  0.69340590  0.90523416  0.87237973  1
  Mo  Mo163  1  0.10982747  0.10175733  0.36496976  1
  Mo  Mo164  1  -0.00011060  0.40246061  0.74669717  1
  Mo  Mo165  1  0.09937963  0.10715615  0.12994992  1
  Mo  Mo166  1  0.09514165  0.49692880  0.85877828  1
  Mo  Mo167  1  0.39256029  0.19659170  0.49303811  1
  Mo  Mo168  1  0.89917755  0.49903581  0.37066003  1
  Mo  Mo169  1  -0.00256159  0.59422793  -0.02163465  1
  Mo  Mo170  1  0.89962990  0.50746202  0.63920435  1
  Mo  Mo171  1  0.90405174  0.30119046  0.61983549  1
  Mo  Mo172  1  0.29498232  0.88967106  0.10716392  1
  Mo  Mo173  1  0.89882032  0.10620023  0.85924302  1
  Mo  Mo174  1  0.69543793  0.70135463  0.85538332  1
  Mo  Mo175  1  0.90065281  0.70111687  0.40638416  1
  Mo  Mo176  1  0.70019398  0.30333948  0.60895270  1
  Mo  Mo177  1  0.19602247  0.19548478  0.25292326  1
  Mo  Mo178  1  0.70743899  0.30402924  0.87549562  1
  Mo  Mo179  1  0.51773969  0.50337172  0.10782959  1
  Mo  Mo180  1  0.80131379  0.40387798  0.24497256  1
  Mo  Mo181  1  0.09587582  0.09437613  0.63711463  1
  Mo  Mo182  1  0.39097805  0.80256838  0.21326499  1
  Mo  Mo183  1  0.61040794  0.20449133  0.75387832  1
  Mo  Mo184  1  -0.00835826  0.20339142  0.73185226  1
  Mo  Mo185  1  0.59665359  0.79975093  0.75236610  1
  Mo  Mo186  1  0.19386204  0.59846793  0.24318558  1
  Mo  Mo187  1  0.50654859  0.50046133  0.63368261  1
  Mo  Mo188  1  0.90187249  0.70143474  0.12585514  1
  Mo  Mo189  1  0.50764365  0.50324964  0.88445173  1
  Mo  Mo190  1  0.19836017  0.39717206  0.74963792  1
  Mo  Mo191  1  0.17642201  0.20342912  -0.01564125  1
  Mo  Mo192  1  0.00313711  -0.00292583  0.72775163  1
  Mo  Mo193  1  0.81241227  0.60453756  0.27225648  1
  Mo  Mo194  1  0.29673004  0.09327833  0.61781372  1
  Mo  Mo195  1  0.39167303  0.00333498  0.22182962  1
  Mo  Mo196  1  0.80708317  0.80540388  0.26916693  1
  Mo  Mo197  1  0.51021303  0.30427167  0.86265007  1
  Mo  Mo198  1  0.29717807  0.70170507  0.64444250  1
  Mo  Mo199  1  0.00329405  0.39673496  0.23365107  1
