# generated using pymatgen
data_HfZrTaTiMo
_symmetry_space_group_name_H-M   'P 1'
_cell_length_a   15.93185589
_cell_length_b   15.93426167
_cell_length_c   15.21095091
_cell_angle_alpha   89.96428298
_cell_angle_beta   89.99682867
_cell_angle_gamma   90.01599393
_symmetry_Int_Tables_number   1
_chemical_formula_structural   HfZrTaTiMo
_chemical_formula_sum   'Hf40 Zr40 Ta40 Ti40 Mo40'
_cell_volume   3861.48699800
_cell_formula_units_Z   40
loop_
 _symmetry_equiv_pos_site_id
 _symmetry_equiv_pos_as_xyz
  1  'x, y, z'
loop_
 _atom_site_type_symbol
 _atom_site_label
 _atom_site_symmetry_multiplicity
 _atom_site_fract_x
 _atom_site_fract_y
 _atom_site_fract_z
 _atom_site_occupancy
  Hf  Hf0  1  0.59539401  0.59508359  0.73483062  1
  Hf  Hf1  1  0.09603748  0.31551452  0.86554976  1
  Hf  Hf2  1  0.10222809  0.70515396  0.39619617  1
  Hf  Hf3  1  0.31132784  0.10533575  0.88373509  1
  Hf  Hf4  1  -0.00523604  0.60681195  0.25692125  1
  Hf  Hf5  1  0.29453151  0.69863047  0.86016020  1
  Hf  Hf6  1  0.80569305  0.79861505  -0.00653311  1
  Hf  Hf7  1  0.10048510  0.09761222  0.38571009  1
  Hf  Hf8  1  0.20618833  -0.00157572  0.00607546  1
  Hf  Hf9  1  0.49358995  0.29828718  0.36215757  1
  Hf  Hf10  1  0.49474115  0.69103476  0.87321414  1
  Hf  Hf11  1  -0.00164062  0.21061608  0.73166578  1
  Hf  Hf12  1  0.40487725  0.00433755  0.01291057  1
  Hf  Hf13  1  0.10681098  0.89165384  0.12265095  1
  Hf  Hf14  1  0.00125579  0.40126822  0.25476672  1
  Hf  Hf15  1  0.60688921  0.20822740  0.49779332  1
  Hf  Hf16  1  0.18391780  0.20188146  0.02075285  1
  Hf  Hf17  1  0.09984719  0.70654280  0.62497230  1
  Hf  Hf18  1  0.39583193  0.79996697  0.72879340  1
  Hf  Hf19  1  0.18932054  0.19910420  0.24540047  1
  Hf  Hf20  1  0.92529865  0.49566751  0.84930025  1
  Hf  Hf21  1  0.81173398  0.01551989  0.50028071  1
  Hf  Hf22  1  0.91055442  0.29734111  0.13046222  1
  Hf  Hf23  1  0.19346982  0.59456905  -0.00986456  1
  Hf  Hf24  1  0.49565677  0.69728226  0.13725230  1
  Hf  Hf25  1  0.29893716  0.30048628  0.88058296  1
  Hf  Hf26  1  0.79928510  0.20425439  0.72967247  1
  Hf  Hf27  1  0.91166989  0.10364496  0.12365179  1
  Hf  Hf28  1  0.20516273  0.20113339  0.73250564  1
  Hf  Hf29  1  0.70186955  0.69639373  0.87177384  1
  Hf  Hf30  1  0.69082604  0.10791278  0.87640031  1
  Hf  Hf31  1  0.39780465  0.59579973  0.72964782  1
  Hf  Hf32  1  -0.00350998  0.59377811  0.51297332  1
  Hf  Hf33  1  -0.02172377  0.19363686  0.50313141  1
  Hf  Hf34  1  0.00511283  0.80661215  0.26037391  1
  Hf  Hf35  1  0.70127874  0.49766886  0.87260879  1
  Hf  Hf36  1  0.00598487  0.00323384  0.25703942  1
  Hf  Hf37  1  0.60048860  0.80135308  0.74613433  1
  Hf  Hf38  1  0.59805432  0.80317405  -0.00990664  1
  Hf  Hf39  1  -0.00442659  0.39446276  0.50621915  1
  Zr  Zr40  1  0.00796711  0.00274243  0.75125930  1
  Zr  Zr41  1  0.89925529  0.10790264  0.87736643  1
  Zr  Zr42  1  0.20467870  0.21412647  0.50722587  1
  Zr  Zr43  1  0.10361946  0.09242750  0.61282865  1
  Zr  Zr44  1  0.49643402  0.48520842  0.87567079  1
  Zr  Zr45  1  0.38780034  0.79666022  0.00222745  1
  Zr  Zr46  1  0.69423834  0.09146582  0.61834608  1
  Zr  Zr47  1  0.88154879  0.50128297  0.37692287  1
  Zr  Zr48  1  0.50291612  0.09767005  0.37283293  1
  Zr  Zr49  1  0.01178408  0.40813574  0.01535530  1
  Zr  Zr50  1  0.28521727  0.69047529  0.14273818  1
  Zr  Zr51  1  0.40486486  -0.01025212  0.25676962  1
  Zr  Zr52  1  0.50652689  0.89765481  0.13416867  1
  Zr  Zr53  1  0.49639889  0.27636472  0.89658787  1
  Zr  Zr54  1  0.70833124  0.10560908  0.36762189  1
  Zr  Zr55  1  0.20166073  0.40794755  0.01676907  1
  Zr  Zr56  1  0.49712164  0.49164633  0.14030963  1
  Zr  Zr57  1  0.70892745  0.69471308  0.38585359  1
  Zr  Zr58  1  0.09648703  0.69714419  0.84684447  1
  Zr  Zr59  1  0.38839661  0.58729882  0.00614830  1
  Zr  Zr60  1  0.79281802  0.20337171  0.01085348  1
  Zr  Zr61  1  0.60341185  0.59499026  0.27049051  1
  Zr  Zr62  1  0.59220770  0.20330418  0.73538075  1
  Zr  Zr63  1  0.80242055  0.59842490  0.73241026  1
  Zr  Zr64  1  0.69624108  0.30341318  0.87913036  1
  Zr  Zr65  1  0.80563481  0.79826636  0.24953085  1
  Zr  Zr66  1  0.69548698  0.69894430  0.12757544  1
  Zr  Zr67  1  0.69909315  0.90371099  0.12886375  1
  Zr  Zr68  1  0.90548162  0.90071236  0.11159230  1
  Zr  Zr69  1  0.90681938  0.70274216  0.85709463  1
  Zr  Zr70  1  0.00521645  0.60050407  0.00635136  1
  Zr  Zr71  1  0.01475068  0.00735439  -0.01055227  1
  Zr  Zr72  1  0.39974640  0.19756326  0.73163656  1
  Zr  Zr73  1  0.30187994  0.10086538  0.37466648  1
  Zr  Zr74  1  0.89768667  0.70842266  0.39696914  1
  Zr  Zr75  1  0.48759509  0.50345728  0.38292772  1
  Zr  Zr76  1  0.49068066  0.90612886  0.86990797  1
  Zr  Zr77  1  0.81039815  0.40577937  0.00519443  1
  Zr  Zr78  1  0.69491834  0.49881162  0.12222864  1
  Zr  Zr79  1  0.50522742  0.90558753  0.61250019  1
  Ta  Ta80  1  0.70345607  0.30647838  0.36380658  1
  Ta  Ta81  1  0.49513578  0.29387507  0.13172471  1
  Ta  Ta82  1  0.11443775  0.51448837  0.15219900  1
  Ta  Ta83  1  0.39403263  0.20303691  0.50314280  1
  Ta  Ta84  1  0.29341911  0.49120218  0.85682210  1
  Ta  Ta85  1  0.79542346  0.40562436  0.24426107  1
  Ta  Ta86  1  0.90084915  0.90032525  0.62493602  1
  Ta  Ta87  1  0.79877559  0.59624229  0.51974827  1
  Ta  Ta88  1  0.39392282  0.80847429  0.49492749  1
  Ta  Ta89  1  0.29490812  0.90183956  0.86379253  1
  Ta  Ta90  1  0.20532802  0.59130181  0.50907285  1
  Ta  Ta91  1  0.09612622  0.29958409  0.37663669  1
  Ta  Ta92  1  0.19942796  -0.00443322  0.24730561  1
  Ta  Ta93  1  0.80910794  -0.00060132  0.25688697  1
  Ta  Ta94  1  0.90198197  0.89853256  0.86459262  1
  Ta  Ta95  1  0.60204027  0.40239045  0.48774664  1
  Ta  Ta96  1  0.81140176  0.59749482  0.00386042  1
  Ta  Ta97  1  0.20411354  0.80136475  0.27322492  1
  Ta  Ta98  1  0.59972642  0.19731218  0.24254506  1
  Ta  Ta99  1  0.29953087  0.88860058  0.14139793  1
  Ta  Ta100  1  0.69606370  0.70861502  0.61256574  1
  Ta  Ta101  1  0.20105937  0.39563011  0.72760956  1
  Ta  Ta102  1  0.59792839  0.39568012  0.73159111  1
  Ta  Ta103  1  0.69578557  0.09216954  0.13311782  1
  Ta  Ta104  1  0.59319569  0.00544320  0.75633825  1
  Ta  Ta105  1  0.49618641  0.09383224  0.60279077  1
  Ta  Ta106  1  0.90327530  0.90136168  0.39296440  1
  Ta  Ta107  1  0.69461624  0.49470843  0.61342984  1
  Ta  Ta108  1  0.70586667  0.90819917  0.86730683  1
  Ta  Ta109  1  0.80084943  0.39472248  0.73264178  1
  Ta  Ta110  1  0.39286022  0.39630601  0.01336117  1
  Ta  Ta111  1  0.20339713  0.40277716  0.26472900  1
  Ta  Ta112  1  0.19676474  0.40179699  0.50028849  1
  Ta  Ta113  1  0.59234358  0.80534703  0.27727129  1
  Ta  Ta114  1  0.49516655  0.30980894  0.60468432  1
  Ta  Ta115  1  0.21009314  0.00292393  0.74330312  1
  Ta  Ta116  1  0.30307179  0.29983497  0.13906173  1
  Ta  Ta117  1  0.59792225  0.01040772  -0.00739310  1
  Ta  Ta118  1  0.49961742  0.69864066  0.59947413  1
  Ta  Ta119  1  0.30328045  0.69133073  0.39074182  1
  Ti  Ti120  1  0.30632174  0.10180249  0.13417363  1
  Ti  Ti121  1  0.40123946  0.79252432  0.27709471  1
  Ti  Ti122  1  0.70213054  0.90010696  0.62042119  1
  Ti  Ti123  1  0.10440805  0.70297242  0.13639078  1
  Ti  Ti124  1  0.10453756  0.89347602  0.86566092  1
  Ti  Ti125  1  0.89014161  0.29182504  0.37001061  1
  Ti  Ti126  1  0.80190832  0.20072990  0.24150736  1
  Ti  Ti127  1  0.21250897  0.80528385  0.50670649  1
  Ti  Ti128  1  0.71093108  0.89829071  0.37886738  1
  Ti  Ti129  1  0.00782631  0.79641560  -0.00821715  1
  Ti  Ti130  1  0.39816620  0.00634231  0.74152224  1
  Ti  Ti131  1  0.10670672  0.90277434  0.39345572  1
  Ti  Ti132  1  0.38868704  0.40132282  0.25490471  1
  Ti  Ti133  1  0.38226091  0.39335382  0.48690282  1
  Ti  Ti134  1  0.60273570  -0.00824470  0.48226417  1
  Ti  Ti135  1  0.79870121  0.80647537  0.74213575  1
  Ti  Ti136  1  0.20468245  0.81080180  0.73357905  1
  Ti  Ti137  1  0.10785130  0.11351373  0.87093782  1
  Ti  Ti138  1  0.10269691  0.50458081  0.37751953  1
  Ti  Ti139  1  0.19870962  0.79680123  -0.00690516  1
  Ti  Ti140  1  0.22241928  -0.00958377  0.50880541  1
  Ti  Ti141  1  0.90444716  0.30289258  0.87615140  1
  Ti  Ti142  1  0.69095166  0.30214771  0.13555006  1
  Ti  Ti143  1  0.09974437  0.89898169  0.61772156  1
  Ti  Ti144  1  0.20338794  0.59266411  0.73176912  1
  Ti  Ti145  1  0.59693937  0.59593291  -0.00080328  1
  Ti  Ti146  1  -0.00290641  -0.00038325  0.50297893  1
  Ti  Ti147  1  0.79979754  0.00206168  0.74535136  1
  Ti  Ti148  1  0.38471162  0.59558743  0.26281148  1
  Ti  Ti149  1  0.90315241  0.69805577  0.12309809  1
  Ti  Ti150  1  0.30546617  0.49246938  0.61660077  1
  Ti  Ti151  1  0.40224722  0.39355350  0.74133105  1
  Ti  Ti152  1  0.60038038  0.59736183  0.49588999  1
  Ti  Ti153  1  0.09199688  0.49571440  0.63601393  1
  Ti  Ti154  1  0.59797805  0.80091179  0.48574025  1
  Ti  Ti155  1  0.59406130  0.39265073  0.00696448  1
  Ti  Ti156  1  0.49594402  0.49528665  0.60620677  1
  Ti  Ti157  1  0.90282865  0.71320078  0.62434424  1
  Ti  Ti158  1  0.79699141  0.00020553  -0.00456880  1
  Ti  Ti159  1  0.79572864  0.39098063  0.50781628  1
  Mo  Mo160  1  0.29731694  0.70082518  0.61238750  1
  Mo  Mo161  1  0.39398101  0.19737531  0.02529275  1
  Mo  Mo162  1  0.39621539  0.59889643  0.51170577  1
  Mo  Mo163  1  0.49788025  0.09721411  0.87730489  1
  Mo  Mo164  1  0.80415396  0.59595046  0.23320423  1
  Mo  Mo165  1  0.59401605  0.19236292  0.02820281  1
  Mo  Mo166  1  0.69429642  0.30592800  0.61245289  1
  Mo  Mo167  1  0.00330667  0.81232311  0.50983224  1
  Mo  Mo168  1  0.29616623  0.89623677  0.37101928  1
  Mo  Mo169  1  0.89200133  0.29968709  0.61312439  1
  Mo  Mo170  1  0.90161189  0.50865266  0.13983076  1
  Mo  Mo171  1  0.00388705  0.20865536  -0.01077240  1
  Mo  Mo172  1  0.29996163  0.90319597  0.63241952  1
  Mo  Mo173  1  0.30816198  0.09476630  0.61282953  1
  Mo  Mo174  1  0.50150546  0.89757867  0.38727960  1
  Mo  Mo175  1  0.29746701  0.49754732  0.14625101  1
  Mo  Mo176  1  0.79952059  0.20977980  0.50132563  1
  Mo  Mo177  1  0.19740145  0.60217295  0.27959641  1
  Mo  Mo178  1  0.11127347  0.49941267  0.84536645  1
  Mo  Mo179  1  0.89548832  0.49507257  0.62561409  1
  Mo  Mo180  1  0.00078238  0.81041067  0.73604255  1
  Mo  Mo181  1  0.10147738  0.09774062  0.13071731  1
  Mo  Mo182  1  0.89728579  0.09287886  0.63831739  1
  Mo  Mo183  1  0.60113982  0.39332629  0.26218092  1
  Mo  Mo184  1  0.00251773  0.60048134  0.72601443  1
  Mo  Mo185  1  0.09887360  0.30426143  0.61407484  1
  Mo  Mo186  1  0.61281289  -0.00712396  0.26643418  1
  Mo  Mo187  1  -0.00239904  0.39538929  0.72882215  1
  Mo  Mo188  1  0.50663579  0.09836111  0.13971810  1
  Mo  Mo189  1  0.39861773  -0.00140523  0.49480308  1
  Mo  Mo190  1  0.49497912  0.70099690  0.38724011  1
  Mo  Mo191  1  0.09910989  0.30479666  0.14730286  1
  Mo  Mo192  1  0.29870364  0.30121959  0.36193398  1
  Mo  Mo193  1  0.30677391  0.31014852  0.62405554  1
  Mo  Mo194  1  0.79618869  0.80871101  0.51588875  1
  Mo  Mo195  1  -0.00333662  0.20161985  0.26942221  1
  Mo  Mo196  1  0.29361435  0.49779610  0.38502599  1
  Mo  Mo197  1  0.90011863  0.10281609  0.35910244  1
  Mo  Mo198  1  0.70347710  0.49554548  0.38876325  1
  Mo  Mo199  1  0.39759725  0.19727947  0.24009599  1
