# generated using pymatgen
data_HfZrTaTiMo
_symmetry_space_group_name_H-M   'P 1'
_cell_length_a   15.93165194
_cell_length_b   15.94753496
_cell_length_c   15.18610276
_cell_angle_alpha   89.97094469
_cell_angle_beta   90.04735905
_cell_angle_gamma   89.80974334
_symmetry_Int_Tables_number   1
_chemical_formula_structural   HfZrTaTiMo
_chemical_formula_sum   'Hf40 Zr40 Ta40 Ti40 Mo40'
_cell_volume   3858.31878625
_cell_formula_units_Z   40
loop_
 _symmetry_equiv_pos_site_id
 _symmetry_equiv_pos_as_xyz
  1  'x, y, z'
loop_
 _atom_site_type_symbol
 _atom_site_label
 _atom_site_symmetry_multiplicity
 _atom_site_fract_x
 _atom_site_fract_y
 _atom_site_fract_z
 _atom_site_occupancy
  Hf  Hf0  1  0.69880302  0.09672711  0.61891175  1
  Hf  Hf1  1  0.10327785  0.29956312  0.36923911  1
  Hf  Hf2  1  0.30709587  0.90587455  0.62491050  1
  Hf  Hf3  1  0.88842614  0.30411945  0.13611727  1
  Hf  Hf4  1  0.29245850  0.30309836  0.36862875  1
  Hf  Hf5  1  0.41515158  0.60549127  0.26455304  1
  Hf  Hf6  1  0.59696330  0.39912978  0.49345283  1
  Hf  Hf7  1  0.61385252  0.77267839  0.27026651  1
  Hf  Hf8  1  0.00419166  0.19370077  0.74456523  1
  Hf  Hf9  1  0.19970905  0.00325200  0.75285219  1
  Hf  Hf10  1  0.69997577  0.10130053  0.88433188  1
  Hf  Hf11  1  0.10308130  0.30467217  0.87826176  1
  Hf  Hf12  1  0.19846979  0.00874988  0.23082580  1
  Hf  Hf13  1  0.69802997  0.29615468  0.35790751  1
  Hf  Hf14  1  0.40598377  0.00558817  0.76557724  1
  Hf  Hf15  1  0.69497753  0.29595797  0.85631130  1
  Hf  Hf16  1  0.78997978  0.61647001  0.26868624  1
  Hf  Hf17  1  0.51357363  0.90421472  0.36256794  1
  Hf  Hf18  1  0.09478547  0.91101371  0.36671631  1
  Hf  Hf19  1  0.52056477  0.88841681  0.88279844  1
  Hf  Hf20  1  0.89395156  0.50007652  0.38063210  1
  Hf  Hf21  1  0.40398324  0.79630829  0.24477557  1
  Hf  Hf22  1  0.09611401  0.09870490  0.89246765  1
  Hf  Hf23  1  0.40578326  0.59704241  -0.00675249  1
  Hf  Hf24  1  0.79182081  0.40028130  0.50402642  1
  Hf  Hf25  1  0.29274192  0.69737814  0.37681836  1
  Hf  Hf26  1  0.08218604  0.70376055  0.11016999  1
  Hf  Hf27  1  -0.00366300  0.40900785  0.74870324  1
  Hf  Hf28  1  0.61165941  0.58893542  -0.02474492  1
  Hf  Hf29  1  0.78491198  0.80401603  -0.01190838  1
  Hf  Hf30  1  0.40725036  0.40041419  0.26099092  1
  Hf  Hf31  1  0.52650869  0.69555467  0.11854229  1
  Hf  Hf32  1  0.40327493  0.01286031  0.48176305  1
  Hf  Hf33  1  0.59592356  0.19953050  0.49980204  1
  Hf  Hf34  1  0.90221125  0.09593792  0.61559930  1
  Hf  Hf35  1  0.19421570  0.60563752  0.24753875  1
  Hf  Hf36  1  0.81176489  -0.00678726  0.00959521  1
  Hf  Hf37  1  0.61096273  -0.00731239  0.75094669  1
  Hf  Hf38  1  0.69860519  0.88651732  0.14160828  1
  Hf  Hf39  1  0.20748646  0.61030736  0.00649950  1
  Zr  Zr40  1  0.50193910  0.69914554  0.86393614  1
  Zr  Zr41  1  0.11361974  0.49684908  0.38558780  1
  Zr  Zr42  1  0.10444833  0.29987543  0.62349649  1
  Zr  Zr43  1  0.50203385  0.69535613  0.62974299  1
  Zr  Zr44  1  0.31694049  0.09752788  0.11323672  1
  Zr  Zr45  1  0.20749549  0.80871624  -0.00126437  1
  Zr  Zr46  1  0.79248701  0.59421083  0.75438058  1
  Zr  Zr47  1  0.00248929  0.40512525  0.24572703  1
  Zr  Zr48  1  0.79237578  0.40866076  -0.00117921  1
  Zr  Zr49  1  0.29410605  0.90734384  0.36257278  1
  Zr  Zr50  1  0.48507070  0.49793825  0.61314995  1
  Zr  Zr51  1  0.40667338  0.79862947  0.48672984  1
  Zr  Zr52  1  -0.00235100  0.79392423  0.26485015  1
  Zr  Zr53  1  -0.00909063  0.39948426  0.50567424  1
  Zr  Zr54  1  0.89721531  0.70922708  0.86715101  1
  Zr  Zr55  1  0.89881586  0.09523736  0.37246107  1
  Zr  Zr56  1  0.19283568  0.80926782  0.75039703  1
  Zr  Zr57  1  0.19116099  0.80054020  0.50421854  1
  Zr  Zr58  1  0.41153296  0.18811894  0.25321648  1
  Zr  Zr59  1  0.18988322  0.01214145  0.50955256  1
  Zr  Zr60  1  0.21062660  0.20069559  0.74299871  1
  Zr  Zr61  1  -0.00594393  0.39861848  0.00554702  1
  Zr  Zr62  1  0.50661117  0.90023052  0.62272050  1
  Zr  Zr63  1  -0.00648106  0.59511477  0.74329613  1
  Zr  Zr64  1  0.89211401  0.29247132  0.87333973  1
  Zr  Zr65  1  -0.00738992  0.81105788  0.50511855  1
  Zr  Zr66  1  0.39784365  0.79705006  0.00714626  1
  Zr  Zr67  1  0.19670793  0.59507967  0.74699211  1
  Zr  Zr68  1  0.30270619  0.50070194  0.12951326  1
  Zr  Zr69  1  -0.00493001  0.60870731  0.26320981  1
  Zr  Zr70  1  0.09273617  0.70338317  0.88095391  1
  Zr  Zr71  1  0.60274315  0.39159526  -0.00236291  1
  Zr  Zr72  1  0.30933209  0.10316436  0.89244921  1
  Zr  Zr73  1  0.30881331  0.69205990  0.62672435  1
  Zr  Zr74  1  0.00413561  0.19583091  0.49852935  1
  Zr  Zr75  1  0.90347992  0.09281731  0.88032611  1
  Zr  Zr76  1  0.30059381  0.30062197  0.88758767  1
  Zr  Zr77  1  0.79324708  0.59784941  -0.01575198  1
  Zr  Zr78  1  0.50977616  0.49628348  0.13377133  1
  Zr  Zr79  1  0.19140010  0.20674922  0.02166792  1
  Ta  Ta80  1  0.80071768  -0.00826644  0.50174142  1
  Ta  Ta81  1  -0.00471807  0.00659366  0.23030456  1
  Ta  Ta82  1  0.19575957  0.20385123  0.23425818  1
  Ta  Ta83  1  0.30620292  0.30762478  0.12840563  1
  Ta  Ta84  1  0.49623080  0.09952574  0.61869562  1
  Ta  Ta85  1  0.30509572  0.49765059  0.38790894  1
  Ta  Ta86  1  0.40775225  0.39823758  -0.00401481  1
  Ta  Ta87  1  0.39383374  0.39685384  0.75158948  1
  Ta  Ta88  1  0.69420551  0.69983948  0.62327346  1
  Ta  Ta89  1  0.69371877  0.51004041  0.14506217  1
  Ta  Ta90  1  0.59119696  0.19180851  0.74153195  1
  Ta  Ta91  1  0.20924188  0.40785646  0.73785181  1
  Ta  Ta92  1  0.50985898  0.90315042  0.12932216  1
  Ta  Ta93  1  0.88806483  0.29760250  0.63326736  1
  Ta  Ta94  1  0.09987075  0.50028161  0.11581603  1
  Ta  Ta95  1  0.08417385  0.90871239  0.88516762  1
  Ta  Ta96  1  0.09257736  0.90048921  0.11763112  1
  Ta  Ta97  1  0.00052283  0.19589336  0.23644270  1
  Ta  Ta98  1  0.39837773  0.20697028  0.49562987  1
  Ta  Ta99  1  -0.00773996  0.80952715  0.73763099  1
  Ta  Ta100  1  0.60517440  0.01990358  0.24846499  1
  Ta  Ta101  1  0.30138259  0.70014257  0.86300425  1
  Ta  Ta102  1  0.39395029  0.58168813  0.76265795  1
  Ta  Ta103  1  -0.00204215  0.60789569  0.50167499  1
  Ta  Ta104  1  0.79676985  0.20496968  0.50027677  1
  Ta  Ta105  1  0.78906993  0.81178566  0.73815939  1
  Ta  Ta106  1  0.78846726  0.18776251  0.23546047  1
  Ta  Ta107  1  0.88883412  0.70036819  0.62122472  1
  Ta  Ta108  1  0.29317975  0.49268010  0.88720521  1
  Ta  Ta109  1  0.60176984  0.59891697  0.48623694  1
  Ta  Ta110  1  0.88613943  0.70502791  0.11818565  1
  Ta  Ta111  1  0.89256343  0.29378661  0.36190154  1
  Ta  Ta112  1  -0.00888293  0.19514789  0.02493435  1
  Ta  Ta113  1  0.10254495  0.50226934  0.61324794  1
  Ta  Ta114  1  0.00676085  -0.00566036  0.73250619  1
  Ta  Ta115  1  0.10468184  0.49599685  0.88978797  1
  Ta  Ta116  1  0.50219731  0.29550050  0.86293143  1
  Ta  Ta117  1  0.69551204  0.29997064  0.63763198  1
  Ta  Ta118  1  0.10044788  0.10340133  0.36273169  1
  Ta  Ta119  1  0.80502847  -0.00806975  0.74526763  1
  Ti  Ti120  1  0.79156643  0.40835946  0.25062178  1
  Ti  Ti121  1  0.68177703  0.72165866  0.85313110  1
  Ti  Ti122  1  0.49439618  0.29903481  0.62818826  1
  Ti  Ti123  1  0.29159132  0.10784682  0.36828584  1
  Ti  Ti124  1  0.50473013  0.29431845  0.36786251  1
  Ti  Ti125  1  0.19700886  0.79603450  0.23648006  1
  Ti  Ti126  1  0.89814664  0.90936105  0.37208423  1
  Ti  Ti127  1  0.80571328  0.79358058  0.27175563  1
  Ti  Ti128  1  0.89241102  0.51423684  0.13259651  1
  Ti  Ti129  1  0.60391460  -0.00024422  0.49252449  1
  Ti  Ti130  1  0.70005843  0.09993792  0.37745086  1
  Ti  Ti131  1  0.79741835  0.18964610  0.74238880  1
  Ti  Ti132  1  0.41021999  0.00520212  0.25055485  1
  Ti  Ti133  1  -0.02032625  0.81675683  -0.00474654  1
  Ti  Ti134  1  0.79725312  0.00332051  0.24229579  1
  Ti  Ti135  1  0.61424517  -0.01047649  0.00556586  1
  Ti  Ti136  1  -0.01448888  0.59352904  -0.00704800  1
  Ti  Ti137  1  0.41977547  0.21178204  0.00758862  1
  Ti  Ti138  1  0.20292833  -0.00569888  0.00364389  1
  Ti  Ti139  1  0.59566555  0.58392743  0.75634642  1
  Ti  Ti140  1  0.78413794  0.20208466  0.02043606  1
  Ti  Ti141  1  0.20563528  0.19991840  0.50582513  1
  Ti  Ti142  1  0.69119120  0.49859342  0.63043882  1
  Ti  Ti143  1  0.09417179  0.70063871  0.62417661  1
  Ti  Ti144  1  0.40660844  -0.01239281  -0.00618681  1
  Ti  Ti145  1  0.51377232  0.29782626  0.13741522  1
  Ti  Ti146  1  0.80317082  0.40981316  0.74434919  1
  Ti  Ti147  1  0.21772984  0.39474333  0.51942471  1
  Ti  Ti148  1  0.60880843  0.80104357  0.49658620  1
  Ti  Ti149  1  0.30648668  0.90043016  0.12959694  1
  Ti  Ti150  1  0.89878147  0.89165304  0.13998904  1
  Ti  Ti151  1  0.70673281  0.90564200  0.37273597  1
  Ti  Ti152  1  0.79778328  0.80416810  0.50324140  1
  Ti  Ti153  1  0.40374886  0.19971075  0.74770958  1
  Ti  Ti154  1  0.51123291  0.10571025  0.89120210  1
  Ti  Ti155  1  0.39796995  0.80756380  0.75924693  1
  Ti  Ti156  1  0.20153053  0.60022160  0.50772058  1
  Ti  Ti157  1  0.51427346  0.09669597  0.10904671  1
  Ti  Ti158  1  0.30934876  0.10611530  0.62279632  1
  Ti  Ti159  1  0.79451238  0.59744592  0.50463285  1
  Mo  Mo160  1  0.59967771  0.20021767  0.00828418  1
  Mo  Mo161  1  0.60209486  0.39890283  0.25925722  1
  Mo  Mo162  1  0.09785719  0.90299149  0.62543412  1
  Mo  Mo163  1  0.40088836  0.59471909  0.48484274  1
  Mo  Mo164  1  0.10393944  0.09992723  0.62359734  1
  Mo  Mo165  1  0.90175302  0.49678372  0.87797607  1
  Mo  Mo166  1  0.09782997  0.09709274  0.11962394  1
  Mo  Mo167  1  0.60283052  0.79948026  0.72971066  1
  Mo  Mo168  1  0.31339551  0.29930354  0.62049989  1
  Mo  Mo169  1  0.69400399  0.30330924  0.14167155  1
  Mo  Mo170  1  0.89470019  0.50194640  0.61089810  1
  Mo  Mo171  1  0.49496660  0.48683887  0.86470560  1
  Mo  Mo172  1  0.30146884  0.90110346  0.87580930  1
  Mo  Mo173  1  0.69484974  0.48418602  0.84835291  1
  Mo  Mo174  1  0.30101043  0.49769159  0.61226246  1
  Mo  Mo175  1  0.90254077  0.90299497  0.85700262  1
  Mo  Mo176  1  0.60532514  0.59319600  0.27600232  1
  Mo  Mo177  1  0.70132872  0.89891569  0.60525874  1
  Mo  Mo178  1  0.50228494  0.69916632  0.39072699  1
  Mo  Mo179  1  0.70439812  0.90264855  0.87396307  1
  Mo  Mo180  1  0.89544249  0.70362388  0.40312429  1
  Mo  Mo181  1  0.40203098  0.38963030  0.48772864  1
  Mo  Mo182  1  0.20142019  0.40517068  0.01425484  1
  Mo  Mo183  1  0.70611387  0.70336770  0.40650015  1
  Mo  Mo184  1  0.89453012  0.89967497  0.62742156  1
  Mo  Mo185  1  0.70852918  0.69166363  0.12460688  1
  Mo  Mo186  1  0.59219454  0.39508796  0.73612429  1
  Mo  Mo187  1  -0.00104152  -0.00069736  0.50490115  1
  Mo  Mo188  1  0.10269580  0.70143333  0.39097796  1
  Mo  Mo189  1  0.60205304  0.19550822  0.23958564  1
  Mo  Mo190  1  0.60589361  0.79840476  0.01000098  1
  Mo  Mo191  1  0.09901012  0.30538236  0.13604873  1
  Mo  Mo192  1  0.30191237  0.70449159  0.14158542  1
  Mo  Mo193  1  0.89336674  0.09932697  0.12670232  1
  Mo  Mo194  1  0.20353722  0.40213052  0.23620669  1
  Mo  Mo195  1  0.69603575  0.09457876  0.11268693  1
  Mo  Mo196  1  0.49980834  0.49561355  0.38420057  1
  Mo  Mo197  1  -0.00223426  -0.00583598  0.01636991  1
  Mo  Mo198  1  0.69862307  0.49869372  0.37106114  1
  Mo  Mo199  1  0.50796131  0.10212114  0.38309929  1
