# generated using pymatgen
data_HfZrTaTiMo
_symmetry_space_group_name_H-M   'P 1'
_cell_length_a   15.92369272
_cell_length_b   15.93328217
_cell_length_c   15.20098615
_cell_angle_alpha   89.94130815
_cell_angle_beta   89.92243564
_cell_angle_gamma   89.85009672
_symmetry_Int_Tables_number   1
_chemical_formula_structural   HfZrTaTiMo
_chemical_formula_sum   'Hf40 Zr40 Ta40 Ti40 Mo40'
_cell_volume   3856.72513572
_cell_formula_units_Z   40
loop_
 _symmetry_equiv_pos_site_id
 _symmetry_equiv_pos_as_xyz
  1  'x, y, z'
loop_
 _atom_site_type_symbol
 _atom_site_label
 _atom_site_symmetry_multiplicity
 _atom_site_fract_x
 _atom_site_fract_y
 _atom_site_fract_z
 _atom_site_occupancy
  Hf  Hf0  1  0.49400002  0.90080111  0.87038484  1
  Hf  Hf1  1  0.29401431  0.91272764  0.11632910  1
  Hf  Hf2  1  0.61267065  0.60337323  0.49964711  1
  Hf  Hf3  1  0.01224396  0.38239187  0.02036416  1
  Hf  Hf4  1  0.20144685  0.59854406  0.74011976  1
  Hf  Hf5  1  0.50334874  0.49565934  0.62486643  1
  Hf  Hf6  1  0.71005032  0.50242918  0.62264737  1
  Hf  Hf7  1  0.39555230  0.79869721  0.74108531  1
  Hf  Hf8  1  0.70774704  0.09550425  0.37134009  1
  Hf  Hf9  1  0.61130342  0.18758528  0.22654167  1
  Hf  Hf10  1  0.58903314  0.19996251  0.51132220  1
  Hf  Hf11  1  0.29644740  0.49733169  0.61184794  1
  Hf  Hf12  1  0.60252876  0.81574012  0.50594388  1
  Hf  Hf13  1  0.68746302  0.29559896  0.36469237  1
  Hf  Hf14  1  0.69914037  0.30401414  0.63343411  1
  Hf  Hf15  1  0.50353116  0.70809700  0.38298459  1
  Hf  Hf16  1  0.18884953  0.81256096  -0.00311438  1
  Hf  Hf17  1  0.29952090  0.30577952  0.62795983  1
  Hf  Hf18  1  0.80115183  -0.01142264  -0.00353443  1
  Hf  Hf19  1  0.41398851  0.39475348  -0.02219781  1
  Hf  Hf20  1  0.80075559  0.39956933  0.25248943  1
  Hf  Hf21  1  0.09091525  0.88872801  0.62126577  1
  Hf  Hf22  1  0.79283301  0.79905575  0.00475171  1
  Hf  Hf23  1  0.39495880  0.80891525  0.26171131  1
  Hf  Hf24  1  0.90622070  0.49673727  0.61552707  1
  Hf  Hf25  1  0.80716048  0.40115726  0.76508394  1
  Hf  Hf26  1  0.50999312  0.49227850  0.36516955  1
  Hf  Hf27  1  0.20203182  0.39423447  0.26226400  1
  Hf  Hf28  1  0.61079838  0.60801964  0.24530992  1
  Hf  Hf29  1  0.30201911  0.10421641  0.38367433  1
  Hf  Hf30  1  0.50572387  0.49158275  0.12880188  1
  Hf  Hf31  1  0.30508531  0.30707955  0.13306328  1
  Hf  Hf32  1  0.89015556  0.90568142  0.35515960  1
  Hf  Hf33  1  0.30162847  0.70147661  0.88539560  1
  Hf  Hf34  1  0.79521712  0.19414303  0.01460866  1
  Hf  Hf35  1  0.10248042  0.08760537  0.12437932  1
  Hf  Hf36  1  0.40459609  0.19602868  0.00375683  1
  Hf  Hf37  1  0.00174179  0.40158471  0.75789963  1
  Hf  Hf38  1  0.10596863  0.50518347  0.89027511  1
  Hf  Hf39  1  0.59959880  0.40144735  0.77292337  1
  Zr  Zr40  1  0.60478153  0.60400516  0.00377532  1
  Zr  Zr41  1  0.19817636  0.00071402  0.73859534  1
  Zr  Zr42  1  0.78992369  0.79762948  0.24084272  1
  Zr  Zr43  1  0.09635464  0.31200246  0.61400871  1
  Zr  Zr44  1  0.30838054  0.50244753  0.12352094  1
  Zr  Zr45  1  0.10191501  0.28498107  0.87596431  1
  Zr  Zr46  1  0.60056552  0.60732240  0.74500242  1
  Zr  Zr47  1  0.00157755  0.19490034  0.73619993  1
  Zr  Zr48  1  0.67638765  0.90679144  0.13195451  1
  Zr  Zr49  1  -0.01367171  0.00125520  0.49761091  1
  Zr  Zr50  1  0.20274584  0.80406001  0.26363285  1
  Zr  Zr51  1  0.89443944  0.69251399  0.88207016  1
  Zr  Zr52  1  0.29790568  0.88850732  0.61151759  1
  Zr  Zr53  1  0.90572653  0.50337948  0.13052081  1
  Zr  Zr54  1  0.59920533  0.80083992  -0.00769722  1
  Zr  Zr55  1  0.80121257  0.40607616  0.47813169  1
  Zr  Zr56  1  -0.00185023  -0.00658975  0.75127956  1
  Zr  Zr57  1  0.90630517  0.50419134  0.89480770  1
  Zr  Zr58  1  -0.00726743  0.81899494  -0.00728215  1
  Zr  Zr59  1  0.40099861  0.60959258  0.24779281  1
  Zr  Zr60  1  0.20509966  0.19896773  0.01576637  1
  Zr  Zr61  1  0.19093747  0.60492049  0.48953021  1
  Zr  Zr62  1  0.79681554  0.39897183  0.00512034  1
  Zr  Zr63  1  0.11266263  0.50564287  0.12993155  1
  Zr  Zr64  1  0.68727971  0.08858519  0.65041211  1
  Zr  Zr65  1  0.10136729  0.69498748  0.87877294  1
  Zr  Zr66  1  0.50564914  0.10643016  0.36826508  1
  Zr  Zr67  1  0.09585364  0.50945246  0.36073060  1
  Zr  Zr68  1  0.90835776  0.27382483  0.36931616  1
  Zr  Zr69  1  0.90725732  0.09654685  0.88693587  1
  Zr  Zr70  1  0.89254727  0.69934222  0.62236124  1
  Zr  Zr71  1  0.41468432  0.38649287  0.49432139  1
  Zr  Zr72  1  0.79761616  0.18977205  0.51016166  1
  Zr  Zr73  1  -0.00740504  0.79722314  0.48559477  1
  Zr  Zr74  1  0.50576553  0.30868761  0.13571804  1
  Zr  Zr75  1  0.79908645  0.19912938  0.76273906  1
  Zr  Zr76  1  0.19831047  -0.00095576  0.27234955  1
  Zr  Zr77  1  0.19124099  0.00200010  0.49685518  1
  Zr  Zr78  1  0.41373577  -0.00722659  0.50422845  1
  Zr  Zr79  1  0.29916028  0.09771844  0.87237830  1
  Ta  Ta80  1  0.60413405  -0.00030901  0.50082111  1
  Ta  Ta81  1  0.90776416  0.70511637  0.13485841  1
  Ta  Ta82  1  0.19814254  0.19221762  0.73158912  1
  Ta  Ta83  1  0.10104829  0.08863128  0.89379367  1
  Ta  Ta84  1  0.29972600  0.70940470  0.11067737  1
  Ta  Ta85  1  0.39682679  0.19206036  0.23890202  1
  Ta  Ta86  1  0.30853124  0.29187695  0.37520278  1
  Ta  Ta87  1  0.49041739  0.90149255  0.12372249  1
  Ta  Ta88  1  0.39722353  0.60125561  0.74349147  1
  Ta  Ta89  1  0.20178477  0.40354768  0.76014615  1
  Ta  Ta90  1  0.19493658  0.20091693  0.50392541  1
  Ta  Ta91  1  0.30903247  0.50014171  0.37561441  1
  Ta  Ta92  1  0.50336136  0.08316239  0.12165601  1
  Ta  Ta93  1  0.90639600  0.29234543  0.89583406  1
  Ta  Ta94  1  0.80262822  0.59964935  0.75276917  1
  Ta  Ta95  1  0.21035440  0.39623680  -0.00672209  1
  Ta  Ta96  1  0.39827470  0.40678868  0.75941268  1
  Ta  Ta97  1  0.00182826  0.59844181  0.74214392  1
  Ta  Ta98  1  0.78814264  -0.01410609  0.50560018  1
  Ta  Ta99  1  0.40051204  0.19442883  0.51993747  1
  Ta  Ta100  1  0.00125694  0.39748756  0.47483031  1
  Ta  Ta101  1  0.30165918  0.50811170  0.88298872  1
  Ta  Ta102  1  -0.00297458  0.79579852  0.75636791  1
  Ta  Ta103  1  0.79981523  0.59679301  0.25440037  1
  Ta  Ta104  1  0.39893035  -0.00164670  0.25642471  1
  Ta  Ta105  1  0.88872333  0.08774794  0.63124483  1
  Ta  Ta106  1  0.09813774  0.69944456  0.62359349  1
  Ta  Ta107  1  0.08024730  0.11817166  0.37507234  1
  Ta  Ta108  1  0.10132570  0.70641833  0.13294640  1
  Ta  Ta109  1  0.50383345  0.29669216  0.64901648  1
  Ta  Ta110  1  0.59593458  0.19994041  -0.00795178  1
  Ta  Ta111  1  0.79307822  0.80406178  0.49185095  1
  Ta  Ta112  1  0.29828431  0.69966919  0.61012710  1
  Ta  Ta113  1  0.30037470  0.29617383  0.86207920  1
  Ta  Ta114  1  0.49441747  0.70369563  0.86984460  1
  Ta  Ta115  1  0.40763877  0.60831205  0.00320725  1
  Ta  Ta116  1  0.39936328  0.00441806  0.73567579  1
  Ta  Ta117  1  0.79184006  0.01434511  0.22595914  1
  Ta  Ta118  1  0.50244543  0.10168696  0.86061437  1
  Ta  Ta119  1  0.00315097  0.38461211  0.25036679  1
  Ti  Ti120  1  0.88506296  0.89520142  0.63489115  1
  Ti  Ti121  1  0.90025008  0.30041253  0.61376475  1
  Ti  Ti122  1  -0.00559260  0.59960167  0.48964217  1
  Ti  Ti123  1  0.30767542  0.70298724  0.39458047  1
  Ti  Ti124  1  0.80515644  0.19934509  0.22380092  1
  Ti  Ti125  1  0.09766926  0.49969148  0.61359026  1
  Ti  Ti126  1  0.79925314  0.80330738  0.76464711  1
  Ti  Ti127  1  0.90948797  0.90741544  0.13906464  1
  Ti  Ti128  1  0.69431568  0.49412988  0.12537473  1
  Ti  Ti129  1  0.19305586  0.80260665  0.48001652  1
  Ti  Ti130  1  0.70071136  0.70896086  0.37179763  1
  Ti  Ti131  1  0.69616441  0.29619204  0.88466937  1
  Ti  Ti132  1  0.49990616  0.71520318  0.12429192  1
  Ti  Ti133  1  0.70438935  0.50921285  0.88418963  1
  Ti  Ti134  1  0.19681470  0.19955767  0.25054958  1
  Ti  Ti135  1  0.29707074  0.90306522  0.87827656  1
  Ti  Ti136  1  0.21073393  0.61176902  0.25459465  1
  Ti  Ti137  1  0.40668386  0.60011463  0.50254984  1
  Ti  Ti138  1  0.51513081  0.90678699  0.64287066  1
  Ti  Ti139  1  0.39797766  0.00390047  -0.00178876  1
  Ti  Ti140  1  0.19702366  0.39674025  0.47967546  1
  Ti  Ti141  1  0.08915332  0.90320845  0.14144994  1
  Ti  Ti142  1  0.39761139  0.19547752  0.73991942  1
  Ti  Ti143  1  0.69515950  0.70358891  0.86398267  1
  Ti  Ti144  1  0.19511667  0.79852353  0.75428985  1
  Ti  Ti145  1  0.69083850  0.31046758  0.11907442  1
  Ti  Ti146  1  0.08743966  0.70439287  0.35519418  1
  Ti  Ti147  1  0.89529902  0.09545777  0.36078238  1
  Ti  Ti148  1  0.79247077  0.60975156  0.02183105  1
  Ti  Ti149  1  0.50034111  0.51416469  0.87571417  1
  Ti  Ti150  1  0.70594839  0.71057739  0.63133585  1
  Ti  Ti151  1  0.60334914  0.39621206  0.49502309  1
  Ti  Ti152  1  0.60194761  0.00475473  -0.01833572  1
  Ti  Ti153  1  0.70105158  0.89877875  0.64846357  1
  Ti  Ti154  1  0.91440287  0.09284527  0.12038334  1
  Ti  Ti155  1  0.68961140  0.90492934  0.35914035  1
  Ti  Ti156  1  0.90222385  0.69718755  0.35727425  1
  Ti  Ti157  1  0.80455929  0.60359482  0.47744872  1
  Ti  Ti158  1  0.49811730  0.70701030  0.62058913  1
  Ti  Ti159  1  0.00678131  0.60923354  0.01702013  1
  Mo  Mo160  1  0.59787623  0.20236936  0.76660694  1
  Mo  Mo161  1  0.58947712  0.80173181  0.25439919  1
  Mo  Mo162  1  0.10342446  0.90062289  0.85861542  1
  Mo  Mo163  1  0.70173463  0.69734141  0.13287133  1
  Mo  Mo164  1  0.59427154  -0.00127553  0.25549969  1
  Mo  Mo165  1  0.00019735  0.60601689  0.24175441  1
  Mo  Mo166  1  0.09172181  0.90433211  0.37077117  1
  Mo  Mo167  1  0.49640066  0.29288677  0.36023639  1
  Mo  Mo168  1  0.69609803  0.09937409  0.88406107  1
  Mo  Mo169  1  0.20558188  0.60421019  0.01327959  1
  Mo  Mo170  1  0.89649898  0.89578887  0.86358557  1
  Mo  Mo171  1  0.40534946  0.79771090  0.50480516  1
  Mo  Mo172  1  0.10656892  0.29511439  0.13830409  1
  Mo  Mo173  1  0.00498438  -0.00984712  -0.00119266  1
  Mo  Mo174  1  0.79923858  -0.00883907  0.76509751  1
  Mo  Mo175  1  0.69319191  0.09696769  0.10619786  1
  Mo  Mo176  1  0.19850493  -0.00522712  -0.00627589  1
  Mo  Mo177  1  -0.00473148  0.00543939  0.25960793  1
  Mo  Mo178  1  0.50017716  0.09812063  0.64216428  1
  Mo  Mo179  1  0.49495343  0.29187346  0.86191315  1
  Mo  Mo180  1  0.30679906  0.09603576  0.13342465  1
  Mo  Mo181  1  0.50776650  0.90385878  0.36582299  1
  Mo  Mo182  1  0.00080281  0.19486556  0.01766348  1
  Mo  Mo183  1  0.59896455  0.79858864  0.74349092  1
  Mo  Mo184  1  0.40175607  0.39311987  0.26888712  1
  Mo  Mo185  1  0.00341214  0.19782055  0.23154361  1
  Mo  Mo186  1  0.39896709  0.80457868  0.00003833  1
  Mo  Mo187  1  0.90353302  0.29168333  0.12986155  1
  Mo  Mo188  1  0.60881184  0.40026357  0.25722515  1
  Mo  Mo189  1  0.10422377  0.29388947  0.37732520  1
  Mo  Mo190  1  0.90395178  0.50548254  0.36375424  1
  Mo  Mo191  1  0.30562070  0.89711560  0.39326157  1
  Mo  Mo192  1  0.59963249  -0.00286467  0.76805334  1
  Mo  Mo193  1  0.60410793  0.39992606  -0.01837104  1
  Mo  Mo194  1  0.00003106  0.80378040  0.25017052  1
  Mo  Mo195  1  -0.00508218  0.19595963  0.51535124  1
  Mo  Mo196  1  0.29896145  0.10319827  0.61767802  1
  Mo  Mo197  1  0.70302012  0.50500227  0.37749370  1
  Mo  Mo198  1  0.09239811  0.10268547  0.60804626  1
  Mo  Mo199  1  0.69814111  0.89972359  0.86339991  1
