# generated using pymatgen
data_HfZrTaTiMo
_symmetry_space_group_name_H-M   'P 1'
_cell_length_a   15.93428014
_cell_length_b   15.92832713
_cell_length_c   15.20553879
_cell_angle_alpha   89.98983847
_cell_angle_beta   89.93206370
_cell_angle_gamma   90.09140429
_symmetry_Int_Tables_number   1
_chemical_formula_structural   HfZrTaTiMo
_chemical_formula_sum   'Hf40 Zr40 Ta40 Ti40 Mo40'
_cell_volume   3859.25577997
_cell_formula_units_Z   40
loop_
 _symmetry_equiv_pos_site_id
 _symmetry_equiv_pos_as_xyz
  1  'x, y, z'
loop_
 _atom_site_type_symbol
 _atom_site_label
 _atom_site_symmetry_multiplicity
 _atom_site_fract_x
 _atom_site_fract_y
 _atom_site_fract_z
 _atom_site_occupancy
  Hf  Hf0  1  0.01224715  0.20220384  0.00174938  1
  Hf  Hf1  1  0.09263188  0.89981676  0.12578975  1
  Hf  Hf2  1  0.37801843  0.79314124  0.48192307  1
  Hf  Hf3  1  0.80078186  0.79078928  0.24849809  1
  Hf  Hf4  1  -0.00060725  0.00434695  0.26294399  1
  Hf  Hf5  1  0.90801662  0.90044190  0.63406065  1
  Hf  Hf6  1  0.38813203  0.39663782  0.01536684  1
  Hf  Hf7  1  0.38275798  0.01599797  0.25897941  1
  Hf  Hf8  1  0.28910882  0.29599822  0.87384800  1
  Hf  Hf9  1  0.59681953  -0.00809914  0.51299665  1
  Hf  Hf10  1  0.19652243  0.19446368  0.49284212  1
  Hf  Hf11  1  0.28720087  0.69960238  0.86536901  1
  Hf  Hf12  1  0.79778954  0.21041182  0.74506547  1
  Hf  Hf13  1  0.70617656  0.50508390  0.38080471  1
  Hf  Hf14  1  0.92183858  0.30986611  0.13244438  1
  Hf  Hf15  1  0.80329985  0.59693520  -0.00319032  1
  Hf  Hf16  1  0.50084224  0.50046998  0.89043285  1
  Hf  Hf17  1  0.60890895  0.39911046  0.00883728  1
  Hf  Hf18  1  0.30071432  0.50373446  0.35880788  1
  Hf  Hf19  1  0.29486843  0.88137804  0.63915852  1
  Hf  Hf20  1  0.70850996  0.29107482  0.12817110  1
  Hf  Hf21  1  0.89600073  0.69748217  0.38807047  1
  Hf  Hf22  1  0.49689009  0.50823605  0.12830726  1
  Hf  Hf23  1  0.41045630  0.62069507  0.24723654  1
  Hf  Hf24  1  0.09864019  0.29661952  0.85494116  1
  Hf  Hf25  1  0.49385313  0.29195349  0.13837001  1
  Hf  Hf26  1  0.78669791  0.79481771  -0.00716827  1
  Hf  Hf27  1  0.39941469  0.00244986  0.75910027  1
  Hf  Hf28  1  0.80399135  -0.00249476  0.25089146  1
  Hf  Hf29  1  0.20882621  0.18541178  0.24448065  1
  Hf  Hf30  1  0.80574076  0.39982082  -0.00131889  1
  Hf  Hf31  1  0.00806557  0.00427759  0.50342276  1
  Hf  Hf32  1  0.10763647  0.50324602  0.87118366  1
  Hf  Hf33  1  0.68713466  0.70278672  0.63489023  1
  Hf  Hf34  1  0.49122030  0.90280859  0.13615484  1
  Hf  Hf35  1  0.19509884  0.40030184  0.23689859  1
  Hf  Hf36  1  0.80416141  0.19790596  0.51092224  1
  Hf  Hf37  1  0.49938304  0.29818732  0.60467825  1
  Hf  Hf38  1  0.68111571  0.88816944  0.13183175  1
  Hf  Hf39  1  0.11927297  0.70745126  0.36942246  1
  Zr  Zr40  1  0.89911799  0.90249332  0.11786675  1
  Zr  Zr41  1  0.00181243  0.59252715  0.26501677  1
  Zr  Zr42  1  0.69518123  0.09034679  0.12266225  1
  Zr  Zr43  1  0.19525870  0.40652965  0.49388975  1
  Zr  Zr44  1  0.19136468  0.38604453  0.01822263  1
  Zr  Zr45  1  0.49222207  0.10491830  0.61474619  1
  Zr  Zr46  1  0.07949220  0.49885455  0.11822760  1
  Zr  Zr47  1  0.70086859  0.30164375  0.38320758  1
  Zr  Zr48  1  0.50162624  0.49671031  0.61775789  1
  Zr  Zr49  1  0.12708834  0.70819582  0.63369958  1
  Zr  Zr50  1  0.81406429  0.79013742  0.74578893  1
  Zr  Zr51  1  0.47711029  0.69966574  0.63002840  1
  Zr  Zr52  1  0.81229682  0.19197904  0.25240911  1
  Zr  Zr53  1  0.60303817  0.39160621  0.75441711  1
  Zr  Zr54  1  0.19117011  0.79290461  -0.00027187  1
  Zr  Zr55  1  0.69012030  0.69648773  0.85928817  1
  Zr  Zr56  1  0.60686001  0.40520612  0.24047880  1
  Zr  Zr57  1  0.30308200  0.51818934  0.62466105  1
  Zr  Zr58  1  0.01808497  0.59855104  0.50374940  1
  Zr  Zr59  1  0.69772141  0.89695470  0.37115618  1
  Zr  Zr60  1  0.01014940  0.20207975  0.51193563  1
  Zr  Zr61  1  0.30534652  0.29603719  0.61529515  1
  Zr  Zr62  1  0.90877114  0.69527590  0.12380553  1
  Zr  Zr63  1  0.39850838  0.19839068  0.76048833  1
  Zr  Zr64  1  0.69781893  0.69062655  0.37905401  1
  Zr  Zr65  1  -0.00546956  0.79926206  -0.02512142  1
  Zr  Zr66  1  0.70259272  0.10208799  0.86374886  1
  Zr  Zr67  1  0.81191750  0.40681723  0.25287521  1
  Zr  Zr68  1  0.80262175  0.00061607  -0.01050173  1
  Zr  Zr69  1  0.50778509  0.50442152  0.37147358  1
  Zr  Zr70  1  0.01320377  0.19293367  0.25524163  1
  Zr  Zr71  1  0.40101951  0.40038465  0.75882497  1
  Zr  Zr72  1  0.49742774  0.30123547  0.37292228  1
  Zr  Zr73  1  0.29861956  0.90227600  0.12389198  1
  Zr  Zr74  1  0.61053785  0.60666217  0.00746774  1
  Zr  Zr75  1  -0.00186626  0.60929845  0.74849535  1
  Zr  Zr76  1  0.59039977  -0.01189200  -0.01737079  1
  Zr  Zr77  1  0.69706960  0.09257154  0.38043883  1
  Zr  Zr78  1  0.58800004  0.80028772  0.50281405  1
  Zr  Zr79  1  0.80465046  0.59035390  0.74008033  1
  Ta  Ta80  1  0.00009692  0.80208983  0.26251753  1
  Ta  Ta81  1  0.00868554  0.80396013  0.49990974  1
  Ta  Ta82  1  0.30761983  0.29596869  0.36162181  1
  Ta  Ta83  1  0.49426047  0.09643108  0.12649841  1
  Ta  Ta84  1  0.50490942  0.71764892  0.10701608  1
  Ta  Ta85  1  0.69882321  0.10038949  0.63222095  1
  Ta  Ta86  1  0.58168918  0.78258263  0.26114445  1
  Ta  Ta87  1  0.10541330  0.89941081  0.37254290  1
  Ta  Ta88  1  0.79791800  -0.00552704  0.52080181  1
  Ta  Ta89  1  0.90620970  0.30494399  0.38574502  1
  Ta  Ta90  1  0.39074311  -0.00952909  0.48962803  1
  Ta  Ta91  1  0.81033120  0.20282543  -0.00513200  1
  Ta  Ta92  1  0.10576200  0.90097393  0.63388002  1
  Ta  Ta93  1  0.29340323  0.50144218  0.88668446  1
  Ta  Ta94  1  0.59530544  0.18513141  0.25197117  1
  Ta  Ta95  1  0.69760418  0.89794520  0.85335550  1
  Ta  Ta96  1  -0.00071648  0.40173650  0.73812811  1
  Ta  Ta97  1  0.90297446  0.09854383  0.64101733  1
  Ta  Ta98  1  0.29443450  0.90369028  0.87288418  1
  Ta  Ta99  1  0.80107464  0.60127119  0.52515816  1
  Ta  Ta100  1  0.40163842  0.60178544  0.77198587  1
  Ta  Ta101  1  0.49257480  0.90291396  0.36417888  1
  Ta  Ta102  1  0.19364815  0.00795178  -0.00291189  1
  Ta  Ta103  1  0.59672625  -0.00169041  0.74227087  1
  Ta  Ta104  1  0.69259858  0.30148244  0.61578577  1
  Ta  Ta105  1  0.40678100  0.80743096  -0.02029721  1
  Ta  Ta106  1  0.39308034  0.19657301  0.00723642  1
  Ta  Ta107  1  0.80283059  0.40379777  0.51569867  1
  Ta  Ta108  1  0.70370817  0.49259906  0.86429439  1
  Ta  Ta109  1  0.39079233  0.61031146  0.00295869  1
  Ta  Ta110  1  0.59843314  0.19764959  0.00256266  1
  Ta  Ta111  1  0.00995175  0.00512486  0.75383875  1
  Ta  Ta112  1  0.90770985  0.10935502  0.86037231  1
  Ta  Ta113  1  0.29961889  0.09092097  0.61072928  1
  Ta  Ta114  1  0.20295569  0.60544803  0.23023837  1
  Ta  Ta115  1  0.00574304  0.00554926  -0.02270431  1
  Ta  Ta116  1  0.39403956  0.00531053  -0.01133487  1
  Ta  Ta117  1  0.00719451  0.39957390  0.50471988  1
  Ta  Ta118  1  0.90087674  0.49888045  0.39291133  1
  Ta  Ta119  1  0.79874646  0.80237015  0.51790179  1
  Ti  Ti120  1  0.89930578  0.50237216  0.12759294  1
  Ti  Ti121  1  0.10741094  0.50137806  0.63218037  1
  Ti  Ti122  1  0.48650122  0.89674896  0.63211287  1
  Ti  Ti123  1  0.90257661  0.49701638  0.86882843  1
  Ti  Ti124  1  0.19405990  0.19451575  0.72573723  1
  Ti  Ti125  1  0.10184003  0.30422230  0.36702058  1
  Ti  Ti126  1  0.30606277  0.71336207  0.12696706  1
  Ti  Ti127  1  0.20086769  0.19725272  0.02532935  1
  Ti  Ti128  1  0.20171092  0.00655882  0.74863313  1
  Ti  Ti129  1  0.40080869  0.60721819  0.48147367  1
  Ti  Ti130  1  0.20115084  -0.00958956  0.49806557  1
  Ti  Ti131  1  0.90830265  0.49872716  0.61811361  1
  Ti  Ti132  1  0.90280880  0.30130191  0.86363275  1
  Ti  Ti133  1  0.10614928  0.90306517  0.86403490  1
  Ti  Ti134  1  0.80102309  0.40133405  0.73785484  1
  Ti  Ti135  1  0.00542794  0.79670615  0.75959515  1
  Ti  Ti136  1  0.28911457  0.10528947  0.88091123  1
  Ti  Ti137  1  0.89806963  0.89844153  0.38962033  1
  Ti  Ti138  1  0.60100293  0.59604754  0.51052114  1
  Ti  Ti139  1  0.19084065  0.00731161  0.24602275  1
  Ti  Ti140  1  0.59963281  0.19492547  0.49399448  1
  Ti  Ti141  1  0.39592070  0.40429089  0.48958408  1
  Ti  Ti142  1  0.70137855  0.29803576  0.87962765  1
  Ti  Ti143  1  0.90660289  0.30202968  0.62658952  1
  Ti  Ti144  1  0.59077318  0.59152949  0.75156815  1
  Ti  Ti145  1  0.50080579  0.29555904  0.89002033  1
  Ti  Ti146  1  0.89933784  0.09835817  0.39075660  1
  Ti  Ti147  1  0.19680966  0.60287881  0.01852288  1
  Ti  Ti148  1  0.00414563  0.60901410  -0.01485296  1
  Ti  Ti149  1  0.22129360  0.61999606  0.49183287  1
  Ti  Ti150  1  0.20363475  0.40251446  0.74011023  1
  Ti  Ti151  1  0.50133457  0.10548698  0.87989180  1
  Ti  Ti152  1  0.49404471  0.09918476  0.37767511  1
  Ti  Ti153  1  0.90948891  0.09743058  0.11324719  1
  Ti  Ti154  1  0.10516692  0.10912465  0.86457288  1
  Ti  Ti155  1  0.28419120  0.88896928  0.35600469  1
  Ti  Ti156  1  0.59497242  0.20198122  0.75172909  1
  Ti  Ti157  1  -0.00145805  0.39859259  -0.01543722  1
  Ti  Ti158  1  0.89525712  0.90991668  0.85904012  1
  Ti  Ti159  1  0.58029538  0.80416722  0.75767997  1
  Mo  Mo160  1  0.69852494  0.49687570  0.62838922  1
  Mo  Mo161  1  0.19346545  0.80501713  0.76753443  1
  Mo  Mo162  1  0.29999790  0.70236904  0.35269688  1
  Mo  Mo163  1  0.90037927  0.69492415  0.88352986  1
  Mo  Mo164  1  0.39951211  0.80150168  0.76790843  1
  Mo  Mo165  1  0.30466577  0.69856223  0.64247723  1
  Mo  Mo166  1  0.00349246  0.40137240  0.27901315  1
  Mo  Mo167  1  0.80220929  0.00129236  0.74376269  1
  Mo  Mo168  1  0.49642159  0.90424399  0.86219226  1
  Mo  Mo169  1  0.69579558  0.70126679  0.13690809  1
  Mo  Mo170  1  0.49575285  0.70133403  0.88286107  1
  Mo  Mo171  1  0.19521339  0.80171049  0.23187314  1
  Mo  Mo172  1  0.29902533  0.51231648  0.11970753  1
  Mo  Mo173  1  0.30149063  0.09554429  0.10910485  1
  Mo  Mo174  1  0.20614544  0.59041188  0.75220879  1
  Mo  Mo175  1  0.71142331  0.50673136  0.13530356  1
  Mo  Mo176  1  0.30610290  0.29335529  0.14280750  1
  Mo  Mo177  1  0.10592352  0.50087864  0.37633267  1
  Mo  Mo178  1  0.09791856  0.70331784  0.13781866  1
  Mo  Mo179  1  0.39619398  0.80240712  0.25935673  1
  Mo  Mo180  1  0.59573411  0.80308721  -0.01546503  1
  Mo  Mo181  1  0.39952675  0.19503670  0.25470148  1
  Mo  Mo182  1  0.09922017  0.29542632  0.13706830  1
  Mo  Mo183  1  0.29540879  0.09175209  0.39060234  1
  Mo  Mo184  1  0.19826575  0.80747393  0.49585493  1
  Mo  Mo185  1  0.60524456  0.40170308  0.50130256  1
  Mo  Mo186  1  0.58965763  -0.00083612  0.25646737  1
  Mo  Mo187  1  0.00171137  0.20202182  0.74089580  1
  Mo  Mo188  1  0.10454884  0.09026070  0.38445222  1
  Mo  Mo189  1  0.39513438  0.19249467  0.47878276  1
  Mo  Mo190  1  0.60720801  0.60855339  0.23403136  1
  Mo  Mo191  1  0.09751060  0.09076910  0.11299940  1
  Mo  Mo192  1  0.10819228  0.09115689  0.63208974  1
  Mo  Mo193  1  0.80023719  0.59621634  0.24215521  1
  Mo  Mo194  1  0.91064689  0.70428264  0.60662724  1
  Mo  Mo195  1  0.69629111  0.90019471  0.64224751  1
  Mo  Mo196  1  0.10219195  0.30528946  0.63663442  1
  Mo  Mo197  1  0.50217409  0.69939646  0.39018828  1
  Mo  Mo198  1  0.39150779  0.40298193  0.23970083  1
  Mo  Mo199  1  0.10021593  0.69556705  0.86236575  1
