# generated using pymatgen
data_HfZrTaTiMo
_symmetry_space_group_name_H-M   'P 1'
_cell_length_a   15.93287727
_cell_length_b   15.92441745
_cell_length_c   15.19050023
_cell_angle_alpha   89.99308132
_cell_angle_beta   90.10063614
_cell_angle_gamma   89.81627180
_symmetry_Int_Tables_number   1
_chemical_formula_structural   HfZrTaTiMo
_chemical_formula_sum   'Hf40 Zr40 Ta40 Ti40 Mo40'
_cell_volume   3854.13509909
_cell_formula_units_Z   40
loop_
 _symmetry_equiv_pos_site_id
 _symmetry_equiv_pos_as_xyz
  1  'x, y, z'
loop_
 _atom_site_type_symbol
 _atom_site_label
 _atom_site_symmetry_multiplicity
 _atom_site_fract_x
 _atom_site_fract_y
 _atom_site_fract_z
 _atom_site_occupancy
  Hf  Hf0  1  0.60877279  0.00743153  0.76453640  1
  Hf  Hf1  1  0.20798753  0.80415959  0.24037430  1
  Hf  Hf2  1  0.49282656  0.29419267  0.85094248  1
  Hf  Hf3  1  0.29017862  0.29694971  0.36698418  1
  Hf  Hf4  1  0.30265206  0.30433353  0.86220051  1
  Hf  Hf5  1  0.19632985  0.59546683  0.50914874  1
  Hf  Hf6  1  0.40220467  -0.00111120  -0.01427353  1
  Hf  Hf7  1  0.81155270  0.39460334  0.48799620  1
  Hf  Hf8  1  0.89250192  0.10721345  0.38672841  1
  Hf  Hf9  1  0.60611432  0.79071366  0.24410746  1
  Hf  Hf10  1  0.39394928  0.18971953  0.25363254  1
  Hf  Hf11  1  0.81161059  0.79510904  0.76497372  1
  Hf  Hf12  1  0.51851370  0.48522477  0.13377642  1
  Hf  Hf13  1  -0.00435251  0.80423038  0.23784862  1
  Hf  Hf14  1  0.89760802  0.89300623  0.62906688  1
  Hf  Hf15  1  0.80027629  0.60507863  0.24747662  1
  Hf  Hf16  1  0.71227569  0.70330924  0.61067961  1
  Hf  Hf17  1  0.09984952  0.29602410  0.11913052  1
  Hf  Hf18  1  0.49472583  0.29335648  0.62516043  1
  Hf  Hf19  1  0.49977997  0.89944510  0.37872811  1
  Hf  Hf20  1  0.50938372  0.48572062  0.87559672  1
  Hf  Hf21  1  0.10566395  0.91525093  0.36912868  1
  Hf  Hf22  1  0.19846144  0.40432088  0.74234344  1
  Hf  Hf23  1  0.19675226  0.00834698  0.74780875  1
  Hf  Hf24  1  0.41051411  0.60530799  0.25630811  1
  Hf  Hf25  1  0.58964741  0.21976020  0.00697900  1
  Hf  Hf26  1  0.50075735  0.09637008  0.39425483  1
  Hf  Hf27  1  0.61120920  0.40243957  0.73226535  1
  Hf  Hf28  1  0.50908901  0.89534461  0.63454576  1
  Hf  Hf29  1  0.31163684  0.89835251  0.64057366  1
  Hf  Hf30  1  0.79445148  0.19808396  0.75813094  1
  Hf  Hf31  1  0.59933464  0.59736820  0.47784118  1
  Hf  Hf32  1  0.19200804  -0.00091441  -0.01711171  1
  Hf  Hf33  1  0.39217121  -0.00168223  0.24857803  1
  Hf  Hf34  1  0.41073991  0.38501529  0.00893304  1
  Hf  Hf35  1  -0.00744787  0.80313111  -0.01461145  1
  Hf  Hf36  1  0.00047449  0.00866869  0.23346369  1
  Hf  Hf37  1  0.80609612  0.60128687  0.75441963  1
  Hf  Hf38  1  0.69839567  0.31527500  0.87782031  1
  Hf  Hf39  1  0.20068031  0.79376671  -0.01769971  1
  Zr  Zr40  1  0.29792850  0.90010475  0.11390932  1
  Zr  Zr41  1  0.70632044  0.89375365  0.88623951  1
  Zr  Zr42  1  0.69508434  0.09631074  0.38738134  1
  Zr  Zr43  1  0.79489542  0.80431405  0.22674397  1
  Zr  Zr44  1  0.10147595  0.69621218  0.11417903  1
  Zr  Zr45  1  -0.00490734  0.41745806  0.49312887  1
  Zr  Zr46  1  0.28899595  0.11082853  0.10446116  1
  Zr  Zr47  1  0.19600466  0.39770660  0.51491686  1
  Zr  Zr48  1  0.09480626  0.30697629  0.36643703  1
  Zr  Zr49  1  0.50008259  0.28946921  0.38401950  1
  Zr  Zr50  1  0.51460827  0.69579674  0.88541353  1
  Zr  Zr51  1  0.10347064  0.70462677  0.37901526  1
  Zr  Zr52  1  0.50673015  0.69464481  0.63095926  1
  Zr  Zr53  1  0.20723608  0.60814366  0.24480013  1
  Zr  Zr54  1  -0.00310856  0.40267646  0.00676825  1
  Zr  Zr55  1  0.21586615  0.60109089  -0.01742441  1
  Zr  Zr56  1  -0.00863368  0.19580805  0.24846365  1
  Zr  Zr57  1  0.29842979  0.11720254  0.87093561  1
  Zr  Zr58  1  0.89750453  0.89979945  0.37913578  1
  Zr  Zr59  1  0.60422550  -0.00457376  0.23776327  1
  Zr  Zr60  1  -0.01043025  0.00339441  0.75560847  1
  Zr  Zr61  1  0.30612696  0.49937069  0.12837969  1
  Zr  Zr62  1  0.19509801  0.79595514  0.75281679  1
  Zr  Zr63  1  0.70525190  0.28838857  0.37411838  1
  Zr  Zr64  1  0.49923622  0.89164776  0.11596216  1
  Zr  Zr65  1  0.50171354  0.09702016  0.61823809  1
  Zr  Zr66  1  0.71303644  0.50704741  0.61396624  1
  Zr  Zr67  1  0.60192322  0.40542829  0.49537906  1
  Zr  Zr68  1  0.80395787  0.00083742  0.23123352  1
  Zr  Zr69  1  0.00958215  0.80710672  0.50998040  1
  Zr  Zr70  1  0.09827930  0.49685517  0.87246957  1
  Zr  Zr71  1  0.20507782  0.80345660  0.51735177  1
  Zr  Zr72  1  0.29181024  0.30111471  0.13581423  1
  Zr  Zr73  1  0.29365965  0.49448819  0.36732169  1
  Zr  Zr74  1  0.88561710  0.49557919  0.88229826  1
  Zr  Zr75  1  0.19802050  0.00183480  0.51749172  1
  Zr  Zr76  1  0.60253436  0.00762476  -0.00936447  1
  Zr  Zr77  1  0.39681449  0.40327499  0.50332171  1
  Zr  Zr78  1  0.09177262  0.11761148  0.63009251  1
  Zr  Zr79  1  0.00766166  0.58560481  0.25432943  1
  Ta  Ta80  1  0.40323467  0.79623647  0.50426573  1
  Ta  Ta81  1  0.08918630  0.30129802  0.63522961  1
  Ta  Ta82  1  0.90774219  0.68282873  0.60931679  1
  Ta  Ta83  1  0.70201309  0.89780441  0.39139153  1
  Ta  Ta84  1  0.09316465  0.69376952  0.63671911  1
  Ta  Ta85  1  0.49172294  0.10619977  0.11491767  1
  Ta  Ta86  1  0.61871763  0.57888870  0.00739720  1
  Ta  Ta87  1  0.89346328  0.30315205  0.12691063  1
  Ta  Ta88  1  0.30330479  0.89746348  0.37732349  1
  Ta  Ta89  1  0.40496956  0.00582702  0.75735400  1
  Ta  Ta90  1  0.31044445  0.69159287  0.63271355  1
  Ta  Ta91  1  0.40215820  0.59970143  0.49167464  1
  Ta  Ta92  1  0.40223281  0.59386569  0.76689934  1
  Ta  Ta93  1  0.59589929  0.19720936  0.23815368  1
  Ta  Ta94  1  0.61240047  0.59882163  0.76022838  1
  Ta  Ta95  1  0.77988441  0.41078284  0.02196096  1
  Ta  Ta96  1  0.18592217  0.17953787  0.26024924  1
  Ta  Ta97  1  0.79707305  0.00531741  0.75531595  1
  Ta  Ta98  1  0.79267240  0.20863551  0.00889904  1
  Ta  Ta99  1  0.90187550  0.70023282  0.38481232  1
  Ta  Ta100  1  0.79456995  0.19772108  0.22990062  1
  Ta  Ta101  1  0.71126681  0.69119247  0.89563860  1
  Ta  Ta102  1  0.30598330  0.89799450  0.86504060  1
  Ta  Ta103  1  0.88961159  0.10307948  0.89124398  1
  Ta  Ta104  1  0.69983150  0.09741993  0.61341161  1
  Ta  Ta105  1  0.09297875  0.90339437  0.86595429  1
  Ta  Ta106  1  0.39553841  0.78588492  -0.00985146  1
  Ta  Ta107  1  0.60111959  0.79836168  0.49708837  1
  Ta  Ta108  1  0.89366975  0.10986898  0.62114638  1
  Ta  Ta109  1  0.00183019  0.00662601  0.51139546  1
  Ta  Ta110  1  -0.01129793  0.20810111  0.76716286  1
  Ta  Ta111  1  0.20358471  0.60097770  0.75475958  1
  Ta  Ta112  1  0.30913430  0.50328959  0.63657496  1
  Ta  Ta113  1  0.50220822  0.89174590  0.87128962  1
  Ta  Ta114  1  0.69575224  0.10369851  0.11207894  1
  Ta  Ta115  1  0.09404616  0.10907919  0.09801668  1
  Ta  Ta116  1  0.90328121  0.29811201  0.62956503  1
  Ta  Ta117  1  0.70108338  0.89846590  0.62293620  1
  Ta  Ta118  1  0.60880377  0.59891195  0.25734896  1
  Ta  Ta119  1  0.80358959  -0.00380717  0.51167323  1
  Ti  Ti120  1  0.80481576  0.39951524  0.73873269  1
  Ti  Ti121  1  0.81810845  0.58361552  0.48191547  1
  Ti  Ti122  1  0.68374838  0.31688049  0.13971803  1
  Ti  Ti123  1  0.39740919  0.79250650  0.24174560  1
  Ti  Ti124  1  0.09912556  0.29774737  0.87390001  1
  Ti  Ti125  1  0.61084514  0.79295231  0.01380124  1
  Ti  Ti126  1  -0.00572600  0.21304401  0.49052776  1
  Ti  Ti127  1  0.71339909  0.70712731  0.38588056  1
  Ti  Ti128  1  0.80332763  -0.00443355  0.00728052  1
  Ti  Ti129  1  0.19590593  0.00642591  0.24081661  1
  Ti  Ti130  1  -0.00554251  0.60748516  0.76550423  1
  Ti  Ti131  1  0.49831454  0.50737366  0.63243721  1
  Ti  Ti132  1  0.20546235  0.40387481  -0.00578575  1
  Ti  Ti133  1  0.89494495  0.30270495  0.88775325  1
  Ti  Ti134  1  -0.00479253  0.79162101  0.76270095  1
  Ti  Ti135  1  -0.00007053  0.60246192  -0.00735177  1
  Ti  Ti136  1  0.80355765  0.40214125  0.25560216  1
  Ti  Ti137  1  0.28637496  0.09055533  0.38364480  1
  Ti  Ti138  1  0.49374420  0.11330392  0.87311379  1
  Ti  Ti139  1  0.49896704  0.70795587  0.37647869  1
  Ti  Ti140  1  0.08236609  0.51025904  0.63516503  1
  Ti  Ti141  1  0.39200413  -0.00409738  0.50795812  1
  Ti  Ti142  1  0.61444944  0.79132402  0.75593378  1
  Ti  Ti143  1  0.19511976  0.20085308  0.50277107  1
  Ti  Ti144  1  -0.00877844  0.00108103  -0.00291692  1
  Ti  Ti145  1  0.30499850  0.70789203  0.38504513  1
  Ti  Ti146  1  0.70628578  0.28711266  0.61213658  1
  Ti  Ti147  1  0.09097039  0.11367284  0.88151724  1
  Ti  Ti148  1  0.90004883  0.70061562  0.11229776  1
  Ti  Ti149  1  0.09675336  0.90529337  0.11307637  1
  Ti  Ti150  1  0.16910908  0.42129422  0.23985442  1
  Ti  Ti151  1  0.40544286  0.78990705  0.76230683  1
  Ti  Ti152  1  -0.01042096  0.40163922  0.75123067  1
  Ti  Ti153  1  0.90279400  0.49821744  0.13079479  1
  Ti  Ti154  1  0.79969238  0.59759682  0.01625615  1
  Ti  Ti155  1  0.37675417  0.19461953  0.51171472  1
  Ti  Ti156  1  0.50242966  0.68827431  0.11466882  1
  Ti  Ti157  1  0.60887283  0.19334826  0.74956348  1
  Ti  Ti158  1  0.40215221  0.59365491  -0.00915466  1
  Ti  Ti159  1  0.41356867  0.39522060  0.25687893  1
  Mo  Mo160  1  -0.00725664  0.40089511  0.23865213  1
  Mo  Mo161  1  0.49918457  0.29798066  0.14759404  1
  Mo  Mo162  1  0.80687877  0.20156760  0.50919173  1
  Mo  Mo163  1  0.90153267  0.49762116  0.35499663  1
  Mo  Mo164  1  0.70177305  0.49983233  0.87016200  1
  Mo  Mo165  1  -0.01005566  0.20480885  -0.01174328  1
  Mo  Mo166  1  0.29986016  0.10553179  0.63073509  1
  Mo  Mo167  1  0.10237782  0.49846936  0.10237349  1
  Mo  Mo168  1  0.09208719  0.89879356  0.64787480  1
  Mo  Mo169  1  0.50089177  0.50241679  0.36168255  1
  Mo  Mo170  1  0.89742774  0.10564810  0.10343329  1
  Mo  Mo171  1  0.70343811  0.10890443  0.89239836  1
  Mo  Mo172  1  0.70222238  0.89910736  0.10742301  1
  Mo  Mo173  1  0.09444299  0.69759355  0.86343931  1
  Mo  Mo174  1  0.00120979  0.59974977  0.49160782  1
  Mo  Mo175  1  0.19083361  0.21165001  -0.01869904  1
  Mo  Mo176  1  0.89842268  0.90677278  0.87937494  1
  Mo  Mo177  1  0.60260758  -0.01003289  0.50581114  1
  Mo  Mo178  1  0.90479042  0.90443939  0.10731509  1
  Mo  Mo179  1  0.80191716  0.79735492  0.00768899  1
  Mo  Mo180  1  0.70562696  0.49717417  0.14832331  1
  Mo  Mo181  1  0.30711067  0.69762015  0.86038150  1
  Mo  Mo182  1  0.89615207  0.29850093  0.35157840  1
  Mo  Mo183  1  0.18637384  0.20810329  0.75597321  1
  Mo  Mo184  1  0.89686026  0.69495292  0.89400442  1
  Mo  Mo185  1  0.60443715  0.40074474  0.27368201  1
  Mo  Mo186  1  0.60341109  0.19788274  0.51317258  1
  Mo  Mo187  1  0.09972284  0.50280582  0.38223792  1
  Mo  Mo188  1  0.40027241  0.20375052  0.00755679  1
  Mo  Mo189  1  0.70618726  0.50119725  0.36641438  1
  Mo  Mo190  1  0.80299723  0.79600763  0.50206989  1
  Mo  Mo191  1  0.09756701  0.10141041  0.39157766  1
  Mo  Mo192  1  0.29073443  0.29304789  0.63576470  1
  Mo  Mo193  1  0.31959632  0.70165370  0.11879841  1
  Mo  Mo194  1  0.60287247  0.39811273  0.00214402  1
  Mo  Mo195  1  0.39106375  0.19582380  0.73099190  1
  Mo  Mo196  1  0.69586225  0.69229785  0.11318290  1
  Mo  Mo197  1  0.30916678  0.49400592  0.86567957  1
  Mo  Mo198  1  0.40275447  0.40269658  0.73365253  1
  Mo  Mo199  1  0.90630915  0.49952385  0.63903713  1
