# generated using pymatgen
data_HfZrTaTiMo
_symmetry_space_group_name_H-M   'P 1'
_cell_length_a   15.92938009
_cell_length_b   15.93240895
_cell_length_c   15.20488597
_cell_angle_alpha   89.99152631
_cell_angle_beta   89.99481429
_cell_angle_gamma   89.94281219
_symmetry_Int_Tables_number   1
_chemical_formula_structural   HfZrTaTiMo
_chemical_formula_sum   'Hf40 Zr40 Ta40 Ti40 Mo40'
_cell_volume   3858.89769385
_cell_formula_units_Z   40
loop_
 _symmetry_equiv_pos_site_id
 _symmetry_equiv_pos_as_xyz
  1  'x, y, z'
loop_
 _atom_site_type_symbol
 _atom_site_label
 _atom_site_symmetry_multiplicity
 _atom_site_fract_x
 _atom_site_fract_y
 _atom_site_fract_z
 _atom_site_occupancy
  Hf  Hf0  1  0.89282216  0.10767085  0.11384212  1
  Hf  Hf1  1  0.50347504  0.71750152  0.60620500  1
  Hf  Hf2  1  0.29948436  0.10271565  0.36983405  1
  Hf  Hf3  1  0.89915218  0.69195006  0.88477353  1
  Hf  Hf4  1  0.80076050  0.40620855  0.49331169  1
  Hf  Hf5  1  0.00318529  0.20265052  0.24779726  1
  Hf  Hf6  1  0.29348989  0.90267291  0.13664703  1
  Hf  Hf7  1  0.68844486  0.07941665  0.38172800  1
  Hf  Hf8  1  0.52020616  0.69801360  0.38156006  1
  Hf  Hf9  1  0.01480699  -0.00600903  0.00290499  1
  Hf  Hf10  1  0.49777639  0.49658151  0.61465323  1
  Hf  Hf11  1  0.30565275  0.11446451  0.62113452  1
  Hf  Hf12  1  0.49522466  0.89246321  0.10943508  1
  Hf  Hf13  1  0.19084562  0.79674876  0.26121584  1
  Hf  Hf14  1  0.19291576  0.79821650  0.49541555  1
  Hf  Hf15  1  0.39210770  0.40954858  -0.00313487  1
  Hf  Hf16  1  0.40950014  0.79902369  0.25874470  1
  Hf  Hf17  1  0.60326244  0.59812750  0.00213261  1
  Hf  Hf18  1  0.89808753  0.10049638  0.61673882  1
  Hf  Hf19  1  0.52226121  0.89743943  0.39324638  1
  Hf  Hf20  1  0.60990170  0.40096182  -0.00698514  1
  Hf  Hf21  1  0.08755734  0.10790237  0.60758043  1
  Hf  Hf22  1  0.70206026  0.50833137  0.36565454  1
  Hf  Hf23  1  0.49481266  0.49992773  0.12741346  1
  Hf  Hf24  1  0.89773155  0.89339486  0.88910667  1
  Hf  Hf25  1  0.28968080  0.30361749  0.87763978  1
  Hf  Hf26  1  0.38690413  0.00403801  -0.00337181  1
  Hf  Hf27  1  0.78748207  0.20272143  0.49358496  1
  Hf  Hf28  1  0.90427191  0.69758152  0.12153567  1
  Hf  Hf29  1  0.19740789  0.00484572  0.74696163  1
  Hf  Hf30  1  0.80886968  0.60953980  0.51005411  1
  Hf  Hf31  1  0.40175440  0.21090944  0.25167044  1
  Hf  Hf32  1  0.39709630  0.61823200  0.74545756  1
  Hf  Hf33  1  0.00166588  0.39303518  0.75776985  1
  Hf  Hf34  1  0.28925252  0.51414038  0.86377668  1
  Hf  Hf35  1  0.18256529  0.59125153  0.48600470  1
  Hf  Hf36  1  0.39950643  0.40050165  0.75404369  1
  Hf  Hf37  1  0.29397395  0.30796741  0.12679827  1
  Hf  Hf38  1  0.60351142  -0.00859727  0.22966392  1
  Hf  Hf39  1  0.10017297  0.31059065  0.13016781  1
  Zr  Zr40  1  0.70859083  0.49873785  0.64040300  1
  Zr  Zr41  1  0.20303902  0.21603386  0.48398595  1
  Zr  Zr42  1  0.79326971  -0.00961505  0.23642286  1
  Zr  Zr43  1  0.89221778  0.70130303  0.35426963  1
  Zr  Zr44  1  0.59171619  0.60365952  0.75104201  1
  Zr  Zr45  1  -0.01234039  0.78815709  0.50431275  1
  Zr  Zr46  1  0.29545662  0.69444915  0.12581725  1
  Zr  Zr47  1  0.20360873  0.79119805  0.74098422  1
  Zr  Zr48  1  0.49896776  0.09589930  0.37019870  1
  Zr  Zr49  1  0.19720808  0.01199038  0.00165971  1
  Zr  Zr50  1  0.61003372  0.39209568  0.49891447  1
  Zr  Zr51  1  0.69282260  0.88635079  0.63935518  1
  Zr  Zr52  1  0.18155123  0.81251931  0.00028842  1
  Zr  Zr53  1  0.00827338  0.80067279  0.75618443  1
  Zr  Zr54  1  0.50511196  0.29857859  0.11312363  1
  Zr  Zr55  1  0.90713430  0.88851463  0.12255090  1
  Zr  Zr56  1  0.79526318  0.19847190  0.25863537  1
  Zr  Zr57  1  0.69951801  0.69626942  0.86831531  1
  Zr  Zr58  1  0.00091987  0.00407657  0.76135797  1
  Zr  Zr59  1  -0.00690578  0.21707582  0.00360351  1
  Zr  Zr60  1  0.41864372  0.01147673  0.51591124  1
  Zr  Zr61  1  0.49538393  0.87983451  0.87012793  1
  Zr  Zr62  1  0.09963092  0.31268361  0.60853647  1
  Zr  Zr63  1  0.11081134  0.50812994  0.13859310  1
  Zr  Zr64  1  0.30565392  0.90701659  0.38037984  1
  Zr  Zr65  1  0.39943765  0.59735244  0.26423040  1
  Zr  Zr66  1  0.29290642  0.49662876  0.62026772  1
  Zr  Zr67  1  0.31502899  0.89207226  0.62023526  1
  Zr  Zr68  1  0.49997617  0.09741365  0.87745730  1
  Zr  Zr69  1  0.30118529  0.89905541  0.86600605  1
  Zr  Zr70  1  0.89785959  0.49467587  0.87832855  1
  Zr  Zr71  1  0.90599009  0.29813195  0.61243049  1
  Zr  Zr72  1  0.91048853  0.30379530  0.38491710  1
  Zr  Zr73  1  0.59326898  0.18605653  0.51602965  1
  Zr  Zr74  1  0.08496116  0.91130020  0.37545616  1
  Zr  Zr75  1  0.89855302  0.89844361  0.63087260  1
  Zr  Zr76  1  0.49793900  0.10383251  0.11509758  1
  Zr  Zr77  1  0.79496276  -0.01775185  0.49914160  1
  Zr  Zr78  1  0.19362512  0.21333230  0.74556074  1
  Zr  Zr79  1  0.91129715  0.08142820  0.38166296  1
  Ta  Ta80  1  0.49107959  0.29663062  0.62336022  1
  Ta  Ta81  1  0.28829680  0.10919544  0.14397081  1
  Ta  Ta82  1  0.79731249  0.00302132  0.76447214  1
  Ta  Ta83  1  0.30300623  0.69667441  0.60274327  1
  Ta  Ta84  1  0.10742636  0.69226387  0.87734053  1
  Ta  Ta85  1  0.49746609  0.50596555  0.87765038  1
  Ta  Ta86  1  0.78724712  0.79159627  0.01098614  1
  Ta  Ta87  1  0.70680887  0.29389325  0.11920980  1
  Ta  Ta88  1  0.91258381  0.50114189  0.62477981  1
  Ta  Ta89  1  0.60069101  0.20165880  0.75361892  1
  Ta  Ta90  1  0.38446117  0.19695559  -0.00872047  1
  Ta  Ta91  1  0.10519331  0.50164191  0.64038045  1
  Ta  Ta92  1  0.59757969  0.39418464  0.75732199  1
  Ta  Ta93  1  0.49426450  0.69733704  0.11466037  1
  Ta  Ta94  1  0.89424916  0.10347673  0.88963021  1
  Ta  Ta95  1  0.70594333  0.29806850  0.87585142  1
  Ta  Ta96  1  0.80143145  0.19653992  0.75739748  1
  Ta  Ta97  1  0.19041012  0.41097250  -0.00485607  1
  Ta  Ta98  1  0.10104540  0.50575884  0.86588708  1
  Ta  Ta99  1  0.40257096  0.40170263  0.26447111  1
  Ta  Ta100  1  -0.00707842  0.20231944  0.76375999  1
  Ta  Ta101  1  0.20363876  0.40008540  0.27472755  1
  Ta  Ta102  1  0.10105693  0.11107274  0.87758075  1
  Ta  Ta103  1  0.49802200  0.29913163  0.38847320  1
  Ta  Ta104  1  0.70041643  0.10146605  0.88268373  1
  Ta  Ta105  1  0.10414672  0.10240975  0.36942625  1
  Ta  Ta106  1  0.30996389  0.70673174  0.88884209  1
  Ta  Ta107  1  0.80353249  0.39822292  0.24994685  1
  Ta  Ta108  1  0.50035737  0.29949792  0.88056703  1
  Ta  Ta109  1  0.70788194  0.49628152  0.86774618  1
  Ta  Ta110  1  0.79545663  0.58738773  0.01620906  1
  Ta  Ta111  1  0.60193732  0.39146750  0.25631177  1
  Ta  Ta112  1  0.00907611  0.59487316  0.00287852  1
  Ta  Ta113  1  0.60085734  0.00100138  0.75240806  1
  Ta  Ta114  1  -0.00108659  0.60377909  0.74732179  1
  Ta  Ta115  1  0.60421177  0.20235609  0.25435267  1
  Ta  Ta116  1  0.69706480  0.89686716  0.87563816  1
  Ta  Ta117  1  0.79945435  0.59131340  0.22960072  1
  Ta  Ta118  1  0.39963908  0.20291508  0.75560272  1
  Ta  Ta119  1  0.69326399  0.10883410  0.10200142  1
  Ti  Ti120  1  0.08301064  0.68982118  0.36839864  1
  Ti  Ti121  1  0.79257585  -0.00468953  0.00126790  1
  Ti  Ti122  1  0.00988666  0.00237648  0.22922078  1
  Ti  Ti123  1  0.19632566  0.19897320  0.00255416  1
  Ti  Ti124  1  0.69959285  0.29599733  0.63911202  1
  Ti  Ti125  1  0.29636894  0.50327477  0.13597649  1
  Ti  Ti126  1  0.70130694  0.70154044  0.64012676  1
  Ti  Ti127  1  0.61609577  0.60236590  0.50634344  1
  Ti  Ti128  1  0.09495487  0.90614461  0.61496463  1
  Ti  Ti129  1  0.69958340  0.09323363  0.63506405  1
  Ti  Ti130  1  0.19886190  0.00340604  0.50458633  1
  Ti  Ti131  1  0.80304292  0.79515852  0.75633276  1
  Ti  Ti132  1  0.30171760  0.49668756  0.38450483  1
  Ti  Ti133  1  0.70173862  0.48682075  0.12958512  1
  Ti  Ti134  1  -0.00129337  0.40444652  0.25889230  1
  Ti  Ti135  1  0.90658357  0.51252044  0.37448974  1
  Ti  Ti136  1  0.02071620  0.42315053  0.48423529  1
  Ti  Ti137  1  0.70428045  0.88011367  0.37220086  1
  Ti  Ti138  1  0.40184572  0.00552621  0.74754703  1
  Ti  Ti139  1  0.60247927  -0.00583691  -0.00617823  1
  Ti  Ti140  1  -0.00036961  0.59826774  0.23982679  1
  Ti  Ti141  1  0.79571097  0.79012251  0.50559513  1
  Ti  Ti142  1  0.80498257  0.39216946  0.74961843  1
  Ti  Ti143  1  0.81459256  0.38562871  0.00592568  1
  Ti  Ti144  1  0.30307847  0.69939229  0.38495550  1
  Ti  Ti145  1  0.30394018  0.31360453  0.61162509  1
  Ti  Ti146  1  0.70571104  0.70199507  0.35711820  1
  Ti  Ti147  1  0.61265951  0.79692512  0.22776320  1
  Ti  Ti148  1  0.40372304  0.59900636  0.49308142  1
  Ti  Ti149  1  0.50744921  0.89582075  0.63088318  1
  Ti  Ti150  1  0.60048336  0.79087907  -0.00007571  1
  Ti  Ti151  1  0.89522009  0.88806240  0.35733264  1
  Ti  Ti152  1  0.91027320  0.48620566  0.11863732  1
  Ti  Ti153  1  0.50700970  0.49796316  0.38176565  1
  Ti  Ti154  1  0.40352375  -0.00010991  0.24582070  1
  Ti  Ti155  1  0.20074984  0.60122252  0.00246312  1
  Ti  Ti156  1  0.09648846  0.30830694  0.88640944  1
  Ti  Ti157  1  0.09312969  0.70925272  0.12733759  1
  Ti  Ti158  1  0.09580648  0.68933958  0.62292078  1
  Ti  Ti159  1  0.60390413  0.60091092  0.23605829  1
  Mo  Mo160  1  0.20070530  0.60131820  0.26967510  1
  Mo  Mo161  1  0.62173495  0.79139603  0.49585833  1
  Mo  Mo162  1  0.29601341  0.10801669  0.86209462  1
  Mo  Mo163  1  0.60577963  -0.00675393  0.52784847  1
  Mo  Mo164  1  0.69674274  0.69356558  0.12796065  1
  Mo  Mo165  1  0.20070292  0.40728488  0.48185731  1
  Mo  Mo166  1  0.09891447  0.89650311  0.14258791  1
  Mo  Mo167  1  0.09162900  0.50731572  0.35640926  1
  Mo  Mo168  1  0.89343334  0.69619701  0.64240799  1
  Mo  Mo169  1  0.40276303  0.79484165  0.48471670  1
  Mo  Mo170  1  0.89594887  0.31111327  0.13777485  1
  Mo  Mo171  1  0.39634542  0.59915643  -0.00091742  1
  Mo  Mo172  1  0.79687809  0.20496190  -0.00735453  1
  Mo  Mo173  1  0.59942335  0.20275431  -0.01683152  1
  Mo  Mo174  1  0.09912607  0.90203141  0.86427723  1
  Mo  Mo175  1  -0.00109636  0.79799854  0.25467996  1
  Mo  Mo176  1  0.40224115  0.40273506  0.48862731  1
  Mo  Mo177  1  0.10164509  0.30640707  0.36968920  1
  Mo  Mo178  1  -0.00249509  0.59835315  0.51197241  1
  Mo  Mo179  1  0.69457359  0.89918727  0.09880692  1
  Mo  Mo180  1  0.30910450  0.30764234  0.38018098  1
  Mo  Mo181  1  0.40226859  0.20754763  0.50817616  1
  Mo  Mo182  1  0.89501786  0.29906188  0.86700988  1
  Mo  Mo183  1  0.50278745  0.10086808  0.65205177  1
  Mo  Mo184  1  0.19932318  0.20804747  0.25994723  1
  Mo  Mo185  1  0.00102226  0.19545836  0.47963199  1
  Mo  Mo186  1  0.48965878  0.69565747  0.89560013  1
  Mo  Mo187  1  0.69656114  0.29897859  0.36392188  1
  Mo  Mo188  1  0.59529492  0.79723675  0.76180709  1
  Mo  Mo189  1  0.80668115  0.59658144  0.74152347  1
  Mo  Mo190  1  0.19557250  0.40364345  0.76351835  1
  Mo  Mo191  1  0.10386317  0.10662744  0.13457166  1
  Mo  Mo192  1  0.00330003  0.40717035  -0.00434090  1
  Mo  Mo193  1  0.19303484  0.00688237  0.24296954  1
  Mo  Mo194  1  0.00192431  0.79161216  -0.01266127  1
  Mo  Mo195  1  0.00285431  -0.00522820  0.50163721  1
  Mo  Mo196  1  0.40092687  0.79417229  0.73938573  1
  Mo  Mo197  1  0.78898754  0.79592616  0.23109258  1
  Mo  Mo198  1  0.19652323  0.60944178  0.74180847  1
  Mo  Mo199  1  0.39296171  0.79745661  0.01412496  1
