# generated using pymatgen
data_HfZrTaTiMo
_symmetry_space_group_name_H-M   'P 1'
_cell_length_a   15.93428320
_cell_length_b   15.91637549
_cell_length_c   15.22915602
_cell_angle_alpha   89.98731742
_cell_angle_beta   90.01923451
_cell_angle_gamma   90.03412315
_symmetry_Int_Tables_number   1
_chemical_formula_structural   HfZrTaTiMo
_chemical_formula_sum   'Hf40 Zr40 Ta40 Ti40 Mo40'
_cell_volume   3862.35716107
_cell_formula_units_Z   40
loop_
 _symmetry_equiv_pos_site_id
 _symmetry_equiv_pos_as_xyz
  1  'x, y, z'
loop_
 _atom_site_type_symbol
 _atom_site_label
 _atom_site_symmetry_multiplicity
 _atom_site_fract_x
 _atom_site_fract_y
 _atom_site_fract_z
 _atom_site_occupancy
  Hf  Hf0  1  0.09734633  0.29733291  0.88012399  1
  Hf  Hf1  1  0.69169033  0.49325725  0.12993782  1
  Hf  Hf2  1  0.20756786  0.60193206  0.00229856  1
  Hf  Hf3  1  -0.01308784  -0.00022815  0.49562361  1
  Hf  Hf4  1  -0.00444468  0.39919969  0.73957303  1
  Hf  Hf5  1  0.90234457  0.49331565  0.88351367  1
  Hf  Hf6  1  0.69491358  0.70997671  0.88267156  1
  Hf  Hf7  1  0.11146195  0.49829946  0.61398747  1
  Hf  Hf8  1  0.18729783  0.58369217  0.23693353  1
  Hf  Hf9  1  0.19089771  0.81445181  0.75717979  1
  Hf  Hf10  1  -0.00042310  0.20581093  0.24579965  1
  Hf  Hf11  1  0.70404762  0.09871731  0.63830178  1
  Hf  Hf12  1  0.87832104  0.10289025  0.37266453  1
  Hf  Hf13  1  0.29272130  0.91242859  0.61549374  1
  Hf  Hf14  1  0.01656176  0.40464285  0.24010752  1
  Hf  Hf15  1  0.89936093  0.49372735  0.11473682  1
  Hf  Hf16  1  0.39844212  0.80811835  0.25232020  1
  Hf  Hf17  1  0.39139681  0.80408028  0.48628618  1
  Hf  Hf18  1  0.88970788  0.28412896  0.86728579  1
  Hf  Hf19  1  0.89985919  0.29334888  0.11117610  1
  Hf  Hf20  1  0.50345423  0.70026224  0.36000929  1
  Hf  Hf21  1  -0.00049276  0.00025805  0.25234126  1
  Hf  Hf22  1  0.90082129  0.29754909  0.39077675  1
  Hf  Hf23  1  0.51232822  0.90297359  0.12635689  1
  Hf  Hf24  1  0.39811496  0.58160894  0.76688464  1
  Hf  Hf25  1  0.21627673  0.40297259  0.75757176  1
  Hf  Hf26  1  -0.00721778  0.79103235  0.48746800  1
  Hf  Hf27  1  0.50561935  0.09697907  0.88225888  1
  Hf  Hf28  1  0.09260022  0.71121567  0.88113974  1
  Hf  Hf29  1  0.60298393  0.00634173  0.50404309  1
  Hf  Hf30  1  0.20496394  0.60200275  0.75868144  1
  Hf  Hf31  1  0.78062199  0.00041586  0.23037651  1
  Hf  Hf32  1  0.49271350  0.50845548  0.12993226  1
  Hf  Hf33  1  0.70417199  0.90660234  0.88277444  1
  Hf  Hf34  1  0.40169772  0.79927121  0.74428239  1
  Hf  Hf35  1  0.80056728  0.59732478  0.74642727  1
  Hf  Hf36  1  0.39486412  -0.00323718  0.02126246  1
  Hf  Hf37  1  0.60043096  0.80081338  0.49852482  1
  Hf  Hf38  1  0.80572553  0.39180111  0.25088807  1
  Hf  Hf39  1  0.70438444  0.27661428  0.38260214  1
  Zr  Zr40  1  0.40306004  0.00867953  0.25381875  1
  Zr  Zr41  1  0.70754829  0.49197328  0.37745149  1
  Zr  Zr42  1  0.80870130  0.01001047  -0.00121120  1
  Zr  Zr43  1  0.81452719  0.59601991  0.50220659  1
  Zr  Zr44  1  0.40258194  0.20202197  0.00778448  1
  Zr  Zr45  1  0.09818408  0.49548543  0.88833289  1
  Zr  Zr46  1  0.20145377  0.81025858  0.00861499  1
  Zr  Zr47  1  0.49820233  0.30477046  0.87124840  1
  Zr  Zr48  1  0.69283444  0.49204817  0.61610394  1
  Zr  Zr49  1  0.10021389  0.29144841  0.61258797  1
  Zr  Zr50  1  0.70167022  0.71118657  0.12890329  1
  Zr  Zr51  1  0.69065840  0.49670112  0.87560352  1
  Zr  Zr52  1  0.29632790  0.09376140  0.88341808  1
  Zr  Zr53  1  0.39204755  0.59849451  0.48033989  1
  Zr  Zr54  1  0.88744746  0.89542877  0.36271813  1
  Zr  Zr55  1  0.10242509  0.70537317  0.61762414  1
  Zr  Zr56  1  0.10246353  0.90199013  0.60696845  1
  Zr  Zr57  1  -0.00596891  0.18066146  -0.00823203  1
  Zr  Zr58  1  0.40056782  0.40197709  0.25856101  1
  Zr  Zr59  1  -0.00552519  0.60795373  0.74271829  1
  Zr  Zr60  1  0.29820293  0.90373709  0.87965372  1
  Zr  Zr61  1  0.80684201  0.79701855  0.51212570  1
  Zr  Zr62  1  0.49989718  0.89591349  0.88596682  1
  Zr  Zr63  1  0.09849290  0.50066847  0.39224621  1
  Zr  Zr64  1  0.29698472  0.30531583  0.12463034  1
  Zr  Zr65  1  0.50990213  0.30226702  0.12546258  1
  Zr  Zr66  1  0.40237088  0.40063025  0.47960544  1
  Zr  Zr67  1  0.49185453  0.69284578  0.61540655  1
  Zr  Zr68  1  0.10104170  0.30809097  0.39965594  1
  Zr  Zr69  1  0.09956102  0.10850944  0.38736910  1
  Zr  Zr70  1  0.59724995  -0.00309613  0.74825072  1
  Zr  Zr71  1  0.12092108  0.09632228  0.61008332  1
  Zr  Zr72  1  0.59156766  0.60330396  0.75472651  1
  Zr  Zr73  1  0.29471275  0.29642155  0.61697593  1
  Zr  Zr74  1  0.80167563  0.79451001  0.74669993  1
  Zr  Zr75  1  0.49763718  0.30442056  0.63333033  1
  Zr  Zr76  1  0.79721732  0.60600096  0.00280957  1
  Zr  Zr77  1  0.39979829  0.19793233  0.48619909  1
  Zr  Zr78  1  0.78221643  0.38179730  -0.00996058  1
  Zr  Zr79  1  0.10149711  0.70975546  0.13178168  1
  Ta  Ta80  1  0.29859766  0.49790071  0.11879538  1
  Ta  Ta81  1  0.61455607  0.81737943  0.25526505  1
  Ta  Ta82  1  -0.02319864  0.41019573  0.51922078  1
  Ta  Ta83  1  0.00101870  0.60446539  0.01455504  1
  Ta  Ta84  1  0.49369068  0.90626052  0.61514567  1
  Ta  Ta85  1  0.60408825  0.00634432  0.25462785  1
  Ta  Ta86  1  0.71091985  0.70754407  0.36888412  1
  Ta  Ta87  1  0.91014286  0.89727592  0.87010948  1
  Ta  Ta88  1  0.80648836  0.60230537  0.25139516  1
  Ta  Ta89  1  0.20061026  0.19037236  0.76196919  1
  Ta  Ta90  1  0.28899628  0.30098299  0.36820424  1
  Ta  Ta91  1  0.60135140  0.59790950  0.48763935  1
  Ta  Ta92  1  0.10263374  0.09945998  0.12722217  1
  Ta  Ta93  1  0.69502078  0.69629429  0.61870197  1
  Ta  Ta94  1  -0.00600766  0.59876237  0.24101500  1
  Ta  Ta95  1  0.49302648  0.10344416  0.62044695  1
  Ta  Ta96  1  0.28676910  0.69959201  0.35083387  1
  Ta  Ta97  1  0.80113415  0.18829205  0.51885637  1
  Ta  Ta98  1  0.19684597  0.19350806  0.00005456  1
  Ta  Ta99  1  0.70535155  0.91065074  0.38589692  1
  Ta  Ta100  1  0.09760871  0.69685844  0.36752171  1
  Ta  Ta101  1  0.29520300  0.70057492  0.62698233  1
  Ta  Ta102  1  0.90736694  0.90387618  0.64480308  1
  Ta  Ta103  1  0.59740139  0.80165671  0.73765327  1
  Ta  Ta104  1  -0.00377160  0.79778620  0.25375108  1
  Ta  Ta105  1  0.69502402  0.29650655  0.62375361  1
  Ta  Ta106  1  0.40627410  0.19996603  0.25468368  1
  Ta  Ta107  1  0.49673414  0.49521486  0.61511206  1
  Ta  Ta108  1  0.39306307  0.19628044  0.75066590  1
  Ta  Ta109  1  0.59452276  0.39015443  0.48592503  1
  Ta  Ta110  1  0.79431153  0.39326684  0.74329283  1
  Ta  Ta111  1  0.39908732  0.79035529  0.01951346  1
  Ta  Ta112  1  0.19575403  0.20490484  0.24784369  1
  Ta  Ta113  1  0.02292588  -0.00323074  0.76003363  1
  Ta  Ta114  1  0.39678838  0.00453957  0.74091541  1
  Ta  Ta115  1  0.58693713  0.60424100  0.00247427  1
  Ta  Ta116  1  0.70107276  0.28654441  0.13430416  1
  Ta  Ta117  1  0.30710924  0.70310739  0.87995501  1
  Ta  Ta118  1  0.89663587  0.89371455  0.12394920  1
  Ta  Ta119  1  0.51401888  0.10944697  0.38056930  1
  Ti  Ti120  1  0.49568856  0.70326059  0.88451831  1
  Ti  Ti121  1  0.90379876  0.09272578  0.63881658  1
  Ti  Ti122  1  0.01042817  -0.00416009  -0.00332550  1
  Ti  Ti123  1  0.90102506  0.70706548  0.88407982  1
  Ti  Ti124  1  0.20785673  0.60614908  0.49452436  1
  Ti  Ti125  1  0.49972263  0.69875632  0.13955158  1
  Ti  Ti126  1  0.30782657  0.69262117  0.13977715  1
  Ti  Ti127  1  0.29112288  0.10200977  0.13439561  1
  Ti  Ti128  1  0.39029845  0.00752170  0.48641250  1
  Ti  Ti129  1  0.10733458  0.89581107  0.37176300  1
  Ti  Ti130  1  0.89644837  0.70898890  0.12844003  1
  Ti  Ti131  1  0.70611435  0.90306990  0.62629589  1
  Ti  Ti132  1  0.90526093  0.49790154  0.37232994  1
  Ti  Ti133  1  0.51638827  0.10508705  0.11881115  1
  Ti  Ti134  1  0.89639984  0.10135631  0.13043968  1
  Ti  Ti135  1  0.60817803  0.60275438  0.25363533  1
  Ti  Ti136  1  0.00784331  0.19098569  0.74599840  1
  Ti  Ti137  1  0.58911333  0.40687111  0.75476969  1
  Ti  Ti138  1  0.89404622  0.29108080  0.62694317  1
  Ti  Ti139  1  0.28529707  0.49522391  0.36219847  1
  Ti  Ti140  1  0.60123234  0.38960846  0.26312077  1
  Ti  Ti141  1  0.10256721  0.30522958  0.10456936  1
  Ti  Ti142  1  0.28769247  0.89992538  0.14118930  1
  Ti  Ti143  1  0.30903355  0.50020159  0.61919962  1
  Ti  Ti144  1  0.20549175  0.79825764  0.48184565  1
  Ti  Ti145  1  -0.00857715  0.60406622  0.50663643  1
  Ti  Ti146  1  0.59874592  0.20104599  0.75187642  1
  Ti  Ti147  1  0.59958500  0.80139151  0.00981444  1
  Ti  Ti148  1  0.59530196  0.39905053  -0.00417136  1
  Ti  Ti149  1  0.20065944  0.00329002  0.26054889  1
  Ti  Ti150  1  0.39888610  0.41377676  -0.01015153  1
  Ti  Ti151  1  0.71350920  0.11100100  0.86493422  1
  Ti  Ti152  1  -0.00474109  0.80726897  0.00602500  1
  Ti  Ti153  1  0.50534510  0.50440009  0.36452966  1
  Ti  Ti154  1  0.89877111  0.09140880  0.85187934  1
  Ti  Ti155  1  0.61169008  0.18648809  0.25144267  1
  Ti  Ti156  1  0.50391351  0.90788890  0.37750644  1
  Ti  Ti157  1  0.30104710  0.30170823  0.88097267  1
  Ti  Ti158  1  0.62063164  0.20494970  -0.01091638  1
  Ti  Ti159  1  0.09891920  0.90673501  0.13189102  1
  Mo  Mo160  1  0.29509258  0.90317598  0.37123035  1
  Mo  Mo161  1  -0.01207376  0.19904429  0.51833668  1
  Mo  Mo162  1  0.40128600  0.60906845  0.00238659  1
  Mo  Mo163  1  0.89745796  0.49717579  0.63543395  1
  Mo  Mo164  1  0.90186944  0.70338789  0.63469547  1
  Mo  Mo165  1  0.50882199  0.29410370  0.36102073  1
  Mo  Mo166  1  0.19556717  0.00404890  0.02593369  1
  Mo  Mo167  1  0.20291561  0.00674122  0.75037858  1
  Mo  Mo168  1  0.81106266  0.80525138  -0.00377691  1
  Mo  Mo169  1  0.90311387  0.69036822  0.35697245  1
  Mo  Mo170  1  0.21287831  -0.00099188  0.47331325  1
  Mo  Mo171  1  0.79467654  0.19246374  0.00095708  1
  Mo  Mo172  1  0.59958606  0.19963788  0.51125224  1
  Mo  Mo173  1  0.79716162  0.39001432  0.51517939  1
  Mo  Mo174  1  0.69447019  0.29286820  0.84808418  1
  Mo  Mo175  1  0.39915450  0.40145839  0.75907808  1
  Mo  Mo176  1  0.19464698  0.80618679  0.25350139  1
  Mo  Mo177  1  0.80890683  -0.00270506  0.75258586  1
  Mo  Mo178  1  0.69254521  0.10432503  0.11013712  1
  Mo  Mo179  1  0.19669919  0.39465924  0.23552147  1
  Mo  Mo180  1  0.20678446  0.39562119  -0.00565150  1
  Mo  Mo181  1  0.21275573  0.40737112  0.50674473  1
  Mo  Mo182  1  0.79770733  0.19450889  0.23735262  1
  Mo  Mo183  1  0.39286109  0.59984134  0.25384046  1
  Mo  Mo184  1  0.09908156  0.49286218  0.10544583  1
  Mo  Mo185  1  0.80535532  0.19884544  0.73602698  1
  Mo  Mo186  1  0.00100915  0.39677670  0.00228695  1
  Mo  Mo187  1  0.30509422  0.09980696  0.62930460  1
  Mo  Mo188  1  0.60384491  0.00733719  0.00362015  1
  Mo  Mo189  1  0.30094337  0.49842108  0.89304343  1
  Mo  Mo190  1  0.09755054  0.90824203  0.89101743  1
  Mo  Mo191  1  0.80255424  -0.00380110  0.52257859  1
  Mo  Mo192  1  0.49897002  0.50267838  0.89372242  1
  Mo  Mo193  1  0.10230707  0.09625429  0.87761787  1
  Mo  Mo194  1  0.70147796  0.09466727  0.38897798  1
  Mo  Mo195  1  0.69856135  0.90283795  0.10637942  1
  Mo  Mo196  1  0.21202847  0.19748873  0.48083260  1
  Mo  Mo197  1  0.00108424  0.80618621  0.75937841  1
  Mo  Mo198  1  0.30153853  0.10488949  0.35460897  1
  Mo  Mo199  1  0.79697396  0.80241442  0.24579338  1
