# generated using pymatgen
data_HfZrTaTiMo
_symmetry_space_group_name_H-M   'P 1'
_cell_length_a   15.92449798
_cell_length_b   15.93046756
_cell_length_c   15.19525928
_cell_angle_alpha   90.03252406
_cell_angle_beta   89.96541499
_cell_angle_gamma   90.02065824
_symmetry_Int_Tables_number   1
_chemical_formula_structural   HfZrTaTiMo
_chemical_formula_sum   'Hf40 Zr40 Ta40 Ti40 Mo40'
_cell_volume   3854.80319570
_cell_formula_units_Z   40
loop_
 _symmetry_equiv_pos_site_id
 _symmetry_equiv_pos_as_xyz
  1  'x, y, z'
loop_
 _atom_site_type_symbol
 _atom_site_label
 _atom_site_symmetry_multiplicity
 _atom_site_fract_x
 _atom_site_fract_y
 _atom_site_fract_z
 _atom_site_occupancy
  Hf  Hf0  1  0.59876282  0.40406474  0.76273948  1
  Hf  Hf1  1  0.80394323  0.40047306  0.76361355  1
  Hf  Hf2  1  0.48971747  0.29833795  0.88925964  1
  Hf  Hf3  1  0.10516606  0.10340593  0.85882905  1
  Hf  Hf4  1  0.88719547  0.30285893  0.12852366  1
  Hf  Hf5  1  0.79792332  0.60099931  0.49721976  1
  Hf  Hf6  1  0.90715021  0.49753195  0.61295109  1
  Hf  Hf7  1  0.29184212  0.69804848  0.88323994  1
  Hf  Hf8  1  0.38652120  0.80809917  0.24517866  1
  Hf  Hf9  1  0.79960662  0.59355288  0.75940741  1
  Hf  Hf10  1  0.29566866  0.10615824  0.87288697  1
  Hf  Hf11  1  0.20453868  0.38335704  0.76061133  1
  Hf  Hf12  1  0.39618492  0.40691794  0.48089789  1
  Hf  Hf13  1  0.89769127  0.29457561  0.61295441  1
  Hf  Hf14  1  0.00694451  0.19433442  0.01990644  1
  Hf  Hf15  1  0.39748150  0.40854697  0.75132008  1
  Hf  Hf16  1  0.00618633  0.40705262  0.23863650  1
  Hf  Hf17  1  0.61405801  0.01020132  0.75743758  1
  Hf  Hf18  1  0.81703055  -0.00575897  0.74501845  1
  Hf  Hf19  1  0.58709086  0.18895025  0.01620525  1
  Hf  Hf20  1  0.80770736  -0.01240719  -0.00020869  1
  Hf  Hf21  1  0.70458671  0.90017589  0.61299836  1
  Hf  Hf22  1  0.79383768  0.19124852  0.75608089  1
  Hf  Hf23  1  0.50624752  0.88732976  0.86894410  1
  Hf  Hf24  1  0.30081133  0.69642782  0.62367959  1
  Hf  Hf25  1  0.29167063  0.89810760  0.88176132  1
  Hf  Hf26  1  0.50021846  0.70044823  0.36929700  1
  Hf  Hf27  1  0.91128743  0.08941664  0.87598143  1
  Hf  Hf28  1  0.49141275  0.90083659  0.37790294  1
  Hf  Hf29  1  0.90381653  0.30393050  0.36673704  1
  Hf  Hf30  1  0.00016859  0.39518155  0.76355218  1
  Hf  Hf31  1  0.69260201  0.49773425  0.62520854  1
  Hf  Hf32  1  0.20217715  0.59893333  0.49508194  1
  Hf  Hf33  1  0.70696071  0.10054026  0.60785089  1
  Hf  Hf34  1  0.50434524  0.50509981  0.13016480  1
  Hf  Hf35  1  0.50440980  0.89737778  0.62624689  1
  Hf  Hf36  1  0.38709719  0.21142423  0.73819728  1
  Hf  Hf37  1  0.60859554  0.00569756  -0.01483354  1
  Hf  Hf38  1  0.29127236  0.30617666  0.13398996  1
  Hf  Hf39  1  0.79143216  0.18285104  0.01548673  1
  Zr  Zr40  1  0.10498197  0.49861088  0.62077582  1
  Zr  Zr41  1  0.70964753  0.88751058  0.87039764  1
  Zr  Zr42  1  0.79362044  0.40378613  0.48386652  1
  Zr  Zr43  1  0.39624582  0.20193174  0.48540513  1
  Zr  Zr44  1  0.27434653  0.71779300  0.10642966  1
  Zr  Zr45  1  0.10173917  0.29932554  0.61261726  1
  Zr  Zr46  1  0.69963017  0.49170027  0.12151633  1
  Zr  Zr47  1  0.69391824  0.30149165  0.90077329  1
  Zr  Zr48  1  0.69447532  0.29642663  0.61993871  1
  Zr  Zr49  1  0.70488281  0.69898349  0.36688074  1
  Zr  Zr50  1  0.19331804  0.60390815  0.25398679  1
  Zr  Zr51  1  0.20636215  0.19288715  0.48836104  1
  Zr  Zr52  1  0.38646631  0.60766747  0.24187365  1
  Zr  Zr53  1  0.59405926  0.20012368  0.47467909  1
  Zr  Zr54  1  0.00207202  0.80416508  0.50432650  1
  Zr  Zr55  1  0.40927586  0.01656907  0.00217038  1
  Zr  Zr56  1  0.50671090  0.10978027  0.62954637  1
  Zr  Zr57  1  0.50407528  0.31159835  0.61804926  1
  Zr  Zr58  1  0.90203218  0.29162486  0.88975242  1
  Zr  Zr59  1  0.51607634  0.70745539  0.13217561  1
  Zr  Zr60  1  0.51046021  0.91232288  0.13155632  1
  Zr  Zr61  1  0.40009910  0.79009035  0.74698472  1
  Zr  Zr62  1  0.10511047  0.88465532  0.12106760  1
  Zr  Zr63  1  -0.00668337  0.60785805  -0.00297570  1
  Zr  Zr64  1  0.10940006  0.50659424  0.87987413  1
  Zr  Zr65  1  0.39979372  0.19916302  0.25241357  1
  Zr  Zr66  1  0.50415355  0.50701734  0.89653386  1
  Zr  Zr67  1  0.69346755  0.30207005  0.35163595  1
  Zr  Zr68  1  0.90121115  0.87714498  0.13143190  1
  Zr  Zr69  1  -0.00657511  0.60579737  0.76212262  1
  Zr  Zr70  1  0.19221337  0.20277358  0.01307638  1
  Zr  Zr71  1  0.19654795  0.81211586  0.27472047  1
  Zr  Zr72  1  0.68456851  0.08707180  0.15362766  1
  Zr  Zr73  1  0.81271003  0.79530973  0.74169725  1
  Zr  Zr74  1  0.39504276  0.00297726  0.74627460  1
  Zr  Zr75  1  0.70629480  0.88797819  0.13552093  1
  Zr  Zr76  1  0.00660911  0.39768476  0.00590793  1
  Zr  Zr77  1  0.09594888  0.90803609  0.86664149  1
  Zr  Zr78  1  0.51424979  0.30784713  0.13666897  1
  Zr  Zr79  1  0.30180827  0.50283856  0.89185007  1
  Ta  Ta80  1  0.90530917  0.09261913  0.37335034  1
  Ta  Ta81  1  0.00261062  0.19507707  0.25468003  1
  Ta  Ta82  1  0.69263046  0.69861883  0.86829505  1
  Ta  Ta83  1  -0.00137626  0.79346468  0.26905804  1
  Ta  Ta84  1  0.38745740  0.41082638  0.25557871  1
  Ta  Ta85  1  0.80144203  0.19322127  0.25154365  1
  Ta  Ta86  1  0.49855102  0.50809017  0.61764925  1
  Ta  Ta87  1  0.00513715  0.19564895  0.48490260  1
  Ta  Ta88  1  0.10143359  0.09058750  0.14622663  1
  Ta  Ta89  1  0.29215701  0.90502627  0.61945685  1
  Ta  Ta90  1  0.00669985  -0.01422076  0.26142270  1
  Ta  Ta91  1  -0.00336053  0.80551067  0.74113637  1
  Ta  Ta92  1  0.19707409  0.80592299  0.49967150  1
  Ta  Ta93  1  0.10358196  0.30472802  0.36669142  1
  Ta  Ta94  1  0.59997970  0.59737400  0.49305960  1
  Ta  Ta95  1  0.09536739  0.50277077  0.37418768  1
  Ta  Ta96  1  0.29878262  0.09716006  0.13400482  1
  Ta  Ta97  1  0.39573876  0.39855010  0.01683727  1
  Ta  Ta98  1  0.09928083  0.69918910  0.62556006  1
  Ta  Ta99  1  0.90751074  0.51096245  0.36868849  1
  Ta  Ta100  1  0.10375161  0.09352787  0.62010196  1
  Ta  Ta101  1  0.59562321  0.00038308  0.49023204  1
  Ta  Ta102  1  0.29354647  0.08057300  0.36229555  1
  Ta  Ta103  1  0.39878593  0.60901709  0.01361920  1
  Ta  Ta104  1  0.00094379  0.19548372  0.73599568  1
  Ta  Ta105  1  0.80325567  0.19528053  0.47843427  1
  Ta  Ta106  1  0.90248419  0.08536337  0.14490488  1
  Ta  Ta107  1  0.50640208  0.50845131  0.35842598  1
  Ta  Ta108  1  0.80507587  -0.01132688  0.26589092  1
  Ta  Ta109  1  0.19852171  0.00207114  0.01317148  1
  Ta  Ta110  1  0.80208393  0.61464066  -0.00206063  1
  Ta  Ta111  1  0.69323292  0.69873738  0.62807346  1
  Ta  Ta112  1  0.90551790  0.09397998  0.59985757  1
  Ta  Ta113  1  0.00438055  -0.00075183  0.01258651  1
  Ta  Ta114  1  0.59835335  0.79406661  0.50164488  1
  Ta  Ta115  1  0.70221047  0.89734874  0.38488751  1
  Ta  Ta116  1  0.59288892  0.60319415  0.75199549  1
  Ta  Ta117  1  0.19693956  0.19911775  0.25716126  1
  Ta  Ta118  1  0.39196620  0.00766921  0.50517865  1
  Ta  Ta119  1  0.39626831  0.80158768  0.50411692  1
  Ti  Ti120  1  0.79815950  0.40853344  0.25044178  1
  Ti  Ti121  1  0.08262039  0.70174622  0.12422611  1
  Ti  Ti122  1  0.08865054  0.69301539  0.38538078  1
  Ti  Ti123  1  0.70158228  0.50112454  0.89429631  1
  Ti  Ti124  1  0.19019501  0.39203914  -0.00056356  1
  Ti  Ti125  1  0.50037884  0.11449790  0.86164623  1
  Ti  Ti126  1  0.30258394  0.70497758  0.38623600  1
  Ti  Ti127  1  0.28892145  0.50326021  0.11455458  1
  Ti  Ti128  1  0.49970197  0.31033567  0.35717485  1
  Ti  Ti129  1  0.80349200  0.79724022  0.50148683  1
  Ti  Ti130  1  0.90397341  0.69450779  0.61802111  1
  Ti  Ti131  1  0.00109608  -0.00767471  0.72539868  1
  Ti  Ti132  1  0.59808084  0.41164466  0.47949528  1
  Ti  Ti133  1  0.10373876  0.08427997  0.37321941  1
  Ti  Ti134  1  0.38828837  -0.00948683  0.24325425  1
  Ti  Ti135  1  0.19255469  0.80380116  0.73959111  1
  Ti  Ti136  1  0.30325388  0.49840082  0.61960731  1
  Ti  Ti137  1  0.61344640  0.79625294  0.00275414  1
  Ti  Ti138  1  0.50268727  0.69475996  0.62041335  1
  Ti  Ti139  1  0.90419291  0.69487032  0.37363486  1
  Ti  Ti140  1  0.80834359  0.60141441  0.24708088  1
  Ti  Ti141  1  0.29483116  0.30496648  0.61216921  1
  Ti  Ti142  1  0.60773046  0.61073022  0.00530375  1
  Ti  Ti143  1  0.40354804  0.59890102  0.49361857  1
  Ti  Ti144  1  0.90152797  0.90148869  0.38837851  1
  Ti  Ti145  1  0.20378550  0.59877716  0.74453684  1
  Ti  Ti146  1  0.40257594  0.59750928  0.75246154  1
  Ti  Ti147  1  0.49906490  0.09094906  0.35694919  1
  Ti  Ti148  1  0.71783737  0.70544892  0.13667289  1
  Ti  Ti149  1  0.00504900  0.40132122  0.48743078  1
  Ti  Ti150  1  0.10812954  0.50582584  0.12377327  1
  Ti  Ti151  1  0.10422187  0.70734101  0.87269908  1
  Ti  Ti152  1  0.20815923  0.40151626  0.47577444  1
  Ti  Ti153  1  0.29931311  0.29274688  0.89270620  1
  Ti  Ti154  1  -0.01591406  0.79768888  -0.01797759  1
  Ti  Ti155  1  0.70043432  0.09218572  0.36949379  1
  Ti  Ti156  1  0.89777526  0.50981375  0.12294321  1
  Ti  Ti157  1  0.50195620  0.70128653  0.88156097  1
  Ti  Ti158  1  0.60653453  0.80552199  0.26044228  1
  Ti  Ti159  1  0.40318945  0.80548354  0.00712739  1
  Mo  Mo160  1  0.49464556  0.09855778  0.14713681  1
  Mo  Mo161  1  0.80163857  0.00003870  0.48400874  1
  Mo  Mo162  1  0.29853805  0.90478326  0.39748700  1
  Mo  Mo163  1  0.29599282  0.30317160  0.36029669  1
  Mo  Mo164  1  0.30026830  0.90390797  0.10473955  1
  Mo  Mo165  1  0.18134643  0.80203462  -0.01467950  1
  Mo  Mo166  1  0.39512678  0.20257425  0.01785186  1
  Mo  Mo167  1  0.29420742  0.10180924  0.62937829  1
  Mo  Mo168  1  0.20025174  0.19952125  0.73462987  1
  Mo  Mo169  1  0.59833098  0.40721573  0.25743764  1
  Mo  Mo170  1  0.89552560  0.70649425  0.86700337  1
  Mo  Mo171  1  0.30059298  0.50651545  0.37895396  1
  Mo  Mo172  1  0.09935186  0.29763739  0.14848095  1
  Mo  Mo173  1  0.10205376  0.89785617  0.63089959  1
  Mo  Mo174  1  0.19137710  0.60247756  0.01135650  1
  Mo  Mo175  1  -0.00150171  0.60292233  0.24286080  1
  Mo  Mo176  1  0.59844725  0.19578942  0.25416760  1
  Mo  Mo177  1  0.70326187  0.10077932  0.87351475  1
  Mo  Mo178  1  0.70358154  0.29807393  0.13376091  1
  Mo  Mo179  1  0.59983144  0.78920011  0.73720483  1
  Mo  Mo180  1  0.00117417  0.60022914  0.49877805  1
  Mo  Mo181  1  0.91093301  0.90125734  0.87926042  1
  Mo  Mo182  1  0.70015385  0.50629075  0.35779567  1
  Mo  Mo183  1  0.00617123  0.00114175  0.49293466  1
  Mo  Mo184  1  0.89903643  0.69688280  0.14121672  1
  Mo  Mo185  1  0.19912498  0.00084010  0.73127540  1
  Mo  Mo186  1  0.59836521  0.40271006  -0.00181747  1
  Mo  Mo187  1  0.90204026  0.90304374  0.60222135  1
  Mo  Mo188  1  0.20084730  0.40709059  0.25707119  1
  Mo  Mo189  1  0.60059086  0.20040073  0.76243770  1
  Mo  Mo190  1  0.80972515  0.79955518  0.27499846  1
  Mo  Mo191  1  0.10022412  0.90521932  0.38074068  1
  Mo  Mo192  1  0.20448864  -0.00431316  0.24053820  1
  Mo  Mo193  1  0.80285776  0.78557033  -0.01015731  1
  Mo  Mo194  1  0.60925136  0.60428561  0.24852354  1
  Mo  Mo195  1  0.80312645  0.41057897  0.00250589  1
  Mo  Mo196  1  0.88988873  0.50037735  0.89537385  1
  Mo  Mo197  1  0.59951014  -0.00747314  0.27557551  1
  Mo  Mo198  1  0.19900152  -0.00130077  0.50900456  1
  Mo  Mo199  1  0.10496018  0.28874286  0.86219368  1
