# generated using pymatgen
data_HfZrTaTiMo
_symmetry_space_group_name_H-M   'P 1'
_cell_length_a   15.93791806
_cell_length_b   15.91991769
_cell_length_c   15.20783913
_cell_angle_alpha   89.99757005
_cell_angle_beta   90.02570932
_cell_angle_gamma   89.94885507
_symmetry_Int_Tables_number   1
_chemical_formula_structural   HfZrTaTiMo
_chemical_formula_sum   'Hf40 Zr40 Ta40 Ti40 Mo40'
_cell_volume   3858.68831939
_cell_formula_units_Z   40
loop_
 _symmetry_equiv_pos_site_id
 _symmetry_equiv_pos_as_xyz
  1  'x, y, z'
loop_
 _atom_site_type_symbol
 _atom_site_label
 _atom_site_symmetry_multiplicity
 _atom_site_fract_x
 _atom_site_fract_y
 _atom_site_fract_z
 _atom_site_occupancy
  Hf  Hf0  1  0.20954925  0.80938034  0.01399308  1
  Hf  Hf1  1  0.90064894  0.70372649  0.87074960  1
  Hf  Hf2  1  0.19013335  0.83209882  0.23438994  1
  Hf  Hf3  1  0.59678747  0.38556195  0.74159930  1
  Hf  Hf4  1  -0.00794933  0.40316997  -0.01354837  1
  Hf  Hf5  1  0.00486440  0.59337803  0.75786315  1
  Hf  Hf6  1  0.10290443  0.10117798  0.11052288  1
  Hf  Hf7  1  0.90733965  0.10446068  0.11657645  1
  Hf  Hf8  1  0.70246004  0.50440739  0.62171486  1
  Hf  Hf9  1  0.89378271  0.49329779  0.13503799  1
  Hf  Hf10  1  0.49973048  0.10677192  0.12170141  1
  Hf  Hf11  1  0.70442363  0.69386974  0.13104854  1
  Hf  Hf12  1  0.09368656  0.72361601  0.36194273  1
  Hf  Hf13  1  0.30683936  0.70182428  0.13548563  1
  Hf  Hf14  1  0.60263150  0.01222535  0.74143968  1
  Hf  Hf15  1  0.20781935  0.39800896  0.50073243  1
  Hf  Hf16  1  0.90034056  0.29570833  0.11577029  1
  Hf  Hf17  1  0.68523066  0.69544910  0.88378687  1
  Hf  Hf18  1  0.50037214  0.49422747  0.35612603  1
  Hf  Hf19  1  0.70545598  0.69414826  0.36115626  1
  Hf  Hf20  1  0.49115947  0.90532632  0.62504414  1
  Hf  Hf21  1  0.89604643  0.70111266  0.13441551  1
  Hf  Hf22  1  0.29317834  0.89618628  0.63528103  1
  Hf  Hf23  1  0.09955077  0.89533257  0.86426952  1
  Hf  Hf24  1  -0.00407180  0.61536850  0.49483602  1
  Hf  Hf25  1  0.00255914  0.59639675  -0.00034306  1
  Hf  Hf26  1  0.29848434  0.71245498  0.35994998  1
  Hf  Hf27  1  0.80155186  0.78716382  0.50989335  1
  Hf  Hf28  1  0.31602849  0.68818784  0.89269629  1
  Hf  Hf29  1  0.78321751  0.79535406  0.74607496  1
  Hf  Hf30  1  0.59158915  0.62283734  0.72338365  1
  Hf  Hf31  1  0.29924863  0.92519646  0.36683711  1
  Hf  Hf32  1  0.41121345  0.77113054  0.73970495  1
  Hf  Hf33  1  0.09831612  0.29072274  0.38605927  1
  Hf  Hf34  1  0.49782378  0.70371280  0.36156682  1
  Hf  Hf35  1  0.59939327  0.79931479  0.50968566  1
  Hf  Hf36  1  0.67136234  0.28116715  0.60165699  1
  Hf  Hf37  1  0.39746677  0.59785628  0.48784126  1
  Hf  Hf38  1  0.59070655  0.41971363  0.01053776  1
  Hf  Hf39  1  0.79729110  -0.01073830  0.51247816  1
  Zr  Zr40  1  0.89318155  0.68809818  0.64189572  1
  Zr  Zr41  1  0.59624655  0.81300162  0.23995134  1
  Zr  Zr42  1  0.79877796  0.58484430  -0.00955879  1
  Zr  Zr43  1  0.09775546  0.29719860  0.12589696  1
  Zr  Zr44  1  0.80380530  0.39223915  0.26928832  1
  Zr  Zr45  1  -0.00087917  0.59962862  0.25621095  1
  Zr  Zr46  1  0.21398234  0.60773582  0.74743978  1
  Zr  Zr47  1  0.00226788  0.39532022  0.74255485  1
  Zr  Zr48  1  0.80170899  -0.00360620  -0.00988767  1
  Zr  Zr49  1  0.91933927  0.09521429  0.39645034  1
  Zr  Zr50  1  0.30883655  0.29366438  0.63354157  1
  Zr  Zr51  1  0.80758480  0.00347976  0.25610308  1
  Zr  Zr52  1  0.30706262  0.88666618  0.86538434  1
  Zr  Zr53  1  0.38996509  0.19040596  0.25504222  1
  Zr  Zr54  1  0.77356119  0.20134177  0.75015259  1
  Zr  Zr55  1  0.78951977  -0.00210972  0.74712577  1
  Zr  Zr56  1  0.69486741  0.30024376  0.13257012  1
  Zr  Zr57  1  0.81089057  0.20313740  0.27063837  1
  Zr  Zr58  1  0.89661227  0.49960769  0.62196720  1
  Zr  Zr59  1  0.48784660  0.31762474  0.88128649  1
  Zr  Zr60  1  0.11652731  0.49705276  0.87836265  1
  Zr  Zr61  1  0.90137463  0.10128427  0.62838101  1
  Zr  Zr62  1  0.91198231  0.87992639  0.36430191  1
  Zr  Zr63  1  0.30634407  0.50236075  0.62596957  1
  Zr  Zr64  1  0.00418833  0.80823342  0.51655323  1
  Zr  Zr65  1  0.89649086  0.49974418  0.38775186  1
  Zr  Zr66  1  0.49847129  0.51969046  0.85607808  1
  Zr  Zr67  1  0.40846712  0.57180829  0.02383626  1
  Zr  Zr68  1  0.03309088  -0.00679650  0.25573155  1
  Zr  Zr69  1  0.69916543  0.10432495  0.12687676  1
  Zr  Zr70  1  0.79465874  0.39001001  0.49886302  1
  Zr  Zr71  1  0.21364475  0.39983421  0.01382812  1
  Zr  Zr72  1  0.60130771  0.80852845  0.01353536  1
  Zr  Zr73  1  0.68596330  0.10381300  0.37807160  1
  Zr  Zr74  1  0.40209915  0.01307057  0.75571530  1
  Zr  Zr75  1  0.11122396  0.70659621  0.87925086  1
  Zr  Zr76  1  0.69759329  0.90003040  0.37061960  1
  Zr  Zr77  1  0.10148070  0.49400227  0.38028745  1
  Zr  Zr78  1  0.31506927  0.48491395  0.86328015  1
  Zr  Zr79  1  0.90949253  0.90063246  0.12729755  1
  Ta  Ta80  1  0.69067849  0.10300934  0.88647147  1
  Ta  Ta81  1  0.20464885  0.19790710  -0.01558453  1
  Ta  Ta82  1  0.09982774  0.70227453  0.12788847  1
  Ta  Ta83  1  0.79281069  0.39609477  0.75328333  1
  Ta  Ta84  1  0.89615942  0.29772896  0.86371055  1
  Ta  Ta85  1  0.50004356  0.69279621  0.13123393  1
  Ta  Ta86  1  0.20100237  0.59658883  0.25175934  1
  Ta  Ta87  1  0.48927558  0.08956451  0.37189442  1
  Ta  Ta88  1  0.79843472  0.20558382  -0.01542172  1
  Ta  Ta89  1  0.69086032  0.50174734  0.86000347  1
  Ta  Ta90  1  0.59498153  0.00441787  0.51130106  1
  Ta  Ta91  1  0.50271520  0.89536411  0.87822698  1
  Ta  Ta92  1  0.00702779  0.20207249  0.74813150  1
  Ta  Ta93  1  0.59917205  0.80723364  0.73687726  1
  Ta  Ta94  1  0.19562040  0.18831538  0.26019693  1
  Ta  Ta95  1  0.90039750  0.10117496  0.86542283  1
  Ta  Ta96  1  0.39306062  0.20437663  0.00102719  1
  Ta  Ta97  1  0.39461721  0.80642415  0.49587755  1
  Ta  Ta98  1  0.20504100  0.19524440  0.75608505  1
  Ta  Ta99  1  0.59787879  0.21360154  -0.00782960  1
  Ta  Ta100  1  0.50563616  0.12668694  0.61943493  1
  Ta  Ta101  1  0.29985150  0.30171845  0.86644492  1
  Ta  Ta102  1  0.10409232  0.50733041  0.61326001  1
  Ta  Ta103  1  0.39691524  0.20200516  0.48707577  1
  Ta  Ta104  1  0.09962268  0.49667532  0.13623322  1
  Ta  Ta105  1  0.60071560  0.59861441  0.49802928  1
  Ta  Ta106  1  0.00421569  0.19613322  0.26201976  1
  Ta  Ta107  1  0.90640014  0.89596853  0.64471896  1
  Ta  Ta108  1  0.50065653  0.10188210  0.88894516  1
  Ta  Ta109  1  0.69524100  0.50312193  0.14603469  1
  Ta  Ta110  1  0.39872434  -0.00427484  -0.00097116  1
  Ta  Ta111  1  0.67865977  0.30345743  0.37837646  1
  Ta  Ta112  1  0.10990217  0.09698128  0.63634535  1
  Ta  Ta113  1  0.40650191  0.39377442  0.48835039  1
  Ta  Ta114  1  0.10670797  0.29934597  0.86965696  1
  Ta  Ta115  1  0.00048694  0.20083896  -0.02328696  1
  Ta  Ta116  1  0.80247083  0.80345913  -0.00544672  1
  Ta  Ta117  1  0.10092042  0.09854812  0.86736684  1
  Ta  Ta118  1  0.20793797  0.00373496  -0.01119887  1
  Ta  Ta119  1  0.10976859  0.70501295  0.63046776  1
  Ti  Ti120  1  0.29756742  0.09748182  0.11868877  1
  Ti  Ti121  1  0.79974051  0.19718800  0.49508543  1
  Ti  Ti122  1  -0.00249258  0.38601455  0.25968293  1
  Ti  Ti123  1  0.01530639  -0.00807982  0.51388716  1
  Ti  Ti124  1  0.49370356  0.90759932  0.38007345  1
  Ti  Ti125  1  0.49947309  0.49231178  0.61773932  1
  Ti  Ti126  1  0.20463603  0.19541420  0.50602964  1
  Ti  Ti127  1  0.00245514  0.80345904  0.00516074  1
  Ti  Ti128  1  0.10583585  0.89622138  0.64876041  1
  Ti  Ti129  1  0.00397401  0.38861941  0.51685674  1
  Ti  Ti130  1  0.19764243  0.81087452  0.49664008  1
  Ti  Ti131  1  0.19899011  0.39539090  0.25653572  1
  Ti  Ti132  1  0.79075719  0.39727447  -0.01801456  1
  Ti  Ti133  1  0.00306483  -0.00052328  -0.01525087  1
  Ti  Ti134  1  0.30857785  0.49121542  0.15656132  1
  Ti  Ti135  1  0.58576008  -0.00112656  0.24215052  1
  Ti  Ti136  1  0.39710769  0.00871561  0.50676160  1
  Ti  Ti137  1  0.11625701  0.09093325  0.38972121  1
  Ti  Ti138  1  0.29894456  0.30148383  0.36941011  1
  Ti  Ti139  1  0.69150754  0.90012897  0.87568350  1
  Ti  Ti140  1  0.71007425  0.90396608  0.12978463  1
  Ti  Ti141  1  0.29783112  0.70225555  0.60876669  1
  Ti  Ti142  1  0.40414423  0.82421899  0.23361542  1
  Ti  Ti143  1  0.40905164  0.20269090  0.76176216  1
  Ti  Ti144  1  0.68874250  0.49836597  0.36887701  1
  Ti  Ti145  1  0.50052438  0.70293823  0.89750526  1
  Ti  Ti146  1  0.20751115  0.00704393  0.76045389  1
  Ti  Ti147  1  0.49449898  0.30646205  0.13749306  1
  Ti  Ti148  1  0.29727059  0.29308355  0.13528592  1
  Ti  Ti149  1  0.19466630  0.39407535  0.73450887  1
  Ti  Ti150  1  0.01019288  0.20036125  0.52112109  1
  Ti  Ti151  1  0.30515320  0.10157601  0.62533910  1
  Ti  Ti152  1  0.00166712  0.00254797  0.75110663  1
  Ti  Ti153  1  0.50234569  0.29792744  0.36133093  1
  Ti  Ti154  1  0.20139945  -0.00047561  0.51342964  1
  Ti  Ti155  1  0.90396065  0.89540404  0.86356973  1
  Ti  Ti156  1  0.20449725  0.59315587  0.02185390  1
  Ti  Ti157  1  0.89301920  0.29407847  0.62891555  1
  Ti  Ti158  1  0.59910770  0.00104701  0.00282252  1
  Ti  Ti159  1  0.19920033  0.60696444  0.48525746  1
  Mo  Mo160  1  0.40579139  0.60110752  0.72846800  1
  Mo  Mo161  1  0.30454092  0.10421729  0.88131312  1
  Mo  Mo162  1  0.39466563  0.38658949  0.03174647  1
  Mo  Mo163  1  0.49092981  0.30097916  0.62008629  1
  Mo  Mo164  1  0.00836788  0.80318916  0.22988173  1
  Mo  Mo165  1  0.79204251  0.59801226  0.48064278  1
  Mo  Mo166  1  0.40284755  0.39740947  0.73374323  1
  Mo  Mo167  1  0.58677004  0.40422378  0.49820629  1
  Mo  Mo168  1  0.20813904  0.79632614  0.74470026  1
  Mo  Mo169  1  0.59906843  0.59809364  0.01853004  1
  Mo  Mo170  1  0.10515677  0.29454996  0.62377278  1
  Mo  Mo171  1  0.29902895  0.49889772  0.36500319  1
  Mo  Mo172  1  0.59136907  0.19741357  0.25921853  1
  Mo  Mo173  1  0.00380210  0.79945167  0.74449432  1
  Mo  Mo174  1  0.58931581  0.19584088  0.76879933  1
  Mo  Mo175  1  0.39400318  0.60118099  0.25248727  1
  Mo  Mo176  1  0.79231915  0.59376495  0.76642009  1
  Mo  Mo177  1  0.49929996  0.49487394  0.15084848  1
  Mo  Mo178  1  0.30551701  0.91570406  0.12667868  1
  Mo  Mo179  1  0.40756391  0.80156288  0.01241189  1
  Mo  Mo180  1  0.91371262  0.29183467  0.39889206  1
  Mo  Mo181  1  0.57890010  0.19955523  0.47636959  1
  Mo  Mo182  1  0.39111900  0.39132829  0.25611462  1
  Mo  Mo183  1  0.80357826  0.79958817  0.24163618  1
  Mo  Mo184  1  0.10179857  0.91026650  0.09435554  1
  Mo  Mo185  1  0.10940407  0.90969008  0.38931600  1
  Mo  Mo186  1  0.69386219  0.30693294  0.88527384  1
  Mo  Mo187  1  0.69775835  0.90041890  0.62327984  1
  Mo  Mo188  1  0.88946599  0.49542668  0.86205668  1
  Mo  Mo189  1  0.79932585  0.59465848  0.26163578  1
  Mo  Mo190  1  0.69068584  0.10289050  0.60536823  1
  Mo  Mo191  1  0.29544488  0.10371680  0.39273807  1
  Mo  Mo192  1  0.69859026  0.69451491  0.61316516  1
  Mo  Mo193  1  0.59769669  0.39480720  0.24317826  1
  Mo  Mo194  1  0.59687031  0.59901112  0.24505848  1
  Mo  Mo195  1  0.40146503  0.00037481  0.23841116  1
  Mo  Mo196  1  0.20958460  0.01788353  0.23925584  1
  Mo  Mo197  1  0.49865814  0.90777265  0.10967913  1
  Mo  Mo198  1  0.49280160  0.69900319  0.59427493  1
  Mo  Mo199  1  0.89465416  0.70301408  0.35650940  1
