# generated using pymatgen
data_HfZrTaTiMo
_symmetry_space_group_name_H-M   'P 1'
_cell_length_a   15.92873714
_cell_length_b   15.93378651
_cell_length_c   15.19427211
_cell_angle_alpha   89.99372781
_cell_angle_beta   89.95955538
_cell_angle_gamma   90.01813823
_symmetry_Int_Tables_number   1
_chemical_formula_structural   HfZrTaTiMo
_chemical_formula_sum   'Hf40 Zr40 Ta40 Ti40 Mo40'
_cell_volume   3856.38253054
_cell_formula_units_Z   40
loop_
 _symmetry_equiv_pos_site_id
 _symmetry_equiv_pos_as_xyz
  1  'x, y, z'
loop_
 _atom_site_type_symbol
 _atom_site_label
 _atom_site_symmetry_multiplicity
 _atom_site_fract_x
 _atom_site_fract_y
 _atom_site_fract_z
 _atom_site_occupancy
  Hf  Hf0  1  0.89884186  0.11371456  0.37268092  1
  Hf  Hf1  1  0.69877934  0.50362356  0.86094258  1
  Hf  Hf2  1  0.30451778  0.69777684  0.89455543  1
  Hf  Hf3  1  0.69284666  0.70904955  0.86717912  1
  Hf  Hf4  1  0.09034787  0.49785254  0.36235053  1
  Hf  Hf5  1  0.20037730  0.60679815  0.74092032  1
  Hf  Hf6  1  0.60048363  0.58993266  0.50094999  1
  Hf  Hf7  1  0.40228137  0.19764854  0.25494233  1
  Hf  Hf8  1  0.50722999  0.69532327  0.36413763  1
  Hf  Hf9  1  0.08504239  0.30410491  0.37576234  1
  Hf  Hf10  1  0.49812259  0.70108619  0.12047638  1
  Hf  Hf11  1  0.30282421  0.09701081  0.62744120  1
  Hf  Hf12  1  0.10359534  0.09797315  0.11330598  1
  Hf  Hf13  1  0.20347717  0.80141582  0.25263686  1
  Hf  Hf14  1  0.29524304  0.10731392  0.88221178  1
  Hf  Hf15  1  0.49449469  0.09767025  0.61939505  1
  Hf  Hf16  1  0.60332000  0.19954206  0.75555541  1
  Hf  Hf17  1  0.90095947  0.10296516  0.11731873  1
  Hf  Hf18  1  0.60811305  0.80478173  0.24338456  1
  Hf  Hf19  1  0.29215500  0.29956632  0.37499909  1
  Hf  Hf20  1  0.19990506  0.80026098  0.73670679  1
  Hf  Hf21  1  0.70145298  0.89220614  0.64419594  1
  Hf  Hf22  1  0.71807868  0.08581418  0.63895243  1
  Hf  Hf23  1  0.30038290  0.30036732  0.87731836  1
  Hf  Hf24  1  0.39851390  -0.00531963  0.76424437  1
  Hf  Hf25  1  0.30487870  0.90313359  0.61151448  1
  Hf  Hf26  1  0.09193049  0.49932809  0.13699364  1
  Hf  Hf27  1  0.19686211  0.20092440  0.51116323  1
  Hf  Hf28  1  0.09373017  0.69952343  0.13063962  1
  Hf  Hf29  1  -0.01471946  0.40694026  -0.01305534  1
  Hf  Hf30  1  -0.00389520  0.60197894  -0.00929556  1
  Hf  Hf31  1  0.58878458  0.39398412  0.74869349  1
  Hf  Hf32  1  0.50892769  0.50619182  0.13816027  1
  Hf  Hf33  1  0.09590921  0.69359379  0.38185746  1
  Hf  Hf34  1  0.91665286  0.11634003  0.89070446  1
  Hf  Hf35  1  0.19048164  0.40118464  -0.00529196  1
  Hf  Hf36  1  0.51032551  0.87582773  0.89332854  1
  Hf  Hf37  1  0.81464919  0.39903022  0.74788941  1
  Hf  Hf38  1  0.88969375  0.91365827  0.64042294  1
  Hf  Hf39  1  0.18710313  0.81138711  0.00597067  1
  Zr  Zr40  1  0.82292319  0.20115326  0.74616215  1
  Zr  Zr41  1  0.20134103  0.19911158  0.24457062  1
  Zr  Zr42  1  0.69887996  0.49200502  0.36605898  1
  Zr  Zr43  1  0.00163654  -0.01961239  -0.00792388  1
  Zr  Zr44  1  0.70952609  0.70156993  0.64506208  1
  Zr  Zr45  1  0.80837808  0.59154413  -0.01544051  1
  Zr  Zr46  1  0.70337687  0.29605990  0.38843228  1
  Zr  Zr47  1  0.09850793  0.70715421  0.87823036  1
  Zr  Zr48  1  0.19331790  0.40271350  0.50910832  1
  Zr  Zr49  1  0.60652284  0.79318320  0.49559607  1
  Zr  Zr50  1  0.59036393  0.00138608  0.76076217  1
  Zr  Zr51  1  0.60557860  0.19615071  0.23568983  1
  Zr  Zr52  1  0.09952682  0.10854870  0.37759615  1
  Zr  Zr53  1  0.19785615  0.39299075  0.75378404  1
  Zr  Zr54  1  0.49265117  0.69105879  0.89520932  1
  Zr  Zr55  1  0.60906422  0.39483424  0.00038302  1
  Zr  Zr56  1  0.70034583  0.30200644  0.61465364  1
  Zr  Zr57  1  0.79024059  0.00543958  0.24708581  1
  Zr  Zr58  1  0.19918910  0.58866768  0.50825610  1
  Zr  Zr59  1  0.70790938  0.89833563  0.86385633  1
  Zr  Zr60  1  0.60684865  -0.00066771  0.50035481  1
  Zr  Zr61  1  0.40317278  0.79164435  0.74397037  1
  Zr  Zr62  1  0.31063831  0.29973408  0.63489685  1
  Zr  Zr63  1  0.49167938  0.09918230  0.11436344  1
  Zr  Zr64  1  0.58116724  0.60020584  0.74170973  1
  Zr  Zr65  1  0.40207459  0.39070038  0.24579516  1
  Zr  Zr66  1  0.89106176  0.31546246  0.12896194  1
  Zr  Zr67  1  0.89626781  0.89223988  0.13344368  1
  Zr  Zr68  1  0.71247050  0.49288879  0.13572118  1
  Zr  Zr69  1  0.40067878  -0.00853570  -0.01052425  1
  Zr  Zr70  1  0.29661334  0.91043850  0.12610411  1
  Zr  Zr71  1  0.39403420  0.40683190  0.48675922  1
  Zr  Zr72  1  -0.00720008  0.80501967  0.50618410  1
  Zr  Zr73  1  0.80563184  0.59909258  0.50355183  1
  Zr  Zr74  1  0.89693751  0.30881590  0.37608526  1
  Zr  Zr75  1  0.29781120  0.70258840  0.38267448  1
  Zr  Zr76  1  0.70883450  0.69939007  0.12253914  1
  Zr  Zr77  1  0.40600582  0.40108171  0.00824162  1
  Zr  Zr78  1  -0.00917500  0.79957382  0.26705074  1
  Zr  Zr79  1  -0.01526592  0.61194356  0.74207763  1
  Ta  Ta80  1  0.40107683  0.19549038  0.48729831  1
  Ta  Ta81  1  0.29655674  0.10466168  0.10592360  1
  Ta  Ta82  1  0.81570805  0.80243596  -0.01295215  1
  Ta  Ta83  1  0.19475918  0.00066592  0.75401441  1
  Ta  Ta84  1  0.29920317  0.29092619  0.10940407  1
  Ta  Ta85  1  0.49680608  0.89828437  0.61304499  1
  Ta  Ta86  1  0.30091545  0.90540563  0.38193669  1
  Ta  Ta87  1  0.70989435  0.10235794  0.88409400  1
  Ta  Ta88  1  0.10231590  0.90496120  0.37784221  1
  Ta  Ta89  1  0.09629985  0.49773384  0.85995586  1
  Ta  Ta90  1  0.39907922  0.80548876  0.24766939  1
  Ta  Ta91  1  0.39963513  0.59190907  0.48838702  1
  Ta  Ta92  1  0.09734441  0.90565991  0.14193770  1
  Ta  Ta93  1  -0.00458716  0.00443909  0.49503298  1
  Ta  Ta94  1  0.08182534  0.27983742  0.87660467  1
  Ta  Ta95  1  0.19735791  0.00188529  0.49870380  1
  Ta  Ta96  1  0.50554665  0.09715381  0.37578482  1
  Ta  Ta97  1  0.79988230  0.80415982  0.48576459  1
  Ta  Ta98  1  0.50578717  0.49480025  0.36246439  1
  Ta  Ta99  1  0.39365050  0.59938492  0.25333620  1
  Ta  Ta100  1  0.40906194  0.20170970  0.75986736  1
  Ta  Ta101  1  0.60014621  0.00008591  0.23665489  1
  Ta  Ta102  1  0.09743702  0.91224842  0.62488909  1
  Ta  Ta103  1  0.30603625  0.69788689  0.60679202  1
  Ta  Ta104  1  0.61293532  -0.00346958  0.00970234  1
  Ta  Ta105  1  0.30422268  0.50588780  0.87622885  1
  Ta  Ta106  1  0.00030696  0.00349053  0.26004655  1
  Ta  Ta107  1  0.29561435  0.50309645  0.12657297  1
  Ta  Ta108  1  0.51374385  0.30064379  0.39060699  1
  Ta  Ta109  1  0.18843251  0.19097993  0.75056368  1
  Ta  Ta110  1  -0.00063850  0.80066112  0.73311334  1
  Ta  Ta111  1  0.89985961  0.50660710  0.14626481  1
  Ta  Ta112  1  0.08801128  0.49483534  0.64247714  1
  Ta  Ta113  1  0.80522778  -0.00449892  0.48752917  1
  Ta  Ta114  1  0.39761472  0.00373515  0.25800250  1
  Ta  Ta115  1  0.49879505  0.90388293  0.37094476  1
  Ta  Ta116  1  0.69736041  0.90391515  0.36889574  1
  Ta  Ta117  1  0.49731809  0.29764556  0.61431931  1
  Ta  Ta118  1  0.60643778  0.20062322  0.00396039  1
  Ta  Ta119  1  0.60108073  0.59497621  -0.00093209  1
  Ti  Ti120  1  0.40417826  0.80055267  0.48877659  1
  Ti  Ti121  1  0.71069595  0.29851318  0.87616292  1
  Ti  Ti122  1  0.90496219  0.49695977  0.35877784  1
  Ti  Ti123  1  0.49785556  0.29693671  0.88237517  1
  Ti  Ti124  1  0.08554315  0.29913426  0.63377401  1
  Ti  Ti125  1  0.30152162  0.69675388  0.11740621  1
  Ti  Ti126  1  0.60456726  0.37996325  0.23722139  1
  Ti  Ti127  1  0.20447796  0.59946556  0.25174974  1
  Ti  Ti128  1  0.49364943  0.69910417  0.61237066  1
  Ti  Ti129  1  0.79857324  0.21353721  0.00434338  1
  Ti  Ti130  1  0.09217874  0.89899081  0.85644048  1
  Ti  Ti131  1  0.19228870  0.80209232  0.50752554  1
  Ti  Ti132  1  0.20489723  0.00643220  0.26129809  1
  Ti  Ti133  1  0.19605242  0.59329859  0.00017551  1
  Ti  Ti134  1  -0.00354701  0.59822885  0.51903135  1
  Ti  Ti135  1  -0.00067560  0.01682592  0.75386503  1
  Ti  Ti136  1  0.19143812  -0.00124738  -0.01872074  1
  Ti  Ti137  1  0.50042683  0.89627386  0.12122987  1
  Ti  Ti138  1  0.49033740  0.48934120  0.62027431  1
  Ti  Ti139  1  0.80018030  0.60919589  0.26272157  1
  Ti  Ti140  1  0.80249355  -0.00509066  -0.00461382  1
  Ti  Ti141  1  -0.00935612  0.41089568  0.51621868  1
  Ti  Ti142  1  0.70079839  0.50043446  0.63433920  1
  Ti  Ti143  1  -0.00067845  0.20389183  0.23660233  1
  Ti  Ti144  1  0.90041769  0.69230781  0.38289234  1
  Ti  Ti145  1  0.80583047  0.41007461  0.51250886  1
  Ti  Ti146  1  0.09651793  0.29941671  0.11711832  1
  Ti  Ti147  1  0.20151025  0.39598740  0.24051291  1
  Ti  Ti148  1  0.79914312  0.79931954  0.26776745  1
  Ti  Ti149  1  0.29698139  0.88884316  0.87783775  1
  Ti  Ti150  1  0.90111229  0.69778442  0.12656494  1
  Ti  Ti151  1  0.48902951  0.50110565  0.87794658  1
  Ti  Ti152  1  0.81203223  0.19230115  0.51501609  1
  Ti  Ti153  1  0.50481515  0.10467713  0.88908666  1
  Ti  Ti154  1  0.39591031  0.59726605  0.74141823  1
  Ti  Ti155  1  0.09131962  0.10002610  0.62314819  1
  Ti  Ti156  1  0.60304125  0.19439408  0.50694003  1
  Ti  Ti157  1  0.69915093  0.10260031  0.37889492  1
  Ti  Ti158  1  0.78691935  0.20560633  0.23570153  1
  Ti  Ti159  1  0.30685525  0.49605977  0.63891692  1
  Mo  Mo160  1  0.00129039  0.20651424  0.01817133  1
  Mo  Mo161  1  0.19615139  0.20332968  -0.00089623  1
  Mo  Mo162  1  0.10255869  0.09880610  0.87759536  1
  Mo  Mo163  1  0.70594479  0.70080282  0.36564760  1
  Mo  Mo164  1  -0.00357584  0.20281142  0.51672379  1
  Mo  Mo165  1  0.39300097  0.79866661  0.02170116  1
  Mo  Mo166  1  0.59735211  0.40280435  0.51428826  1
  Mo  Mo167  1  0.80215699  0.40127488  -0.02121752  1
  Mo  Mo168  1  0.61346129  0.80070859  0.01933870  1
  Mo  Mo169  1  0.89686498  0.90835600  0.37199931  1
  Mo  Mo170  1  -0.00294129  0.79800530  0.00667267  1
  Mo  Mo171  1  0.82205016  0.79309703  0.76334455  1
  Mo  Mo172  1  0.90845116  0.09745993  0.61610206  1
  Mo  Mo173  1  0.89557695  0.70830300  0.60879054  1
  Mo  Mo174  1  0.89810648  0.30073143  0.88769993  1
  Mo  Mo175  1  0.30297133  0.09651958  0.38440873  1
  Mo  Mo176  1  0.80167653  0.60092283  0.75023454  1
  Mo  Mo177  1  0.79853706  0.40012281  0.26030293  1
  Mo  Mo178  1  0.90076348  0.70857577  0.87871708  1
  Mo  Mo179  1  0.60124105  0.60019731  0.25514220  1
  Mo  Mo180  1  -0.00922734  0.60421075  0.25355835  1
  Mo  Mo181  1  0.10105194  0.70314605  0.61340464  1
  Mo  Mo182  1  0.90636421  0.30320741  0.60761830  1
  Mo  Mo183  1  -0.00177252  0.39381701  0.75657678  1
  Mo  Mo184  1  0.00272637  0.39782913  0.24195267  1
  Mo  Mo185  1  0.40488781  0.20186755  -0.01029882  1
  Mo  Mo186  1  0.89819862  0.50211332  0.63444950  1
  Mo  Mo187  1  0.90877852  0.90136394  0.86019736  1
  Mo  Mo188  1  0.39284614  0.59179868  0.01813310  1
  Mo  Mo189  1  0.40684624  0.40387197  0.76083283  1
  Mo  Mo190  1  0.70423885  0.89899025  0.11867680  1
  Mo  Mo191  1  0.29725193  0.49996041  0.35021954  1
  Mo  Mo192  1  0.90250337  0.50324501  0.85319712  1
  Mo  Mo193  1  0.81155856  0.00585774  0.77492108  1
  Mo  Mo194  1  0.58180389  0.80054993  0.73414115  1
  Mo  Mo195  1  0.50145913  0.29632785  0.11344587  1
  Mo  Mo196  1  0.40077973  0.00087451  0.48285784  1
  Mo  Mo197  1  0.70394319  0.29912355  0.11650893  1
  Mo  Mo198  1  0.70671919  0.09888327  0.10346214  1
  Mo  Mo199  1  0.00577245  0.20067634  0.73766000  1
