# generated using pymatgen
data_HfZrTaTiMo
_symmetry_space_group_name_H-M   'P 1'
_cell_length_a   15.93770576
_cell_length_b   15.93057965
_cell_length_c   15.16976904
_cell_angle_alpha   89.95415328
_cell_angle_beta   89.95767654
_cell_angle_gamma   90.01942275
_symmetry_Int_Tables_number   1
_chemical_formula_structural   HfZrTaTiMo
_chemical_formula_sum   'Hf40 Zr40 Ta40 Ti40 Mo40'
_cell_volume   3851.55469052
_cell_formula_units_Z   40
loop_
 _symmetry_equiv_pos_site_id
 _symmetry_equiv_pos_as_xyz
  1  'x, y, z'
loop_
 _atom_site_type_symbol
 _atom_site_label
 _atom_site_symmetry_multiplicity
 _atom_site_fract_x
 _atom_site_fract_y
 _atom_site_fract_z
 _atom_site_occupancy
  Hf  Hf0  1  0.39478095  0.80103656  0.76106409  1
  Hf  Hf1  1  0.71276823  0.49536807  0.84957714  1
  Hf  Hf2  1  0.21550365  0.40539906  0.26559368  1
  Hf  Hf3  1  0.40459291  0.01277607  0.22720229  1
  Hf  Hf4  1  0.78943575  -0.00615925  0.48651159  1
  Hf  Hf5  1  0.11248255  0.31393846  0.62259776  1
  Hf  Hf6  1  0.31467671  0.08659089  0.64087389  1
  Hf  Hf7  1  0.89863240  0.09944798  0.88257138  1
  Hf  Hf8  1  0.00801498  0.21044984  0.26197408  1
  Hf  Hf9  1  0.00591624  -0.00188002  0.00832692  1
  Hf  Hf10  1  0.30584567  0.50356533  0.10587734  1
  Hf  Hf11  1  0.09854190  0.70746401  0.38237268  1
  Hf  Hf12  1  0.00378840  0.20768980  -0.00408992  1
  Hf  Hf13  1  0.10574175  0.90202605  0.37263900  1
  Hf  Hf14  1  0.21021473  0.00677324  0.50072294  1
  Hf  Hf15  1  0.89955427  0.50925008  0.38153385  1
  Hf  Hf16  1  0.69557365  0.29717496  0.62751482  1
  Hf  Hf17  1  0.10471572  0.09228732  0.63381902  1
  Hf  Hf18  1  0.18578416  0.60166006  -0.01617603  1
  Hf  Hf19  1  0.20894914  0.20549061  0.75119649  1
  Hf  Hf20  1  0.09972733  0.49787398  0.12330953  1
  Hf  Hf21  1  0.89697902  0.10948746  0.12898385  1
  Hf  Hf22  1  0.40587122  0.57469304  0.26618423  1
  Hf  Hf23  1  0.79624876  0.59667362  0.01051279  1
  Hf  Hf24  1  0.89220827  0.70325772  0.38312323  1
  Hf  Hf25  1  0.39044827  0.59758055  0.75220051  1
  Hf  Hf26  1  0.40459319  0.19703089  0.76206296  1
  Hf  Hf27  1  0.30051833  0.90316122  0.35460906  1
  Hf  Hf28  1  0.71169502  0.87228609  0.13533076  1
  Hf  Hf29  1  0.89532962  0.30174349  0.62049546  1
  Hf  Hf30  1  0.30274735  0.70189551  0.11710144  1
  Hf  Hf31  1  0.89540353  0.70603732  0.61802635  1
  Hf  Hf32  1  0.88974909  0.09897481  0.61342053  1
  Hf  Hf33  1  0.39250977  0.00425687  0.00209882  1
  Hf  Hf34  1  0.00701146  0.20204692  0.49838553  1
  Hf  Hf35  1  0.59946986  -0.00333406  0.01635876  1
  Hf  Hf36  1  0.19821086  0.80688804  -0.01418326  1
  Hf  Hf37  1  0.59496554  0.80337889  0.75414428  1
  Hf  Hf38  1  0.89601270  0.50198426  0.63350395  1
  Hf  Hf39  1  0.39502428  0.39927452  0.75190388  1
  Zr  Zr40  1  0.01111272  0.40382914  0.27202574  1
  Zr  Zr41  1  0.90325899  0.30332640  0.12779577  1
  Zr  Zr42  1  -0.02089955  0.81643136  0.25297392  1
  Zr  Zr43  1  0.89652456  0.90222016  0.62002611  1
  Zr  Zr44  1  0.50282515  0.49388361  0.62225138  1
  Zr  Zr45  1  0.59405115  -0.00659256  0.23599570  1
  Zr  Zr46  1  0.30804929  0.31394536  0.11707559  1
  Zr  Zr47  1  0.69409282  0.10460809  0.36324068  1
  Zr  Zr48  1  0.90100299  0.50875885  0.14264737  1
  Zr  Zr49  1  0.30020511  0.70520006  0.37986022  1
  Zr  Zr50  1  -0.00503876  0.79363595  0.75416003  1
  Zr  Zr51  1  0.00558295  0.01231349  0.25571312  1
  Zr  Zr52  1  0.20193015  0.59852941  0.25639566  1
  Zr  Zr53  1  0.79202360  0.18936352  0.75823856  1
  Zr  Zr54  1  0.68933899  0.68747174  0.86676550  1
  Zr  Zr55  1  0.57332126  0.39662265  0.25244410  1
  Zr  Zr56  1  -0.00055331  0.41265327  -0.01588869  1
  Zr  Zr57  1  0.51358599  0.09910367  0.87689944  1
  Zr  Zr58  1  0.49835097  0.71030638  0.61468935  1
  Zr  Zr59  1  0.81576840  -0.02047769  0.26022934  1
  Zr  Zr60  1  -0.01144422  0.78850050  -0.00976037  1
  Zr  Zr61  1  0.58909200  -0.00748920  0.48939360  1
  Zr  Zr62  1  0.79714465  0.39757869  0.49035184  1
  Zr  Zr63  1  0.39701517  0.39307383  0.48720654  1
  Zr  Zr64  1  0.69296697  0.50725235  0.36636296  1
  Zr  Zr65  1  0.70410967  0.29777330  0.13577025  1
  Zr  Zr66  1  0.10720553  0.89980848  0.13400738  1
  Zr  Zr67  1  -0.00103828  0.20438097  0.74829309  1
  Zr  Zr68  1  0.70948542  0.10875805  0.13341566  1
  Zr  Zr69  1  0.20486729  0.19729849  -0.00080252  1
  Zr  Zr70  1  0.19916375  0.80483020  0.51652495  1
  Zr  Zr71  1  0.50941707  0.70503012  0.37720581  1
  Zr  Zr72  1  0.09366902  0.90713593  0.86414446  1
  Zr  Zr73  1  0.80039015  0.40347812  -0.00176413  1
  Zr  Zr74  1  0.51134523  0.29205840  0.62834707  1
  Zr  Zr75  1  0.39860114  0.19244295  0.50829774  1
  Zr  Zr76  1  0.19947137  0.78963080  0.75183748  1
  Zr  Zr77  1  0.80007345  -0.00978164  0.00312669  1
  Zr  Zr78  1  0.51167154  0.50756827  0.87493464  1
  Zr  Zr79  1  0.09096361  0.69974319  0.13268327  1
  Ta  Ta80  1  0.49362605  0.49307836  0.11018063  1
  Ta  Ta81  1  0.79174045  0.80326831  0.75736312  1
  Ta  Ta82  1  0.60625225  0.40058536  0.00230270  1
  Ta  Ta83  1  0.89786575  0.10796903  0.38345345  1
  Ta  Ta84  1  0.78750758  -0.00400051  0.75644449  1
  Ta  Ta85  1  0.11673397  0.30042576  0.39058390  1
  Ta  Ta86  1  0.00701346  0.60587974  0.50999491  1
  Ta  Ta87  1  0.69046323  0.10305530  0.61436205  1
  Ta  Ta88  1  0.69502149  0.69943961  0.36259642  1
  Ta  Ta89  1  0.39979796  0.59443576  0.49489191  1
  Ta  Ta90  1  0.49467824  0.68774286  0.11528735  1
  Ta  Ta91  1  0.79712379  0.78803543  -0.01540920  1
  Ta  Ta92  1  0.87859982  0.71050564  0.13931682  1
  Ta  Ta93  1  0.30242287  0.30206273  0.88066603  1
  Ta  Ta94  1  0.49486160  0.89480119  0.36171176  1
  Ta  Ta95  1  0.69403038  0.29028194  0.37064632  1
  Ta  Ta96  1  0.20388616  0.20484782  0.24268889  1
  Ta  Ta97  1  0.10375893  0.10092785  0.86697504  1
  Ta  Ta98  1  0.00549697  0.40530597  0.49783635  1
  Ta  Ta99  1  0.30199506  0.10510406  0.35858839  1
  Ta  Ta100  1  0.60442503  0.60022128  0.50561018  1
  Ta  Ta101  1  0.20665240  0.00666534  -0.00544072  1
  Ta  Ta102  1  0.20579829  0.41076598  0.75977270  1
  Ta  Ta103  1  0.49967414  0.89476650  0.88712409  1
  Ta  Ta104  1  0.50988696  0.09307382  0.63568903  1
  Ta  Ta105  1  0.10123886  0.30558558  0.86730418  1
  Ta  Ta106  1  0.78300958  0.80311540  0.49144729  1
  Ta  Ta107  1  0.29604020  0.89876637  0.12917718  1
  Ta  Ta108  1  0.69483990  0.29588157  0.86915015  1
  Ta  Ta109  1  0.09718899  0.90366191  0.63032235  1
  Ta  Ta110  1  0.69138428  0.90037005  0.62783914  1
  Ta  Ta111  1  0.80001215  0.39690298  0.26242753  1
  Ta  Ta112  1  0.30608240  0.69546268  0.88791556  1
  Ta  Ta113  1  0.60335519  0.78884925  0.00831874  1
  Ta  Ta114  1  0.40542349  0.19966985  0.00074535  1
  Ta  Ta115  1  0.10599008  0.50535126  0.62343627  1
  Ta  Ta116  1  0.29949067  0.69128256  0.61585253  1
  Ta  Ta117  1  0.49362099  0.91190579  0.63428429  1
  Ta  Ta118  1  0.69682389  0.49276934  0.63436304  1
  Ta  Ta119  1  0.49285109  0.10685596  0.36702378  1
  Ti  Ti120  1  0.59623627  0.39641695  0.48478092  1
  Ti  Ti121  1  0.21537995  0.20532140  0.50999581  1
  Ti  Ti122  1  0.20125266  0.60109364  0.75205398  1
  Ti  Ti123  1  0.60509239  0.20386339  0.00550644  1
  Ti  Ti124  1  0.89218695  0.31031514  0.86587068  1
  Ti  Ti125  1  0.59589831  0.60197963  0.73402585  1
  Ti  Ti126  1  -0.01058564  0.00350311  0.74976124  1
  Ti  Ti127  1  -0.01174069  0.60261272  -0.01288388  1
  Ti  Ti128  1  0.00050761  0.40494366  0.75093990  1
  Ti  Ti129  1  0.78968731  0.60165401  0.50885710  1
  Ti  Ti130  1  0.60707089  0.00269684  0.75790513  1
  Ti  Ti131  1  0.88663387  0.67775456  0.85527553  1
  Ti  Ti132  1  0.10554843  0.30949752  0.12107862  1
  Ti  Ti133  1  0.30816102  0.29056737  0.36664525  1
  Ti  Ti134  1  0.19754831  0.40552144  -0.02044467  1
  Ti  Ti135  1  0.40304938  0.79243790  0.24258224  1
  Ti  Ti136  1  0.40026697  -0.00205670  0.48933597  1
  Ti  Ti137  1  0.68068219  0.88034947  0.36270512  1
  Ti  Ti138  1  0.60904213  0.59100898  0.01633261  1
  Ti  Ti139  1  0.59745834  0.59639649  0.23501602  1
  Ti  Ti140  1  0.40659818  0.40148230  -0.02058194  1
  Ti  Ti141  1  0.49645963  0.69940416  0.89531496  1
  Ti  Ti142  1  0.00736306  0.60597389  0.74038575  1
  Ti  Ti143  1  0.49192515  0.88082189  0.11660684  1
  Ti  Ti144  1  0.00510065  -0.00128450  0.49374588  1
  Ti  Ti145  1  0.40226325  0.81191561  0.50129244  1
  Ti  Ti146  1  0.51155035  0.30132174  0.87449922  1
  Ti  Ti147  1  0.28847022  0.49380564  0.60961566  1
  Ti  Ti148  1  0.11509680  0.10668258  0.37747920  1
  Ti  Ti149  1  0.09203383  0.50684167  0.85895585  1
  Ti  Ti150  1  0.40713680  0.21340040  0.23179747  1
  Ti  Ti151  1  0.89284342  0.89885679  0.87211012  1
  Ti  Ti152  1  0.69840594  0.70510349  0.62512921  1
  Ti  Ti153  1  0.58091000  0.20105149  0.23684082  1
  Ti  Ti154  1  0.21801380  -0.00651146  0.76872697  1
  Ti  Ti155  1  0.00005028  0.60479090  0.26246530  1
  Ti  Ti156  1  0.30690556  0.90112430  0.63250023  1
  Ti  Ti157  1  0.11429042  0.50594879  0.40006665  1
  Ti  Ti158  1  0.69355703  0.89883711  0.88082762  1
  Ti  Ti159  1  0.11015177  0.10313724  0.12881282  1
  Mo  Mo160  1  0.58880297  0.78821376  0.23109408  1
  Mo  Mo161  1  0.29715695  0.49970839  0.88116430  1
  Mo  Mo162  1  -0.00189967  0.80673376  0.50562166  1
  Mo  Mo163  1  0.50418129  0.50165493  0.39182518  1
  Mo  Mo164  1  0.69427595  0.49631315  0.13980099  1
  Mo  Mo165  1  0.50206841  0.28576760  0.38007040  1
  Mo  Mo166  1  0.40195768  0.39363369  0.26078313  1
  Mo  Mo167  1  0.81236105  0.20997837  0.27253172  1
  Mo  Mo168  1  0.60072760  0.80416813  0.50940199  1
  Mo  Mo169  1  0.50011990  0.30462023  0.10039343  1
  Mo  Mo170  1  0.90261627  0.30135360  0.38712333  1
  Mo  Mo171  1  0.40290563  0.59732732  -0.01070805  1
  Mo  Mo172  1  0.29931546  0.49790085  0.39124039  1
  Mo  Mo173  1  0.20591199  0.39728366  0.49427128  1
  Mo  Mo174  1  0.60034095  0.39441831  0.75986783  1
  Mo  Mo175  1  0.30016661  0.30545439  0.63944889  1
  Mo  Mo176  1  0.10044570  0.69647223  0.62445431  1
  Mo  Mo177  1  0.20497241  0.01210289  0.24594357  1
  Mo  Mo178  1  0.90369689  0.50611849  0.85180453  1
  Mo  Mo179  1  0.40224206  0.79965241  -0.00063109  1
  Mo  Mo180  1  0.69554871  0.69082058  0.13720811  1
  Mo  Mo181  1  0.50079105  0.11261191  0.11402968  1
  Mo  Mo182  1  0.60394974  0.19133486  0.75844739  1
  Mo  Mo183  1  0.79391634  0.79667439  0.27246424  1
  Mo  Mo184  1  0.20135352  0.60001183  0.50728587  1
  Mo  Mo185  1  0.29707157  0.10530762  0.13389525  1
  Mo  Mo186  1  0.80372955  0.39469428  0.74861117  1
  Mo  Mo187  1  0.09599788  0.69137750  0.86566982  1
  Mo  Mo188  1  0.70161460  0.09763114  0.89170725  1
  Mo  Mo189  1  0.79736200  0.20323190  -0.01797024  1
  Mo  Mo190  1  0.30390879  0.89954826  0.88260124  1
  Mo  Mo191  1  0.79470519  0.19716596  0.49149766  1
  Mo  Mo192  1  0.79544330  0.59919515  0.24430264  1
  Mo  Mo193  1  0.30271047  0.09889428  0.86898727  1
  Mo  Mo194  1  0.40618774  -0.00905628  0.76715777  1
  Mo  Mo195  1  0.20439257  0.80277378  0.24234768  1
  Mo  Mo196  1  0.79639862  0.60618552  0.72672184  1
  Mo  Mo197  1  0.59632505  0.19653289  0.49019676  1
  Mo  Mo198  1  0.90470893  0.90182470  0.40196316  1
  Mo  Mo199  1  0.89740967  0.89036140  0.11020757  1
