# generated using pymatgen
data_HfZrTaTiMo
_symmetry_space_group_name_H-M   'P 1'
_cell_length_a   15.92890263
_cell_length_b   15.92922248
_cell_length_c   15.20737701
_cell_angle_alpha   89.96017919
_cell_angle_beta   89.96136455
_cell_angle_gamma   90.04419468
_symmetry_Int_Tables_number   1
_chemical_formula_structural   HfZrTaTiMo
_chemical_formula_sum   'Hf40 Zr40 Ta40 Ti40 Mo40'
_cell_volume   3858.64136085
_cell_formula_units_Z   40
loop_
 _symmetry_equiv_pos_site_id
 _symmetry_equiv_pos_as_xyz
  1  'x, y, z'
loop_
 _atom_site_type_symbol
 _atom_site_label
 _atom_site_symmetry_multiplicity
 _atom_site_fract_x
 _atom_site_fract_y
 _atom_site_fract_z
 _atom_site_occupancy
  Hf  Hf0  1  0.00159766  0.59624641  -0.00497441  1
  Hf  Hf1  1  0.90267058  0.29884225  0.86292074  1
  Hf  Hf2  1  0.60134958  0.79499082  0.00132328  1
  Hf  Hf3  1  0.59744124  0.59758057  0.24544030  1
  Hf  Hf4  1  0.10388332  0.30296500  0.63016453  1
  Hf  Hf5  1  0.60363130  0.39998955  0.24729337  1
  Hf  Hf6  1  0.48804093  0.70137786  0.37493061  1
  Hf  Hf7  1  -0.00953932  0.00887951  -0.01546466  1
  Hf  Hf8  1  0.29585999  0.10977170  0.87592422  1
  Hf  Hf9  1  0.90239754  0.49413800  0.64008492  1
  Hf  Hf10  1  0.30507260  0.50344140  0.12803920  1
  Hf  Hf11  1  0.19420509  -0.01002784  0.26883976  1
  Hf  Hf12  1  0.69366441  0.89779263  0.37051802  1
  Hf  Hf13  1  0.31080456  0.89765862  0.61403974  1
  Hf  Hf14  1  0.80412959  0.79752414  0.24242254  1
  Hf  Hf15  1  0.90015330  0.30141340  0.38624037  1
  Hf  Hf16  1  0.20295619  0.21262680  0.49146018  1
  Hf  Hf17  1  0.39836462  0.00990610  0.74642447  1
  Hf  Hf18  1  0.90777090  0.69087400  0.37048833  1
  Hf  Hf19  1  0.39576967  0.78532988  0.00005872  1
  Hf  Hf20  1  0.39399502  0.21178714  0.00868478  1
  Hf  Hf21  1  0.11378751  0.71128394  0.11478229  1
  Hf  Hf22  1  0.79742180  -0.00150850  0.49436359  1
  Hf  Hf23  1  0.50209916  0.10369951  0.88445478  1
  Hf  Hf24  1  0.48825804  0.89659065  0.37835464  1
  Hf  Hf25  1  0.29434731  0.09824491  0.13749147  1
  Hf  Hf26  1  0.59345434  0.39789258  0.00196524  1
  Hf  Hf27  1  0.49465746  0.47688717  0.61325352  1
  Hf  Hf28  1  0.70123849  0.28757567  0.88877970  1
  Hf  Hf29  1  0.70235654  0.69683807  0.63915104  1
  Hf  Hf30  1  0.59334145  0.39227506  0.76228074  1
  Hf  Hf31  1  0.70348859  0.09418752  0.13604353  1
  Hf  Hf32  1  0.29432945  0.50139126  0.38551570  1
  Hf  Hf33  1  0.11720896  0.49193831  0.86130902  1
  Hf  Hf34  1  0.70924330  0.49477043  0.38425850  1
  Hf  Hf35  1  -0.00186634  0.60229398  0.75536346  1
  Hf  Hf36  1  0.78787963  0.39434641  0.74666583  1
  Hf  Hf37  1  0.10475800  0.50714507  0.38145545  1
  Hf  Hf38  1  0.49862502  0.49635660  0.38612090  1
  Hf  Hf39  1  0.60100829  0.60281287  0.50618497  1
  Zr  Zr40  1  0.48922409  0.70688032  0.64029617  1
  Zr  Zr41  1  0.01057112  0.17889939  0.76135640  1
  Zr  Zr42  1  0.09626647  0.10019686  0.12656817  1
  Zr  Zr43  1  0.91249581  0.71014713  0.11890608  1
  Zr  Zr44  1  -0.00242701  0.60366925  0.51189580  1
  Zr  Zr45  1  0.09768389  0.89960114  0.11824576  1
  Zr  Zr46  1  0.10018846  0.70708397  0.87111157  1
  Zr  Zr47  1  0.41096353  0.23171723  0.48210995  1
  Zr  Zr48  1  0.81707623  0.19162971  0.01587774  1
  Zr  Zr49  1  0.90649116  0.29014664  0.62591735  1
  Zr  Zr50  1  0.68721005  0.10200564  0.59840632  1
  Zr  Zr51  1  0.69654404  0.09404250  0.88438568  1
  Zr  Zr52  1  0.18578712  0.81915154  0.74561811  1
  Zr  Zr53  1  0.31266977  0.10103055  0.37404113  1
  Zr  Zr54  1  -0.00116425  0.40960324  0.24141359  1
  Zr  Zr55  1  0.61413514  0.81253416  0.75492969  1
  Zr  Zr56  1  0.19540347  0.21117497  0.00491152  1
  Zr  Zr57  1  0.79983877  0.60344076  -0.00827896  1
  Zr  Zr58  1  0.80384976  0.79280162  0.51411426  1
  Zr  Zr59  1  -0.00082747  0.00711173  0.27058508  1
  Zr  Zr60  1  0.80048292  0.80740329  0.00137289  1
  Zr  Zr61  1  0.00414541  -0.01821144  0.75801980  1
  Zr  Zr62  1  0.50658590  0.91002538  0.61213100  1
  Zr  Zr63  1  0.59769460  0.58778299  0.76434418  1
  Zr  Zr64  1  0.29497332  0.50073382  0.62718875  1
  Zr  Zr65  1  0.90442435  0.89208082  0.37716418  1
  Zr  Zr66  1  0.49171858  0.89402287  0.13375435  1
  Zr  Zr67  1  0.70676301  0.28713687  0.38076259  1
  Zr  Zr68  1  0.79146362  -0.00697277  0.73387799  1
  Zr  Zr69  1  0.19709103  -0.00160387  0.49207929  1
  Zr  Zr70  1  0.50073604  0.90525344  0.87444932  1
  Zr  Zr71  1  0.38446698  -0.00907481  0.00560736  1
  Zr  Zr72  1  0.49544148  0.10522733  0.59944280  1
  Zr  Zr73  1  0.20737534  0.61539262  0.24425032  1
  Zr  Zr74  1  0.00869783  0.39345080  0.00517832  1
  Zr  Zr75  1  0.59229571  0.60711557  -0.00949028  1
  Zr  Zr76  1  0.70515453  0.69371363  0.37038515  1
  Zr  Zr77  1  0.19259107  0.01333557  0.74186799  1
  Zr  Zr78  1  0.81001000  0.39519615  0.23512529  1
  Zr  Zr79  1  0.49352965  0.09638991  0.13761420  1
  Ta  Ta80  1  0.00240725  0.59999168  0.23916574  1
  Ta  Ta81  1  0.21295604  0.60100562  -0.00820173  1
  Ta  Ta82  1  0.59266373  0.79422430  0.24080584  1
  Ta  Ta83  1  0.29825529  0.30463523  0.14686958  1
  Ta  Ta84  1  0.49215932  0.50161023  0.12379707  1
  Ta  Ta85  1  0.39826838  0.40217594  0.26244064  1
  Ta  Ta86  1  0.81036545  0.39836562  0.01140873  1
  Ta  Ta87  1  0.78681957  0.19515495  0.73418375  1
  Ta  Ta88  1  0.29564287  0.69940302  0.39593123  1
  Ta  Ta89  1  0.69342153  0.49170475  0.61987604  1
  Ta  Ta90  1  0.59460722  0.19999839  0.02049595  1
  Ta  Ta91  1  0.39571217  0.60368110  0.51239955  1
  Ta  Ta92  1  0.10489039  0.69680971  0.63510884  1
  Ta  Ta93  1  0.29529806  0.30907190  0.85977217  1
  Ta  Ta94  1  0.81053980  0.58889089  0.23219026  1
  Ta  Ta95  1  0.59498941  0.20060501  0.74632821  1
  Ta  Ta96  1  0.29797382  0.70028015  0.63581399  1
  Ta  Ta97  1  0.89518556  0.71321210  0.86218366  1
  Ta  Ta98  1  0.90375990  0.09990446  0.61133244  1
  Ta  Ta99  1  0.10333642  0.31251730  0.37426062  1
  Ta  Ta100  1  0.69925005  0.90213783  0.13628383  1
  Ta  Ta101  1  0.31037435  0.31185918  0.62880444  1
  Ta  Ta102  1  0.60175100  0.19812978  0.25317572  1
  Ta  Ta103  1  -0.00726826  0.20352709  0.25459088  1
  Ta  Ta104  1  0.30014049  0.69646355  0.85467127  1
  Ta  Ta105  1  0.10523849  0.49628365  0.63313518  1
  Ta  Ta106  1  0.60178591  0.80078209  0.50500855  1
  Ta  Ta107  1  0.80098477  0.39996369  0.51377162  1
  Ta  Ta108  1  0.08751606  0.10068503  0.59883411  1
  Ta  Ta109  1  0.19445081  0.20297703  0.26449356  1
  Ta  Ta110  1  0.40429431  0.20802262  0.74345031  1
  Ta  Ta111  1  0.70089769  0.50002598  0.11447162  1
  Ta  Ta112  1  0.69778118  0.69724498  0.13068920  1
  Ta  Ta113  1  0.49286681  0.30328923  0.13673027  1
  Ta  Ta114  1  0.70291799  0.29481395  0.12661308  1
  Ta  Ta115  1  0.10881392  0.30037201  0.85911858  1
  Ta  Ta116  1  0.00420678  0.79642775  0.51869142  1
  Ta  Ta117  1  0.00256771  0.19977851  -0.00430499  1
  Ta  Ta118  1  0.00517811  0.40186442  0.50210881  1
  Ta  Ta119  1  0.80487240  0.59542023  0.51833052  1
  Ti  Ti120  1  0.70875202  0.90475350  0.88209340  1
  Ti  Ti121  1  0.89181641  0.11520304  0.39098514  1
  Ti  Ti122  1  0.30286987  0.88185377  0.38310808  1
  Ti  Ti123  1  0.30102563  0.89785186  0.86305979  1
  Ti  Ti124  1  0.20734841  0.80408717  -0.01637729  1
  Ti  Ti125  1  0.30439413  0.10738708  0.60722635  1
  Ti  Ti126  1  0.01640551  0.79774621  0.25438992  1
  Ti  Ti127  1  0.60197045  -0.00512687  0.01133537  1
  Ti  Ti128  1  0.88454590  0.09749619  0.86112644  1
  Ti  Ti129  1  0.19669086  0.79369994  0.51084387  1
  Ti  Ti130  1  0.28291626  0.88300062  0.13482738  1
  Ti  Ti131  1  0.70414463  0.49354609  0.88606300  1
  Ti  Ti132  1  0.39497413  0.40288691  -0.00623498  1
  Ti  Ti133  1  0.20918162  0.40040982  0.00242685  1
  Ti  Ti134  1  0.60315199  0.00722686  0.74614063  1
  Ti  Ti135  1  0.39176944  -0.00997280  0.25440109  1
  Ti  Ti136  1  0.09748565  0.88786693  0.39131782  1
  Ti  Ti137  1  0.39947333  0.59842096  -0.01166526  1
  Ti  Ti138  1  0.90106025  0.49189182  0.87038361  1
  Ti  Ti139  1  0.90033495  0.50153278  0.38302655  1
  Ti  Ti140  1  0.10527839  0.30260694  0.14015735  1
  Ti  Ti141  1  0.10911895  0.50332382  0.12199163  1
  Ti  Ti142  1  0.39939362  0.58641293  0.75912537  1
  Ti  Ti143  1  0.80920102  0.80963621  0.74278081  1
  Ti  Ti144  1  0.38142531  0.77664688  0.23896486  1
  Ti  Ti145  1  0.80441570  0.01066672  0.26013779  1
  Ti  Ti146  1  0.91071040  0.90503918  0.61652052  1
  Ti  Ti147  1  0.79530049  0.59836369  0.75969338  1
  Ti  Ti148  1  0.90430228  0.91166284  0.13620449  1
  Ti  Ti149  1  0.49576718  0.29387940  0.88127100  1
  Ti  Ti150  1  0.20781985  0.19687851  0.73626722  1
  Ti  Ti151  1  0.19248194  -0.00377187  -0.01397124  1
  Ti  Ti152  1  -0.00492864  0.81683311  -0.01882563  1
  Ti  Ti153  1  0.49256491  0.70475739  0.85766557  1
  Ti  Ti154  1  0.67996257  0.29871785  0.60698493  1
  Ti  Ti155  1  0.50664331  0.10104032  0.37461742  1
  Ti  Ti156  1  0.40452269  0.40207862  0.76546908  1
  Ti  Ti157  1  0.59785339  -0.00105086  0.25784568  1
  Ti  Ti158  1  0.80678707  -0.00444138  0.00804014  1
  Ti  Ti159  1  0.10628258  0.70117317  0.38227501  1
  Mo  Mo160  1  0.39611440  0.80472435  0.75790139  1
  Mo  Mo161  1  0.19740776  0.40333088  0.24166699  1
  Mo  Mo162  1  0.40101993  0.20410080  0.25306629  1
  Mo  Mo163  1  0.59902462  0.00005151  0.47088735  1
  Mo  Mo164  1  0.49072956  0.68859592  0.13379058  1
  Mo  Mo165  1  0.39772075  0.00111245  0.48600307  1
  Mo  Mo166  1  0.30332797  0.49907351  0.87824202  1
  Mo  Mo167  1  0.19751500  0.40011507  0.51151901  1
  Mo  Mo168  1  0.80921569  0.19309126  0.23965068  1
  Mo  Mo169  1  0.89301756  0.90189018  0.86990817  1
  Mo  Mo170  1  0.19669590  0.60748101  0.51331615  1
  Mo  Mo171  1  0.80047169  0.20203182  0.51677819  1
  Mo  Mo172  1  0.00239780  0.20296787  0.48413706  1
  Mo  Mo173  1  0.69798026  0.90059948  0.60838609  1
  Mo  Mo174  1  0.40113862  0.59988235  0.24886885  1
  Mo  Mo175  1  0.90527639  0.50397458  0.11164002  1
  Mo  Mo176  1  0.39599326  0.79451082  0.50572014  1
  Mo  Mo177  1  0.29307631  0.31059597  0.35913192  1
  Mo  Mo178  1  0.20774181  0.39643009  0.74298122  1
  Mo  Mo179  1  0.70123615  0.09859287  0.36692283  1
  Mo  Mo180  1  0.10089258  0.90231854  0.88755332  1
  Mo  Mo181  1  0.90058273  0.70032793  0.64576992  1
  Mo  Mo182  1  -0.00691518  0.80258705  0.73757264  1
  Mo  Mo183  1  0.70793772  0.70411193  0.85825522  1
  Mo  Mo184  1  0.09709700  0.90295081  0.60392716  1
  Mo  Mo185  1  -0.00336552  0.00097559  0.49059428  1
  Mo  Mo186  1  0.59818361  0.20298662  0.47566604  1
  Mo  Mo187  1  0.00269502  0.39738076  0.75639728  1
  Mo  Mo188  1  0.29978540  0.70086599  0.10923702  1
  Mo  Mo189  1  0.10595813  0.10543593  0.88517941  1
  Mo  Mo190  1  0.50105050  0.30024334  0.63306751  1
  Mo  Mo191  1  0.59595283  0.38945729  0.49391777  1
  Mo  Mo192  1  0.09406112  0.11194296  0.38119456  1
  Mo  Mo193  1  0.39435520  0.40120683  0.48628342  1
  Mo  Mo194  1  0.49236850  0.49453385  0.88997323  1
  Mo  Mo195  1  0.50201077  0.30061704  0.35060897  1
  Mo  Mo196  1  0.91136588  0.29408674  0.12370683  1
  Mo  Mo197  1  0.20130343  0.80192150  0.26717215  1
  Mo  Mo198  1  0.20421270  0.60218904  0.75069560  1
  Mo  Mo199  1  0.90280160  0.09578511  0.13599573  1
