# generated using pymatgen
data_HfZrTaTiMo
_symmetry_space_group_name_H-M   'P 1'
_cell_length_a   15.92619049
_cell_length_b   15.93071836
_cell_length_c   15.22032229
_cell_angle_alpha   89.94519480
_cell_angle_beta   90.01419079
_cell_angle_gamma   90.03231872
_symmetry_Int_Tables_number   1
_chemical_formula_structural   HfZrTaTiMo
_chemical_formula_sum   'Hf40 Zr40 Ta40 Ti40 Mo40'
_cell_volume   3861.63154274
_cell_formula_units_Z   40
loop_
 _symmetry_equiv_pos_site_id
 _symmetry_equiv_pos_as_xyz
  1  'x, y, z'
loop_
 _atom_site_type_symbol
 _atom_site_label
 _atom_site_symmetry_multiplicity
 _atom_site_fract_x
 _atom_site_fract_y
 _atom_site_fract_z
 _atom_site_occupancy
  Hf  Hf0  1  0.00627646  -0.00621007  0.24610275  1
  Hf  Hf1  1  0.40225307  0.58828743  0.74173172  1
  Hf  Hf2  1  0.61916449  0.78436758  0.74093475  1
  Hf  Hf3  1  0.50493883  0.89671797  0.63082307  1
  Hf  Hf4  1  0.81204827  0.40774570  0.02131441  1
  Hf  Hf5  1  0.30288820  0.29039589  0.34833466  1
  Hf  Hf6  1  0.39535040  0.58994205  0.50792510  1
  Hf  Hf7  1  0.39902420  0.40568890  0.01691775  1
  Hf  Hf8  1  0.48714954  0.49388091  0.36349590  1
  Hf  Hf9  1  0.70603127  0.28850121  0.13388479  1
  Hf  Hf10  1  0.38442195  0.38525692  0.49838651  1
  Hf  Hf11  1  0.61111800  0.41226181  0.02320551  1
  Hf  Hf12  1  0.77185075  0.60911103  0.73390487  1
  Hf  Hf13  1  0.09307893  0.10016996  0.88251972  1
  Hf  Hf14  1  0.50267900  0.29424029  0.61513069  1
  Hf  Hf15  1  -0.01010901  0.59346095  0.00680815  1
  Hf  Hf16  1  0.40247767  -0.00986671  0.23755867  1
  Hf  Hf17  1  0.30174736  0.90006966  0.37475426  1
  Hf  Hf18  1  0.11791910  0.10227222  0.35983779  1
  Hf  Hf19  1  0.40330727  -0.00377956  0.00730867  1
  Hf  Hf20  1  0.10231455  0.90416171  0.89065226  1
  Hf  Hf21  1  0.39604134  0.20726506  0.75167478  1
  Hf  Hf22  1  0.80874415  0.20729935  0.75231801  1
  Hf  Hf23  1  0.29848808  0.70381736  0.36333373  1
  Hf  Hf24  1  0.60266235  -0.00357865  0.01682738  1
  Hf  Hf25  1  0.39743098  0.00075753  0.75517098  1
  Hf  Hf26  1  -0.00078026  0.39605937  0.74882218  1
  Hf  Hf27  1  0.60414770  -0.00491199  0.48687997  1
  Hf  Hf28  1  0.50851136  0.10641690  0.88352626  1
  Hf  Hf29  1  0.11848275  0.31161829  0.60761763  1
  Hf  Hf30  1  0.90153829  0.91017060  0.89133956  1
  Hf  Hf31  1  0.30055739  0.30069770  0.89704730  1
  Hf  Hf32  1  0.29641510  0.50918133  0.89435957  1
  Hf  Hf33  1  0.29698647  0.09863630  0.88934117  1
  Hf  Hf34  1  0.48945519  0.70167255  0.37429049  1
  Hf  Hf35  1  -0.01103436  0.20351018  0.01261014  1
  Hf  Hf36  1  0.19262554  0.20633787  0.00833344  1
  Hf  Hf37  1  0.70821674  0.30285075  0.60104294  1
  Hf  Hf38  1  0.18994681  0.00938591  0.74368462  1
  Hf  Hf39  1  0.70633325  0.90227782  0.13497333  1
  Zr  Zr40  1  0.79847491  0.80655601  0.50034798  1
  Zr  Zr41  1  0.59564768  0.41702409  0.74234804  1
  Zr  Zr42  1  0.20293244  0.01085023  0.50562744  1
  Zr  Zr43  1  0.49949725  0.29123579  0.13416377  1
  Zr  Zr44  1  0.00332350  0.00309051  0.50567840  1
  Zr  Zr45  1  0.78978501  0.40114589  0.74587430  1
  Zr  Zr46  1  0.19527699  0.80817871  0.22754571  1
  Zr  Zr47  1  0.51109037  0.89757461  0.86264054  1
  Zr  Zr48  1  0.89640390  0.90117807  0.13036205  1
  Zr  Zr49  1  0.59572099  0.80631744  0.26344759  1
  Zr  Zr50  1  0.79849751  0.00211856  0.49892833  1
  Zr  Zr51  1  0.80794252  0.80742247  0.72950478  1
  Zr  Zr52  1  0.88946236  0.49691921  0.61149084  1
  Zr  Zr53  1  0.89018943  0.70226658  0.88139670  1
  Zr  Zr54  1  0.61403004  0.20760798  0.75194242  1
  Zr  Zr55  1  0.30013362  0.89618035  0.63115850  1
  Zr  Zr56  1  0.19376085  0.39683667  0.76626907  1
  Zr  Zr57  1  0.50917622  0.30179025  0.89474250  1
  Zr  Zr58  1  0.00741203  0.20246721  0.49059374  1
  Zr  Zr59  1  0.69721726  0.69964969  0.13579640  1
  Zr  Zr60  1  0.70906642  0.10160180  0.89480511  1
  Zr  Zr61  1  0.59510787  0.39503262  0.47736328  1
  Zr  Zr62  1  0.88828002  0.50193661  0.87054965  1
  Zr  Zr63  1  0.10287301  0.09949781  0.12903563  1
  Zr  Zr64  1  0.00501426  0.59821044  0.75635610  1
  Zr  Zr65  1  0.91114830  0.69457584  0.61213413  1
  Zr  Zr66  1  0.18972379  0.40704885  0.24346852  1
  Zr  Zr67  1  0.70901293  0.89742747  0.88396020  1
  Zr  Zr68  1  0.39756137  0.40163112  0.74752163  1
  Zr  Zr69  1  0.50753471  0.09777311  0.62463643  1
  Zr  Zr70  1  0.79760333  0.00315773  0.73245055  1
  Zr  Zr71  1  0.19465166  0.59709835  0.49152349  1
  Zr  Zr72  1  0.09885715  0.88789317  0.62258073  1
  Zr  Zr73  1  0.90246464  0.68822627  0.14795733  1
  Zr  Zr74  1  0.00661993  0.80104715  0.75718823  1
  Zr  Zr75  1  0.40352035  0.79620627  -0.00326794  1
  Zr  Zr76  1  0.51715155  0.68062381  0.62140828  1
  Zr  Zr77  1  0.00837161  0.20431670  0.74587636  1
  Zr  Zr78  1  -0.00436781  0.40529740  0.47515096  1
  Zr  Zr79  1  0.19748697  0.60062843  0.75048651  1
  Ta  Ta80  1  0.50170483  0.50403284  0.13730749  1
  Ta  Ta81  1  0.39708874  0.78589651  0.75471195  1
  Ta  Ta82  1  0.90205220  0.10017738  0.36357543  1
  Ta  Ta83  1  0.29178721  0.89481988  0.88095706  1
  Ta  Ta84  1  0.30049242  0.11202348  0.62516721  1
  Ta  Ta85  1  0.69080682  0.50911422  0.88684638  1
  Ta  Ta86  1  0.28083821  0.48111632  0.61544086  1
  Ta  Ta87  1  0.50919407  0.68746637  0.87229673  1
  Ta  Ta88  1  0.60788234  0.39848236  0.25658702  1
  Ta  Ta89  1  0.30011986  0.29612822  0.13189862  1
  Ta  Ta90  1  0.89837753  0.30120232  0.14268809  1
  Ta  Ta91  1  0.90610320  0.90122214  0.37181940  1
  Ta  Ta92  1  0.60403327  0.80137226  0.49559062  1
  Ta  Ta93  1  0.00042512  0.20605244  0.25389185  1
  Ta  Ta94  1  0.78889298  0.59074677  0.02374452  1
  Ta  Ta95  1  0.89797255  0.11333760  0.61352964  1
  Ta  Ta96  1  0.19919240  0.79462843  0.49535565  1
  Ta  Ta97  1  0.67861143  0.51674481  0.59236393  1
  Ta  Ta98  1  0.30483067  0.10456361  0.12451151  1
  Ta  Ta99  1  -0.00819613  0.00549367  0.73396925  1
  Ta  Ta100  1  0.09411737  0.50116687  0.60815853  1
  Ta  Ta101  1  0.60101605  0.59539518  0.25729062  1
  Ta  Ta102  1  0.10430414  0.89637300  0.37698580  1
  Ta  Ta103  1  0.29894608  0.70234826  0.12085620  1
  Ta  Ta104  1  0.60428954  0.19465699  0.47485648  1
  Ta  Ta105  1  0.69446951  0.69072968  0.89495060  1
  Ta  Ta106  1  0.09544950  0.70355609  0.36378249  1
  Ta  Ta107  1  0.80396920  0.79857489  0.27117981  1
  Ta  Ta108  1  0.00948320  0.79341616  0.01642167  1
  Ta  Ta109  1  0.50506238  0.51021925  0.89367779  1
  Ta  Ta110  1  0.70028472  0.69434625  0.37776899  1
  Ta  Ta111  1  0.70740751  0.30310155  0.89967721  1
  Ta  Ta112  1  0.39164214  0.60125941  0.23971293  1
  Ta  Ta113  1  0.49575132  0.09761411  0.36404848  1
  Ta  Ta114  1  0.29407131  0.49733770  0.36145133  1
  Ta  Ta115  1  0.39862079  0.79856948  0.51187229  1
  Ta  Ta116  1  0.90167771  0.30286643  0.88925401  1
  Ta  Ta117  1  0.71593200  0.10055853  0.13186724  1
  Ta  Ta118  1  0.40051708  0.00381753  0.49713851  1
  Ta  Ta119  1  0.59862922  0.79303572  0.00508101  1
  Ti  Ti120  1  -0.00261313  0.60216106  0.47560917  1
  Ti  Ti121  1  0.10877763  0.70172315  0.89163854  1
  Ti  Ti122  1  0.09408607  0.49403007  0.89169899  1
  Ti  Ti123  1  0.08023679  0.50518170  0.13391482  1
  Ti  Ti124  1  0.79646705  0.40104072  0.46540222  1
  Ti  Ti125  1  0.19924892  0.20746423  0.75369385  1
  Ti  Ti126  1  0.10934264  0.30052518  0.36894700  1
  Ti  Ti127  1  0.30586679  0.10122391  0.35503492  1
  Ti  Ti128  1  0.09170701  0.30678805  0.13097541  1
  Ti  Ti129  1  0.80263278  0.20458109  0.47527793  1
  Ti  Ti130  1  0.80046673  0.60015320  0.48275073  1
  Ti  Ti131  1  0.18900788  0.60404708  0.24297284  1
  Ti  Ti132  1  0.29510079  0.69853499  0.62535623  1
  Ti  Ti133  1  0.20568922  -0.00767048  0.23179092  1
  Ti  Ti134  1  0.60191114  0.00051276  0.25358597  1
  Ti  Ti135  1  0.49773369  0.69942194  0.13579766  1
  Ti  Ti136  1  0.49130527  0.29006480  0.35647563  1
  Ti  Ti137  1  0.40055523  0.19143255  0.49192903  1
  Ti  Ti138  1  0.00576130  0.79850113  0.24625030  1
  Ti  Ti139  1  0.29569562  0.50496334  0.12948726  1
  Ti  Ti140  1  0.89810902  0.30292957  0.60735451  1
  Ti  Ti141  1  0.50943485  0.10691620  0.12993839  1
  Ti  Ti142  1  0.20376389  0.79251312  0.75811408  1
  Ti  Ti143  1  0.60610198  0.19505436  0.26150309  1
  Ti  Ti144  1  0.70724371  0.09523524  0.35975884  1
  Ti  Ti145  1  0.89262607  0.51075648  0.35446253  1
  Ti  Ti146  1  0.69898735  0.10766399  0.61564218  1
  Ti  Ti147  1  0.80288632  0.79362031  0.01126937  1
  Ti  Ti148  1  0.00044968  0.79810608  0.48904901  1
  Ti  Ti149  1  0.21494465  0.20600714  0.49796550  1
  Ti  Ti150  1  0.89827793  0.09939045  0.88070685  1
  Ti  Ti151  1  -0.00481125  0.00491849  0.01846657  1
  Ti  Ti152  1  0.40597819  0.60363699  0.01324216  1
  Ti  Ti153  1  0.49034968  0.89859830  0.37786917  1
  Ti  Ti154  1  0.29931596  0.69736948  0.88596845  1
  Ti  Ti155  1  0.18666706  0.40495319  0.01410050  1
  Ti  Ti156  1  -0.00627364  0.40347988  0.25990340  1
  Ti  Ti157  1  0.49984026  0.88753943  0.12972975  1
  Ti  Ti158  1  0.18957869  0.60583623  0.01830164  1
  Ti  Ti159  1  0.10134920  0.69510958  0.61687271  1
  Mo  Mo160  1  0.19773111  0.39785661  0.47483907  1
  Mo  Mo161  1  0.60910425  0.00075086  0.73760601  1
  Mo  Mo162  1  0.29870442  0.90178962  0.10536920  1
  Mo  Mo163  1  0.89892069  0.29980320  0.36131219  1
  Mo  Mo164  1  0.49361628  0.49326558  0.60618477  1
  Mo  Mo165  1  0.69062013  0.90614298  0.62690216  1
  Mo  Mo166  1  0.09780429  0.50570063  0.36811752  1
  Mo  Mo167  1  0.60645028  0.19801167  0.01258649  1
  Mo  Mo168  1  0.29795638  0.29221977  0.61965634  1
  Mo  Mo169  1  0.90579948  0.90812485  0.61090931  1
  Mo  Mo170  1  0.79592461  0.59964154  0.25979046  1
  Mo  Mo171  1  0.80284961  0.19839703  0.26378705  1
  Mo  Mo172  1  0.59405342  0.60278708  0.02185883  1
  Mo  Mo173  1  0.70337622  0.49946288  0.15221815  1
  Mo  Mo174  1  0.39765067  0.40337654  0.23801744  1
  Mo  Mo175  1  0.10342120  0.11233871  0.63341880  1
  Mo  Mo176  1  0.89389075  0.10589050  0.14280128  1
  Mo  Mo177  1  0.20251618  -0.00288231  0.00858157  1
  Mo  Mo178  1  0.80148051  0.39972723  0.25304814  1
  Mo  Mo179  1  0.40392609  0.19035239  0.24293099  1
  Mo  Mo180  1  0.80699454  0.20362604  0.00153530  1
  Mo  Mo181  1  0.09993377  0.89905016  0.10889904  1
  Mo  Mo182  1  0.80216320  -0.00154046  0.26163137  1
  Mo  Mo183  1  0.70147539  0.50003288  0.37099228  1
  Mo  Mo184  1  0.69987409  0.90176523  0.36231945  1
  Mo  Mo185  1  0.59586956  0.59799821  0.47019779  1
  Mo  Mo186  1  0.90018114  0.49489273  0.14849055  1
  Mo  Mo187  1  0.09218531  0.30950870  0.89637604  1
  Mo  Mo188  1  0.00376378  0.39916538  0.01101338  1
  Mo  Mo189  1  0.19972556  0.79347340  0.00088070  1
  Mo  Mo190  1  0.19771570  0.20043189  0.23601556  1
  Mo  Mo191  1  0.81009420  0.00761660  0.01558662  1
  Mo  Mo192  1  0.00346606  0.59688560  0.26194030  1
  Mo  Mo193  1  0.40161702  0.19696459  0.01556401  1
  Mo  Mo194  1  0.90449255  0.70326130  0.37366398  1
  Mo  Mo195  1  0.39683637  0.79893859  0.23314778  1
  Mo  Mo196  1  0.70112859  0.29287510  0.36535454  1
  Mo  Mo197  1  0.09943781  0.69304078  0.12938968  1
  Mo  Mo198  1  0.60019602  0.59283375  0.75097230  1
  Mo  Mo199  1  0.70104717  0.69676123  0.59323048  1
