# generated using pymatgen
data_HfZrTaTiMo
_symmetry_space_group_name_H-M   'P 1'
_cell_length_a   15.93273104
_cell_length_b   15.93302081
_cell_length_c   15.19935542
_cell_angle_alpha   90.02375479
_cell_angle_beta   90.02824655
_cell_angle_gamma   90.10420198
_symmetry_Int_Tables_number   1
_chemical_formula_structural   HfZrTaTiMo
_chemical_formula_sum   'Hf40 Zr40 Ta40 Ti40 Mo40'
_cell_volume   3858.44852345
_cell_formula_units_Z   40
loop_
 _symmetry_equiv_pos_site_id
 _symmetry_equiv_pos_as_xyz
  1  'x, y, z'
loop_
 _atom_site_type_symbol
 _atom_site_label
 _atom_site_symmetry_multiplicity
 _atom_site_fract_x
 _atom_site_fract_y
 _atom_site_fract_z
 _atom_site_occupancy
  Hf  Hf0  1  0.20173207  0.60581335  0.74801518  1
  Hf  Hf1  1  0.50388962  0.50060429  0.87387881  1
  Hf  Hf2  1  -0.01815722  0.21022598  0.22570435  1
  Hf  Hf3  1  0.09023760  0.29596226  0.37788627  1
  Hf  Hf4  1  0.29284993  0.89643605  0.13384614  1
  Hf  Hf5  1  0.40028362  0.79796529  0.75043125  1
  Hf  Hf6  1  0.30047441  0.29355838  0.89295294  1
  Hf  Hf7  1  0.49651501  0.08425611  0.62404842  1
  Hf  Hf8  1  0.09976139  0.89977037  0.86902543  1
  Hf  Hf9  1  0.40830158  0.79654958  0.00555368  1
  Hf  Hf10  1  0.61121456  0.19111376  0.75662228  1
  Hf  Hf11  1  -0.00057592  0.79903902  0.25998252  1
  Hf  Hf12  1  0.69554751  0.90768872  0.61651747  1
  Hf  Hf13  1  0.69827702  0.29939644  0.61212616  1
  Hf  Hf14  1  0.80514891  0.41679668  0.50023071  1
  Hf  Hf15  1  0.69451332  0.49980582  0.36878764  1
  Hf  Hf16  1  -0.01947644  0.59536268  0.51953011  1
  Hf  Hf17  1  0.80825022  0.80207600  0.26842754  1
  Hf  Hf18  1  0.09353655  0.68603714  0.38124301  1
  Hf  Hf19  1  0.90549345  0.10637145  0.36724723  1
  Hf  Hf20  1  0.09884038  0.10152401  0.88467331  1
  Hf  Hf21  1  0.59482808  0.19117708  0.01351442  1
  Hf  Hf22  1  0.41727140  -0.00349263  0.01587871  1
  Hf  Hf23  1  0.71564641  0.10552467  0.60339554  1
  Hf  Hf24  1  0.19144667  0.40642314  0.00561356  1
  Hf  Hf25  1  0.89975539  0.29198656  0.88584823  1
  Hf  Hf26  1  0.39024945  0.38358437  0.74574347  1
  Hf  Hf27  1  0.70189288  0.49923433  0.12370755  1
  Hf  Hf28  1  0.51044350  0.89661456  0.86505486  1
  Hf  Hf29  1  0.40558085  -0.00092405  0.25942597  1
  Hf  Hf30  1  0.90236875  0.70579257  0.12319039  1
  Hf  Hf31  1  0.40099085  0.60039627  0.74805168  1
  Hf  Hf32  1  0.09652649  0.50324458  0.86248772  1
  Hf  Hf33  1  0.29983512  0.50159867  0.12344612  1
  Hf  Hf34  1  0.01120901  0.02093012  0.50358681  1
  Hf  Hf35  1  0.90276683  0.90115440  0.87340077  1
  Hf  Hf36  1  0.29942954  0.49828917  0.87777247  1
  Hf  Hf37  1  0.58775153  0.39940617  0.23929638  1
  Hf  Hf38  1  0.20509483  0.20521637  0.74517501  1
  Hf  Hf39  1  0.10159994  0.70262311  0.61981669  1
  Zr  Zr40  1  -0.00199193  0.39902902  0.74267981  1
  Zr  Zr41  1  0.80109995  0.59853380  -0.01326067  1
  Zr  Zr42  1  0.59953840  0.39053848  0.76638561  1
  Zr  Zr43  1  0.80846833  0.59964802  0.26014064  1
  Zr  Zr44  1  0.40492143  0.59873041  0.24984943  1
  Zr  Zr45  1  0.80277236  0.78929473  0.49966855  1
  Zr  Zr46  1  0.49467253  0.31276442  0.38078751  1
  Zr  Zr47  1  0.50240690  0.28697435  0.62105378  1
  Zr  Zr48  1  -0.00674748  0.40825989  0.00478252  1
  Zr  Zr49  1  0.41944902  0.80075932  0.25028104  1
  Zr  Zr50  1  0.50410833  0.69511377  0.38884454  1
  Zr  Zr51  1  -0.00382452  0.80299067  0.49453320  1
  Zr  Zr52  1  0.10443015  0.93156323  0.35837091  1
  Zr  Zr53  1  0.70554331  0.50414735  0.64214534  1
  Zr  Zr54  1  0.39504496  0.39662971  0.51990077  1
  Zr  Zr55  1  0.69923704  0.70255686  0.12792369  1
  Zr  Zr56  1  0.90039586  0.30468853  0.38315955  1
  Zr  Zr57  1  0.00009019  0.00991977  0.74122938  1
  Zr  Zr58  1  0.70877744  0.89900114  0.14465361  1
  Zr  Zr59  1  0.89300284  0.91258363  0.61793005  1
  Zr  Zr60  1  0.09764581  0.49022187  0.37897844  1
  Zr  Zr61  1  0.30388657  0.70796768  0.61027512  1
  Zr  Zr62  1  0.30646710  0.48920136  0.36737073  1
  Zr  Zr63  1  0.69447759  0.70392728  0.86520754  1
  Zr  Zr64  1  0.30566779  0.09883457  0.88656747  1
  Zr  Zr65  1  0.79761463  0.01675268  0.75818730  1
  Zr  Zr66  1  0.28971474  0.29971505  0.36678405  1
  Zr  Zr67  1  0.90239051  0.10972673  0.89721055  1
  Zr  Zr68  1  0.29477306  0.69916407  0.11918497  1
  Zr  Zr69  1  0.21134171  0.81372156  0.48100775  1
  Zr  Zr70  1  0.59672538  0.19645841  0.24777586  1
  Zr  Zr71  1  0.40707855  0.19825821  0.24886156  1
  Zr  Zr72  1  0.88703789  0.28600231  0.62426201  1
  Zr  Zr73  1  0.58956065  -0.00568201  0.25415914  1
  Zr  Zr74  1  0.38236661  0.18395464  0.49436028  1
  Zr  Zr75  1  0.00671273  0.60539693  0.00181349  1
  Zr  Zr76  1  0.40881442  0.58911878  0.50621387  1
  Zr  Zr77  1  0.30070235  0.10161558  0.12246627  1
  Zr  Zr78  1  0.11381046  0.90533425  0.62961429  1
  Zr  Zr79  1  0.29903345  0.90073246  0.87776656  1
  Ta  Ta80  1  0.09127690  0.09487927  0.13038878  1
  Ta  Ta81  1  0.70202289  0.30022461  0.37471477  1
  Ta  Ta82  1  0.50328677  0.70028008  0.87534353  1
  Ta  Ta83  1  0.50006998  0.09629706  0.87419204  1
  Ta  Ta84  1  0.40493296  0.60070375  -0.00400560  1
  Ta  Ta85  1  0.60284315  0.79740280  0.50389625  1
  Ta  Ta86  1  0.19207232  0.20033344  0.01427750  1
  Ta  Ta87  1  0.60330410  0.80511930  0.00433818  1
  Ta  Ta88  1  0.40965166  0.39607258  0.00658345  1
  Ta  Ta89  1  0.30297473  0.30190054  0.12391800  1
  Ta  Ta90  1  0.60637158  -0.00181604  0.75653912  1
  Ta  Ta91  1  0.31541903  0.91529980  0.62961541  1
  Ta  Ta92  1  0.19886868  0.60076421  0.25722059  1
  Ta  Ta93  1  0.79350755  0.80292113  0.74768889  1
  Ta  Ta94  1  0.79916677  -0.00346632  0.00823177  1
  Ta  Ta95  1  0.70715974  0.28952094  0.89413081  1
  Ta  Ta96  1  0.70853492  0.09899366  0.37091674  1
  Ta  Ta97  1  0.09840686  0.29471215  0.61730014  1
  Ta  Ta98  1  0.69931870  0.90169181  0.37930422  1
  Ta  Ta99  1  -0.00197428  0.40473699  0.51935287  1
  Ta  Ta100  1  0.90501977  0.70565607  0.86327354  1
  Ta  Ta101  1  0.09531812  0.29208303  0.88324998  1
  Ta  Ta102  1  0.80024311  0.80793018  -0.01065454  1
  Ta  Ta103  1  0.60934515  -0.00561028  0.00288476  1
  Ta  Ta104  1  0.09534551  0.70808590  0.86318301  1
  Ta  Ta105  1  0.18934741  -0.00656425  0.01209060  1
  Ta  Ta106  1  0.39536931  -0.00674759  0.47721512  1
  Ta  Ta107  1  0.20613383  0.79451058  0.26635432  1
  Ta  Ta108  1  0.79522375  0.39639177  0.76672535  1
  Ta  Ta109  1  0.18816217  0.20286722  0.23801982  1
  Ta  Ta110  1  0.80687168  0.39147034  0.24325210  1
  Ta  Ta111  1  0.61067196  0.60118917  0.51296475  1
  Ta  Ta112  1  -0.00467518  -0.00729445  0.01872653  1
  Ta  Ta113  1  0.18738595  0.18577213  0.49586552  1
  Ta  Ta114  1  0.60128853  0.39667861  -0.00189281  1
  Ta  Ta115  1  0.19104278  0.39836495  0.23337068  1
  Ta  Ta116  1  0.59225294  0.60464192  0.24421848  1
  Ta  Ta117  1  0.79984341  0.60684185  0.50210264  1
  Ta  Ta118  1  0.50011852  0.89855765  0.62078960  1
  Ta  Ta119  1  0.70611203  0.29901834  0.12045355  1
  Ti  Ti120  1  -0.00661680  0.79904605  0.73517573  1
  Ti  Ti121  1  0.00252704  0.80308371  0.00308641  1
  Ti  Ti122  1  0.71082065  0.09852579  0.13916542  1
  Ti  Ti123  1  0.50699745  0.49587491  0.63861866  1
  Ti  Ti124  1  0.29210629  0.49566966  0.63039665  1
  Ti  Ti125  1  0.19255134  0.60622867  -0.00337502  1
  Ti  Ti126  1  0.09206198  0.30233108  0.11478830  1
  Ti  Ti127  1  0.59721167  0.19474120  0.48393215  1
  Ti  Ti128  1  0.27327371  0.08866571  0.35279572  1
  Ti  Ti129  1  0.69562899  0.69906474  0.37116547  1
  Ti  Ti130  1  0.59495942  0.41259990  0.49745666  1
  Ti  Ti131  1  0.79750655  0.40457621  -0.00549032  1
  Ti  Ti132  1  -0.00567542  0.19713821  0.74189235  1
  Ti  Ti133  1  -0.00107818  0.40665324  0.23267592  1
  Ti  Ti134  1  0.89532608  0.50610242  0.86252426  1
  Ti  Ti135  1  0.70504767  0.10165319  0.89094782  1
  Ti  Ti136  1  0.10209608  0.69712234  0.13744372  1
  Ti  Ti137  1  0.49994802  0.50299795  0.11507217  1
  Ti  Ti138  1  0.39324750  0.18838928  0.74034572  1
  Ti  Ti139  1  0.50817246  0.70569259  0.62524112  1
  Ti  Ti140  1  0.20584526  0.80088794  0.74804228  1
  Ti  Ti141  1  0.21538143  0.00866503  0.74796528  1
  Ti  Ti142  1  0.10450693  0.49914765  0.62571525  1
  Ti  Ti143  1  0.60225639  0.60705748  0.74577354  1
  Ti  Ti144  1  0.91186810  0.50319336  0.36679271  1
  Ti  Ti145  1  0.20824756  0.59389341  0.49427328  1
  Ti  Ti146  1  0.49468866  0.28463443  0.88335924  1
  Ti  Ti147  1  0.18757762  0.79688006  0.00075034  1
  Ti  Ti148  1  0.89914122  0.91773964  0.37766975  1
  Ti  Ti149  1  0.10578541  0.10615877  0.63228638  1
  Ti  Ti150  1  0.59498833  0.00028418  0.48640986  1
  Ti  Ti151  1  0.90063397  0.50387691  0.12812763  1
  Ti  Ti152  1  0.29641805  0.70150007  0.88335403  1
  Ti  Ti153  1  0.20055252  0.39171050  0.51217343  1
  Ti  Ti154  1  -0.00932175  0.60297348  0.73672725  1
  Ti  Ti155  1  0.40003739  0.80796747  0.48691561  1
  Ti  Ti156  1  0.21186049  0.00934868  0.50107663  1
  Ti  Ti157  1  0.19768784  0.39127908  0.74646935  1
  Ti  Ti158  1  0.59916295  0.60156861  -0.00023107  1
  Ti  Ti159  1  0.09573899  0.89441158  0.13552640  1
  Mo  Mo160  1  0.50860868  0.69380985  0.10978566  1
  Mo  Mo161  1  0.00322081  0.19983330  0.51018239  1
  Mo  Mo162  1  0.60412549  0.79302101  0.26473879  1
  Mo  Mo163  1  0.28644149  0.29240346  0.61839852  1
  Mo  Mo164  1  0.89435982  0.49799903  0.64484877  1
  Mo  Mo165  1  0.59998179  0.80111359  0.73034154  1
  Mo  Mo166  1  0.69811932  0.49524598  0.87761001  1
  Mo  Mo167  1  0.39960188  0.40059528  0.22605740  1
  Mo  Mo168  1  0.19609548  -0.00026297  0.23003065  1
  Mo  Mo169  1  0.80197141  0.00188398  0.25686986  1
  Mo  Mo170  1  0.40333384  0.20028489  0.00965371  1
  Mo  Mo171  1  0.90133251  0.89606747  0.12067175  1
  Mo  Mo172  1  0.89125416  0.09463612  0.12738891  1
  Mo  Mo173  1  0.30113033  0.90206887  0.35956496  1
  Mo  Mo174  1  0.00263662  0.19910681  0.01575825  1
  Mo  Mo175  1  0.50602107  0.89504486  0.39389182  1
  Mo  Mo176  1  -0.01119363  -0.00152528  0.23098868  1
  Mo  Mo177  1  0.50310468  0.09952075  0.38960466  1
  Mo  Mo178  1  0.40700288  0.00269397  0.75338137  1
  Mo  Mo179  1  0.51212468  0.89210311  0.12162080  1
  Mo  Mo180  1  0.79834253  0.19433415  0.02422825  1
  Mo  Mo181  1  0.51045341  0.50029484  0.37536578  1
  Mo  Mo182  1  0.90263124  0.68964491  0.37256579  1
  Mo  Mo183  1  0.80094783  0.00229243  0.48091439  1
  Mo  Mo184  1  0.70186412  0.90391417  0.87417726  1
  Mo  Mo185  1  0.69686443  0.70216981  0.63498885  1
  Mo  Mo186  1  0.29764688  0.69710930  0.38148200  1
  Mo  Mo187  1  0.10077855  0.50873836  0.13562706  1
  Mo  Mo188  1  0.79263042  0.20599715  0.24501540  1
  Mo  Mo189  1  0.00589553  0.59534459  0.23992290  1
  Mo  Mo190  1  0.29609414  0.09300141  0.62432391  1
  Mo  Mo191  1  0.79350731  0.20433232  0.76096502  1
  Mo  Mo192  1  0.50756516  0.09379336  0.11908721  1
  Mo  Mo193  1  0.80361232  0.60118393  0.76086980  1
  Mo  Mo194  1  0.49914356  0.30148889  0.11496894  1
  Mo  Mo195  1  0.89123888  0.69929524  0.64685374  1
  Mo  Mo196  1  0.90030063  0.10942238  0.60874513  1
  Mo  Mo197  1  0.09834550  0.11126611  0.35069977  1
  Mo  Mo198  1  0.89106929  0.30713714  0.10999518  1
  Mo  Mo199  1  0.79642709  0.20456301  0.47837527  1
