# generated using pymatgen
data_HfZrTaTiMo
_symmetry_space_group_name_H-M   'P 1'
_cell_length_a   15.93758559
_cell_length_b   15.92241664
_cell_length_c   15.20324714
_cell_angle_alpha   90.01361858
_cell_angle_beta   90.00309280
_cell_angle_gamma   90.11183057
_symmetry_Int_Tables_number   1
_chemical_formula_structural   HfZrTaTiMo
_chemical_formula_sum   'Hf40 Zr40 Ta40 Ti40 Mo40'
_cell_volume   3858.04269320
_cell_formula_units_Z   40
loop_
 _symmetry_equiv_pos_site_id
 _symmetry_equiv_pos_as_xyz
  1  'x, y, z'
loop_
 _atom_site_type_symbol
 _atom_site_label
 _atom_site_symmetry_multiplicity
 _atom_site_fract_x
 _atom_site_fract_y
 _atom_site_fract_z
 _atom_site_occupancy
  Hf  Hf0  1  0.20029343  0.00451839  0.52171262  1
  Hf  Hf1  1  0.89351517  0.10859658  0.64295541  1
  Hf  Hf2  1  0.89435152  0.89274650  0.87209194  1
  Hf  Hf3  1  0.70144340  0.10102554  0.37056932  1
  Hf  Hf4  1  0.71437443  0.51385925  0.13034859  1
  Hf  Hf5  1  0.70352523  0.90844618  0.36652170  1
  Hf  Hf6  1  0.80689575  0.60373355  0.72357018  1
  Hf  Hf7  1  0.20338044  0.19143890  0.00390075  1
  Hf  Hf8  1  0.58941416  0.00698944  -0.00507141  1
  Hf  Hf9  1  0.58215265  0.00170679  0.24265366  1
  Hf  Hf10  1  0.41108311  0.39201886  0.25207078  1
  Hf  Hf11  1  0.49563422  0.90071921  0.62998009  1
  Hf  Hf12  1  0.61002732  0.60638143  0.74235601  1
  Hf  Hf13  1  0.40098476  0.58955598  0.00496496  1
  Hf  Hf14  1  0.82274032  0.42228859  -0.00541090  1
  Hf  Hf15  1  0.27898057  0.10415349  0.36843720  1
  Hf  Hf16  1  0.60439885  0.20931230  0.75610703  1
  Hf  Hf17  1  0.80022929  0.61522446  0.50552277  1
  Hf  Hf18  1  -0.00370245  0.59998981  0.25072874  1
  Hf  Hf19  1  0.80671908  0.40308585  0.74840228  1
  Hf  Hf20  1  0.00822694  0.21109864  0.75775202  1
  Hf  Hf21  1  0.00324494  0.00491601  0.76238558  1
  Hf  Hf22  1  0.50432339  0.70856023  0.11859667  1
  Hf  Hf23  1  0.49905000  0.70923782  0.39379265  1
  Hf  Hf24  1  0.70771069  0.30034282  0.61222220  1
  Hf  Hf25  1  0.49659094  0.10004480  0.39382611  1
  Hf  Hf26  1  0.91208704  0.30792590  0.11518757  1
  Hf  Hf27  1  0.10107064  0.47958119  0.60379582  1
  Hf  Hf28  1  0.71332465  0.51461563  0.87493827  1
  Hf  Hf29  1  0.19221398  0.38888768  0.25001854  1
  Hf  Hf30  1  0.89342932  0.90094865  0.64660184  1
  Hf  Hf31  1  0.19587226  0.59957017  0.25383335  1
  Hf  Hf32  1  0.28612509  0.67331420  0.87159939  1
  Hf  Hf33  1  0.11702354  0.51837253  0.87013444  1
  Hf  Hf34  1  0.29937156  0.29451585  0.13240617  1
  Hf  Hf35  1  0.70319262  0.29947619  0.38486836  1
  Hf  Hf36  1  0.61722258  0.80666215  0.51394776  1
  Hf  Hf37  1  0.00199974  0.39954963  0.76072301  1
  Hf  Hf38  1  0.89623764  0.49895393  0.37959586  1
  Hf  Hf39  1  0.00592225  0.01096982  0.52271316  1
  Zr  Zr40  1  0.69510493  0.90210903  0.12643035  1
  Zr  Zr41  1  0.10057520  0.27531719  0.38718571  1
  Zr  Zr42  1  0.60753252  0.00717381  0.74903553  1
  Zr  Zr43  1  0.00056184  0.59454565  0.73528359  1
  Zr  Zr44  1  0.28996032  0.50548635  0.62626510  1
  Zr  Zr45  1  0.01995109  0.18184385  0.22339986  1
  Zr  Zr46  1  0.00598626  0.81782634  0.25052784  1
  Zr  Zr47  1  0.59984014  0.40077481  0.25473636  1
  Zr  Zr48  1  0.50210291  0.50088634  0.61662643  1
  Zr  Zr49  1  0.49777176  0.50117811  0.86989560  1
  Zr  Zr50  1  0.70112915  0.30941792  0.10920191  1
  Zr  Zr51  1  0.50265985  0.29877049  0.88303078  1
  Zr  Zr52  1  0.00326759  0.00080544  0.00120069  1
  Zr  Zr53  1  0.81149002  0.20259863  0.24193082  1
  Zr  Zr54  1  0.69853819  0.10741220  0.11639671  1
  Zr  Zr55  1  0.88919110  0.68393412  0.88370990  1
  Zr  Zr56  1  0.39208687  0.39669234  0.49658894  1
  Zr  Zr57  1  -0.01287096  0.57867864  0.00900119  1
  Zr  Zr58  1  0.58696233  0.20395571  0.24292271  1
  Zr  Zr59  1  0.80725468  0.80599755  0.25296233  1
  Zr  Zr60  1  0.39865235  0.39181100  0.74490224  1
  Zr  Zr61  1  0.38925720  -0.00141516  0.24584990  1
  Zr  Zr62  1  0.30141315  0.70627943  0.12382607  1
  Zr  Zr63  1  0.20469809  0.58101160  0.02833032  1
  Zr  Zr64  1  0.91916067  0.09886177  0.37495506  1
  Zr  Zr65  1  0.49144487  0.70119166  0.62011220  1
  Zr  Zr66  1  0.08833909  0.71246499  0.11137033  1
  Zr  Zr67  1  0.40361357  0.18794489  0.00937937  1
  Zr  Zr68  1  0.79487939  -0.00286123  0.51061646  1
  Zr  Zr69  1  0.38303869  0.19606694  0.51664951  1
  Zr  Zr70  1  0.39654108  0.80164112  -0.01800333  1
  Zr  Zr71  1  0.20025563  0.80550046  0.26233842  1
  Zr  Zr72  1  0.10915239  0.69587647  0.61379595  1
  Zr  Zr73  1  0.39865916  0.59529475  0.25251685  1
  Zr  Zr74  1  0.59557479  0.60187427  0.26149248  1
  Zr  Zr75  1  0.10602963  0.89071855  0.64220005  1
  Zr  Zr76  1  0.69602734  0.70691618  0.13480369  1
  Zr  Zr77  1  0.40005023  0.80770337  0.26318004  1
  Zr  Zr78  1  0.48910607  0.90883973  0.85862985  1
  Zr  Zr79  1  0.16919174  0.00142460  0.23604352  1
  Ta  Ta80  1  0.70124340  0.50332599  0.38746128  1
  Ta  Ta81  1  0.50045239  0.69741879  0.86714406  1
  Ta  Ta82  1  0.90533368  0.90931902  0.37934192  1
  Ta  Ta83  1  0.19492110  0.39347476  0.76426185  1
  Ta  Ta84  1  0.79301908  0.79778073  -0.00216229  1
  Ta  Ta85  1  0.29280135  0.90860021  0.85858584  1
  Ta  Ta86  1  0.29539159  0.49297518  0.37075277  1
  Ta  Ta87  1  0.09709400  0.49429389  0.38272203  1
  Ta  Ta88  1  0.09733863  0.70561367  0.38751448  1
  Ta  Ta89  1  0.90330010  0.29679609  0.38810926  1
  Ta  Ta90  1  0.39171590  0.00068954  0.51735590  1
  Ta  Ta91  1  0.20343043  0.59934351  0.48574501  1
  Ta  Ta92  1  0.38986308  0.40483735  0.00805222  1
  Ta  Ta93  1  0.10141862  0.89390067  0.87383410  1
  Ta  Ta94  1  0.88811048  0.69254732  0.12285157  1
  Ta  Ta95  1  0.60555895  0.60878359  -0.00775722  1
  Ta  Ta96  1  0.19708032  0.80000749  -0.01670740  1
  Ta  Ta97  1  0.39020462  0.60394949  0.48876104  1
  Ta  Ta98  1  -0.00193168  0.38941469  0.25976988  1
  Ta  Ta99  1  -0.00032621  0.78498193  0.76084151  1
  Ta  Ta100  1  0.80569198  0.80406510  0.50876989  1
  Ta  Ta101  1  0.79863127  0.21060144  0.76363232  1
  Ta  Ta102  1  0.50231632  0.29014393  0.39539241  1
  Ta  Ta103  1  0.80526298  0.19461395  0.50094326  1
  Ta  Ta104  1  0.60347395  0.80299631  -0.02351859  1
  Ta  Ta105  1  0.30125762  0.29479163  0.87570323  1
  Ta  Ta106  1  0.20435187  0.39625065  -0.00159458  1
  Ta  Ta107  1  0.69881503  0.49825296  0.60707589  1
  Ta  Ta108  1  0.60740304  0.79765878  0.74967060  1
  Ta  Ta109  1  0.00568921  0.20022605  -0.00925973  1
  Ta  Ta110  1  0.18613401  0.18998284  0.52816002  1
  Ta  Ta111  1  0.79932547  0.00034650  -0.00387957  1
  Ta  Ta112  1  -0.00512330  0.80616456  0.50171516  1
  Ta  Ta113  1  0.38951455  0.00330768  0.00544406  1
  Ta  Ta114  1  0.61123793  0.40076987  0.74897782  1
  Ta  Ta115  1  0.51014528  0.29605512  0.61624191  1
  Ta  Ta116  1  0.30029966  0.89300018  0.63997042  1
  Ta  Ta117  1  0.20065367  0.20343341  0.74666136  1
  Ta  Ta118  1  0.90999072  0.30380632  0.60920450  1
  Ta  Ta119  1  0.28920267  0.89923419  0.11281827  1
  Ti  Ti120  1  0.89897985  0.30031115  0.88235393  1
  Ti  Ti121  1  0.70078942  0.70306960  0.37621219  1
  Ti  Ti122  1  0.70035915  0.10969830  0.88313007  1
  Ti  Ti123  1  0.19586542  0.78366106  0.76416491  1
  Ti  Ti124  1  0.30621010  0.09395815  0.85555099  1
  Ti  Ti125  1  0.01519803  0.39643339  -0.01812277  1
  Ti  Ti126  1  0.59035033  0.80912263  0.26159517  1
  Ti  Ti127  1  0.49667799  0.90613790  0.39862866  1
  Ti  Ti128  1  0.39255995  0.59868201  0.74672948  1
  Ti  Ti129  1  0.70631189  0.90327040  0.86531366  1
  Ti  Ti130  1  0.29688588  0.28941565  0.37020536  1
  Ti  Ti131  1  0.08711694  0.47910612  0.13220359  1
  Ti  Ti132  1  0.09483942  0.91236441  0.38991294  1
  Ti  Ti133  1  0.28119681  0.30775782  0.62427584  1
  Ti  Ti134  1  0.80496624  0.40248447  0.25268610  1
  Ti  Ti135  1  0.11428517  0.09822772  0.87173639  1
  Ti  Ti136  1  0.90200742  0.48779433  0.59918710  1
  Ti  Ti137  1  0.29761209  0.89672238  0.39891407  1
  Ti  Ti138  1  0.79004946  0.78862730  0.73988927  1
  Ti  Ti139  1  0.90208251  0.70834270  0.37546594  1
  Ti  Ti140  1  0.39305967  0.79083831  0.75481890  1
  Ti  Ti141  1  0.49275966  0.89672508  0.11318537  1
  Ti  Ti142  1  -0.00224183  0.60544838  0.49824945  1
  Ti  Ti143  1  0.50979220  0.49529044  0.11793946  1
  Ti  Ti144  1  0.60668229  0.40705633  -0.01219450  1
  Ti  Ti145  1  0.50202713  0.10516969  0.62427780  1
  Ti  Ti146  1  0.90703672  0.88801569  0.10597690  1
  Ti  Ti147  1  0.39653255  0.20141837  0.73737450  1
  Ti  Ti148  1  0.49131510  0.10357309  0.86632816  1
  Ti  Ti149  1  0.82591614  0.00403607  0.22634774  1
  Ti  Ti150  1  0.60527862  0.00412855  0.51548015  1
  Ti  Ti151  1  0.59931321  0.39917332  0.49773027  1
  Ti  Ti152  1  0.50830203  0.29874455  0.10596586  1
  Ti  Ti153  1  0.89185364  0.10240798  0.87716974  1
  Ti  Ti154  1  0.40332998  0.19182581  0.24376631  1
  Ti  Ti155  1  0.29574372  0.70829936  0.61401924  1
  Ti  Ti156  1  0.70446651  0.10451405  0.63274000  1
  Ti  Ti157  1  0.80153310  0.20451707  -0.00651596  1
  Ti  Ti158  1  0.20391700  -0.00044757  -0.00222068  1
  Ti  Ti159  1  0.50208235  0.50078037  0.38938147  1
  Mo  Mo160  1  0.49566460  0.09709727  0.11916359  1
  Mo  Mo161  1  0.10228879  0.89592618  0.09628869  1
  Mo  Mo162  1  0.89970337  0.49891937  0.15376989  1
  Mo  Mo163  1  0.90724424  0.49685307  0.86469236  1
  Mo  Mo164  1  0.20385353  0.19328375  0.23334800  1
  Mo  Mo165  1  0.80109226  0.60670362  0.27505048  1
  Mo  Mo166  1  0.20291827  0.39054613  0.47926436  1
  Mo  Mo167  1  0.29599543  0.09359830  0.13759483  1
  Mo  Mo168  1  0.19889416  0.80321188  0.49152464  1
  Mo  Mo169  1  0.10150330  0.09735304  0.09965968  1
  Mo  Mo170  1  0.29550879  0.70104962  0.38545541  1
  Mo  Mo171  1  0.70722018  0.30688515  0.88301740  1
  Mo  Mo172  1  0.30521155  0.48962363  0.14858599  1
  Mo  Mo173  1  0.09666545  0.69936780  0.88220247  1
  Mo  Mo174  1  0.00141054  0.19668242  0.52037497  1
  Mo  Mo175  1  0.79731192  0.01200902  0.77297152  1
  Mo  Mo176  1  0.39856721  0.00725316  0.73652898  1
  Mo  Mo177  1  -0.00911378  -0.00701645  0.22719858  1
  Mo  Mo178  1  -0.00332047  0.79321668  -0.01606056  1
  Mo  Mo179  1  0.60363014  0.19188363  0.50938985  1
  Mo  Mo180  1  0.09945320  0.10177245  0.65479581  1
  Mo  Mo181  1  0.70352479  0.90382896  0.64512699  1
  Mo  Mo182  1  0.20251747  0.59959801  0.73301325  1
  Mo  Mo183  1  0.09899797  0.09079310  0.38277398  1
  Mo  Mo184  1  0.09984405  0.30113752  0.61664804  1
  Mo  Mo185  1  0.79991133  0.40036851  0.49980284  1
  Mo  Mo186  1  0.39249732  0.80737601  0.50491602  1
  Mo  Mo187  1  0.70019700  0.70307919  0.61765411  1
  Mo  Mo188  1  0.30254356  0.48864115  0.86408953  1
  Mo  Mo189  1  0.90713717  0.71042703  0.61894505  1
  Mo  Mo190  1  0.69957963  0.70740887  0.87227193  1
  Mo  Mo191  1  0.29935960  0.09930298  0.64495840  1
  Mo  Mo192  1  0.10868210  0.29833884  0.88654326  1
  Mo  Mo193  1  0.59932311  0.60007645  0.49308863  1
  Mo  Mo194  1  0.20060469  -0.00017639  0.75378102  1
  Mo  Mo195  1  0.00021566  0.39633443  0.48201113  1
  Mo  Mo196  1  0.09999350  0.30294269  0.10659667  1
  Mo  Mo197  1  0.60254623  0.20155923  -0.01635241  1
  Mo  Mo198  1  0.79564341  0.60516928  0.00828439  1
  Mo  Mo199  1  0.89697921  0.10123175  0.10189892  1
