# generated using pymatgen
data_HfZrTaTiMo
_symmetry_space_group_name_H-M   'P 1'
_cell_length_a   15.92578390
_cell_length_b   15.92811931
_cell_length_c   15.20208801
_cell_angle_alpha   89.96194013
_cell_angle_beta   89.96251003
_cell_angle_gamma   90.14585480
_symmetry_Int_Tables_number   1
_chemical_formula_structural   HfZrTaTiMo
_chemical_formula_sum   'Hf40 Zr40 Ta40 Ti40 Mo40'
_cell_volume   3856.26583186
_cell_formula_units_Z   40
loop_
 _symmetry_equiv_pos_site_id
 _symmetry_equiv_pos_as_xyz
  1  'x, y, z'
loop_
 _atom_site_type_symbol
 _atom_site_label
 _atom_site_symmetry_multiplicity
 _atom_site_fract_x
 _atom_site_fract_y
 _atom_site_fract_z
 _atom_site_occupancy
  Hf  Hf0  1  0.19571245  0.40182507  0.49764810  1
  Hf  Hf1  1  0.49078917  0.69508053  0.62667773  1
  Hf  Hf2  1  0.00251209  0.60243360  0.25522925  1
  Hf  Hf3  1  0.60203656  0.00225755  0.26052057  1
  Hf  Hf4  1  0.00749645  0.81655524  0.75424647  1
  Hf  Hf5  1  -0.00078227  0.60611630  0.00589837  1
  Hf  Hf6  1  0.18644324  0.38638320  0.25337938  1
  Hf  Hf7  1  0.39833703  0.79048976  -0.01462973  1
  Hf  Hf8  1  0.30812251  0.30927689  0.87876647  1
  Hf  Hf9  1  0.90020994  0.28904025  0.62024572  1
  Hf  Hf10  1  0.90271320  0.71637122  0.37312740  1
  Hf  Hf11  1  0.29643155  0.09557239  0.62594713  1
  Hf  Hf12  1  0.39875569  -0.00674268  -0.01973948  1
  Hf  Hf13  1  0.60211926  0.39231925  0.24184492  1
  Hf  Hf14  1  0.60238563  0.79950712  0.50386694  1
  Hf  Hf15  1  0.60095386  0.59989426  0.00335360  1
  Hf  Hf16  1  0.50893288  0.69589083  0.86185993  1
  Hf  Hf17  1  0.00773320  0.79602885  0.00482681  1
  Hf  Hf18  1  0.30297051  0.69997517  0.63129626  1
  Hf  Hf19  1  -0.00594745  0.18638186  0.77321068  1
  Hf  Hf20  1  0.20499600  0.59650324  0.75577835  1
  Hf  Hf21  1  0.10602217  0.30876290  0.87852682  1
  Hf  Hf22  1  0.79436453  0.79230218  0.00745588  1
  Hf  Hf23  1  0.70880192  0.70017943  0.63386426  1
  Hf  Hf24  1  0.20290026  0.20601142  0.74830275  1
  Hf  Hf25  1  0.49552455  0.89628819  0.12009410  1
  Hf  Hf26  1  -0.01095883  0.00265362  0.48833243  1
  Hf  Hf27  1  0.78953262  0.00175302  0.24526611  1
  Hf  Hf28  1  0.29916615  0.09254020  0.38468126  1
  Hf  Hf29  1  0.78912833  0.19810024  0.25704121  1
  Hf  Hf30  1  0.30469360  0.70168948  0.13994970  1
  Hf  Hf31  1  0.80791677  0.59685648  0.75024935  1
  Hf  Hf32  1  0.80630836  0.19884441  0.48147083  1
  Hf  Hf33  1  0.60760773  0.20570577  0.49788266  1
  Hf  Hf34  1  0.49225243  0.48184812  0.87462054  1
  Hf  Hf35  1  0.00945612  0.00394628  0.23830585  1
  Hf  Hf36  1  0.18654272  -0.00840822  0.50380925  1
  Hf  Hf37  1  0.49325207  0.51211735  0.14017320  1
  Hf  Hf38  1  0.91541383  0.69529804  0.62722895  1
  Hf  Hf39  1  0.88665064  0.49438920  0.36694809  1
  Zr  Zr40  1  0.18367635  -0.00935022  0.76416515  1
  Zr  Zr41  1  -0.00417648  0.40400670  0.01447802  1
  Zr  Zr42  1  0.40593573  0.19541856  0.25275277  1
  Zr  Zr43  1  0.69230131  0.50047689  0.86220709  1
  Zr  Zr44  1  0.89892019  0.90327818  0.11494745  1
  Zr  Zr45  1  0.07645040  0.09509416  0.63001216  1
  Zr  Zr46  1  0.30610072  0.89610438  0.62303925  1
  Zr  Zr47  1  0.58412436  0.38851824  0.01818223  1
  Zr  Zr48  1  0.20176747  0.60808480  0.49342936  1
  Zr  Zr49  1  0.08734131  0.51272462  0.62837072  1
  Zr  Zr50  1  0.20297293  0.60814397  -0.00363051  1
  Zr  Zr51  1  0.80766656  0.81510586  0.51208026  1
  Zr  Zr52  1  0.02077269  0.20760686  0.25383985  1
  Zr  Zr53  1  0.00498242  0.20491499  0.00452278  1
  Zr  Zr54  1  0.50007486  0.49929446  0.37343925  1
  Zr  Zr55  1  0.30268959  0.09318484  0.12032850  1
  Zr  Zr56  1  0.09466852  0.89504216  0.36753536  1
  Zr  Zr57  1  0.60091884  0.80221707  0.25985768  1
  Zr  Zr58  1  0.60573439  0.60659091  0.48488838  1
  Zr  Zr59  1  0.39479647  0.39237833  0.72410515  1
  Zr  Zr60  1  0.79410292  0.60735810  -0.00729320  1
  Zr  Zr61  1  -0.00719441  0.40132923  0.75448892  1
  Zr  Zr62  1  0.89730814  0.10283049  0.11958946  1
  Zr  Zr63  1  0.30148035  0.50307537  0.13408705  1
  Zr  Zr64  1  0.80069926  0.20003082  0.76556489  1
  Zr  Zr65  1  0.88064664  0.50656007  0.14291076  1
  Zr  Zr66  1  0.20405871  0.81034688  -0.00662116  1
  Zr  Zr67  1  0.78221726  0.40349929  0.01654486  1
  Zr  Zr68  1  0.59973644  0.00176450  0.74848335  1
  Zr  Zr69  1  0.30290333  0.50270329  0.36624906  1
  Zr  Zr70  1  0.50001823  0.09563904  0.39279064  1
  Zr  Zr71  1  0.71663277  0.10318885  0.62966203  1
  Zr  Zr72  1  0.49354315  0.09033708  0.61767262  1
  Zr  Zr73  1  0.41128472  0.20653032  -0.00576545  1
  Zr  Zr74  1  0.61406474  -0.01493358  0.51362414  1
  Zr  Zr75  1  0.51120032  0.09695419  0.12436345  1
  Zr  Zr76  1  0.11194346  0.71450936  0.36929810  1
  Zr  Zr77  1  0.09290913  0.30037348  0.62154779  1
  Zr  Zr78  1  0.70987875  0.89592828  0.86966692  1
  Zr  Zr79  1  0.69036014  0.30714135  0.86851760  1
  Ta  Ta80  1  0.19871432  0.39968943  0.01482601  1
  Ta  Ta81  1  0.39780639  0.39575671  0.50416045  1
  Ta  Ta82  1  0.00172624  0.59758725  0.48191556  1
  Ta  Ta83  1  0.80150084  0.60275660  0.49129279  1
  Ta  Ta84  1  0.60249085  0.79112671  0.00764006  1
  Ta  Ta85  1  -0.00516457  0.39817512  0.47883465  1
  Ta  Ta86  1  0.79510118  0.39940609  0.50215832  1
  Ta  Ta87  1  0.40376462  -0.00379891  0.76437231  1
  Ta  Ta88  1  0.59247045  0.39640417  0.72554864  1
  Ta  Ta89  1  0.39347420  0.20878219  0.51146434  1
  Ta  Ta90  1  0.79091554  0.20023254  0.00170945  1
  Ta  Ta91  1  0.49769031  0.30214621  0.38170840  1
  Ta  Ta92  1  0.89828472  0.50071829  0.61088579  1
  Ta  Ta93  1  0.10046437  0.50317434  0.13300496  1
  Ta  Ta94  1  0.79601488  0.80207829  0.24146336  1
  Ta  Ta95  1  0.40533281  0.19903764  0.74586731  1
  Ta  Ta96  1  0.49762614  0.69819536  0.13807353  1
  Ta  Ta97  1  0.79892093  0.40199520  0.73564334  1
  Ta  Ta98  1  0.90011356  0.50008224  0.87516591  1
  Ta  Ta99  1  0.70060260  0.50107314  0.61903990  1
  Ta  Ta100  1  0.39919652  -0.01188470  0.26282616  1
  Ta  Ta101  1  0.29024055  0.28895248  0.13225274  1
  Ta  Ta102  1  0.19261851  0.19926519  0.49470537  1
  Ta  Ta103  1  -0.00060872  0.19905928  0.47514826  1
  Ta  Ta104  1  0.20498392  0.40538646  0.73899728  1
  Ta  Ta105  1  0.09782469  0.69797518  0.86301389  1
  Ta  Ta106  1  0.39649823  0.78626591  0.48494583  1
  Ta  Ta107  1  0.20157257  0.00038516  0.25262895  1
  Ta  Ta108  1  0.59691110  0.19558942  -0.01620022  1
  Ta  Ta109  1  -0.00033094  0.39688120  0.25501373  1
  Ta  Ta110  1  0.28858486  0.88692084  0.37923272  1
  Ta  Ta111  1  0.89518274  0.08852496  0.89952468  1
  Ta  Ta112  1  0.02132056  -0.00175604  -0.00412698  1
  Ta  Ta113  1  0.59813289  0.81176953  0.72768184  1
  Ta  Ta114  1  0.29888031  0.10172904  0.87071619  1
  Ta  Ta115  1  0.09957324  0.50084416  0.87706392  1
  Ta  Ta116  1  0.49789470  0.50465945  0.60898193  1
  Ta  Ta117  1  0.89244424  0.30132748  0.13863888  1
  Ta  Ta118  1  0.39960929  0.80148349  0.26448058  1
  Ta  Ta119  1  0.29921793  0.29441447  0.37506716  1
  Ti  Ti120  1  0.89429944  0.69841333  0.13843538  1
  Ti  Ti121  1  0.69591283  0.68688161  0.14464322  1
  Ti  Ti122  1  0.20432380  0.80219734  0.76131567  1
  Ti  Ti123  1  0.19656454  0.60446561  0.25410948  1
  Ti  Ti124  1  0.69339800  0.90635365  0.11502548  1
  Ti  Ti125  1  0.60158074  0.39867653  0.50491203  1
  Ti  Ti126  1  0.20308122  0.19952393  -0.00811614  1
  Ti  Ti127  1  0.40253680  0.80630929  0.76018859  1
  Ti  Ti128  1  0.10453984  0.70691749  0.63162610  1
  Ti  Ti129  1  0.69823290  0.70956022  0.85542495  1
  Ti  Ti130  1  0.11976056  0.10431998  0.11941756  1
  Ti  Ti131  1  0.39919896  0.60230820  -0.01200596  1
  Ti  Ti132  1  0.90087911  0.70603107  0.86305149  1
  Ti  Ti133  1  0.51303762  0.89337419  0.87764147  1
  Ti  Ti134  1  0.01166813  0.80236452  0.22424079  1
  Ti  Ti135  1  0.70393395  0.31361082  0.37323942  1
  Ti  Ti136  1  0.90090938  0.89971104  0.35925301  1
  Ti  Ti137  1  0.90119573  0.09656761  0.35845162  1
  Ti  Ti138  1  0.70172796  0.50442954  0.36003837  1
  Ti  Ti139  1  0.59637492  0.59253948  0.74045970  1
  Ti  Ti140  1  0.60258735  0.00219920  -0.00892261  1
  Ti  Ti141  1  0.70066739  0.30043514  0.62669871  1
  Ti  Ti142  1  0.68977272  0.27902110  0.12683250  1
  Ti  Ti143  1  0.39799170  0.39367594  0.02017376  1
  Ti  Ti144  1  0.58928476  0.20341201  0.75209712  1
  Ti  Ti145  1  0.60411852  0.19470210  0.26671280  1
  Ti  Ti146  1  0.90130084  0.90177591  0.88390699  1
  Ti  Ti147  1  0.39984686  0.38890708  0.24588187  1
  Ti  Ti148  1  0.29615937  0.49341146  0.88334219  1
  Ti  Ti149  1  0.70180749  0.09528805  0.87899055  1
  Ti  Ti150  1  0.91000607  0.91797465  0.63668082  1
  Ti  Ti151  1  0.01142745  0.80802222  0.51363289  1
  Ti  Ti152  1  0.71121936  0.89683344  0.37677111  1
  Ti  Ti153  1  0.39622485  0.59017760  0.75913476  1
  Ti  Ti154  1  0.80581156  0.00375215  0.49776015  1
  Ti  Ti155  1  0.89125976  0.30769788  0.88634237  1
  Ti  Ti156  1  0.29837451  0.90258886  0.13073029  1
  Ti  Ti157  1  0.30658427  0.50900411  0.61071525  1
  Ti  Ti158  1  0.81787694  0.00376239  0.75326938  1
  Ti  Ti159  1  0.49291152  0.90050134  0.39117231  1
  Mo  Mo160  1  0.30487895  0.89832849  0.86171047  1
  Mo  Mo161  1  0.10462645  0.10200835  0.88602936  1
  Mo  Mo162  1  0.90293748  0.09991313  0.62140710  1
  Mo  Mo163  1  0.09417946  0.50224181  0.36494594  1
  Mo  Mo164  1  0.20479527  0.00718982  -0.01064167  1
  Mo  Mo165  1  0.10444471  0.69935348  0.13520081  1
  Mo  Mo166  1  0.70832061  0.70728171  0.37223613  1
  Mo  Mo167  1  0.29939876  0.70532974  0.36373703  1
  Mo  Mo168  1  -0.00791869  0.00035303  0.77634873  1
  Mo  Mo169  1  0.00021434  0.60338340  0.76347136  1
  Mo  Mo170  1  0.72211501  0.90120181  0.64127905  1
  Mo  Mo171  1  0.10111925  0.89602658  0.88731171  1
  Mo  Mo172  1  0.20297893  0.19351534  0.26255008  1
  Mo  Mo173  1  0.50007276  0.29855852  0.85572906  1
  Mo  Mo174  1  0.40116377  0.60994252  0.26684983  1
  Mo  Mo175  1  0.10185156  0.30134680  0.38798926  1
  Mo  Mo176  1  0.10552647  0.29859063  0.11445257  1
  Mo  Mo177  1  0.29451572  0.29847433  0.61374733  1
  Mo  Mo178  1  0.80872190  0.80597058  0.74565151  1
  Mo  Mo179  1  0.10388069  0.09928608  0.37255700  1
  Mo  Mo180  1  0.50341547  0.09928560  0.86815740  1
  Mo  Mo181  1  0.30540735  0.69646544  0.85788224  1
  Mo  Mo182  1  0.40034352  0.60105720  0.48821192  1
  Mo  Mo183  1  0.79373768  0.61149489  0.26843619  1
  Mo  Mo184  1  0.48716751  0.89042313  0.61707114  1
  Mo  Mo185  1  0.11262054  0.90829782  0.12197918  1
  Mo  Mo186  1  0.69061465  0.51187035  0.14529232  1
  Mo  Mo187  1  0.69484658  0.09728860  0.10683183  1
  Mo  Mo188  1  0.50473156  0.29821249  0.61341139  1
  Mo  Mo189  1  0.49728245  0.29389975  0.14246811  1
  Mo  Mo190  1  0.50006817  0.70218152  0.36844345  1
  Mo  Mo191  1  0.70415357  0.09351928  0.38708036  1
  Mo  Mo192  1  0.09508245  0.89453875  0.62452115  1
  Mo  Mo193  1  0.79362068  -0.00086884  0.00080588  1
  Mo  Mo194  1  0.78937928  0.39408365  0.24133267  1
  Mo  Mo195  1  0.39411728  -0.01005104  0.48837547  1
  Mo  Mo196  1  0.89678243  0.30293979  0.36239253  1
  Mo  Mo197  1  0.60152963  0.60369452  0.25751361  1
  Mo  Mo198  1  0.20153685  0.80851773  0.22907227  1
  Mo  Mo199  1  0.19674145  0.79870344  0.51802390  1
