# generated using pymatgen
data_HfZrTaTiMo
_symmetry_space_group_name_H-M   'P 1'
_cell_length_a   15.94357818
_cell_length_b   15.93283275
_cell_length_c   15.20993520
_cell_angle_alpha   89.99039930
_cell_angle_beta   89.99508979
_cell_angle_gamma   90.01793569
_symmetry_Int_Tables_number   1
_chemical_formula_structural   HfZrTaTiMo
_chemical_formula_sum   'Hf40 Zr40 Ta40 Ti40 Mo40'
_cell_volume   3863.72428705
_cell_formula_units_Z   40
loop_
 _symmetry_equiv_pos_site_id
 _symmetry_equiv_pos_as_xyz
  1  'x, y, z'
loop_
 _atom_site_type_symbol
 _atom_site_label
 _atom_site_symmetry_multiplicity
 _atom_site_fract_x
 _atom_site_fract_y
 _atom_site_fract_z
 _atom_site_occupancy
  Hf  Hf0  1  0.79610810  0.38972597  0.25527658  1
  Hf  Hf1  1  0.50846035  0.49009437  0.63822789  1
  Hf  Hf2  1  0.89371951  0.30749887  0.87561500  1
  Hf  Hf3  1  0.58869236  0.40006431  0.26219088  1
  Hf  Hf4  1  0.00599988  0.59976412  0.25061583  1
  Hf  Hf5  1  0.20523688  0.00128106  0.50001415  1
  Hf  Hf6  1  0.68765494  0.30404733  0.11699876  1
  Hf  Hf7  1  0.00711904  0.19321099  -0.01072419  1
  Hf  Hf8  1  0.60767255  0.20169904  0.74914186  1
  Hf  Hf9  1  0.70035084  0.88943253  0.60559085  1
  Hf  Hf10  1  0.61164190  0.38898954  0.76255065  1
  Hf  Hf11  1  0.00766213  -0.01003443  -0.00962279  1
  Hf  Hf12  1  0.89497027  0.09442092  0.86911750  1
  Hf  Hf13  1  -0.00075267  0.20587540  0.74988824  1
  Hf  Hf14  1  0.70344499  0.69207138  0.89189781  1
  Hf  Hf15  1  0.00574398  0.00400418  0.26061789  1
  Hf  Hf16  1  0.29957324  0.29456697  0.12552393  1
  Hf  Hf17  1  0.69623746  0.89711279  0.12089634  1
  Hf  Hf18  1  0.11586928  0.09136539  0.86104599  1
  Hf  Hf19  1  0.89475552  0.88561890  0.60282541  1
  Hf  Hf20  1  0.20061186  0.40196448  0.26669005  1
  Hf  Hf21  1  0.88316377  0.47061739  0.62855726  1
  Hf  Hf22  1  0.39322688  0.38582022  -0.03292050  1
  Hf  Hf23  1  0.88873918  0.89693342  0.37820558  1
  Hf  Hf24  1  0.89346423  0.10374543  0.62857189  1
  Hf  Hf25  1  0.80986081  0.21023967  0.48027618  1
  Hf  Hf26  1  0.20191144  0.59128057  -0.02216644  1
  Hf  Hf27  1  0.40423101  0.00928848  0.51353209  1
  Hf  Hf28  1  0.50577722  0.90061969  0.37949688  1
  Hf  Hf29  1  0.10085305  0.10946646  0.61996400  1
  Hf  Hf30  1  0.00369196  0.79866895  0.26016413  1
  Hf  Hf31  1  0.79879770  0.79366090  0.24743947  1
  Hf  Hf32  1  0.70968685  0.88864443  0.90118030  1
  Hf  Hf33  1  0.70394055  0.09731999  0.87742046  1
  Hf  Hf34  1  0.29497774  0.30233512  0.62531424  1
  Hf  Hf35  1  0.18485498  0.20559522  0.27033612  1
  Hf  Hf36  1  0.19307171  0.81238591  -0.01596958  1
  Hf  Hf37  1  0.89533511  0.49835753  0.37364630  1
  Hf  Hf38  1  0.48812711  0.30245864  0.11989105  1
  Hf  Hf39  1  0.79936884  0.19600520  0.00993793  1
  Zr  Zr40  1  0.50272139  0.50673529  0.38575340  1
  Zr  Zr41  1  0.72239438  0.31686141  0.61665315  1
  Zr  Zr42  1  0.40082044  0.79741829  0.24350269  1
  Zr  Zr43  1  0.19931503  0.59810868  0.25005192  1
  Zr  Zr44  1  0.40299868  0.80870451  0.75247696  1
  Zr  Zr45  1  0.49504222  0.10846279  0.12024171  1
  Zr  Zr46  1  0.10770874  0.30150903  0.11084671  1
  Zr  Zr47  1  0.79943879  0.41165356  0.00547267  1
  Zr  Zr48  1  0.91416790  0.29699337  0.12943995  1
  Zr  Zr49  1  0.10320748  0.49922224  0.40289392  1
  Zr  Zr50  1  0.40132680  0.60954945  0.52522249  1
  Zr  Zr51  1  0.09427048  0.90285627  0.62623756  1
  Zr  Zr52  1  -0.00561188  0.58607293  -0.00243693  1
  Zr  Zr53  1  0.09013346  0.70019314  0.87384143  1
  Zr  Zr54  1  0.30159749  0.69354034  0.37949000  1
  Zr  Zr55  1  -0.00221580  0.00555871  0.48347096  1
  Zr  Zr56  1  0.60696265  0.80637235  0.76646409  1
  Zr  Zr57  1  -0.00974593  0.59645714  0.74543964  1
  Zr  Zr58  1  -0.02315688  0.80641549  0.76416562  1
  Zr  Zr59  1  0.30696557  0.90059402  0.37051646  1
  Zr  Zr60  1  0.60631083  0.19740199  0.50348755  1
  Zr  Zr61  1  0.39584169  0.80110799  0.51853804  1
  Zr  Zr62  1  0.09050775  0.70400872  0.62790425  1
  Zr  Zr63  1  0.50039908  0.90136616  0.11409448  1
  Zr  Zr64  1  0.39866603  0.61427993  0.75188984  1
  Zr  Zr65  1  0.51675455  0.90843995  0.61537308  1
  Zr  Zr66  1  0.60983173  0.60675462  0.51535847  1
  Zr  Zr67  1  0.50218561  0.69224388  0.11597652  1
  Zr  Zr68  1  0.80048452  -0.02499778  0.75180216  1
  Zr  Zr69  1  -0.01397144  0.59767727  0.51705845  1
  Zr  Zr70  1  0.19545050  0.00161482  0.25745025  1
  Zr  Zr71  1  0.30411394  0.49053403  0.11705823  1
  Zr  Zr72  1  0.49506320  0.10090106  0.87114590  1
  Zr  Zr73  1  0.40901812  0.39687906  0.51485668  1
  Zr  Zr74  1  0.29681443  0.69779128  0.11523249  1
  Zr  Zr75  1  0.31567640  0.11470237  0.37655605  1
  Zr  Zr76  1  0.60354935  0.20059798  0.25905476  1
  Zr  Zr77  1  0.50555895  0.49891910  0.86795531  1
  Zr  Zr78  1  0.39405438  0.80413272  -0.02348646  1
  Zr  Zr79  1  0.19120992  0.80023146  0.25058625  1
  Ta  Ta80  1  0.61092320  0.60488207  0.74428597  1
  Ta  Ta81  1  0.29721577  0.30257978  0.39893950  1
  Ta  Ta82  1  0.01205632  0.38958624  0.26431566  1
  Ta  Ta83  1  0.79725799  0.60776957  0.73585592  1
  Ta  Ta84  1  0.29343188  0.49941307  0.63706120  1
  Ta  Ta85  1  0.39455953  0.39588934  0.26741196  1
  Ta  Ta86  1  0.80787879  0.00097385  0.01518911  1
  Ta  Ta87  1  0.90349194  0.70104676  0.11867416  1
  Ta  Ta88  1  0.30063451  0.10804629  0.63460794  1
  Ta  Ta89  1  0.60311769  -0.00112842  0.25378342  1
  Ta  Ta90  1  0.28955586  0.92097831  0.86141391  1
  Ta  Ta91  1  0.29829595  0.91037322  0.12125237  1
  Ta  Ta92  1  0.20242269  0.80347774  0.75157834  1
  Ta  Ta93  1  0.40524452  0.58623170  0.25031710  1
  Ta  Ta94  1  0.00378955  0.39774229  0.75325248  1
  Ta  Ta95  1  0.09525218  0.30696070  0.61004626  1
  Ta  Ta96  1  0.60278237  0.79645784  0.25429049  1
  Ta  Ta97  1  0.30014320  0.10915907  0.13063924  1
  Ta  Ta98  1  -0.00135445  -0.00510930  0.75483359  1
  Ta  Ta99  1  0.20300284  0.00789522  0.00436576  1
  Ta  Ta100  1  -0.00159615  0.19983522  0.47800840  1
  Ta  Ta101  1  0.09985259  0.70180180  0.39790624  1
  Ta  Ta102  1  0.30176661  0.49950989  0.39630821  1
  Ta  Ta103  1  0.20277494  0.80285129  0.51377680  1
  Ta  Ta104  1  0.10409074  0.10486799  0.12183297  1
  Ta  Ta105  1  0.38787247  0.00822282  -0.00766877  1
  Ta  Ta106  1  0.40336634  0.00215463  0.74424997  1
  Ta  Ta107  1  0.90597223  0.89530535  0.12185690  1
  Ta  Ta108  1  0.39446063  0.59515060  -0.02293928  1
  Ta  Ta109  1  0.48846964  0.28738363  0.38647507  1
  Ta  Ta110  1  0.60175534  0.58685867  0.00521021  1
  Ta  Ta111  1  0.69979717  0.50676616  0.36479685  1
  Ta  Ta112  1  0.68905552  0.50291278  0.13864402  1
  Ta  Ta113  1  0.09369769  0.70053005  0.10755586  1
  Ta  Ta114  1  0.79097082  0.59151422  0.51287557  1
  Ta  Ta115  1  0.10134223  0.49320726  0.12072068  1
  Ta  Ta116  1  0.59207926  0.21338536  -0.01742394  1
  Ta  Ta117  1  0.30157159  0.10821388  0.85503382  1
  Ta  Ta118  1  0.50475225  0.69924681  0.37190303  1
  Ta  Ta119  1  0.88364461  0.70793906  0.89603404  1
  Ti  Ti120  1  0.10202103  0.49035730  0.62472064  1
  Ti  Ti121  1  0.21567177  0.20009689  -0.01504432  1
  Ti  Ti122  1  0.79975087  0.60068726  0.23903553  1
  Ti  Ti123  1  0.79985756  0.59362199  0.01941989  1
  Ti  Ti124  1  0.70640846  0.09601329  0.36453582  1
  Ti  Ti125  1  0.19594602  0.21029890  0.74672620  1
  Ti  Ti126  1  0.19794110  0.59858326  0.75614403  1
  Ti  Ti127  1  0.09914004  0.89900046  0.12224480  1
  Ti  Ti128  1  0.50432710  0.10736063  0.63146931  1
  Ti  Ti129  1  0.49919794  0.10150397  0.37171472  1
  Ti  Ti130  1  0.91143260  0.09860847  0.13374688  1
  Ti  Ti131  1  0.89677075  0.69178368  0.37961326  1
  Ti  Ti132  1  0.80425515  0.19509864  0.25066426  1
  Ti  Ti133  1  0.59641101  0.00263861  -0.00455647  1
  Ti  Ti134  1  0.79581681  0.21548507  0.75135239  1
  Ti  Ti135  1  0.20578082  0.60595481  0.52294691  1
  Ti  Ti136  1  0.49681777  0.49175074  0.11444146  1
  Ti  Ti137  1  0.69490577  0.69826327  0.12011094  1
  Ti  Ti138  1  0.20280158  0.40393824  -0.02672995  1
  Ti  Ti139  1  0.51067448  0.70059014  0.88534424  1
  Ti  Ti140  1  0.10548408  0.30112651  0.87495472  1
  Ti  Ti141  1  0.70714238  0.50118371  0.87419128  1
  Ti  Ti142  1  0.40506930  0.00630313  0.24266583  1
  Ti  Ti143  1  0.60104201  -0.00484545  0.75851785  1
  Ti  Ti144  1  0.79721928  0.01278947  0.49161275  1
  Ti  Ti145  1  0.60944694  0.00914296  0.48890137  1
  Ti  Ti146  1  0.69233515  0.09849594  0.12340365  1
  Ti  Ti147  1  0.40857026  0.21724084  0.74557851  1
  Ti  Ti148  1  0.70377539  0.09197385  0.63046518  1
  Ti  Ti149  1  0.69881174  0.89768880  0.37658924  1
  Ti  Ti150  1  0.52163813  0.71712853  0.62561365  1
  Ti  Ti151  1  0.00829734  0.40647896  -0.01499252  1
  Ti  Ti152  1  0.69316156  0.68694892  0.36134449  1
  Ti  Ti153  1  0.90728053  0.49399475  0.13817694  1
  Ti  Ti154  1  0.89223634  0.50619249  0.86694394  1
  Ti  Ti155  1  0.79964802  0.00144877  0.23986895  1
  Ti  Ti156  1  0.19732553  0.40230296  0.75721638  1
  Ti  Ti157  1  0.78835930  0.77587116  0.48779356  1
  Ti  Ti158  1  0.61356274  0.39878145  0.49519544  1
  Ti  Ti159  1  -0.01978481  0.38120528  0.49271706  1
  Mo  Mo160  1  0.39767761  0.39823603  0.74843086  1
  Mo  Mo161  1  0.90286280  0.29639910  0.35303280  1
  Mo  Mo162  1  0.29952968  0.90631785  0.63922708  1
  Mo  Mo163  1  0.10035798  0.30290546  0.39724972  1
  Mo  Mo164  1  0.20261138  0.00415635  0.73190153  1
  Mo  Mo165  1  0.79618093  0.40166845  0.47598470  1
  Mo  Mo166  1  0.29596901  0.70250581  0.86248034  1
  Mo  Mo167  1  0.90791002  0.29462643  0.63153828  1
  Mo  Mo168  1  0.80210810  0.40483455  0.77058742  1
  Mo  Mo169  1  0.80021748  0.79414368  0.02748713  1
  Mo  Mo170  1  0.70025522  0.49966795  0.63403240  1
  Mo  Mo171  1  0.89714876  0.89410024  0.89835628  1
  Mo  Mo172  1  0.59778424  0.79270564  -0.00225366  1
  Mo  Mo173  1  0.00272210  0.19546840  0.26113695  1
  Mo  Mo174  1  0.39590780  0.20878912  0.25702310  1
  Mo  Mo175  1  -0.00137659  0.80122761  -0.00140631  1
  Mo  Mo176  1  0.89320253  0.09891658  0.35439234  1
  Mo  Mo177  1  0.60675187  0.79592568  0.47526817  1
  Mo  Mo178  1  0.69597872  0.30415267  0.37938042  1
  Mo  Mo179  1  0.49914504  0.90916416  0.88670233  1
  Mo  Mo180  1  0.59570711  0.59969759  0.23755066  1
  Mo  Mo181  1  0.10398237  0.10216735  0.38802855  1
  Mo  Mo182  1  0.28716489  0.70219343  0.64179381  1
  Mo  Mo183  1  0.29758296  0.49861001  0.85157164  1
  Mo  Mo184  1  0.10097510  0.89177496  0.39198573  1
  Mo  Mo185  1  0.59790134  0.40259695  -0.00976688  1
  Mo  Mo186  1  -0.00234808  0.79744271  0.48322524  1
  Mo  Mo187  1  0.09578713  0.49124405  0.86246383  1
  Mo  Mo188  1  0.79939986  0.78866828  0.74975771  1
  Mo  Mo189  1  0.10195401  0.90576975  0.86134215  1
  Mo  Mo190  1  0.40708108  0.19897761  0.52345082  1
  Mo  Mo191  1  0.20097862  0.40727764  0.51121987  1
  Mo  Mo192  1  0.50617394  0.29583964  0.62703108  1
  Mo  Mo193  1  0.19848120  0.20347591  0.49962451  1
  Mo  Mo194  1  0.70390228  0.70791642  0.63034112  1
  Mo  Mo195  1  0.29348035  0.29566625  0.85198714  1
  Mo  Mo196  1  0.39058437  0.19624274  -0.01650787  1
  Mo  Mo197  1  0.88797136  0.70315365  0.61195715  1
  Mo  Mo198  1  0.70139937  0.30032520  0.89066144  1
  Mo  Mo199  1  0.49723430  0.29699358  0.86490793  1
