# generated using pymatgen
data_HfZrTaTiMo
_symmetry_space_group_name_H-M   'P 1'
_cell_length_a   15.94172662
_cell_length_b   15.93100660
_cell_length_c   15.17892452
_cell_angle_alpha   90.11753118
_cell_angle_beta   89.93054481
_cell_angle_gamma   89.94934307
_symmetry_Int_Tables_number   1
_chemical_formula_structural   HfZrTaTiMo
_chemical_formula_sum   'Hf40 Zr40 Ta40 Ti40 Mo40'
_cell_volume   3854.94488200
_cell_formula_units_Z   40
loop_
 _symmetry_equiv_pos_site_id
 _symmetry_equiv_pos_as_xyz
  1  'x, y, z'
loop_
 _atom_site_type_symbol
 _atom_site_label
 _atom_site_symmetry_multiplicity
 _atom_site_fract_x
 _atom_site_fract_y
 _atom_site_fract_z
 _atom_site_occupancy
  Hf  Hf0  1  0.29577738  0.91215761  0.12262291  1
  Hf  Hf1  1  0.59367858  0.19552094  0.00274678  1
  Hf  Hf2  1  0.40210894  0.01021384  0.00061541  1
  Hf  Hf3  1  0.60012689  0.41059335  0.24723305  1
  Hf  Hf4  1  0.29921183  0.08319252  0.35738412  1
  Hf  Hf5  1  0.00696395  -0.00141051  0.23689152  1
  Hf  Hf6  1  0.90428976  0.69022773  0.35052054  1
  Hf  Hf7  1  0.69751706  0.10126130  0.12495736  1
  Hf  Hf8  1  0.81290478  0.60157021  0.50275510  1
  Hf  Hf9  1  0.10242244  0.30607481  0.62685614  1
  Hf  Hf10  1  0.59185553  0.79587496  0.25050575  1
  Hf  Hf11  1  0.19493175  0.18708936  0.49863182  1
  Hf  Hf12  1  0.90739218  0.50748152  0.13994809  1
  Hf  Hf13  1  0.60386437  0.39594728  0.72705403  1
  Hf  Hf14  1  0.90381817  0.10543281  0.36229359  1
  Hf  Hf15  1  0.29987561  0.48927748  0.61893929  1
  Hf  Hf16  1  0.61275175  0.59108201  0.02291057  1
  Hf  Hf17  1  0.69805248  0.90086348  0.12136907  1
  Hf  Hf18  1  0.09836423  0.30370998  0.39015573  1
  Hf  Hf19  1  0.90007835  0.89560995  0.11719995  1
  Hf  Hf20  1  0.68795641  0.31585006  0.89080892  1
  Hf  Hf21  1  0.80439800  0.80639439  0.48887733  1
  Hf  Hf22  1  0.60209611  0.00023070  0.76697070  1
  Hf  Hf23  1  0.60811635  0.20144772  0.49706304  1
  Hf  Hf24  1  0.48714179  0.09650931  0.36844748  1
  Hf  Hf25  1  0.40865269  0.59820804  0.24290776  1
  Hf  Hf26  1  0.29317803  0.29941355  0.62625933  1
  Hf  Hf27  1  0.19560112  0.58933700  -0.01251955  1
  Hf  Hf28  1  0.40442796  0.59518706  0.74826405  1
  Hf  Hf29  1  0.60050170  0.81101666  0.48534159  1
  Hf  Hf30  1  0.29642368  0.49348820  0.11695365  1
  Hf  Hf31  1  0.30043291  0.70455155  0.36732966  1
  Hf  Hf32  1  0.70656473  0.70956451  0.62049643  1
  Hf  Hf33  1  0.00445788  0.59847919  0.49827023  1
  Hf  Hf34  1  0.18915761  0.40627045  0.25483631  1
  Hf  Hf35  1  0.19596302  0.79425693  0.23074166  1
  Hf  Hf36  1  0.20288119  0.61541594  0.51883034  1
  Hf  Hf37  1  0.40303077  0.40464815  0.25314360  1
  Hf  Hf38  1  0.79477232  -0.00412889  0.76642706  1
  Hf  Hf39  1  0.90483667  0.69971719  0.13153597  1
  Zr  Zr40  1  0.30034085  0.29568567  0.38075884  1
  Zr  Zr41  1  0.30301669  0.69762737  0.87716370  1
  Zr  Zr42  1  0.59875889  0.81209473  0.75345983  1
  Zr  Zr43  1  -0.00674024  -0.00180899  0.76414019  1
  Zr  Zr44  1  0.50076247  0.70339380  0.61644164  1
  Zr  Zr45  1  0.00239309  0.40728819  -0.01572469  1
  Zr  Zr46  1  0.79030121  0.20842630  0.75442957  1
  Zr  Zr47  1  0.60257464  0.59159066  0.73443411  1
  Zr  Zr48  1  0.29802315  0.28686185  0.11657127  1
  Zr  Zr49  1  0.00203805  -0.00133081  0.49984677  1
  Zr  Zr50  1  0.49297707  0.09563942  0.62202036  1
  Zr  Zr51  1  0.60322663  -0.00782151  0.48786236  1
  Zr  Zr52  1  0.52037127  0.49364416  0.88773402  1
  Zr  Zr53  1  0.19166714  -0.01466197  0.51589675  1
  Zr  Zr54  1  -0.00047672  0.60041564  0.75186767  1
  Zr  Zr55  1  0.69985298  0.69539346  0.36962427  1
  Zr  Zr56  1  0.29449818  0.89784690  0.36817841  1
  Zr  Zr57  1  0.50000148  0.29881899  0.37639797  1
  Zr  Zr58  1  0.29083643  0.50920185  0.37967463  1
  Zr  Zr59  1  0.00655682  0.20309482  0.76929365  1
  Zr  Zr60  1  0.40172563  0.39958149  0.76452185  1
  Zr  Zr61  1  0.69996095  0.68846516  0.87216742  1
  Zr  Zr62  1  0.70438472  0.09534291  0.62234990  1
  Zr  Zr63  1  0.59908419  -0.00600988  0.26092374  1
  Zr  Zr64  1  0.18673580  0.00214861  0.75803147  1
  Zr  Zr65  1  0.00467295  0.20475004  -0.00529624  1
  Zr  Zr66  1  0.48894727  0.30143529  0.60979346  1
  Zr  Zr67  1  0.40720823  -0.00693511  0.76491512  1
  Zr  Zr68  1  -0.00352718  -0.00145907  -0.00619072  1
  Zr  Zr69  1  0.89953054  0.89290408  0.62871777  1
  Zr  Zr70  1  0.49557666  0.29659288  0.12357367  1
  Zr  Zr71  1  0.59660295  0.20467318  0.75333594  1
  Zr  Zr72  1  0.29664873  0.89727568  0.88255560  1
  Zr  Zr73  1  0.00608942  0.20842306  0.23915024  1
  Zr  Zr74  1  0.19858320  0.59359589  0.75191299  1
  Zr  Zr75  1  0.90543832  0.30597856  0.62597502  1
  Zr  Zr76  1  0.01023213  0.80122761  0.48726210  1
  Zr  Zr77  1  0.89656670  0.30538027  0.12152815  1
  Zr  Zr78  1  0.79928901  -0.00141373  0.48819127  1
  Zr  Zr79  1  0.29742741  0.10063034  0.64026773  1
  Ta  Ta80  1  0.39769537  0.20541069  0.77082233  1
  Ta  Ta81  1  0.28983987  0.10845860  0.88515203  1
  Ta  Ta82  1  0.09615270  0.88840754  0.88549463  1
  Ta  Ta83  1  -0.00342064  0.60065648  -0.01238598  1
  Ta  Ta84  1  0.80641791  0.60065375  0.73344655  1
  Ta  Ta85  1  0.10430077  0.09468817  0.36445159  1
  Ta  Ta86  1  0.09581695  0.71635079  0.63262516  1
  Ta  Ta87  1  0.40277438  0.39770642  -0.00834106  1
  Ta  Ta88  1  0.50140689  0.70079166  0.88673570  1
  Ta  Ta89  1  0.60233309  0.20232462  0.25173498  1
  Ta  Ta90  1  0.38655675  0.79749246  0.51043078  1
  Ta  Ta91  1  0.71006018  0.49281706  0.60582278  1
  Ta  Ta92  1  0.09521960  0.68995391  0.11769787  1
  Ta  Ta93  1  -0.00034338  0.40506216  0.26807315  1
  Ta  Ta94  1  0.79382957  0.00219400  -0.00755700  1
  Ta  Ta95  1  0.29795140  0.89073126  0.63393293  1
  Ta  Ta96  1  0.59769946  0.59824758  0.24116215  1
  Ta  Ta97  1  0.00945348  0.79924020  0.24859945  1
  Ta  Ta98  1  0.80281975  0.80146935  0.76196350  1
  Ta  Ta99  1  0.80551898  0.20571949  0.49414919  1
  Ta  Ta100  1  0.80496405  0.40230333  0.26041602  1
  Ta  Ta101  1  0.79863258  0.79461851  -0.00360397  1
  Ta  Ta102  1  0.49716651  0.70078862  0.11455201  1
  Ta  Ta103  1  0.11832578  0.09795647  0.11280769  1
  Ta  Ta104  1  0.89239591  0.10167172  0.11959176  1
  Ta  Ta105  1  0.80116568  0.60016137  0.01460627  1
  Ta  Ta106  1  0.81404677  0.40194854  0.48183295  1
  Ta  Ta107  1  0.40373236  0.79692097  0.75004363  1
  Ta  Ta108  1  0.79772318  0.40719797  0.74612473  1
  Ta  Ta109  1  0.19589159  0.79336552  0.00580970  1
  Ta  Ta110  1  0.70421007  0.50361525  0.37293505  1
  Ta  Ta111  1  0.70449854  0.30205039  0.37306681  1
  Ta  Ta112  1  0.49969125  0.90281628  0.11546420  1
  Ta  Ta113  1  0.60183609  0.79557948  0.00510584  1
  Ta  Ta114  1  0.19963162  0.19704431  0.24597334  1
  Ta  Ta115  1  0.90106565  0.10453194  0.62899290  1
  Ta  Ta116  1  0.89027504  0.10594382  0.88459630  1
  Ta  Ta117  1  0.79174850  0.41566506  0.00871698  1
  Ta  Ta118  1  -0.00426982  0.19734905  0.49841533  1
  Ta  Ta119  1  0.90837406  0.49332414  0.62542410  1
  Ti  Ti120  1  0.00323188  0.40515031  0.76778113  1
  Ti  Ti121  1  0.29995671  0.69308623  0.11891837  1
  Ti  Ti122  1  0.79910071  0.20772768  0.25078323  1
  Ti  Ti123  1  0.09512868  0.70376678  0.87818458  1
  Ti  Ti124  1  0.88919638  0.50572576  0.87157319  1
  Ti  Ti125  1  0.89728998  0.70136600  0.87960606  1
  Ti  Ti126  1  0.40459855  0.59318422  -0.00023337  1
  Ti  Ti127  1  0.80122703  0.00009380  0.24764304  1
  Ti  Ti128  1  -0.00606472  0.80127587  0.76064976  1
  Ti  Ti129  1  0.90336605  0.89859139  0.35769024  1
  Ti  Ti130  1  0.59681248  0.59377233  0.49716886  1
  Ti  Ti131  1  0.48559255  0.10319214  0.13723829  1
  Ti  Ti132  1  0.09942055  0.49739914  0.11744202  1
  Ti  Ti133  1  0.40219638  0.80017451  0.23670177  1
  Ti  Ti134  1  0.19811263  0.79775945  0.75065573  1
  Ti  Ti135  1  0.40096639  0.79846119  0.00178270  1
  Ti  Ti136  1  0.70810769  0.50117947  0.87128405  1
  Ti  Ti137  1  0.11530841  0.69853249  0.37080938  1
  Ti  Ti138  1  0.49515361  0.90369380  0.61527211  1
  Ti  Ti139  1  0.79447075  0.20438087  -0.00233002  1
  Ti  Ti140  1  0.29374123  0.29871988  0.88945503  1
  Ti  Ti141  1  0.47332206  0.90195197  0.37520778  1
  Ti  Ti142  1  0.39237593  0.18740423  0.49758957  1
  Ti  Ti143  1  0.10882841  0.30779310  0.11376223  1
  Ti  Ti144  1  0.40825651  0.41388831  0.48853433  1
  Ti  Ti145  1  0.09952958  0.48660666  0.61679074  1
  Ti  Ti146  1  0.49917772  0.10439631  0.88118651  1
  Ti  Ti147  1  0.10976231  0.90120632  0.36303655  1
  Ti  Ti148  1  0.49303567  0.69831302  0.37893168  1
  Ti  Ti149  1  0.60463188  0.40511759  0.49395995  1
  Ti  Ti150  1  0.70074975  0.30491018  0.12746527  1
  Ti  Ti151  1  0.19673581  0.40156776  0.77433839  1
  Ti  Ti152  1  0.40261263  0.60176357  0.50630648  1
  Ti  Ti153  1  0.88829834  0.30983604  0.87772767  1
  Ti  Ti154  1  0.70422380  0.10450099  0.36538630  1
  Ti  Ti155  1  0.69424934  0.89870257  0.89284456  1
  Ti  Ti156  1  0.09270922  0.10597984  0.63334509  1
  Ti  Ti157  1  0.02894656  0.59043620  0.26161021  1
  Ti  Ti158  1  0.09860563  0.89575786  0.10891800  1
  Ti  Ti159  1  0.79572599  0.80085767  0.24671961  1
  Mo  Mo160  1  0.71244988  0.90003431  0.35107022  1
  Mo  Mo161  1  0.50299780  0.49888282  0.60279869  1
  Mo  Mo162  1  0.60612331  0.39997673  0.02257008  1
  Mo  Mo163  1  0.19180689  -0.00108960  0.23420930  1
  Mo  Mo164  1  0.19872899  0.20085963  -0.00392823  1
  Mo  Mo165  1  0.50134888  0.89258647  0.89881807  1
  Mo  Mo166  1  0.70863237  0.30985912  0.59790626  1
  Mo  Mo167  1  -0.00155444  0.40480411  0.48852215  1
  Mo  Mo168  1  0.30006704  0.70277010  0.63829496  1
  Mo  Mo169  1  0.79183158  0.59975006  0.24076002  1
  Mo  Mo170  1  0.09565798  0.50058034  0.87231815  1
  Mo  Mo171  1  0.89306368  0.89108322  0.88582674  1
  Mo  Mo172  1  0.39577509  -0.01090683  0.51130300  1
  Mo  Mo173  1  0.10247319  0.50423602  0.38958228  1
  Mo  Mo174  1  0.19599903  -0.00138121  -0.00516218  1
  Mo  Mo175  1  0.30197984  0.10369265  0.12731749  1
  Mo  Mo176  1  0.20017725  0.20728319  0.76636466  1
  Mo  Mo177  1  0.19738944  0.79855214  0.51231284  1
  Mo  Mo178  1  0.49807002  0.50002576  0.11263372  1
  Mo  Mo179  1  0.70252898  0.70326672  0.13156208  1
  Mo  Mo180  1  0.30274908  0.49342408  0.88658468  1
  Mo  Mo181  1  0.19862936  0.60128792  0.23316779  1
  Mo  Mo182  1  0.00059534  0.79068636  -0.00334260  1
  Mo  Mo183  1  0.39781617  0.19590345  0.25535203  1
  Mo  Mo184  1  0.19895542  0.39804392  -0.00973444  1
  Mo  Mo185  1  0.40136598  -0.00485612  0.22971728  1
  Mo  Mo186  1  0.70810863  0.49823003  0.14433843  1
  Mo  Mo187  1  0.50589754  0.51293164  0.38632849  1
  Mo  Mo188  1  0.90330328  0.50427821  0.36360273  1
  Mo  Mo189  1  0.90102603  0.29841354  0.37321254  1
  Mo  Mo190  1  0.40003391  0.20041319  -0.01488529  1
  Mo  Mo191  1  0.09969746  0.89238760  0.64859809  1
  Mo  Mo192  1  0.69685678  0.89566742  0.63716467  1
  Mo  Mo193  1  0.69852010  0.10369936  0.89109655  1
  Mo  Mo194  1  0.90485184  0.69987408  0.63688916  1
  Mo  Mo195  1  0.10909451  0.30069889  0.87285992  1
  Mo  Mo196  1  0.59620421  -0.00114736  -0.00582653  1
  Mo  Mo197  1  0.49793288  0.29766116  0.88518035  1
  Mo  Mo198  1  0.19925753  0.40533361  0.49974350  1
  Mo  Mo199  1  0.10294291  0.09913467  0.89191885  1
