# generated using pymatgen
data_HfZrTaTiMo
_symmetry_space_group_name_H-M   'P 1'
_cell_length_a   15.92597400
_cell_length_b   15.91663093
_cell_length_c   15.19837522
_cell_angle_alpha   89.97508167
_cell_angle_beta   90.02215367
_cell_angle_gamma   90.01229151
_symmetry_Int_Tables_number   1
_chemical_formula_structural   HfZrTaTiMo
_chemical_formula_sum   'Hf40 Zr40 Ta40 Ti40 Mo40'
_cell_volume   3852.60272464
_cell_formula_units_Z   40
loop_
 _symmetry_equiv_pos_site_id
 _symmetry_equiv_pos_as_xyz
  1  'x, y, z'
loop_
 _atom_site_type_symbol
 _atom_site_label
 _atom_site_symmetry_multiplicity
 _atom_site_fract_x
 _atom_site_fract_y
 _atom_site_fract_z
 _atom_site_occupancy
  Hf  Hf0  1  0.88909482  0.09409079  0.87488927  1
  Hf  Hf1  1  0.00993703  0.40107664  0.25573871  1
  Hf  Hf2  1  0.10183324  0.09621781  0.62330434  1
  Hf  Hf3  1  0.79371407  -0.00330355  0.49255072  1
  Hf  Hf4  1  0.69771285  0.09812577  0.14243073  1
  Hf  Hf5  1  0.00062274  -0.00436000  0.24827020  1
  Hf  Hf6  1  0.50277263  0.08838030  0.61920101  1
  Hf  Hf7  1  0.90067903  0.70930397  0.60838431  1
  Hf  Hf8  1  0.69899351  0.90003710  0.35865779  1
  Hf  Hf9  1  0.21387885  0.39895748  0.74564145  1
  Hf  Hf10  1  0.49802424  0.30426367  0.12274806  1
  Hf  Hf11  1  -0.00012925  0.20059571  0.75130688  1
  Hf  Hf12  1  0.39710982  0.20468300  -0.01421122  1
  Hf  Hf13  1  0.00845447  0.42051444  0.48892720  1
  Hf  Hf14  1  0.59442501  0.20428352  0.27068838  1
  Hf  Hf15  1  0.08337342  0.08080158  0.87764025  1
  Hf  Hf16  1  0.70422386  0.30338667  0.86055683  1
  Hf  Hf17  1  0.89583393  0.29809668  0.12654781  1
  Hf  Hf18  1  0.00036657  0.78642675  0.24177959  1
  Hf  Hf19  1  0.10627382  0.09914005  0.37215045  1
  Hf  Hf20  1  0.80364947  0.40223528  0.25849847  1
  Hf  Hf21  1  0.19795283  -0.01072125  0.75112017  1
  Hf  Hf22  1  0.20605330  0.19802260  0.75901525  1
  Hf  Hf23  1  0.79495016  0.19758130  0.49662488  1
  Hf  Hf24  1  0.59394438  0.60512969  0.01520732  1
  Hf  Hf25  1  0.50794857  0.88302439  0.87419017  1
  Hf  Hf26  1  0.79873210  0.40272327  0.00477748  1
  Hf  Hf27  1  0.00593820  0.79794898  0.01885408  1
  Hf  Hf28  1  0.69950462  0.30716409  0.62726281  1
  Hf  Hf29  1  0.90273147  0.30529022  0.62361648  1
  Hf  Hf30  1  0.69327009  0.69586924  0.60336359  1
  Hf  Hf31  1  0.59608350  0.41742062  0.74204494  1
  Hf  Hf32  1  0.11245701  0.90154423  0.13967738  1
  Hf  Hf33  1  0.60285820  0.19825005  -0.01415809  1
  Hf  Hf34  1  0.39626449  -0.01047906  0.73873007  1
  Hf  Hf35  1  0.68801946  0.89788855  0.14398988  1
  Hf  Hf36  1  0.40582682  0.59373071  0.72958147  1
  Hf  Hf37  1  0.19900344  0.80205049  0.74860879  1
  Hf  Hf38  1  0.90410551  0.51193828  0.62027978  1
  Hf  Hf39  1  0.30641802  0.89752490  0.13611305  1
  Zr  Zr40  1  0.39485728  0.40414310  0.51534443  1
  Zr  Zr41  1  0.40256281  0.40245759  0.26623191  1
  Zr  Zr42  1  -0.00097556  0.20558095  -0.00194768  1
  Zr  Zr43  1  0.30771029  0.51812250  0.37927037  1
  Zr  Zr44  1  0.39162214  0.20391846  0.74498661  1
  Zr  Zr45  1  0.90353917  0.30134560  0.38005491  1
  Zr  Zr46  1  0.69890341  0.51569747  0.87446483  1
  Zr  Zr47  1  0.60283531  0.19491834  0.49592444  1
  Zr  Zr48  1  0.30986527  0.50521434  0.12915907  1
  Zr  Zr49  1  0.39838202  0.00335696  0.25919099  1
  Zr  Zr50  1  0.90646867  0.08145126  0.62644836  1
  Zr  Zr51  1  0.40533180  0.79757127  0.73142471  1
  Zr  Zr52  1  0.89943781  0.51053576  0.87693270  1
  Zr  Zr53  1  0.79845235  0.80086187  0.74209371  1
  Zr  Zr54  1  0.29168232  0.69489048  0.60759507  1
  Zr  Zr55  1  0.19609209  0.59721003  -0.00278784  1
  Zr  Zr56  1  0.49819205  0.09648450  0.12778340  1
  Zr  Zr57  1  0.10840151  0.10190135  0.12317780  1
  Zr  Zr58  1  0.89643773  0.09539518  0.12373511  1
  Zr  Zr59  1  0.28904186  0.30690743  0.12227941  1
  Zr  Zr60  1  0.59741907  0.40193957  -0.00173473  1
  Zr  Zr61  1  0.89117409  0.70543399  0.88315751  1
  Zr  Zr62  1  0.90913666  0.90647445  0.89332711  1
  Zr  Zr63  1  0.01257585  0.40608016  0.00408425  1
  Zr  Zr64  1  0.20823425  0.20652696  0.26016958  1
  Zr  Zr65  1  0.59550232  -0.01158733  0.00504159  1
  Zr  Zr66  1  0.00618550  0.19914204  0.49929121  1
  Zr  Zr67  1  0.89874221  0.69871560  0.37799894  1
  Zr  Zr68  1  0.31617671  0.69750437  0.87798267  1
  Zr  Zr69  1  0.69246861  0.50204871  0.14296234  1
  Zr  Zr70  1  0.69624529  0.08788154  0.64246352  1
  Zr  Zr71  1  0.00746327  0.60388955  0.01880464  1
  Zr  Zr72  1  0.68787158  0.50503781  0.37162024  1
  Zr  Zr73  1  0.20054090  -0.00104142  0.49514751  1
  Zr  Zr74  1  0.50118329  0.08632368  0.86410880  1
  Zr  Zr75  1  0.00605044  0.40884296  0.75713849  1
  Zr  Zr76  1  0.19931098  -0.01189860  -0.01409532  1
  Zr  Zr77  1  0.89826737  0.09429407  0.36572940  1
  Zr  Zr78  1  0.20119438  0.79169377  -0.00112559  1
  Zr  Zr79  1  0.39990721  0.20387007  0.27340856  1
  Ta  Ta80  1  0.79195102  0.60493950  0.73785784  1
  Ta  Ta81  1  0.79414079  0.20333217  0.26084593  1
  Ta  Ta82  1  0.20172488  0.40322142  -0.01726798  1
  Ta  Ta83  1  0.30865834  0.50270608  0.87178676  1
  Ta  Ta84  1  0.79865411  0.40994248  0.49856274  1
  Ta  Ta85  1  0.59737134  0.79882338  0.47790928  1
  Ta  Ta86  1  0.79661415  0.61017062  0.02180602  1
  Ta  Ta87  1  0.29816073  0.09807941  0.11616130  1
  Ta  Ta88  1  0.39558512  0.20026499  0.49689536  1
  Ta  Ta89  1  0.80055754  0.59630270  0.49008724  1
  Ta  Ta90  1  0.70127734  0.89580571  0.87771136  1
  Ta  Ta91  1  0.78934062  0.19831923  -0.00619823  1
  Ta  Ta92  1  0.89473531  0.89342425  0.37068155  1
  Ta  Ta93  1  0.10823417  0.30305232  0.62064709  1
  Ta  Ta94  1  0.10155993  0.69325748  0.37931300  1
  Ta  Ta95  1  0.69319397  0.89510540  0.60941178  1
  Ta  Ta96  1  0.20120429  0.40489881  0.50130868  1
  Ta  Ta97  1  0.39863865  0.79945525  0.48571101  1
  Ta  Ta98  1  0.69425404  0.70316090  0.14921584  1
  Ta  Ta99  1  0.79075863  -0.00279649  0.00651313  1
  Ta  Ta100  1  -0.00234374  0.81142133  0.74341280  1
  Ta  Ta101  1  0.09340262  0.70016044  0.61897117  1
  Ta  Ta102  1  0.08584275  0.90049610  0.61463504  1
  Ta  Ta103  1  0.39551929  0.78755683  0.26496426  1
  Ta  Ta104  1  0.69078114  0.71117532  0.88323733  1
  Ta  Ta105  1  0.50644165  0.69766270  0.87964856  1
  Ta  Ta106  1  0.10322993  0.30273196  0.87143869  1
  Ta  Ta107  1  0.00809340  0.20918412  0.24411529  1
  Ta  Ta108  1  0.20070034  0.20481535  -0.01325698  1
  Ta  Ta109  1  0.50222040  0.29971446  0.62615764  1
  Ta  Ta110  1  0.11991412  0.49024395  0.14555677  1
  Ta  Ta111  1  0.29698258  0.90100136  0.37360594  1
  Ta  Ta112  1  0.59668631  0.19895656  0.75208420  1
  Ta  Ta113  1  0.50484863  0.70228849  0.60125048  1
  Ta  Ta114  1  0.10494164  0.51070446  0.63044756  1
  Ta  Ta115  1  0.49697595  0.31026391  0.85990702  1
  Ta  Ta116  1  0.40013662  0.40529725  0.73683902  1
  Ta  Ta117  1  0.09193524  0.70134795  0.86143884  1
  Ta  Ta118  1  0.40169567  0.40796060  -0.00979200  1
  Ta  Ta119  1  0.51735967  0.51187281  0.60148512  1
  Ti  Ti120  1  0.70000360  0.70274057  0.36349146  1
  Ti  Ti121  1  0.30265969  0.08989201  0.88087646  1
  Ti  Ti122  1  0.40287039  -0.00960729  0.00713602  1
  Ti  Ti123  1  0.80081753  0.19869637  0.74932147  1
  Ti  Ti124  1  0.20415049  0.79169061  0.26192997  1
  Ti  Ti125  1  0.78890720  0.79759439  0.01832882  1
  Ti  Ti126  1  0.50760860  0.31916178  0.40031933  1
  Ti  Ti127  1  0.80850434  0.60426531  0.24931827  1
  Ti  Ti128  1  0.31266781  0.89150132  0.88068643  1
  Ti  Ti129  1  0.19030794  0.59355324  0.49610746  1
  Ti  Ti130  1  0.41795962  0.79652204  0.01755348  1
  Ti  Ti131  1  0.58858332  0.40406850  0.25216968  1
  Ti  Ti132  1  0.30278794  0.69789487  0.12784707  1
  Ti  Ti133  1  0.00096727  0.80632893  0.49141802  1
  Ti  Ti134  1  0.48657490  0.67962368  0.38089349  1
  Ti  Ti135  1  0.50784261  0.90061122  0.60413974  1
  Ti  Ti136  1  0.00482444  0.59470420  0.25018275  1
  Ti  Ti137  1  0.60162308  0.79976455  0.73666596  1
  Ti  Ti138  1  0.49470159  0.51168070  0.87567133  1
  Ti  Ti139  1  0.19489375  0.79792766  0.49068487  1
  Ti  Ti140  1  0.80614176  -0.01927112  0.74334752  1
  Ti  Ti141  1  0.80124617  0.41445282  0.74294965  1
  Ti  Ti142  1  0.60093766  0.61108659  0.74614835  1
  Ti  Ti143  1  0.20488125  0.60646578  0.25539517  1
  Ti  Ti144  1  0.30042752  0.89787723  0.60525429  1
  Ti  Ti145  1  0.89587662  0.30236451  0.87369446  1
  Ti  Ti146  1  -0.00297163  0.60947445  0.74987039  1
  Ti  Ti147  1  0.09944012  0.89764139  0.37041917  1
  Ti  Ti148  1  0.49677345  0.90227051  0.37671675  1
  Ti  Ti149  1  0.69979147  0.08593812  0.86108107  1
  Ti  Ti150  1  0.50041132  0.08596674  0.39239658  1
  Ti  Ti151  1  0.19984693  0.59905745  0.75228904  1
  Ti  Ti152  1  0.88687217  0.89754016  0.13425882  1
  Ti  Ti153  1  0.69652607  0.30829534  0.38283822  1
  Ti  Ti154  1  0.90247892  0.50278595  0.13015205  1
  Ti  Ti155  1  0.58064506  0.79354663  0.25945218  1
  Ti  Ti156  1  0.30095983  0.10008648  0.61170419  1
  Ti  Ti157  1  0.49564553  0.69378969  0.13692033  1
  Ti  Ti158  1  0.11200978  0.30314944  0.38513353  1
  Ti  Ti159  1  0.69651445  0.29611335  0.13047898  1
  Mo  Mo160  1  0.69534844  0.09711325  0.36000812  1
  Mo  Mo161  1  0.10770876  0.50883385  0.85532246  1
  Mo  Mo162  1  0.20100385  0.40297090  0.27245077  1
  Mo  Mo163  1  0.60517395  0.40154957  0.51134193  1
  Mo  Mo164  1  -0.00446871  -0.01014076  0.74205777  1
  Mo  Mo165  1  0.89982279  0.50706640  0.37501487  1
  Mo  Mo166  1  0.70295848  0.50816193  0.61838579  1
  Mo  Mo167  1  0.58618988  0.60614400  0.25785270  1
  Mo  Mo168  1  0.29745643  0.30404767  0.39370806  1
  Mo  Mo169  1  0.40545389  0.60148189  0.00992018  1
  Mo  Mo170  1  0.59117786  0.00181383  0.26423805  1
  Mo  Mo171  1  0.00054405  -0.01309604  0.47972653  1
  Mo  Mo172  1  -0.00722641  -0.00861251  0.02089075  1
  Mo  Mo173  1  0.39960260  0.60385025  0.51061631  1
  Mo  Mo174  1  0.60516686  -0.01817319  0.74981022  1
  Mo  Mo175  1  0.20723462  -0.00094669  0.26230545  1
  Mo  Mo176  1  0.89456611  0.69541603  0.13095657  1
  Mo  Mo177  1  0.00782403  0.60468058  0.49744584  1
  Mo  Mo178  1  0.29717329  0.29499713  0.61275537  1
  Mo  Mo179  1  0.29288492  0.50341680  0.62273135  1
  Mo  Mo180  1  0.29344880  0.70382568  0.38387573  1
  Mo  Mo181  1  0.49599580  0.50249460  0.12477630  1
  Mo  Mo182  1  0.30387955  0.30685809  0.88169799  1
  Mo  Mo183  1  0.80168960  0.79511308  0.24345561  1
  Mo  Mo184  1  0.10434056  0.30727748  0.11496049  1
  Mo  Mo185  1  0.39870022  -0.00686579  0.50102950  1
  Mo  Mo186  1  0.89772926  0.89539764  0.60161980  1
  Mo  Mo187  1  0.20673536  0.20633319  0.50045816  1
  Mo  Mo188  1  0.79975296  -0.00139371  0.25081181  1
  Mo  Mo189  1  0.10647185  0.50614456  0.36298659  1
  Mo  Mo190  1  0.09474225  0.88843723  0.86854183  1
  Mo  Mo191  1  0.79374453  0.80038992  0.49210655  1
  Mo  Mo192  1  0.30502890  0.09977480  0.39204093  1
  Mo  Mo193  1  0.49486928  0.88526542  0.14170862  1
  Mo  Mo194  1  0.40263346  0.60747422  0.24336340  1
  Mo  Mo195  1  0.11084807  0.69240912  0.14974747  1
  Mo  Mo196  1  0.50205285  0.50218826  0.38908513  1
  Mo  Mo197  1  0.60007669  0.79230376  0.01560686  1
  Mo  Mo198  1  0.59814094  -0.00783381  0.48548093  1
  Mo  Mo199  1  0.60043712  0.60627238  0.47731415  1
