# generated using pymatgen
data_HfZrTaTiMo
_symmetry_space_group_name_H-M   'P 1'
_cell_length_a   15.92464161
_cell_length_b   15.93856912
_cell_length_c   15.20546635
_cell_angle_alpha   89.95107748
_cell_angle_beta   90.01664649
_cell_angle_gamma   90.08298688
_symmetry_Int_Tables_number   1
_chemical_formula_structural   HfZrTaTiMo
_chemical_formula_sum   'Hf40 Zr40 Ta40 Ti40 Mo40'
_cell_volume   3859.38504441
_cell_formula_units_Z   40
loop_
 _symmetry_equiv_pos_site_id
 _symmetry_equiv_pos_as_xyz
  1  'x, y, z'
loop_
 _atom_site_type_symbol
 _atom_site_label
 _atom_site_symmetry_multiplicity
 _atom_site_fract_x
 _atom_site_fract_y
 _atom_site_fract_z
 _atom_site_occupancy
  Hf  Hf0  1  0.10106741  0.69942140  0.61609244  1
  Hf  Hf1  1  0.18545430  0.41164982  0.50276817  1
  Hf  Hf2  1  0.70072762  0.30459727  0.88778380  1
  Hf  Hf3  1  0.59527185  -0.00254483  0.48038074  1
  Hf  Hf4  1  0.49739067  0.50763933  0.37539871  1
  Hf  Hf5  1  0.29765059  0.30778073  0.40062411  1
  Hf  Hf6  1  0.00232068  0.21113918  0.00805000  1
  Hf  Hf7  1  0.69286202  0.30752712  0.12167933  1
  Hf  Hf8  1  0.19205302  0.40561368  0.00290676  1
  Hf  Hf9  1  0.80231426  0.40420784  0.50822277  1
  Hf  Hf10  1  0.79919628  0.20303168  0.50021847  1
  Hf  Hf11  1  0.00744942  0.19617834  0.24147590  1
  Hf  Hf12  1  0.60641380  0.41652687  0.49695246  1
  Hf  Hf13  1  0.20220899  0.77939988  -0.00676194  1
  Hf  Hf14  1  0.49601338  0.70310047  0.15235267  1
  Hf  Hf15  1  0.29610858  0.89666942  0.37861878  1
  Hf  Hf16  1  0.70753599  0.69821350  0.89100616  1
  Hf  Hf17  1  0.09528441  0.10275830  0.63480433  1
  Hf  Hf18  1  0.50707245  0.89644820  0.63658280  1
  Hf  Hf19  1  0.70417113  0.69781678  0.63092416  1
  Hf  Hf20  1  0.40041896  -0.00208201  0.50154927  1
  Hf  Hf21  1  0.70126108  0.10085207  0.36509771  1
  Hf  Hf22  1  0.40724406  0.78976928  0.00238056  1
  Hf  Hf23  1  0.69229791  0.09714329  0.63002106  1
  Hf  Hf24  1  0.89419285  0.09551789  0.63555967  1
  Hf  Hf25  1  0.58369376  0.60977831  -0.00116033  1
  Hf  Hf26  1  0.30743321  0.12315950  0.10988640  1
  Hf  Hf27  1  0.09261097  0.29815523  0.62725869  1
  Hf  Hf28  1  0.20708877  0.20430803  0.26053362  1
  Hf  Hf29  1  0.30370852  0.31205208  0.87154623  1
  Hf  Hf30  1  0.40328120  -0.00552582  0.00179300  1
  Hf  Hf31  1  0.30255920  0.89481756  0.13476038  1
  Hf  Hf32  1  0.30085166  0.10305088  0.87088674  1
  Hf  Hf33  1  0.81550004  0.79875167  0.77503984  1
  Hf  Hf34  1  0.80660613  0.20748521  0.01014379  1
  Hf  Hf35  1  0.29557512  0.50560561  0.13924665  1
  Hf  Hf36  1  0.78690340  -0.01291100  0.77553864  1
  Hf  Hf37  1  0.31480508  0.70582319  0.37717326  1
  Hf  Hf38  1  0.39346783  0.38882186  0.25190632  1
  Hf  Hf39  1  0.91454782  0.69105504  0.37697956  1
  Zr  Zr40  1  -0.00042579  -0.01023336  0.23807388  1
  Zr  Zr41  1  0.70139804  0.50262720  0.88010475  1
  Zr  Zr42  1  0.58454610  0.20045480  0.25527081  1
  Zr  Zr43  1  0.29469689  0.10167106  0.62960962  1
  Zr  Zr44  1  0.09576080  0.88132230  0.11677519  1
  Zr  Zr45  1  0.49094301  0.88230728  0.36110603  1
  Zr  Zr46  1  -0.00438261  -0.00926400  0.00091504  1
  Zr  Zr47  1  0.89746687  0.10128752  0.88369654  1
  Zr  Zr48  1  0.89530403  0.88641319  0.36768009  1
  Zr  Zr49  1  0.79767241  0.20335607  0.75957761  1
  Zr  Zr50  1  -0.00662578  -0.01630295  0.76516509  1
  Zr  Zr51  1  0.29602048  0.51173037  0.86254900  1
  Zr  Zr52  1  0.50072716  0.10310837  0.88035696  1
  Zr  Zr53  1  0.62615257  0.80449865  0.25646322  1
  Zr  Zr54  1  -0.00156173  0.00091276  0.49547676  1
  Zr  Zr55  1  0.61204485  0.80279440  0.76639165  1
  Zr  Zr56  1  0.41244314  0.19116725  0.49711445  1
  Zr  Zr57  1  0.90345592  0.88857433  0.61785638  1
  Zr  Zr58  1  0.69086020  0.51279984  0.64175401  1
  Zr  Zr59  1  0.80857136  0.40332340  0.74573669  1
  Zr  Zr60  1  0.30967686  0.88656717  0.86004681  1
  Zr  Zr61  1  0.19360302  -0.01110115  0.74916022  1
  Zr  Zr62  1  0.40120760  0.01775133  0.25536059  1
  Zr  Zr63  1  0.29642989  0.30169506  0.61620693  1
  Zr  Zr64  1  0.78773717  -0.01627248  0.22828449  1
  Zr  Zr65  1  0.09460869  0.87930497  0.38879226  1
  Zr  Zr66  1  -0.00405981  0.20286423  0.49182897  1
  Zr  Zr67  1  0.58715161  0.40942023  -0.00235681  1
  Zr  Zr68  1  0.00467086  0.78153366  0.76464896  1
  Zr  Zr69  1  0.19068828  0.41630524  0.73544976  1
  Zr  Zr70  1  0.49505181  0.50507126  0.13956642  1
  Zr  Zr71  1  0.09252095  0.51533375  0.13499977  1
  Zr  Zr72  1  0.48035213  0.28795194  0.10780378  1
  Zr  Zr73  1  0.08349331  0.50391541  0.36869510  1
  Zr  Zr74  1  0.70120684  0.89922168  0.62053622  1
  Zr  Zr75  1  0.19268201  0.01021042  0.25996902  1
  Zr  Zr76  1  0.40866508  0.21110800  0.74260463  1
  Zr  Zr77  1  0.89740224  0.10020933  0.35901230  1
  Zr  Zr78  1  0.70429896  0.31084566  0.36576561  1
  Zr  Zr79  1  0.20082698  -0.00400349  -0.00696749  1
  Ta  Ta80  1  0.79717980  0.79217607  0.49304090  1
  Ta  Ta81  1  -0.01386805  0.40377635  0.50700941  1
  Ta  Ta82  1  0.60104184  0.20712568  0.75827191  1
  Ta  Ta83  1  0.90726736  0.49184039  0.88604139  1
  Ta  Ta84  1  0.61175341  0.60308887  0.26138363  1
  Ta  Ta85  1  0.88873429  0.49628109  0.35837779  1
  Ta  Ta86  1  0.09130147  0.30503370  0.37239669  1
  Ta  Ta87  1  0.19176884  0.61116184  0.26993966  1
  Ta  Ta88  1  0.20277621  0.60695399  0.49563524  1
  Ta  Ta89  1  0.69063225  0.29907361  0.62622261  1
  Ta  Ta90  1  0.30317358  0.50481617  0.38071698  1
  Ta  Ta91  1  0.00319551  0.58504110  0.74532961  1
  Ta  Ta92  1  0.19799121  0.00683867  0.49731569  1
  Ta  Ta93  1  0.79550173  -0.00307543  0.49148392  1
  Ta  Ta94  1  0.48915386  0.50806610  0.85867813  1
  Ta  Ta95  1  0.51318414  0.69434323  0.62908718  1
  Ta  Ta96  1  0.09854218  0.10702497  0.87600546  1
  Ta  Ta97  1  0.80670228  0.60356803  0.23568367  1
  Ta  Ta98  1  0.19488162  0.79132447  0.25254010  1
  Ta  Ta99  1  0.81767820  0.60498052  0.76227488  1
  Ta  Ta100  1  0.39481451  0.20130364  0.27027322  1
  Ta  Ta101  1  0.70203300  0.50479652  0.12692768  1
  Ta  Ta102  1  0.50549537  0.90062720  0.86821080  1
  Ta  Ta103  1  0.59033422  0.39661223  0.75193078  1
  Ta  Ta104  1  0.91933917  0.69475730  0.11064946  1
  Ta  Ta105  1  0.79500861  -0.01342902  0.00893264  1
  Ta  Ta106  1  0.39349434  0.60388475  -0.00192464  1
  Ta  Ta107  1  0.40454736  0.40977041  0.73017918  1
  Ta  Ta108  1  0.29938690  0.69245634  0.14091114  1
  Ta  Ta109  1  0.50437666  0.90001334  0.13216847  1
  Ta  Ta110  1  0.59905475  0.00082869  0.24454671  1
  Ta  Ta111  1  0.89933385  0.30956397  0.35658427  1
  Ta  Ta112  1  0.08570519  0.31433007  0.86841907  1
  Ta  Ta113  1  0.80132863  0.20339341  0.23176118  1
  Ta  Ta114  1  -0.00840850  0.39973950  0.01430289  1
  Ta  Ta115  1  0.69164590  0.09895907  0.89152602  1
  Ta  Ta116  1  0.79603696  0.59210910  0.49397835  1
  Ta  Ta117  1  0.60246055  0.78908553  0.48816641  1
  Ta  Ta118  1  0.19207786  0.20813248  0.76463508  1
  Ta  Ta119  1  0.19653350  0.21331398  -0.01081002  1
  Ti  Ti120  1  0.40342865  -0.00350646  0.74498529  1
  Ti  Ti121  1  0.68931453  0.10346905  0.11477785  1
  Ti  Ti122  1  0.49793022  0.30933778  0.38956384  1
  Ti  Ti123  1  0.71386370  0.69441230  0.37309351  1
  Ti  Ti124  1  0.60009119  0.19897171  0.49478093  1
  Ti  Ti125  1  0.60035717  0.80462767  0.00177891  1
  Ti  Ti126  1  0.89888248  0.09538212  0.12356633  1
  Ti  Ti127  1  0.10153742  0.88439677  0.87999006  1
  Ti  Ti128  1  -0.00927607  0.40151765  0.23345425  1
  Ti  Ti129  1  -0.00407377  0.58902989  0.50830224  1
  Ti  Ti130  1  0.20310749  0.60084547  -0.00283228  1
  Ti  Ti131  1  0.49078104  0.70026334  0.85527745  1
  Ti  Ti132  1  0.09743040  0.50171755  0.86998501  1
  Ti  Ti133  1  -0.00623832  0.20820752  0.76504021  1
  Ti  Ti134  1  0.19861395  0.40068438  0.25815650  1
  Ti  Ti135  1  0.90074967  0.29901985  0.63333118  1
  Ti  Ti136  1  0.20697468  0.78730566  0.74021026  1
  Ti  Ti137  1  0.60092731  -0.00744070  0.00643993  1
  Ti  Ti138  1  0.41061507  0.60607980  0.50458126  1
  Ti  Ti139  1  0.50251125  0.10465769  0.11186878  1
  Ti  Ti140  1  0.30308686  0.69387267  0.85531896  1
  Ti  Ti141  1  0.70554100  0.69929219  0.11470660  1
  Ti  Ti142  1  0.51079200  0.09699996  0.63696013  1
  Ti  Ti143  1  0.01008331  0.77683885  0.24209829  1
  Ti  Ti144  1  0.89925273  0.69281605  0.61702487  1
  Ti  Ti145  1  0.81149572  0.79233117  0.22911402  1
  Ti  Ti146  1  0.10857975  0.10107810  0.11147793  1
  Ti  Ti147  1  0.49503918  0.30705803  0.88035135  1
  Ti  Ti148  1  0.01500279  0.60437344  -0.01353668  1
  Ti  Ti149  1  0.59972131  0.40584075  0.25359049  1
  Ti  Ti150  1  0.50616278  0.30848368  0.61356720  1
  Ti  Ti151  1  0.81167621  0.59463508  0.00784936  1
  Ti  Ti152  1  0.40706236  0.79316227  0.51699730  1
  Ti  Ti153  1  0.39529411  0.60900958  0.72919893  1
  Ti  Ti154  1  0.29818730  0.89079756  0.62303542  1
  Ti  Ti155  1  0.39048377  0.41093682  0.00270148  1
  Ti  Ti156  1  0.30243968  0.51074764  0.61106846  1
  Ti  Ti157  1  0.50532230  0.51044873  0.62592151  1
  Ti  Ti158  1  0.10908288  0.30380654  0.13279976  1
  Ti  Ti159  1  0.10285525  0.89234222  0.61486499  1
  Mo  Mo160  1  0.89938597  0.88026551  0.11772529  1
  Mo  Mo161  1  0.89637114  0.50976013  0.62430891  1
  Mo  Mo162  1  0.69447204  0.89122821  0.10974898  1
  Mo  Mo163  1  0.70564232  0.89493665  0.38232431  1
  Mo  Mo164  1  0.39550187  0.59877821  0.26283255  1
  Mo  Mo165  1  0.09406764  0.50492900  0.61208363  1
  Mo  Mo166  1  0.60698879  0.61039320  0.48372983  1
  Mo  Mo167  1  0.89833570  0.50341770  0.11816123  1
  Mo  Mo168  1  0.80031268  0.40511571  0.23385402  1
  Mo  Mo169  1  -0.00450989  0.78989546  0.51211275  1
  Mo  Mo170  1  0.90485264  0.31039321  0.87800830  1
  Mo  Mo171  1  0.70655301  0.50592681  0.35730231  1
  Mo  Mo172  1  0.59926564  0.19978095  -0.00736752  1
  Mo  Mo173  1  0.50290243  0.09923957  0.37271865  1
  Mo  Mo174  1  -0.00494834  0.60301458  0.24855432  1
  Mo  Mo175  1  0.39540759  0.20666111  -0.01419303  1
  Mo  Mo176  1  0.10238115  0.10414870  0.38040497  1
  Mo  Mo177  1  0.69622299  0.89960924  0.89998929  1
  Mo  Mo178  1  0.80741224  0.79301422  0.00851648  1
  Mo  Mo179  1  0.59596300  0.60153814  0.76640449  1
  Mo  Mo180  1  0.89919661  0.88608431  0.90126988  1
  Mo  Mo181  1  0.10211263  0.69853842  0.39436467  1
  Mo  Mo182  1  0.90080469  0.30276394  0.13872876  1
  Mo  Mo183  1  0.90862166  0.68395201  0.89183571  1
  Mo  Mo184  1  0.10877859  0.69226824  0.12245239  1
  Mo  Mo185  1  0.40421445  0.41440472  0.51430575  1
  Mo  Mo186  1  0.80673091  0.40716351  0.01364979  1
  Mo  Mo187  1  0.39494893  0.80238478  0.24170941  1
  Mo  Mo188  1  0.18973755  0.19618513  0.48420129  1
  Mo  Mo189  1  0.29720407  0.10290497  0.39109871  1
  Mo  Mo190  1  0.20798083  0.80314489  0.51133992  1
  Mo  Mo191  1  0.30770172  0.70068727  0.61517698  1
  Mo  Mo192  1  0.29068771  0.30659678  0.11753980  1
  Mo  Mo193  1  0.40429900  0.79563876  0.73769312  1
  Mo  Mo194  1  0.11615934  0.68166537  0.85547574  1
  Mo  Mo195  1  0.59850533  0.00645223  0.76481969  1
  Mo  Mo196  1  0.19987530  0.60497372  0.72919931  1
  Mo  Mo197  1  0.50565722  0.69655817  0.37727981  1
  Mo  Mo198  1  -0.00518502  0.40435416  0.74063331  1
  Mo  Mo199  1  0.00561121  0.78441047  -0.01756215  1
