# generated using pymatgen
data_HfZrTaTiMo
_symmetry_space_group_name_H-M   'P 1'
_cell_length_a   15.92512871
_cell_length_b   15.93648466
_cell_length_c   15.20340642
_cell_angle_alpha   90.00510226
_cell_angle_beta   89.98346194
_cell_angle_gamma   89.94600671
_symmetry_Int_Tables_number   1
_chemical_formula_structural   HfZrTaTiMo
_chemical_formula_sum   'Hf40 Zr40 Ta40 Ti40 Mo40'
_cell_volume   3858.47928149
_cell_formula_units_Z   40
loop_
 _symmetry_equiv_pos_site_id
 _symmetry_equiv_pos_as_xyz
  1  'x, y, z'
loop_
 _atom_site_type_symbol
 _atom_site_label
 _atom_site_symmetry_multiplicity
 _atom_site_fract_x
 _atom_site_fract_y
 _atom_site_fract_z
 _atom_site_occupancy
  Hf  Hf0  1  -0.00703531  0.40011400  0.25151029  1
  Hf  Hf1  1  -0.00673183  0.62149061  0.75986437  1
  Hf  Hf2  1  0.20255727  0.60580003  -0.02044997  1
  Hf  Hf3  1  -0.00582191  0.81137952  0.49653430  1
  Hf  Hf4  1  0.90435361  0.09548645  0.12067459  1
  Hf  Hf5  1  0.89483996  0.69883323  0.37561778  1
  Hf  Hf6  1  0.49983852  0.69380634  0.87811448  1
  Hf  Hf7  1  0.31197805  0.28190904  0.63570726  1
  Hf  Hf8  1  0.49044138  0.10808881  0.63853070  1
  Hf  Hf9  1  0.69478350  0.90479412  0.12662624  1
  Hf  Hf10  1  0.20167429  0.00221638  -0.01000465  1
  Hf  Hf11  1  0.29963090  0.49942044  0.38098126  1
  Hf  Hf12  1  0.50214312  0.09643898  0.11468959  1
  Hf  Hf13  1  0.49960123  0.50634028  0.12559836  1
  Hf  Hf14  1  0.50053716  0.70631668  0.61650698  1
  Hf  Hf15  1  0.39421838  0.00276908  0.48200067  1
  Hf  Hf16  1  0.30258076  0.29596478  0.11948894  1
  Hf  Hf17  1  0.89703788  0.49483569  0.85922046  1
  Hf  Hf18  1  0.11024380  0.49904932  0.12716538  1
  Hf  Hf19  1  -0.00473915  0.59607334  0.24258095  1
  Hf  Hf20  1  0.60141038  0.60257542  0.74336763  1
  Hf  Hf21  1  0.61254642  0.80344216  0.74958174  1
  Hf  Hf22  1  0.80018651  0.40367407  0.00880478  1
  Hf  Hf23  1  0.60414473  0.19878466  0.24974508  1
  Hf  Hf24  1  0.18627244  0.00219873  0.75189834  1
  Hf  Hf25  1  0.59652657  0.00640690  0.49022114  1
  Hf  Hf26  1  -0.00640785  0.59645608  0.00126889  1
  Hf  Hf27  1  0.20434032  0.39798783  0.75020210  1
  Hf  Hf28  1  0.49807454  0.90407652  0.12423676  1
  Hf  Hf29  1  0.79645358  0.38666355  0.73420710  1
  Hf  Hf30  1  0.10257203  0.69675994  0.37767166  1
  Hf  Hf31  1  -0.01219700  0.79643393  0.00834192  1
  Hf  Hf32  1  -0.00488277  -0.00539827  0.49486691  1
  Hf  Hf33  1  0.80208512  0.39870073  0.25340629  1
  Hf  Hf34  1  -0.00461034  0.59486302  0.49991367  1
  Hf  Hf35  1  0.70228570  0.29160605  0.39739232  1
  Hf  Hf36  1  0.09968918  0.90548329  0.12409878  1
  Hf  Hf37  1  0.70602305  0.10303241  0.87538400  1
  Hf  Hf38  1  0.20141640  0.39719121  -0.02185413  1
  Hf  Hf39  1  0.19175462  0.79991204  0.77507913  1
  Zr  Zr40  1  0.40590939  0.40001079  0.25499990  1
  Zr  Zr41  1  0.30285564  0.10879171  0.86320586  1
  Zr  Zr42  1  0.30633751  0.10447963  0.11175600  1
  Zr  Zr43  1  0.60569445  0.60145654  -0.00203221  1
  Zr  Zr44  1  0.39347576  0.80242228  0.26442269  1
  Zr  Zr45  1  0.79462059  -0.01269370  0.74093080  1
  Zr  Zr46  1  0.80856625  0.40286110  0.50235271  1
  Zr  Zr47  1  -0.01037671  -0.00370424  0.72480518  1
  Zr  Zr48  1  -0.00040870  0.39653748  0.00643520  1
  Zr  Zr49  1  0.30019278  0.70846229  0.62379178  1
  Zr  Zr50  1  0.00364833  0.39692728  0.50519708  1
  Zr  Zr51  1  0.80114934  -0.01215374  0.51551328  1
  Zr  Zr52  1  0.90065492  0.29261940  0.86811023  1
  Zr  Zr53  1  0.18596931  0.00260370  0.52274978  1
  Zr  Zr54  1  0.40551319  0.39993634  -0.01716420  1
  Zr  Zr55  1  0.70478623  0.50937009  0.13183335  1
  Zr  Zr56  1  0.30212091  0.90228081  0.63577890  1
  Zr  Zr57  1  0.07991719  0.91154604  0.88897751  1
  Zr  Zr58  1  0.19944852  0.39519930  0.51734157  1
  Zr  Zr59  1  0.19964092  0.60854241  0.75850407  1
  Zr  Zr60  1  0.79178468  0.19847776  0.24033002  1
  Zr  Zr61  1  0.19707392  0.81082104  0.49109671  1
  Zr  Zr62  1  0.10891588  0.29802912  0.37068201  1
  Zr  Zr63  1  0.38977515  0.80287674  -0.01514817  1
  Zr  Zr64  1  0.40767329  0.40063786  0.51616606  1
  Zr  Zr65  1  0.61150566  0.80879729  0.49520645  1
  Zr  Zr66  1  0.41944279  0.39675694  0.74806078  1
  Zr  Zr67  1  0.59247877  0.79676300  0.25898844  1
  Zr  Zr68  1  0.10645729  0.29126949  0.12652166  1
  Zr  Zr69  1  0.51046877  0.30298483  0.38866236  1
  Zr  Zr70  1  0.51840256  0.50889244  0.38433326  1
  Zr  Zr71  1  0.30506410  0.50542351  0.12050224  1
  Zr  Zr72  1  0.49640511  0.90436516  0.62702251  1
  Zr  Zr73  1  0.50274000  0.29797256  0.11784557  1
  Zr  Zr74  1  -0.00435822  0.19384683  0.26192250  1
  Zr  Zr75  1  0.00042370  0.18806957  0.48691410  1
  Zr  Zr76  1  -0.00656563  0.79852511  0.24481094  1
  Zr  Zr77  1  0.20241248  0.80065594  0.25702454  1
  Zr  Zr78  1  0.69677354  0.90251960  0.89003047  1
  Zr  Zr79  1  0.89748260  0.51155455  0.63934999  1
  Ta  Ta80  1  0.11798915  0.08213487  0.36233832  1
  Ta  Ta81  1  0.79171231  0.59609660  0.48842754  1
  Ta  Ta82  1  0.10130248  0.09860299  0.12641201  1
  Ta  Ta83  1  0.60124258  0.39818737  0.73656423  1
  Ta  Ta84  1  0.70145167  0.49650091  0.86032058  1
  Ta  Ta85  1  0.40398727  0.19335836  0.26599113  1
  Ta  Ta86  1  0.70333652  0.51076332  0.63125288  1
  Ta  Ta87  1  0.51317174  0.10109443  0.87175858  1
  Ta  Ta88  1  0.69975592  0.30125163  0.87475329  1
  Ta  Ta89  1  0.69447698  0.10237299  0.62107583  1
  Ta  Ta90  1  0.71038088  0.91616255  0.35760583  1
  Ta  Ta91  1  0.11115403  0.70058083  0.11667017  1
  Ta  Ta92  1  0.61340378  0.39704579  0.24799374  1
  Ta  Ta93  1  0.30417191  0.50719976  0.63110570  1
  Ta  Ta94  1  0.20840323  0.60470675  0.25421885  1
  Ta  Ta95  1  0.39977343  0.00496177  0.26196451  1
  Ta  Ta96  1  0.09096009  0.70830805  0.62132608  1
  Ta  Ta97  1  0.09856206  0.50405419  0.64159792  1
  Ta  Ta98  1  0.39637875  0.80865310  0.47391205  1
  Ta  Ta99  1  0.39959977  0.60328262  0.50181737  1
  Ta  Ta100  1  0.80015629  0.60247039  -0.01401130  1
  Ta  Ta101  1  0.30264204  0.29564396  0.38092095  1
  Ta  Ta102  1  0.10465405  0.50036839  0.36913838  1
  Ta  Ta103  1  0.60125005  0.21183509  0.74694149  1
  Ta  Ta104  1  -0.00677165  -0.00305346  0.25984949  1
  Ta  Ta105  1  -0.00750988  0.79860314  0.75878789  1
  Ta  Ta106  1  0.19708318  0.59726062  0.50801827  1
  Ta  Ta107  1  0.40743459  -0.00470569  -0.02057747  1
  Ta  Ta108  1  0.21298239  0.19235067  0.25515165  1
  Ta  Ta109  1  0.30017220  0.90361407  0.12107869  1
  Ta  Ta110  1  0.90710682  0.09091852  0.87947389  1
  Ta  Ta111  1  0.79360671  0.79611632  0.25377763  1
  Ta  Ta112  1  0.80287040  0.19027493  0.73768695  1
  Ta  Ta113  1  0.80046851  0.20237221  0.00361236  1
  Ta  Ta114  1  0.30132104  0.70131161  0.11349424  1
  Ta  Ta115  1  0.40196694  0.19118211  0.49073422  1
  Ta  Ta116  1  0.20542163  0.19189487  0.50336304  1
  Ta  Ta117  1  0.09091004  0.49532481  0.86111362  1
  Ta  Ta118  1  0.39970201  0.80110668  0.76914622  1
  Ta  Ta119  1  0.39904901  0.61283966  0.26186058  1
  Ti  Ti120  1  0.00517068  0.19175543  -0.00857536  1
  Ti  Ti121  1  0.27325381  0.92750661  0.36250940  1
  Ti  Ti122  1  0.08870865  0.29729968  0.85679697  1
  Ti  Ti123  1  0.60815722  0.41454413  0.51769904  1
  Ti  Ti124  1  0.59750687  0.01249626  0.26419798  1
  Ti  Ti125  1  0.59811598  0.60315174  0.24904742  1
  Ti  Ti126  1  0.69817142  0.29149170  0.61209207  1
  Ti  Ti127  1  0.69158876  0.68916258  0.37707681  1
  Ti  Ti128  1  0.89161236  0.89861015  0.88072141  1
  Ti  Ti129  1  0.40373069  -0.00790298  0.77125462  1
  Ti  Ti130  1  0.60772780  0.39777850  -0.00102141  1
  Ti  Ti131  1  0.79369066  0.79075309  0.00133208  1
  Ti  Ti132  1  0.69637947  0.70242085  0.12816070  1
  Ti  Ti133  1  0.60761908  0.20438789  -0.00246387  1
  Ti  Ti134  1  0.72504948  0.70661183  0.62568829  1
  Ti  Ti135  1  0.79658446  0.59260510  0.26561327  1
  Ti  Ti136  1  0.91843030  0.28248767  0.63062638  1
  Ti  Ti137  1  0.40519755  0.60214206  0.74318691  1
  Ti  Ti138  1  0.50333990  0.69722643  0.39021646  1
  Ti  Ti139  1  0.18899162  0.20052647  0.74945146  1
  Ti  Ti140  1  0.88815036  0.90226292  0.13259496  1
  Ti  Ti141  1  0.90196819  0.29410852  0.12137638  1
  Ti  Ti142  1  0.50921533  0.49813437  0.87555414  1
  Ti  Ti143  1  0.41257439  0.20318426  -0.02263829  1
  Ti  Ti144  1  0.20729170  0.39767440  0.25237496  1
  Ti  Ti145  1  0.49120848  0.69839898  0.11850308  1
  Ti  Ti146  1  0.80358784  0.00000449  0.00423557  1
  Ti  Ti147  1  0.08667769  0.11973169  0.63169233  1
  Ti  Ti148  1  0.69658781  0.09504302  0.11249348  1
  Ti  Ti149  1  0.19138960  0.20193745  -0.01866917  1
  Ti  Ti150  1  0.60096485  0.00034932  0.74853512  1
  Ti  Ti151  1  0.86879664  0.08767536  0.37283754  1
  Ti  Ti152  1  0.59610306  0.80057914  -0.00251800  1
  Ti  Ti153  1  0.31426074  0.50966161  0.86638816  1
  Ti  Ti154  1  0.79625810  0.80111493  0.48318383  1
  Ti  Ti155  1  0.89411982  0.29193177  0.38278887  1
  Ti  Ti156  1  0.30463613  0.09967599  0.64094113  1
  Ti  Ti157  1  0.30832575  0.29453626  0.86165154  1
  Ti  Ti158  1  0.88215297  0.86286188  0.63522058  1
  Ti  Ti159  1  0.88130977  0.68921346  0.12741624  1
  Mo  Mo160  1  0.40159159  0.59990353  -0.00309454  1
  Mo  Mo161  1  -0.00918284  0.00154494  0.00965956  1
  Mo  Mo162  1  0.09481487  0.90444850  0.35765609  1
  Mo  Mo163  1  0.70011152  0.10173476  0.38898489  1
  Mo  Mo164  1  0.50547896  0.50774248  0.61836846  1
  Mo  Mo165  1  0.89647623  0.10516672  0.62034539  1
  Mo  Mo166  1  0.80598118  0.78683130  0.76869913  1
  Mo  Mo167  1  0.19693464  0.79997622  -0.00206292  1
  Mo  Mo168  1  0.89074296  0.90048598  0.35987013  1
  Mo  Mo169  1  0.59807008  0.19776450  0.51367569  1
  Mo  Mo170  1  -0.00160028  0.19272436  0.75682262  1
  Mo  Mo171  1  0.29687801  0.10273217  0.37487155  1
  Mo  Mo172  1  0.30165066  0.69091051  0.39012633  1
  Mo  Mo173  1  0.41245230  0.19988179  0.76257657  1
  Mo  Mo174  1  0.80379862  0.19369782  0.51537465  1
  Mo  Mo175  1  0.09017522  0.88682684  0.63986709  1
  Mo  Mo176  1  0.70178074  0.69965168  0.87833202  1
  Mo  Mo177  1  0.69815020  0.50051706  0.37245862  1
  Mo  Mo178  1  0.50364133  0.90342902  0.36543350  1
  Mo  Mo179  1  0.90066804  0.49931135  0.37099796  1
  Mo  Mo180  1  0.60801544  0.60514497  0.51659656  1
  Mo  Mo181  1  0.51766402  0.29893439  0.88369639  1
  Mo  Mo182  1  0.30480104  0.69654968  0.87513475  1
  Mo  Mo183  1  0.29728782  0.90406577  0.87070329  1
  Mo  Mo184  1  0.79357792  0.00120766  0.23575046  1
  Mo  Mo185  1  0.20264487  0.00360595  0.22777635  1
  Mo  Mo186  1  0.69901880  0.89485121  0.63043483  1
  Mo  Mo187  1  0.79374160  0.60983240  0.76299479  1
  Mo  Mo188  1  0.09350152  0.70470016  0.89577952  1
  Mo  Mo189  1  0.89618972  0.50711405  0.13287345  1
  Mo  Mo190  1  0.69946254  0.29914131  0.10982544  1
  Mo  Mo191  1  0.51088947  0.29759949  0.61263858  1
  Mo  Mo192  1  0.10276482  0.29526615  0.63457109  1
  Mo  Mo193  1  0.50509289  0.90277085  0.87174120  1
  Mo  Mo194  1  0.89215178  0.69999224  0.60928879  1
  Mo  Mo195  1  0.50246684  0.10363865  0.37121174  1
  Mo  Mo196  1  0.09052672  0.10983639  0.87408545  1
  Mo  Mo197  1  0.00448430  0.39515441  0.73710828  1
  Mo  Mo198  1  0.59865190  0.00552295  -0.00267352  1
  Mo  Mo199  1  0.89422748  0.70689483  0.89063532  1
