# generated using pymatgen
data_HfZrTaTiMo
_symmetry_space_group_name_H-M   'P 1'
_cell_length_a   15.92029112
_cell_length_b   15.92891350
_cell_length_c   15.18996324
_cell_angle_alpha   90.03525275
_cell_angle_beta   89.97539985
_cell_angle_gamma   89.79165666
_symmetry_Int_Tables_number   1
_chemical_formula_structural   HfZrTaTiMo
_chemical_formula_sum   'Hf40 Zr40 Ta40 Ti40 Mo40'
_cell_volume   3852.04088553
_cell_formula_units_Z   40
loop_
 _symmetry_equiv_pos_site_id
 _symmetry_equiv_pos_as_xyz
  1  'x, y, z'
loop_
 _atom_site_type_symbol
 _atom_site_label
 _atom_site_symmetry_multiplicity
 _atom_site_fract_x
 _atom_site_fract_y
 _atom_site_fract_z
 _atom_site_occupancy
  Hf  Hf0  1  0.09737691  0.89618980  0.14196339  1
  Hf  Hf1  1  0.58458943  0.81527161  0.50535945  1
  Hf  Hf2  1  0.30675114  0.08596159  0.36935984  1
  Hf  Hf3  1  0.00495486  0.40274267  0.75357222  1
  Hf  Hf4  1  0.50976254  0.90070116  0.11284110  1
  Hf  Hf5  1  0.19649394  0.40210627  0.74863885  1
  Hf  Hf6  1  0.80304731  0.80468330  -0.00488884  1
  Hf  Hf7  1  0.29337878  0.29350103  0.88809034  1
  Hf  Hf8  1  0.00852012  0.59542439  0.75281639  1
  Hf  Hf9  1  0.60380200  0.80717896  0.25735584  1
  Hf  Hf10  1  0.51157675  0.08101266  0.63280010  1
  Hf  Hf11  1  0.29170764  0.50086536  0.88323365  1
  Hf  Hf12  1  0.20285629  -0.00319230  0.01865043  1
  Hf  Hf13  1  0.40289095  0.19396566  0.23547521  1
  Hf  Hf14  1  0.30102837  0.28903162  0.37964204  1
  Hf  Hf15  1  0.78846473  0.81689928  0.73359891  1
  Hf  Hf16  1  0.49650406  0.29078089  0.62142062  1
  Hf  Hf17  1  0.20403391  0.19700466  0.73938730  1
  Hf  Hf18  1  0.79776062  0.59754861  -0.00460298  1
  Hf  Hf19  1  0.69171740  0.50605210  0.62818088  1
  Hf  Hf20  1  -0.00151723  0.00197544  -0.00351396  1
  Hf  Hf21  1  0.79757396  0.80242590  0.25394722  1
  Hf  Hf22  1  0.90020695  0.10410222  0.14113996  1
  Hf  Hf23  1  0.89904848  0.69952504  0.38949054  1
  Hf  Hf24  1  0.51109840  0.09423378  0.88718972  1
  Hf  Hf25  1  0.49458756  0.50364534  0.62474132  1
  Hf  Hf26  1  0.79677305  0.18619971  0.50024282  1
  Hf  Hf27  1  0.59392199  0.61256416  0.50072347  1
  Hf  Hf28  1  0.20524468  0.79118079  0.24504650  1
  Hf  Hf29  1  0.50795115  0.50988471  0.12733915  1
  Hf  Hf30  1  0.09612323  0.29696071  0.88684100  1
  Hf  Hf31  1  0.58880655  0.40116846  0.75142132  1
  Hf  Hf32  1  0.19720091  0.81063295  0.73762031  1
  Hf  Hf33  1  0.38850298  0.62045673  0.49856315  1
  Hf  Hf34  1  0.69716956  0.49983584  0.13415739  1
  Hf  Hf35  1  0.79375456  0.39606000  0.50466250  1
  Hf  Hf36  1  0.90329332  0.88969256  0.38791709  1
  Hf  Hf37  1  0.90918175  0.69873394  0.13273516  1
  Hf  Hf38  1  0.10071803  0.30629237  0.60779231  1
  Hf  Hf39  1  0.70712855  0.09132154  0.13311731  1
  Zr  Zr40  1  -0.00205877  0.00418499  0.26971234  1
  Zr  Zr41  1  0.90801646  0.90023338  0.86297008  1
  Zr  Zr42  1  0.69214749  0.69813254  0.12061704  1
  Zr  Zr43  1  0.10918032  0.09398788  0.87181371  1
  Zr  Zr44  1  -0.01105569  0.00774935  0.50026970  1
  Zr  Zr45  1  0.89809644  0.49298727  0.13027887  1
  Zr  Zr46  1  0.39403655  0.19389709  0.01285796  1
  Zr  Zr47  1  0.50401721  0.29754374  0.88397598  1
  Zr  Zr48  1  0.39763172  0.59885162  0.00177466  1
  Zr  Zr49  1  0.70470220  0.29347582  0.86817972  1
  Zr  Zr50  1  0.60111809  0.39163446  0.25829496  1
  Zr  Zr51  1  0.40955022  0.59720931  0.76660806  1
  Zr  Zr52  1  0.69128553  0.50688111  0.86768158  1
  Zr  Zr53  1  0.89336219  0.90778363  0.13055913  1
  Zr  Zr54  1  0.39976870  0.40521423  0.48988268  1
  Zr  Zr55  1  0.89735110  0.29365942  0.86481864  1
  Zr  Zr56  1  0.09121190  0.29686063  0.11491071  1
  Zr  Zr57  1  0.00166219  0.39659506  0.26980338  1
  Zr  Zr58  1  0.00810763  -0.00856700  0.73818605  1
  Zr  Zr59  1  -0.00187769  0.19970307  0.49359429  1
  Zr  Zr60  1  0.59912685  0.80646555  0.75208605  1
  Zr  Zr61  1  0.90066225  0.50176319  0.61719610  1
  Zr  Zr62  1  0.28287849  0.89850654  0.88188312  1
  Zr  Zr63  1  0.48173493  0.71450663  0.36141159  1
  Zr  Zr64  1  0.89674612  0.70488409  0.85769081  1
  Zr  Zr65  1  0.60359256  0.19843238  0.25365659  1
  Zr  Zr66  1  0.41842926  -0.01728204  0.49329217  1
  Zr  Zr67  1  0.60038871  0.19085807  0.49108659  1
  Zr  Zr68  1  0.90471554  0.70425679  0.62166769  1
  Zr  Zr69  1  0.39752413  0.39372591  0.23848373  1
  Zr  Zr70  1  -0.00084348  0.59370436  -0.01779753  1
  Zr  Zr71  1  0.10298943  0.71874535  0.86618760  1
  Zr  Zr72  1  0.09266662  0.50260530  0.11979257  1
  Zr  Zr73  1  0.09597004  0.70720222  0.39080820  1
  Zr  Zr74  1  0.19358856  0.39707441  0.25744333  1
  Zr  Zr75  1  0.39610210  0.19002146  0.75556827  1
  Zr  Zr76  1  0.23496208  0.79395309  0.50270838  1
  Zr  Zr77  1  0.11686160  0.90441062  0.38370328  1
  Zr  Zr78  1  0.49910670  0.51236820  0.35975430  1
  Zr  Zr79  1  0.29370133  0.50330705  0.62639903  1
  Ta  Ta80  1  0.60892661  0.00093863  0.47673390  1
  Ta  Ta81  1  -0.00697736  0.19147552  0.00142424  1
  Ta  Ta82  1  0.50656061  0.70147208  0.11604315  1
  Ta  Ta83  1  0.11229227  0.09540361  0.60967800  1
  Ta  Ta84  1  0.29167090  0.50181828  0.12416065  1
  Ta  Ta85  1  0.39956937  0.40074606  0.00694193  1
  Ta  Ta86  1  0.61618568  0.19457242  0.00780867  1
  Ta  Ta87  1  0.09734003  0.50576673  0.60318478  1
  Ta  Ta88  1  0.00191736  0.60255175  0.26441199  1
  Ta  Ta89  1  0.69723688  0.90725989  0.11139817  1
  Ta  Ta90  1  0.89664311  0.50345684  0.38720698  1
  Ta  Ta91  1  0.19859441  0.40222108  0.48540506  1
  Ta  Ta92  1  0.89944092  0.29899658  0.62455449  1
  Ta  Ta93  1  0.59986484  0.39783077  0.49421883  1
  Ta  Ta94  1  0.10290582  0.69816560  0.61633347  1
  Ta  Ta95  1  0.59860632  -0.00175295  0.26638748  1
  Ta  Ta96  1  0.40259213  -0.00614682  0.76785290  1
  Ta  Ta97  1  0.80431934  0.19553716  0.00404021  1
  Ta  Ta98  1  0.09989377  0.10060344  0.14062949  1
  Ta  Ta99  1  0.39738106  0.80314139  -0.00037034  1
  Ta  Ta100  1  0.29682470  0.70444904  0.87978887  1
  Ta  Ta101  1  0.30406457  0.29845593  0.61137033  1
  Ta  Ta102  1  0.11669949  0.10157071  0.37801070  1
  Ta  Ta103  1  0.78784653  0.00567224  0.74457743  1
  Ta  Ta104  1  0.50916471  0.69872049  0.88984597  1
  Ta  Ta105  1  0.78397937  0.80835532  0.51497985  1
  Ta  Ta106  1  0.00520121  0.19608353  0.73499091  1
  Ta  Ta107  1  0.31844447  0.89165113  0.35718096  1
  Ta  Ta108  1  0.80112578  0.39513505  -0.00025686  1
  Ta  Ta109  1  0.10481271  0.89850553  0.60157595  1
  Ta  Ta110  1  0.39546073  0.00005874  0.00170757  1
  Ta  Ta111  1  0.70038289  0.50488973  0.37707080  1
  Ta  Ta112  1  0.39449798  0.39474176  0.75866866  1
  Ta  Ta113  1  0.79794071  0.59958117  0.26180234  1
  Ta  Ta114  1  0.21181344  0.00275158  0.73307808  1
  Ta  Ta115  1  0.89826440  0.30307076  0.38247298  1
  Ta  Ta116  1  0.50915679  0.08969587  0.11996197  1
  Ta  Ta117  1  0.29515173  0.51299674  0.36173569  1
  Ta  Ta118  1  0.01187938  0.80163172  0.00699384  1
  Ta  Ta119  1  0.89811541  0.29867323  0.12612347  1
  Ti  Ti120  1  0.79002737  0.60669880  0.50457804  1
  Ti  Ti121  1  0.19503983  0.59924661  0.75359981  1
  Ti  Ti122  1  0.19824416  0.19795462  0.24948113  1
  Ti  Ti123  1  0.69449982  0.70386100  0.87642535  1
  Ti  Ti124  1  0.18885896  0.61005208  -0.00012320  1
  Ti  Ti125  1  0.32001801  0.90068323  0.62982111  1
  Ti  Ti126  1  0.39769364  0.80265066  0.22182849  1
  Ti  Ti127  1  0.80130867  0.39785468  0.25941149  1
  Ti  Ti128  1  0.78548013  0.61208754  0.74254005  1
  Ti  Ti129  1  0.69721696  0.29277148  0.62903283  1
  Ti  Ti130  1  0.79723586  0.39772817  0.74046512  1
  Ti  Ti131  1  0.20098897  0.18384773  0.01107399  1
  Ti  Ti132  1  0.89507914  0.09992732  0.63521759  1
  Ti  Ti133  1  0.19204072  0.40652516  0.00178319  1
  Ti  Ti134  1  0.61360238  0.18576261  0.75118599  1
  Ti  Ti135  1  0.30774260  0.70055530  0.64855205  1
  Ti  Ti136  1  0.79514142  0.00936199  -0.02020607  1
  Ti  Ti137  1  0.31235502  0.09629320  0.60864041  1
  Ti  Ti138  1  0.89514487  0.10730207  0.85770038  1
  Ti  Ti139  1  0.00321750  0.20399696  0.26737606  1
  Ti  Ti140  1  0.38630009  0.61191430  0.23484668  1
  Ti  Ti141  1  0.29150959  0.70176294  0.10967078  1
  Ti  Ti142  1  0.49230956  0.28805815  0.38370314  1
  Ti  Ti143  1  0.20848745  0.19522263  0.50031856  1
  Ti  Ti144  1  0.51116419  0.29910033  0.11348183  1
  Ti  Ti145  1  0.40467761  0.80476637  0.77105780  1
  Ti  Ti146  1  0.20500554  0.60113289  0.49369666  1
  Ti  Ti147  1  0.60963102  -0.01058284  0.76938321  1
  Ti  Ti148  1  0.78987478  -0.00469188  0.27568721  1
  Ti  Ti149  1  0.79016119  0.00100633  0.50416326  1
  Ti  Ti150  1  0.70228950  0.30079839  0.37903007  1
  Ti  Ti151  1  0.89077350  0.49376054  0.86756796  1
  Ti  Ti152  1  0.60254152  0.40309321  -0.00239232  1
  Ti  Ti153  1  0.19209535  0.60242969  0.24714275  1
  Ti  Ti154  1  0.80427848  0.20472936  0.26244219  1
  Ti  Ti155  1  0.49386504  0.70901732  0.63647658  1
  Ti  Ti156  1  0.70891005  0.30107463  0.12385791  1
  Ti  Ti157  1  0.09428432  0.50466840  0.38961697  1
  Ti  Ti158  1  0.28863659  0.30144460  0.11929636  1
  Ti  Ti159  1  0.69746891  0.70141535  0.37924670  1
  Mo  Mo160  1  0.10513112  0.29166157  0.38619641  1
  Mo  Mo161  1  0.70035640  0.90430102  0.88979682  1
  Mo  Mo162  1  0.70907038  0.10292559  0.87021603  1
  Mo  Mo163  1  0.00618119  0.80443870  0.72466189  1
  Mo  Mo164  1  0.00294532  0.60083339  0.49439328  1
  Mo  Mo165  1  0.49752232  0.89738193  0.88713745  1
  Mo  Mo166  1  0.59945360  0.59890638  -0.00911759  1
  Mo  Mo167  1  0.60451585  0.60655175  0.26459058  1
  Mo  Mo168  1  0.30475660  0.89843181  0.12657041  1
  Mo  Mo169  1  0.49623176  0.49524580  0.88446362  1
  Mo  Mo170  1  0.69598618  0.09729202  0.63343396  1
  Mo  Mo171  1  0.49826396  0.09890251  0.36303618  1
  Mo  Mo172  1  0.49756881  0.90163167  0.64877859  1
  Mo  Mo173  1  0.29823404  0.09612287  0.14190318  1
  Mo  Mo174  1  0.89565259  0.10475103  0.36397214  1
  Mo  Mo175  1  0.80123261  0.19829588  0.72836105  1
  Mo  Mo176  1  0.09633868  0.69675025  0.12812370  1
  Mo  Mo177  1  0.69328308  0.70161814  0.62127084  1
  Mo  Mo178  1  0.00129425  0.79074575  0.24369809  1
  Mo  Mo179  1  -0.00518669  0.80472916  0.51699720  1
  Mo  Mo180  1  0.40451045  -0.00427601  0.23211599  1
  Mo  Mo181  1  0.59872593  0.60995509  0.75018412  1
  Mo  Mo182  1  0.21584263  -0.00103514  0.51112193  1
  Mo  Mo183  1  0.60765491  0.00135939  -0.00854350  1
  Mo  Mo184  1  0.19780028  0.79588705  0.01465309  1
  Mo  Mo185  1  0.10208338  0.50004099  0.88440975  1
  Mo  Mo186  1  0.29949934  0.69616036  0.35475098  1
  Mo  Mo187  1  0.60193541  0.80153477  -0.00952287  1
  Mo  Mo188  1  0.70557023  0.10052880  0.36327075  1
  Mo  Mo189  1  0.70221149  0.89688220  0.38645907  1
  Mo  Mo190  1  -0.00194467  0.40130856  0.49134355  1
  Mo  Mo191  1  0.20688306  0.00068311  0.24301314  1
  Mo  Mo192  1  -0.01195529  0.39268364  -0.01424058  1
  Mo  Mo193  1  0.89459863  0.90796608  0.61809100  1
  Mo  Mo194  1  0.30056201  0.09474826  0.87450816  1
  Mo  Mo195  1  0.40341500  0.79887486  0.51053979  1
  Mo  Mo196  1  0.49429960  0.90187026  0.35456248  1
  Mo  Mo197  1  0.40119633  0.19147023  0.50219443  1
  Mo  Mo198  1  0.09890304  0.89943306  0.87865362  1
  Mo  Mo199  1  0.68724106  0.91822865  0.61366911  1
