# generated using pymatgen
data_HfZrTaTiMo
_symmetry_space_group_name_H-M   'P 1'
_cell_length_a   15.93500619
_cell_length_b   15.93019656
_cell_length_c   15.21162485
_cell_angle_alpha   90.03006006
_cell_angle_beta   90.01993921
_cell_angle_gamma   90.02999317
_symmetry_Int_Tables_number   1
_chemical_formula_structural   HfZrTaTiMo
_chemical_formula_sum   'Hf40 Zr40 Ta40 Ti40 Mo40'
_cell_volume   3861.43591668
_cell_formula_units_Z   40
loop_
 _symmetry_equiv_pos_site_id
 _symmetry_equiv_pos_as_xyz
  1  'x, y, z'
loop_
 _atom_site_type_symbol
 _atom_site_label
 _atom_site_symmetry_multiplicity
 _atom_site_fract_x
 _atom_site_fract_y
 _atom_site_fract_z
 _atom_site_occupancy
  Hf  Hf0  1  0.41627609  0.40400168  0.50131099  1
  Hf  Hf1  1  0.40765490  -0.00715780  0.26077721  1
  Hf  Hf2  1  0.20643715  -0.00025213  0.24854079  1
  Hf  Hf3  1  0.90691641  0.88942370  0.11282296  1
  Hf  Hf4  1  0.90336036  0.10186251  0.88316715  1
  Hf  Hf5  1  0.28903630  0.70447633  0.37152485  1
  Hf  Hf6  1  0.69745860  0.11158166  0.13602330  1
  Hf  Hf7  1  0.50676397  0.88787319  0.86432079  1
  Hf  Hf8  1  0.79292617  -0.00581406  0.25594758  1
  Hf  Hf9  1  -0.00390750  0.59220088  -0.01201661  1
  Hf  Hf10  1  0.20711624  0.60624802  0.74146932  1
  Hf  Hf11  1  0.30383977  0.89534191  0.12230989  1
  Hf  Hf12  1  -0.00629040  0.40233990  0.49697384  1
  Hf  Hf13  1  0.68685581  0.68843291  0.62889072  1
  Hf  Hf14  1  0.41052058  0.20971649  -0.01166948  1
  Hf  Hf15  1  0.50309136  0.10392813  0.13573066  1
  Hf  Hf16  1  0.90286928  0.68824106  0.63206223  1
  Hf  Hf17  1  0.89657379  0.70130057  0.87355527  1
  Hf  Hf18  1  0.60200125  0.80988189  0.24849742  1
  Hf  Hf19  1  0.09390028  0.09732326  0.12632876  1
  Hf  Hf20  1  0.10067340  0.70289232  0.87428721  1
  Hf  Hf21  1  0.29983885  0.09705427  0.38756043  1
  Hf  Hf22  1  0.19296277  -0.00592437  0.74053431  1
  Hf  Hf23  1  0.28957634  0.50627943  0.38287254  1
  Hf  Hf24  1  0.40108756  0.00923582  -0.00448038  1
  Hf  Hf25  1  -0.00773960  0.21227101  0.01278128  1
  Hf  Hf26  1  0.00674207  0.78287807  0.26355877  1
  Hf  Hf27  1  0.09043580  0.89477396  0.60830769  1
  Hf  Hf28  1  0.20437917  0.80384534  0.73822273  1
  Hf  Hf29  1  0.29251854  0.11060124  0.87241759  1
  Hf  Hf30  1  0.29797287  0.30843994  0.37145986  1
  Hf  Hf31  1  -0.00022005  -0.00421453  0.26325840  1
  Hf  Hf32  1  0.29384164  0.89296261  0.88514357  1
  Hf  Hf33  1  0.80035518  0.38241057  0.00479541  1
  Hf  Hf34  1  0.51141138  0.10390649  0.63219216  1
  Hf  Hf35  1  0.31182616  0.31347717  0.13608280  1
  Hf  Hf36  1  0.69161150  0.48267518  0.86906135  1
  Hf  Hf37  1  0.09216617  0.09637845  0.87740515  1
  Hf  Hf38  1  0.08535326  0.50782602  0.63427949  1
  Hf  Hf39  1  0.28890407  0.70098011  0.12971012  1
  Zr  Zr40  1  0.19079859  0.20529913  0.51244527  1
  Zr  Zr41  1  0.20661606  0.20661805  0.01493324  1
  Zr  Zr42  1  0.89819692  0.89712478  0.38981157  1
  Zr  Zr43  1  0.51889777  0.49735648  0.36359154  1
  Zr  Zr44  1  0.10073667  0.88822653  0.12316393  1
  Zr  Zr45  1  -0.00197055  0.39785780  -0.01144075  1
  Zr  Zr46  1  0.48845558  0.49397953  0.13164084  1
  Zr  Zr47  1  0.09832775  0.29296886  0.86229780  1
  Zr  Zr48  1  0.80345163  -0.00068253  0.74111026  1
  Zr  Zr49  1  0.50004069  0.69973573  0.36428697  1
  Zr  Zr50  1  0.29032893  0.49347471  0.12194985  1
  Zr  Zr51  1  0.41657961  0.20152519  0.49313472  1
  Zr  Zr52  1  0.79545908  0.78286979  0.50288425  1
  Zr  Zr53  1  0.19695708  -0.00018124  0.50763795  1
  Zr  Zr54  1  0.91462588  0.49958953  0.14319896  1
  Zr  Zr55  1  0.49348852  0.70316955  0.12825459  1
  Zr  Zr56  1  0.61937736  0.21438934  -0.00375784  1
  Zr  Zr57  1  0.69496126  0.31780571  0.37872779  1
  Zr  Zr58  1  0.71089258  0.11531567  0.86805573  1
  Zr  Zr59  1  0.60059657  0.59986134  -0.00201638  1
  Zr  Zr60  1  0.19582069  0.40137701  0.51841071  1
  Zr  Zr61  1  0.31667645  0.09313808  0.62011893  1
  Zr  Zr62  1  0.41208937  0.60742322  0.50033046  1
  Zr  Zr63  1  0.79533754  0.79853213  0.24954118  1
  Zr  Zr64  1  0.30577802  0.50288239  0.87594888  1
  Zr  Zr65  1  0.17145777  0.58861570  0.24597011  1
  Zr  Zr66  1  0.61227699  0.80670345  0.00255115  1
  Zr  Zr67  1  -0.00016702  0.80701687  0.74632154  1
  Zr  Zr68  1  0.59552865  0.00801153  -0.01400330  1
  Zr  Zr69  1  0.51152393  0.30344210  0.14244931  1
  Zr  Zr70  1  0.52181479  0.32124504  0.86611997  1
  Zr  Zr71  1  0.49681069  0.89933419  0.62670595  1
  Zr  Zr72  1  0.89631160  0.09914572  0.12515181  1
  Zr  Zr73  1  0.39708707  0.19225323  0.25717725  1
  Zr  Zr74  1  0.78530627  -0.01100190  0.00170555  1
  Zr  Zr75  1  0.19611716  0.20004613  0.72841583  1
  Zr  Zr76  1  0.39953977  0.00056278  0.76200726  1
  Zr  Zr77  1  0.10064205  0.32676083  0.14517891  1
  Zr  Zr78  1  0.20977278  0.39435896  0.74012098  1
  Zr  Zr79  1  0.68811146  0.90046536  0.61802626  1
  Ta  Ta80  1  0.79363260  0.59725523  0.75897128  1
  Ta  Ta81  1  0.79924152  0.20218895  0.26664085  1
  Ta  Ta82  1  0.69170390  0.89730267  0.39275933  1
  Ta  Ta83  1  -0.00749540  0.59406646  0.48700959  1
  Ta  Ta84  1  -0.00210433  0.78522965  0.49128802  1
  Ta  Ta85  1  0.79895149  0.59295352  -0.00640036  1
  Ta  Ta86  1  0.80624312  0.19663438  0.72227371  1
  Ta  Ta87  1  0.50945297  0.51139929  0.63736052  1
  Ta  Ta88  1  0.80084605  0.20275434  0.49828687  1
  Ta  Ta89  1  0.89714717  0.10207353  0.38506230  1
  Ta  Ta90  1  0.69870327  0.10050355  0.38586161  1
  Ta  Ta91  1  0.29989517  0.89379808  0.38401869  1
  Ta  Ta92  1  0.89594160  0.90002293  0.60849950  1
  Ta  Ta93  1  0.39107215  0.59790976  0.25179125  1
  Ta  Ta94  1  0.40701127  0.21267395  0.75912115  1
  Ta  Ta95  1  0.89865607  0.30088367  0.61435825  1
  Ta  Ta96  1  0.79500189  0.80255758  0.74899011  1
  Ta  Ta97  1  0.00127487  0.20011302  0.50164499  1
  Ta  Ta98  1  0.88656451  0.67686620  0.36616913  1
  Ta  Ta99  1  0.10043924  0.30621664  0.36737525  1
  Ta  Ta100  1  0.09727850  0.50030595  0.85933716  1
  Ta  Ta101  1  0.89936029  0.69262374  0.12307650  1
  Ta  Ta102  1  0.90505902  0.90121437  0.88371765  1
  Ta  Ta103  1  0.19787739  0.19753444  0.24672524  1
  Ta  Ta104  1  -0.00259898  0.20205727  0.26391844  1
  Ta  Ta105  1  0.10904161  0.88861795  0.38093366  1
  Ta  Ta106  1  0.49239284  0.69546462  0.86467992  1
  Ta  Ta107  1  0.40786034  0.40833334  0.74866412  1
  Ta  Ta108  1  0.89749657  0.30512348  0.37855556  1
  Ta  Ta109  1  0.69746542  0.10102159  0.60809576  1
  Ta  Ta110  1  0.20104280  0.00286566  0.00752564  1
  Ta  Ta111  1  0.69505096  0.68546463  0.37565775  1
  Ta  Ta112  1  0.79094130  0.38896248  0.73715606  1
  Ta  Ta113  1  0.60004030  -0.00124785  0.26413847  1
  Ta  Ta114  1  0.89354789  0.49882247  0.63772265  1
  Ta  Ta115  1  -0.00524156  0.00669373  0.73463323  1
  Ta  Ta116  1  0.89478659  0.48925677  0.85642172  1
  Ta  Ta117  1  0.08676375  0.69286179  0.11634326  1
  Ta  Ta118  1  0.60659275  0.40264150  0.01650055  1
  Ta  Ta119  1  0.39948362  0.60042645  -0.00514415  1
  Ti  Ti120  1  0.09947081  0.10271880  0.37412975  1
  Ti  Ti121  1  0.40172112  0.80656135  0.50176396  1
  Ti  Ti122  1  0.50047088  0.70001242  0.64053448  1
  Ti  Ti123  1  0.61425501  0.21174838  0.74631987  1
  Ti  Ti124  1  0.09035841  0.90434936  0.88928032  1
  Ti  Ti125  1  0.50785636  0.30708064  0.35666096  1
  Ti  Ti126  1  0.39237037  0.79592057  0.74300391  1
  Ti  Ti127  1  0.59844262  0.20597401  0.49011689  1
  Ti  Ti128  1  0.88789086  0.28681727  0.85932151  1
  Ti  Ti129  1  0.60720208  0.00328919  0.76021607  1
  Ti  Ti130  1  0.51099357  0.30711617  0.62909137  1
  Ti  Ti131  1  0.10454292  0.68782280  0.38828626  1
  Ti  Ti132  1  0.31123663  0.50905846  0.62135495  1
  Ti  Ti133  1  0.19926180  0.40008864  -0.01396952  1
  Ti  Ti134  1  0.09455786  0.69371444  0.61869934  1
  Ti  Ti135  1  0.20154773  0.79309072  0.50899416  1
  Ti  Ti136  1  0.39854603  0.80504911  0.25434844  1
  Ti  Ti137  1  0.58930585  0.78773275  0.49516172  1
  Ti  Ti138  1  0.30346484  0.69982982  0.87815440  1
  Ti  Ti139  1  0.19531834  0.79434175  -0.00130552  1
  Ti  Ti140  1  0.89787814  0.30043925  0.15069189  1
  Ti  Ti141  1  0.79590309  0.79571788  -0.00516973  1
  Ti  Ti142  1  0.61646140  0.42671175  0.51740498  1
  Ti  Ti143  1  0.60812754  0.60022431  0.23494078  1
  Ti  Ti144  1  0.70877188  0.49795438  0.12794755  1
  Ti  Ti145  1  0.69952841  0.30230832  0.60987202  1
  Ti  Ti146  1  -0.00663036  0.38701936  0.74520763  1
  Ti  Ti147  1  0.71071840  0.50908727  0.36498421  1
  Ti  Ti148  1  0.30615146  0.69949984  0.61534442  1
  Ti  Ti149  1  0.19427889  0.59569587  -0.00176888  1
  Ti  Ti150  1  0.80129032  0.40430184  0.25252449  1
  Ti  Ti151  1  0.59516267  0.59550370  0.76422527  1
  Ti  Ti152  1  0.40364548  0.79507648  -0.00115350  1
  Ti  Ti153  1  0.70998656  0.69715175  0.12352436  1
  Ti  Ti154  1  -0.00189699  0.00612790  0.49902409  1
  Ti  Ti155  1  0.58458563  0.00376543  0.48562100  1
  Ti  Ti156  1  0.79417531  0.57769434  0.50692541  1
  Ti  Ti157  1  0.31985345  0.30056807  0.62178946  1
  Ti  Ti158  1  0.50535411  0.90475680  0.11968203  1
  Ti  Ti159  1  0.69487843  0.70612745  0.86691868  1
  Mo  Mo160  1  0.19583681  0.60623446  0.51853302  1
  Mo  Mo161  1  0.89594870  0.09548549  0.60051062  1
  Mo  Mo162  1  0.60795603  0.60244768  0.50126045  1
  Mo  Mo163  1  0.79248182  0.59972918  0.23496675  1
  Mo  Mo164  1  0.70055582  0.50418406  0.64021803  1
  Mo  Mo165  1  0.08318727  0.29986706  0.63388482  1
  Mo  Mo166  1  0.19713242  0.79657052  0.25920472  1
  Mo  Mo167  1  0.69426143  0.90415597  0.13404696  1
  Mo  Mo168  1  0.00255202  -0.00269668  -0.00313748  1
  Mo  Mo169  1  0.50814448  0.10219297  0.37170499  1
  Mo  Mo170  1  -0.00321689  0.79405873  -0.00260699  1
  Mo  Mo171  1  0.49952243  0.89734641  0.38599628  1
  Mo  Mo172  1  0.79261951  0.00099480  0.49863675  1
  Mo  Mo173  1  0.70669620  0.89238744  0.85821858  1
  Mo  Mo174  1  0.61374834  0.40671044  0.23648488  1
  Mo  Mo175  1  0.39957016  0.60719700  0.74451240  1
  Mo  Mo176  1  0.29831595  0.10195795  0.11952194  1
  Mo  Mo177  1  0.80804585  0.20898599  0.01396853  1
  Mo  Mo178  1  0.71357929  0.30129379  0.86094160  1
  Mo  Mo179  1  0.19827172  0.40268354  0.26281030  1
  Mo  Mo180  1  0.10037908  0.50384763  0.10844826  1
  Mo  Mo181  1  0.08699068  0.09784337  0.62576263  1
  Mo  Mo182  1  0.89063398  0.49674102  0.36814233  1
  Mo  Mo183  1  0.71009226  0.30436633  0.14855236  1
  Mo  Mo184  1  0.09630505  0.50102466  0.39523694  1
  Mo  Mo185  1  0.79892006  0.40403032  0.51216082  1
  Mo  Mo186  1  0.40585784  -0.00781431  0.48778034  1
  Mo  Mo187  1  0.30212360  0.88845755  0.60891468  1
  Mo  Mo188  1  -0.00315812  0.59571926  0.76167398  1
  Mo  Mo189  1  0.50720687  0.11062499  0.85283919  1
  Mo  Mo190  1  0.00250308  0.40890613  0.27474459  1
  Mo  Mo191  1  -0.00466841  0.59812260  0.26509467  1
  Mo  Mo192  1  0.60329556  0.39937630  0.72811627  1
  Mo  Mo193  1  -0.00989263  0.19392756  0.72839161  1
  Mo  Mo194  1  0.60584729  0.19952534  0.27078985  1
  Mo  Mo195  1  0.40548663  0.40198499  -0.01989815  1
  Mo  Mo196  1  0.60037110  0.79405927  0.75603997  1
  Mo  Mo197  1  0.50061275  0.50511217  0.86947919  1
  Mo  Mo198  1  0.31006915  0.30884348  0.87382079  1
  Mo  Mo199  1  0.40060487  0.40670213  0.27161465  1
