# generated using pymatgen
data_HfZrTaTiMo
_symmetry_space_group_name_H-M   'P 1'
_cell_length_a   15.94010198
_cell_length_b   15.93535925
_cell_length_c   15.23366416
_cell_angle_alpha   90.08797002
_cell_angle_beta   90.05081671
_cell_angle_gamma   90.10921991
_symmetry_Int_Tables_number   1
_chemical_formula_structural   HfZrTaTiMo
_chemical_formula_sum   'Hf40 Zr40 Ta40 Ti40 Mo40'
_cell_volume   3869.50897659
_cell_formula_units_Z   40
loop_
 _symmetry_equiv_pos_site_id
 _symmetry_equiv_pos_as_xyz
  1  'x, y, z'
loop_
 _atom_site_type_symbol
 _atom_site_label
 _atom_site_symmetry_multiplicity
 _atom_site_fract_x
 _atom_site_fract_y
 _atom_site_fract_z
 _atom_site_occupancy
  Hf  Hf0  1  0.69759191  0.70356415  0.87450646  1
  Hf  Hf1  1  -0.01629913  -0.01928161  0.50217033  1
  Hf  Hf2  1  0.48987626  0.70853323  0.13382304  1
  Hf  Hf3  1  0.50300486  0.10303469  0.12795994  1
  Hf  Hf4  1  0.89605720  0.49263359  0.37560487  1
  Hf  Hf5  1  0.60756457  0.40464314  0.24097823  1
  Hf  Hf6  1  0.71263527  0.91066933  0.62852285  1
  Hf  Hf7  1  0.29284479  0.69968762  0.35925007  1
  Hf  Hf8  1  0.89048177  0.10191195  0.61891963  1
  Hf  Hf9  1  0.19383409  0.20569498  0.00420328  1
  Hf  Hf10  1  0.30505124  0.10747000  0.12505741  1
  Hf  Hf11  1  0.09887252  0.68807462  0.64139248  1
  Hf  Hf12  1  0.19208444  0.78242267  0.50073569  1
  Hf  Hf13  1  0.79792880  0.00086633  -0.00386944  1
  Hf  Hf14  1  0.30105046  0.10147979  0.60887653  1
  Hf  Hf15  1  0.19672479  0.20213764  0.75655625  1
  Hf  Hf16  1  0.39938487  0.79458816  -0.01607665  1
  Hf  Hf17  1  0.60158902  0.00213665  0.50327205  1
  Hf  Hf18  1  0.00089445  0.00958749  0.74670915  1
  Hf  Hf19  1  0.38544054  0.60763473  0.75924469  1
  Hf  Hf20  1  0.30031814  0.31087332  0.14045094  1
  Hf  Hf21  1  0.39064064  0.59627322  0.48644701  1
  Hf  Hf22  1  0.10162758  0.69057682  0.87765203  1
  Hf  Hf23  1  0.59082987  0.60026122  -0.00056653  1
  Hf  Hf24  1  0.89246441  0.47800533  0.12144122  1
  Hf  Hf25  1  0.20060338  -0.00362415  0.00328101  1
  Hf  Hf26  1  0.09912161  0.89658254  0.87047942  1
  Hf  Hf27  1  0.91437648  0.31156819  0.89000971  1
  Hf  Hf28  1  0.09198727  0.47323735  0.88125699  1
  Hf  Hf29  1  0.30937308  0.88702132  0.63140643  1
  Hf  Hf30  1  0.41123283  -0.00559117  -0.00553525  1
  Hf  Hf31  1  0.59305112  0.40198955  0.51115403  1
  Hf  Hf32  1  -0.00866649  -0.00400226  0.24410212  1
  Hf  Hf33  1  0.70720708  0.70737843  0.38576457  1
  Hf  Hf34  1  0.69351001  0.89654553  0.86399040  1
  Hf  Hf35  1  0.29708398  0.89173520  0.37027040  1
  Hf  Hf36  1  0.50307785  0.50071607  0.37008279  1
  Hf  Hf37  1  -0.00325728  0.80077631  0.00368791  1
  Hf  Hf38  1  0.78689498  0.22309908  0.75461100  1
  Hf  Hf39  1  0.82835381  0.81672266  0.51089682  1
  Zr  Zr40  1  0.39222228  0.39616175  0.75311654  1
  Zr  Zr41  1  0.09395519  0.88475109  0.64038350  1
  Zr  Zr42  1  0.59965348  0.39995989  0.00671204  1
  Zr  Zr43  1  0.00129965  0.58811828  0.00236588  1
  Zr  Zr44  1  0.60053151  0.80398619  0.51275092  1
  Zr  Zr45  1  0.71032368  0.10094802  0.37464646  1
  Zr  Zr46  1  0.70891654  0.10917823  0.12175798  1
  Zr  Zr47  1  0.59462515  0.20819246  0.50177255  1
  Zr  Zr48  1  0.00802659  0.60717253  0.49543511  1
  Zr  Zr49  1  0.18839700  -0.00845105  0.24952742  1
  Zr  Zr50  1  0.40219180  0.19717829  0.75942775  1
  Zr  Zr51  1  0.61287956  0.38172311  0.74098597  1
  Zr  Zr52  1  0.60242586  0.59934760  0.23974171  1
  Zr  Zr53  1  0.79448373  0.01390421  0.75954156  1
  Zr  Zr54  1  0.61003898  0.20926595  0.24728515  1
  Zr  Zr55  1  0.10191191  0.29841011  0.37374916  1
  Zr  Zr56  1  0.01017066  0.40765076  0.51045123  1
  Zr  Zr57  1  0.79789735  0.59756916  0.25376443  1
  Zr  Zr58  1  0.22169598  0.77999076  0.76717298  1
  Zr  Zr59  1  0.49915282  0.49545366  0.86880904  1
  Zr  Zr60  1  0.89594206  0.68880739  0.12260056  1
  Zr  Zr61  1  0.29617641  0.29233289  0.60272637  1
  Zr  Zr62  1  0.18796456  0.59730771  0.23793912  1
  Zr  Zr63  1  0.18919112  -0.00886352  0.49971835  1
  Zr  Zr64  1  0.19305884  0.39262417  0.73913978  1
  Zr  Zr65  1  0.71228428  0.50892157  0.62592554  1
  Zr  Zr66  1  0.58861764  0.61498089  0.51814290  1
  Zr  Zr67  1  0.59877126  0.60667694  0.73768492  1
  Zr  Zr68  1  0.40148927  0.00602745  0.25821017  1
  Zr  Zr69  1  0.01757313  0.79815050  0.22062382  1
  Zr  Zr70  1  0.90078668  0.11507898  0.88031695  1
  Zr  Zr71  1  0.30876088  0.88833658  0.13513489  1
  Zr  Zr72  1  -0.01410181  0.58922325  0.75673446  1
  Zr  Zr73  1  0.71033408  0.31470057  0.38025510  1
  Zr  Zr74  1  -0.00309663  -0.00208675  0.00811089  1
  Zr  Zr75  1  0.91402107  0.71596547  0.36972500  1
  Zr  Zr76  1  0.20520421  0.00902634  0.75400906  1
  Zr  Zr77  1  0.58980820  0.01635196  0.74491605  1
  Zr  Zr78  1  0.69845637  0.70301829  0.11381887  1
  Zr  Zr79  1  0.40855654  -0.00584655  0.49692080  1
  Ta  Ta80  1  0.29928240  0.68916414  0.61591165  1
  Ta  Ta81  1  0.70198898  0.50858552  0.39185860  1
  Ta  Ta82  1  0.80593378  0.78547866  0.73563676  1
  Ta  Ta83  1  0.90279170  0.10317115  0.38163109  1
  Ta  Ta84  1  0.19508315  0.39939463  0.01721826  1
  Ta  Ta85  1  0.09075023  0.29281408  0.14154769  1
  Ta  Ta86  1  0.00655347  0.21310477  0.73681856  1
  Ta  Ta87  1  0.50750075  0.90083686  0.13764966  1
  Ta  Ta88  1  0.50413210  0.10193902  0.37027077  1
  Ta  Ta89  1  0.30509802  0.10404484  0.88919577  1
  Ta  Ta90  1  0.20075530  0.19671253  0.25971287  1
  Ta  Ta91  1  0.80089584  0.80744827  0.00283112  1
  Ta  Ta92  1  0.80584829  0.81419322  0.23961413  1
  Ta  Ta93  1  0.71341685  0.90465067  0.37474315  1
  Ta  Ta94  1  0.19887444  0.79271151  0.00698656  1
  Ta  Ta95  1  0.40664104  0.79175107  0.49276418  1
  Ta  Ta96  1  0.09650611  0.10555870  0.13308141  1
  Ta  Ta97  1  0.08714903  0.87645043  0.37563484  1
  Ta  Ta98  1  0.29303585  0.50091882  0.61279374  1
  Ta  Ta99  1  0.49019617  0.30411689  0.13670104  1
  Ta  Ta100  1  0.29437895  0.10493438  0.38382222  1
  Ta  Ta101  1  0.39208412  0.59143333  0.24839065  1
  Ta  Ta102  1  0.20194640  0.58918860  0.01085213  1
  Ta  Ta103  1  0.50936957  0.89546818  0.36333062  1
  Ta  Ta104  1  0.59465681  0.81204427  0.00264481  1
  Ta  Ta105  1  0.39985679  0.20867119  0.26781519  1
  Ta  Ta106  1  0.30017532  0.69534439  0.12657766  1
  Ta  Ta107  1  0.82756406  0.22136048  0.25681204  1
  Ta  Ta108  1  0.61173937  0.80516617  0.24939023  1
  Ta  Ta109  1  0.89708171  0.89131820  0.86107031  1
  Ta  Ta110  1  0.48164569  0.49994310  0.62657972  1
  Ta  Ta111  1  0.89455195  0.30251043  0.61901483  1
  Ta  Ta112  1  0.50080419  0.70402407  0.36026643  1
  Ta  Ta113  1  0.00039176  0.39563388  0.72901388  1
  Ta  Ta114  1  0.79924322  0.59244813  -0.01728132  1
  Ta  Ta115  1  0.29574155  0.30447867  0.89074487  1
  Ta  Ta116  1  0.39717099  0.39717385  0.48446749  1
  Ta  Ta117  1  0.69792071  0.90713046  0.12455681  1
  Ta  Ta118  1  0.68591582  0.12206281  0.88549791  1
  Ta  Ta119  1  -0.02092038  0.37778248  0.25584695  1
  Ti  Ti120  1  0.89581881  0.51534232  0.61891512  1
  Ti  Ti121  1  0.49269949  0.10911575  0.62100705  1
  Ti  Ti122  1  0.50345787  0.10760749  0.88248461  1
  Ti  Ti123  1  0.40426937  0.20935348  0.47648123  1
  Ti  Ti124  1  0.89439309  0.69900941  0.87584766  1
  Ti  Ti125  1  0.80610641  0.00595423  0.24375568  1
  Ti  Ti126  1  0.51240204  0.29209243  0.87554716  1
  Ti  Ti127  1  0.19621540  0.40185445  0.49874948  1
  Ti  Ti128  1  0.72905503  0.30962884  0.11513383  1
  Ti  Ti129  1  0.90240257  0.11957331  0.11899256  1
  Ti  Ti130  1  0.30407042  0.90131486  0.87148139  1
  Ti  Ti131  1  0.29362050  0.49507128  0.88823704  1
  Ti  Ti132  1  0.18884422  0.58473661  0.48433450  1
  Ti  Ti133  1  0.10240809  0.10840907  0.61359095  1
  Ti  Ti134  1  0.20233845  0.58470843  0.75831866  1
  Ti  Ti135  1  0.39514287  0.59481703  0.00236892  1
  Ti  Ti136  1  0.48112852  0.49402540  0.13108280  1
  Ti  Ti137  1  0.60233768  0.78846467  0.72436923  1
  Ti  Ti138  1  0.80089231  0.20622187  0.49867205  1
  Ti  Ti139  1  0.09372580  0.09527543  0.37632300  1
  Ti  Ti140  1  0.00208881  0.20203426  0.50322716  1
  Ti  Ti141  1  0.50352379  0.89491468  0.85736677  1
  Ti  Ti142  1  0.59869505  -0.00136641  -0.00423042  1
  Ti  Ti143  1  0.09338060  0.11204195  0.88299094  1
  Ti  Ti144  1  0.49267855  0.29742582  0.62773927  1
  Ti  Ti145  1  0.70380700  0.49677152  0.86705996  1
  Ti  Ti146  1  0.69752911  0.11604306  0.62236424  1
  Ti  Ti147  1  0.60879162  0.00057468  0.25358392  1
  Ti  Ti148  1  0.49336644  0.89435314  0.63834136  1
  Ti  Ti149  1  0.39838264  0.39925139  -0.00026357  1
  Ti  Ti150  1  0.39946565  0.00438334  0.75727295  1
  Ti  Ti151  1  0.81299289  0.41107498  0.75528598  1
  Ti  Ti152  1  0.00339807  0.59233530  0.25239317  1
  Ti  Ti153  1  0.40564563  0.20970395  -0.00080318  1
  Ti  Ti154  1  0.50296055  0.70665712  0.86563384  1
  Ti  Ti155  1  0.60208358  0.21261310  0.01353424  1
  Ti  Ti156  1  0.28481983  0.48312790  0.35931607  1
  Ti  Ti157  1  0.80342921  0.40371670  0.50944420  1
  Ti  Ti158  1  0.09260391  0.48325099  0.13701487  1
  Ti  Ti159  1  0.70992135  0.49859921  0.11481259  1
  Mo  Mo160  1  0.47316383  0.70866149  0.63374275  1
  Mo  Mo161  1  0.79939963  0.00786916  0.49687570  1
  Mo  Mo162  1  0.90153229  0.29648432  0.40049788  1
  Mo  Mo163  1  0.10143460  0.69670408  0.37074843  1
  Mo  Mo164  1  -0.00651463  0.79307749  0.76387217  1
  Mo  Mo165  1  0.09584018  0.49390530  0.35220841  1
  Mo  Mo166  1  0.70985596  0.30352004  0.61244064  1
  Mo  Mo167  1  0.69984077  0.30368600  0.89016135  1
  Mo  Mo168  1  0.39814385  0.40148856  0.26436876  1
  Mo  Mo169  1  0.19223439  0.39840636  0.24222673  1
  Mo  Mo170  1  0.89869024  0.49418963  0.87995562  1
  Mo  Mo171  1  0.19360492  0.19360122  0.48279262  1
  Mo  Mo172  1  0.00696220  0.80006785  0.50692176  1
  Mo  Mo173  1  0.09734008  0.29307446  0.60794834  1
  Mo  Mo174  1  0.79643720  0.39825814  0.25594337  1
  Mo  Mo175  1  0.00450798  0.19951196  0.01230038  1
  Mo  Mo176  1  0.09901960  0.29395147  0.88006923  1
  Mo  Mo177  1  -0.00124513  0.19172678  0.25712079  1
  Mo  Mo178  1  0.72427629  0.69925650  0.61248685  1
  Mo  Mo179  1  0.40618332  0.79673652  0.25966800  1
  Mo  Mo180  1  0.10252756  0.69191148  0.10640184  1
  Mo  Mo181  1  0.79713774  0.20648680  -0.00725972  1
  Mo  Mo182  1  0.10922561  0.50062021  0.63275805  1
  Mo  Mo183  1  0.90130904  0.29462835  0.10998604  1
  Mo  Mo184  1  0.80538800  0.60693533  0.49191466  1
  Mo  Mo185  1  0.40525015  0.79747004  0.76348180  1
  Mo  Mo186  1  0.90393997  0.90172117  0.65051291  1
  Mo  Mo187  1  0.79843515  0.40505283  -0.01743537  1
  Mo  Mo188  1  0.89094904  0.90552799  0.12612277  1
  Mo  Mo189  1  0.00758543  0.39056705  0.02017260  1
  Mo  Mo190  1  0.10307053  0.90245402  0.10984595  1
  Mo  Mo191  1  0.19991245  0.79559019  0.23144139  1
  Mo  Mo192  1  0.50070814  0.30564417  0.36194542  1
  Mo  Mo193  1  0.90333053  0.69812271  0.62658487  1
  Mo  Mo194  1  0.29772358  0.30303236  0.37393687  1
  Mo  Mo195  1  0.59785004  0.20127665  0.74181961  1
  Mo  Mo196  1  0.89869809  0.90671064  0.35633898  1
  Mo  Mo197  1  0.30424001  0.49710251  0.12209555  1
  Mo  Mo198  1  0.29994787  0.68638145  0.90004837  1
  Mo  Mo199  1  0.80037717  0.59846192  0.76637424  1
