# generated using pymatgen
data_HfZrTaTiMo
_symmetry_space_group_name_H-M   'P 1'
_cell_length_a   15.92931122
_cell_length_b   15.93447363
_cell_length_c   15.19804743
_cell_angle_alpha   90.07352406
_cell_angle_beta   89.97024391
_cell_angle_gamma   89.98564718
_symmetry_Int_Tables_number   1
_chemical_formula_structural   HfZrTaTiMo
_chemical_formula_sum   'Hf40 Zr40 Ta40 Ti40 Mo40'
_cell_volume   3857.64345141
_cell_formula_units_Z   40
loop_
 _symmetry_equiv_pos_site_id
 _symmetry_equiv_pos_as_xyz
  1  'x, y, z'
loop_
 _atom_site_type_symbol
 _atom_site_label
 _atom_site_symmetry_multiplicity
 _atom_site_fract_x
 _atom_site_fract_y
 _atom_site_fract_z
 _atom_site_occupancy
  Hf  Hf0  1  0.39806594  0.60469074  0.72960064  1
  Hf  Hf1  1  0.08746379  0.90854433  0.11427359  1
  Hf  Hf2  1  0.39458593  0.79742511  0.49533750  1
  Hf  Hf3  1  0.20257469  0.20529203  -0.01576264  1
  Hf  Hf4  1  0.10646017  0.49282311  0.62337117  1
  Hf  Hf5  1  0.60294238  0.19057397  -0.00609102  1
  Hf  Hf6  1  0.09612221  0.69167845  0.37448025  1
  Hf  Hf7  1  0.50921964  0.50540073  0.38620987  1
  Hf  Hf8  1  0.20277253  0.60301432  0.75536587  1
  Hf  Hf9  1  0.10559940  0.70922766  0.63348185  1
  Hf  Hf10  1  0.49878288  0.29407277  0.12146111  1
  Hf  Hf11  1  -0.01442118  0.79972632  0.24832461  1
  Hf  Hf12  1  0.50011796  0.49805104  0.86439167  1
  Hf  Hf13  1  0.48816100  0.70354583  0.11806833  1
  Hf  Hf14  1  0.19715084  0.00046908  0.75977533  1
  Hf  Hf15  1  0.19403738  0.40006250  -0.00905719  1
  Hf  Hf16  1  0.59024808  0.20184392  0.26048350  1
  Hf  Hf17  1  0.50349035  0.29563690  0.62512095  1
  Hf  Hf18  1  0.60823818  0.00348652  0.00944668  1
  Hf  Hf19  1  0.31081201  0.49423883  0.87047912  1
  Hf  Hf20  1  0.49627171  0.69529498  0.88710142  1
  Hf  Hf21  1  0.40231215  0.80245850  0.25952393  1
  Hf  Hf22  1  -0.00535328  0.21246005  -0.02029273  1
  Hf  Hf23  1  0.10216425  0.49410773  0.39059829  1
  Hf  Hf24  1  0.09326114  0.11865743  0.12042187  1
  Hf  Hf25  1  0.60163308  -0.00594910  0.73973088  1
  Hf  Hf26  1  0.00519422  0.20958236  0.27686103  1
  Hf  Hf27  1  0.59778032  0.80453545  0.49148848  1
  Hf  Hf28  1  0.20338797  0.01158309  -0.00039210  1
  Hf  Hf29  1  0.29574735  0.49518856  0.38088601  1
  Hf  Hf30  1  0.50650080  0.10975443  0.62451101  1
  Hf  Hf31  1  0.70314664  0.90397251  0.13846876  1
  Hf  Hf32  1  0.19189920  0.78913319  -0.01037648  1
  Hf  Hf33  1  0.00123030  0.40352597  -0.02677577  1
  Hf  Hf34  1  -0.01272375  0.59925621  0.52204107  1
  Hf  Hf35  1  0.00412726  0.19674211  0.50534729  1
  Hf  Hf36  1  0.31073670  0.89992850  0.88502209  1
  Hf  Hf37  1  0.78677823  0.20178994  0.51714974  1
  Hf  Hf38  1  0.19187940  0.80450312  0.24889691  1
  Hf  Hf39  1  -0.00759362  0.80054324  0.75550762  1
  Zr  Zr40  1  -0.00503293  0.80298142  0.50653556  1
  Zr  Zr41  1  -0.00180782  0.00870128  0.25750326  1
  Zr  Zr42  1  -0.01622511  0.79381949  -0.01016862  1
  Zr  Zr43  1  0.28815706  0.92039278  0.37251124  1
  Zr  Zr44  1  0.59405168  0.80184181  0.73429437  1
  Zr  Zr45  1  0.49408598  0.30551610  0.86216389  1
  Zr  Zr46  1  0.69784373  0.70271686  0.87167860  1
  Zr  Zr47  1  0.49766771  0.91578320  0.37689550  1
  Zr  Zr48  1  0.88996052  0.90520877  0.38607532  1
  Zr  Zr49  1  0.80582420  0.40010407  0.73948117  1
  Zr  Zr50  1  0.29627065  0.68605657  0.12570041  1
  Zr  Zr51  1  0.31265277  0.28688258  0.38719734  1
  Zr  Zr52  1  0.80894591  0.18901831  -0.01720472  1
  Zr  Zr53  1  0.70527834  0.50942989  0.86301620  1
  Zr  Zr54  1  0.18712621  0.38555451  0.25753459  1
  Zr  Zr55  1  0.60253877  0.59255792  0.01157010  1
  Zr  Zr56  1  0.40904583  0.39577122  0.25578659  1
  Zr  Zr57  1  -0.00481110  0.59205164  0.24697115  1
  Zr  Zr58  1  0.60719681  0.01605047  0.49727773  1
  Zr  Zr59  1  0.19635242  0.80235738  0.49318030  1
  Zr  Zr60  1  0.81363674  0.39451947  -0.01364944  1
  Zr  Zr61  1  0.89078070  0.49024773  0.38779704  1
  Zr  Zr62  1  0.08584218  0.90910388  0.88180770  1
  Zr  Zr63  1  0.38591701  0.01148392  0.50969735  1
  Zr  Zr64  1  0.81622201  0.59938298  0.01176151  1
  Zr  Zr65  1  0.69718461  0.70338569  0.13084441  1
  Zr  Zr66  1  0.30975431  0.89652193  0.11486830  1
  Zr  Zr67  1  0.09911389  0.68869467  0.12762127  1
  Zr  Zr68  1  0.39726789  0.79655022  0.73793440  1
  Zr  Zr69  1  0.49956414  0.89843400  0.89001325  1
  Zr  Zr70  1  0.61807172  0.39303484  0.50379190  1
  Zr  Zr71  1  0.72374941  0.30546114  0.36466270  1
  Zr  Zr72  1  0.81116561  0.60415001  0.23698553  1
  Zr  Zr73  1  0.60470034  0.39873323  0.00661743  1
  Zr  Zr74  1  0.72425990  0.29458341  0.13683125  1
  Zr  Zr75  1  0.00524552  0.59410460  -0.01769040  1
  Zr  Zr76  1  0.69645547  0.29225277  0.85730258  1
  Zr  Zr77  1  0.69688888  0.69264633  0.38031652  1
  Zr  Zr78  1  0.29378008  0.29812903  0.12832970  1
  Zr  Zr79  1  0.28245188  0.89742334  0.62927862  1
  Ta  Ta80  1  0.29590377  0.50294523  0.12915453  1
  Ta  Ta81  1  0.19924844  0.00767370  0.23506693  1
  Ta  Ta82  1  0.59322823  0.80297143  0.25828629  1
  Ta  Ta83  1  0.10750358  0.29844068  0.84892393  1
  Ta  Ta84  1  0.60256483  0.40234028  0.25387826  1
  Ta  Ta85  1  -0.00546413  0.38680693  0.26542442  1
  Ta  Ta86  1  0.09589560  0.90971995  0.37806324  1
  Ta  Ta87  1  0.70691906  0.10274883  0.14039876  1
  Ta  Ta88  1  0.79585776  0.80806474  -0.00160066  1
  Ta  Ta89  1  0.70170532  0.69500478  0.61187727  1
  Ta  Ta90  1  0.70564227  0.50248264  0.36789816  1
  Ta  Ta91  1  -0.00031526  0.19966813  0.74334968  1
  Ta  Ta92  1  0.50422210  0.69607255  0.60325804  1
  Ta  Ta93  1  0.10240904  0.48907839  0.13104763  1
  Ta  Ta94  1  0.70328170  0.90571774  0.36883766  1
  Ta  Ta95  1  0.71594040  0.08057253  0.85892337  1
  Ta  Ta96  1  0.30488989  0.11074718  0.12963319  1
  Ta  Ta97  1  0.00051174  0.00639925  0.50680374  1
  Ta  Ta98  1  -0.00352463  0.59803484  0.75134523  1
  Ta  Ta99  1  0.79511361  0.80169527  0.73751318  1
  Ta  Ta100  1  0.39670916  0.40079802  0.00746114  1
  Ta  Ta101  1  0.89423112  0.11402549  0.13483443  1
  Ta  Ta102  1  0.89673904  0.90529341  0.62625803  1
  Ta  Ta103  1  0.29327095  0.68856510  0.36666246  1
  Ta  Ta104  1  0.39658435  0.60187910  0.49815007  1
  Ta  Ta105  1  0.87559837  0.91750283  0.86734092  1
  Ta  Ta106  1  0.60046632  0.60077187  0.73030724  1
  Ta  Ta107  1  0.40620384  -0.00423399  0.73921621  1
  Ta  Ta108  1  0.19721322  0.19512470  0.26447785  1
  Ta  Ta109  1  0.40614477  0.01527565  0.24061186  1
  Ta  Ta110  1  0.59403469  0.00697391  0.24839287  1
  Ta  Ta111  1  0.20619336  0.39672745  0.74145647  1
  Ta  Ta112  1  0.00183281  0.40088098  0.74482614  1
  Ta  Ta113  1  0.29585920  0.10698596  0.64180460  1
  Ta  Ta114  1  0.88984966  0.69514108  0.39160281  1
  Ta  Ta115  1  0.40081067  0.19604899  -0.00935225  1
  Ta  Ta116  1  0.50093480  0.49855056  0.61570458  1
  Ta  Ta117  1  0.20550831  0.19172503  0.50195041  1
  Ta  Ta118  1  0.70589631  0.49138232  0.14412014  1
  Ta  Ta119  1  0.30120481  0.29459025  0.62638927  1
  Ti  Ti120  1  -0.02501163  0.01804999  -0.00832158  1
  Ti  Ti121  1  0.59855050  0.80760807  0.01349043  1
  Ti  Ti122  1  0.90482473  0.29572216  0.62809199  1
  Ti  Ti123  1  0.00286746  0.38883792  0.51158729  1
  Ti  Ti124  1  0.49421293  0.50151129  0.12876168  1
  Ti  Ti125  1  0.80310201  0.00616087  0.25289632  1
  Ti  Ti126  1  0.47995769  0.12191022  0.38615366  1
  Ti  Ti127  1  0.80702511  0.60007140  0.72265300  1
  Ti  Ti128  1  0.88521991  0.69691436  0.86233582  1
  Ti  Ti129  1  -0.00787942  0.00458725  0.74767864  1
  Ti  Ti130  1  0.90652481  0.47208264  0.13090002  1
  Ti  Ti131  1  0.80006911  0.79696975  0.50842302  1
  Ti  Ti132  1  0.70010545  0.89832147  0.87516329  1
  Ti  Ti133  1  0.09338240  0.10403265  0.86842626  1
  Ti  Ti134  1  0.40320064  0.59958431  0.26118999  1
  Ti  Ti135  1  0.79647730  0.00776646  0.50819418  1
  Ti  Ti136  1  0.59305432  0.60188638  0.24889609  1
  Ti  Ti137  1  0.80373995  0.40316487  0.52717676  1
  Ti  Ti138  1  0.10592390  0.10324141  0.63336465  1
  Ti  Ti139  1  0.20676075  0.60285739  0.51168267  1
  Ti  Ti140  1  0.70130207  0.90218946  0.61345771  1
  Ti  Ti141  1  0.09408737  0.91001028  0.62672907  1
  Ti  Ti142  1  0.11547430  0.09063211  0.38505755  1
  Ti  Ti143  1  0.80189451  0.79969981  0.25268863  1
  Ti  Ti144  1  0.30449145  0.49118969  0.61799816  1
  Ti  Ti145  1  0.31189913  0.09905473  0.86804590  1
  Ti  Ti146  1  0.50371639  0.09719343  0.86475921  1
  Ti  Ti147  1  0.60643152  0.40282434  0.73181625  1
  Ti  Ti148  1  0.40355868  0.39555117  0.50293685  1
  Ti  Ti149  1  0.89198209  0.91140036  0.11760289  1
  Ti  Ti150  1  0.80037723  0.19299580  0.74264440  1
  Ti  Ti151  1  0.20068988  0.79447963  0.77017951  1
  Ti  Ti152  1  0.19305680  0.58990734  -0.01725406  1
  Ti  Ti153  1  0.70365712  0.10275401  0.36543329  1
  Ti  Ti154  1  0.30684664  0.30143880  0.85836079  1
  Ti  Ti155  1  0.40157714  0.19768626  0.75191061  1
  Ti  Ti156  1  0.89601735  0.09444524  0.63202022  1
  Ti  Ti157  1  0.88863395  0.10820589  0.38235087  1
  Ti  Ti158  1  0.31157137  0.69377450  0.89346381  1
  Ti  Ti159  1  0.41409343  0.01015738  0.01585408  1
  Mo  Mo160  1  0.69569287  0.29248890  0.63763917  1
  Mo  Mo161  1  0.10124626  0.69738270  0.86200023  1
  Mo  Mo162  1  0.70006137  0.50247318  0.62690249  1
  Mo  Mo163  1  0.79434596  0.59287044  0.51219006  1
  Mo  Mo164  1  0.10605470  0.29822037  0.40568073  1
  Mo  Mo165  1  0.90038601  0.50680399  0.85098043  1
  Mo  Mo166  1  0.89753192  0.72192733  0.11710371  1
  Mo  Mo167  1  0.49832307  0.90149321  0.61357396  1
  Mo  Mo168  1  0.81278582  0.39797974  0.24873095  1
  Mo  Mo169  1  0.80025159  0.00168634  0.00970742  1
  Mo  Mo170  1  0.60217595  0.19052438  0.76470092  1
  Mo  Mo171  1  0.90542743  0.29713064  0.84603978  1
  Mo  Mo172  1  0.90365586  0.49614770  0.62648803  1
  Mo  Mo173  1  0.60071681  0.59589415  0.50524411  1
  Mo  Mo174  1  0.90132800  0.09499368  0.85353437  1
  Mo  Mo175  1  0.20018916  0.58772752  0.25589562  1
  Mo  Mo176  1  0.59997557  0.20223349  0.48028963  1
  Mo  Mo177  1  0.90453155  0.30112217  0.40562532  1
  Mo  Mo178  1  0.39987492  0.19687040  0.24637685  1
  Mo  Mo179  1  0.39531775  0.58735901  0.00438888  1
  Mo  Mo180  1  0.20407221  0.19610220  0.75849416  1
  Mo  Mo181  1  0.92045001  0.29449276  0.12753479  1
  Mo  Mo182  1  0.08664178  0.30577668  0.12319765  1
  Mo  Mo183  1  0.70096390  0.10442844  0.63803288  1
  Mo  Mo184  1  0.50690468  0.30051646  0.39130667  1
  Mo  Mo185  1  0.40088661  0.79696312  0.00605508  1
  Mo  Mo186  1  0.18485904  0.00983631  0.51583912  1
  Mo  Mo187  1  0.39800796  0.19953309  0.51467879  1
  Mo  Mo188  1  0.89385541  0.70467341  0.62899378  1
  Mo  Mo189  1  0.39870035  0.40182870  0.72861670  1
  Mo  Mo190  1  0.29942671  0.69380736  0.61400409  1
  Mo  Mo191  1  0.50545152  0.90356655  0.13165700  1
  Mo  Mo192  1  0.10665054  0.49548345  0.85105260  1
  Mo  Mo193  1  0.79633482  -0.00589647  0.72761460  1
  Mo  Mo194  1  0.50210184  0.10458814  0.12281469  1
  Mo  Mo195  1  0.49576100  0.69546473  0.37713154  1
  Mo  Mo196  1  0.29763758  0.10046742  0.36180092  1
  Mo  Mo197  1  0.20257841  0.39069143  0.51610911  1
  Mo  Mo198  1  0.10669310  0.29251200  0.62802477  1
  Mo  Mo199  1  0.81388631  0.19525808  0.26124827  1
