# generated using pymatgen
data_HfZrTaTiMo
_symmetry_space_group_name_H-M   'P 1'
_cell_length_a   15.92256983
_cell_length_b   15.93386954
_cell_length_c   15.20341166
_cell_angle_alpha   90.03747586
_cell_angle_beta   89.92434901
_cell_angle_gamma   90.06705421
_symmetry_Int_Tables_number   1
_chemical_formula_structural   HfZrTaTiMo
_chemical_formula_sum   'Hf40 Zr40 Ta40 Ti40 Mo40'
_cell_volume   3857.22262802
_cell_formula_units_Z   40
loop_
 _symmetry_equiv_pos_site_id
 _symmetry_equiv_pos_as_xyz
  1  'x, y, z'
loop_
 _atom_site_type_symbol
 _atom_site_label
 _atom_site_symmetry_multiplicity
 _atom_site_fract_x
 _atom_site_fract_y
 _atom_site_fract_z
 _atom_site_occupancy
  Hf  Hf0  1  0.89316506  0.50550492  0.63991128  1
  Hf  Hf1  1  0.30611168  0.11454829  0.85924647  1
  Hf  Hf2  1  0.39345661  -0.00156738  0.50150528  1
  Hf  Hf3  1  0.89875474  0.70073028  0.36093689  1
  Hf  Hf4  1  0.59768170  -0.02745350  0.24824217  1
  Hf  Hf5  1  0.41804600  0.80157486  0.23459329  1
  Hf  Hf6  1  0.70451822  0.89708943  0.39431118  1
  Hf  Hf7  1  0.30081171  0.67757625  0.13553889  1
  Hf  Hf8  1  0.70114671  0.70424035  0.88048289  1
  Hf  Hf9  1  0.09833505  0.70975554  0.86686886  1
  Hf  Hf10  1  0.20699798  0.59782341  0.49774530  1
  Hf  Hf11  1  0.60721336  0.60313151  0.24333495  1
  Hf  Hf12  1  0.50550587  0.88032766  0.39082076  1
  Hf  Hf13  1  0.08814603  0.30526270  0.11790088  1
  Hf  Hf14  1  0.39973379  0.40264437  0.75748922  1
  Hf  Hf15  1  0.78146630  0.79686953  0.24159686  1
  Hf  Hf16  1  0.28166196  0.10202311  0.62730784  1
  Hf  Hf17  1  0.50534969  0.49721363  0.37409500  1
  Hf  Hf18  1  0.21061651  0.39752428  0.23441623  1
  Hf  Hf19  1  0.89781986  0.91703337  0.60295828  1
  Hf  Hf20  1  0.60630388  0.40342129  0.23164592  1
  Hf  Hf21  1  0.59713423  0.00502515  0.51137913  1
  Hf  Hf22  1  0.90630188  0.69439135  0.63594007  1
  Hf  Hf23  1  0.39888971  0.19789880  0.50123627  1
  Hf  Hf24  1  0.19367475  0.79319289  0.01430315  1
  Hf  Hf25  1  0.91037359  0.29172636  0.88989414  1
  Hf  Hf26  1  0.40589597  0.59334901  0.75703687  1
  Hf  Hf27  1  0.09525158  0.70566371  0.61945935  1
  Hf  Hf28  1  0.49129160  0.10545138  0.64397086  1
  Hf  Hf29  1  0.08579100  0.11519339  0.88206268  1
  Hf  Hf30  1  0.09945565  0.30359183  0.37577653  1
  Hf  Hf31  1  0.79387749  0.39366787  0.75570415  1
  Hf  Hf32  1  -0.00507706  0.59102464  0.47959999  1
  Hf  Hf33  1  0.30679294  0.30447697  0.37946463  1
  Hf  Hf34  1  0.60856308  -0.00149803  0.74327659  1
  Hf  Hf35  1  0.20624488  0.81656370  0.74185458  1
  Hf  Hf36  1  0.89979156  0.10407396  0.13611013  1
  Hf  Hf37  1  0.70440303  0.09420985  0.13375597  1
  Hf  Hf38  1  0.28968543  0.89482002  0.38304955  1
  Hf  Hf39  1  0.50528982  0.09816673  0.13295449  1
  Zr  Zr40  1  0.38664925  -0.01908041  0.74191375  1
  Zr  Zr41  1  0.09232719  0.90939600  0.37891969  1
  Zr  Zr42  1  0.90888370  0.50093244  0.12528548  1
  Zr  Zr43  1  0.71065874  0.30935407  0.38374936  1
  Zr  Zr44  1  0.40174696  0.00697436  0.00143610  1
  Zr  Zr45  1  0.19693959  0.80802731  0.23654450  1
  Zr  Zr46  1  -0.00185620  0.82827229  0.74702196  1
  Zr  Zr47  1  0.10296889  0.91262645  0.59030335  1
  Zr  Zr48  1  0.31568667  0.49893467  0.37451406  1
  Zr  Zr49  1  0.68697689  0.88231442  0.10309011  1
  Zr  Zr50  1  0.19582957  0.59003790  0.75295312  1
  Zr  Zr51  1  0.60785392  0.58383725  0.50468733  1
  Zr  Zr52  1  0.30634497  0.70433066  0.63472164  1
  Zr  Zr53  1  0.50898835  0.10438147  0.36916848  1
  Zr  Zr54  1  -0.00266128  0.60670292  -0.01537600  1
  Zr  Zr55  1  0.19589558  0.00451924  0.00730574  1
  Zr  Zr56  1  0.69119248  0.70147443  0.38570011  1
  Zr  Zr57  1  0.40581957  0.21476680  0.24687745  1
  Zr  Zr58  1  0.09787270  0.71809992  0.38378006  1
  Zr  Zr59  1  0.71043420  0.67923623  0.64020766  1
  Zr  Zr60  1  0.17921636  0.58126647  0.26783235  1
  Zr  Zr61  1  0.08460754  0.68890730  0.13660017  1
  Zr  Zr62  1  0.18071412  -0.00010810  0.75753478  1
  Zr  Zr63  1  0.50173007  0.30388448  0.62806894  1
  Zr  Zr64  1  0.29450736  0.89265280  0.89110184  1
  Zr  Zr65  1  0.70685946  0.10500150  0.36365842  1
  Zr  Zr66  1  0.90459838  0.09401898  0.88283552  1
  Zr  Zr67  1  0.01118144  0.39667116  0.76184609  1
  Zr  Zr68  1  0.29964343  0.09648338  0.14578055  1
  Zr  Zr69  1  0.80522323  0.19676423  0.74462332  1
  Zr  Zr70  1  0.08988989  0.49835052  0.62091935  1
  Zr  Zr71  1  0.50090501  0.89543740  0.88006322  1
  Zr  Zr72  1  0.31249853  0.69702627  0.36703774  1
  Zr  Zr73  1  0.20697139  0.20412347  0.01253898  1
  Zr  Zr74  1  0.70528003  0.89352431  0.61396477  1
  Zr  Zr75  1  0.07874662  0.10947875  0.62620860  1
  Zr  Zr76  1  0.49794881  0.28395602  0.87295874  1
  Zr  Zr77  1  0.70434006  0.90058526  0.87816645  1
  Zr  Zr78  1  0.51263161  0.30855954  0.38699881  1
  Zr  Zr79  1  0.40142867  0.59963616  -0.00402260  1
  Ta  Ta80  1  0.09952529  0.29913600  0.61231370  1
  Ta  Ta81  1  0.61628249  0.20291584  0.73999025  1
  Ta  Ta82  1  0.09143839  0.10279419  0.14175574  1
  Ta  Ta83  1  0.91179199  0.29735262  0.62449337  1
  Ta  Ta84  1  0.30143185  0.70176460  0.87464309  1
  Ta  Ta85  1  0.61655149  0.20103339  0.52064119  1
  Ta  Ta86  1  0.20368486  0.39889512  0.50685440  1
  Ta  Ta87  1  0.70108193  0.50492138  0.10161886  1
  Ta  Ta88  1  0.29426245  0.30444215  0.87674861  1
  Ta  Ta89  1  0.50649219  0.50605456  0.10675211  1
  Ta  Ta90  1  0.79899079  0.00160922  0.00207994  1
  Ta  Ta91  1  0.69613934  0.10433870  0.88320176  1
  Ta  Ta92  1  0.88767222  0.48557979  0.36334656  1
  Ta  Ta93  1  0.09640323  0.10648205  0.35793255  1
  Ta  Ta94  1  0.61343869  0.21839725  0.23117685  1
  Ta  Ta95  1  0.79985194  0.58501658  0.48826198  1
  Ta  Ta96  1  0.52356794  0.70529757  0.11015003  1
  Ta  Ta97  1  0.41398039  0.60184963  0.51733998  1
  Ta  Ta98  1  0.80171340  0.80600120  0.74757398  1
  Ta  Ta99  1  0.89029942  0.90407677  0.12581416  1
  Ta  Ta100  1  0.49960650  0.70089155  0.87444741  1
  Ta  Ta101  1  0.69733589  0.29242384  0.89004830  1
  Ta  Ta102  1  0.81499882  0.19588582  0.50687657  1
  Ta  Ta103  1  0.79565792  0.20158623  0.01254718  1
  Ta  Ta104  1  0.89482010  0.10828662  0.34736200  1
  Ta  Ta105  1  0.01102648  0.41494794  0.25647097  1
  Ta  Ta106  1  0.29197034  0.49529039  0.88938965  1
  Ta  Ta107  1  0.59997014  0.58638323  0.76562328  1
  Ta  Ta108  1  0.10599420  0.50035417  0.10318196  1
  Ta  Ta109  1  0.08172753  0.91195043  0.89589678  1
  Ta  Ta110  1  0.79236043  0.59095968  0.24687488  1
  Ta  Ta111  1  0.80407422  0.60469231  -0.00463709  1
  Ta  Ta112  1  0.89526383  0.90067118  0.37733248  1
  Ta  Ta113  1  -0.01010311  0.80336938  0.00971895  1
  Ta  Ta114  1  0.40591329  0.40885106  0.22170275  1
  Ta  Ta115  1  0.60604366  0.39833492  0.75621215  1
  Ta  Ta116  1  0.40122482  -0.00940481  0.25974438  1
  Ta  Ta117  1  0.39659657  0.39562897  0.00383463  1
  Ta  Ta118  1  0.59489123  0.79261963  0.74499505  1
  Ta  Ta119  1  0.19983872  0.20735160  0.24702992  1
  Ti  Ti120  1  0.40223771  0.19989205  0.00548731  1
  Ti  Ti121  1  0.30278951  0.49630348  0.62474507  1
  Ti  Ti122  1  0.10436184  0.49722414  0.88933677  1
  Ti  Ti123  1  0.50424766  0.10497859  0.86276129  1
  Ti  Ti124  1  0.79203904  0.39653049  0.23180411  1
  Ti  Ti125  1  0.89061715  0.69898526  0.13039025  1
  Ti  Ti126  1  0.48912503  0.88461268  0.62901917  1
  Ti  Ti127  1  -0.01082059  0.39759340  0.49071379  1
  Ti  Ti128  1  -0.00571032  -0.00350751  0.25067727  1
  Ti  Ti129  1  0.79384032  0.40289900  0.51481006  1
  Ti  Ti130  1  0.72055125  0.09125509  0.61985876  1
  Ti  Ti131  1  0.49680501  0.69105175  0.36774770  1
  Ti  Ti132  1  0.40191509  0.79802638  0.01401595  1
  Ti  Ti133  1  0.80426435  0.40062484  -0.00178944  1
  Ti  Ti134  1  0.19678883  0.19795476  0.49136629  1
  Ti  Ti135  1  0.81006342  0.78335070  0.50500004  1
  Ti  Ti136  1  0.90195088  0.50234317  0.87085543  1
  Ti  Ti137  1  0.59729135  0.40048131  -0.01245492  1
  Ti  Ti138  1  0.10163256  0.30744355  0.89761715  1
  Ti  Ti139  1  0.40330469  0.40692143  0.51405289  1
  Ti  Ti140  1  0.39843850  0.78927658  0.50913734  1
  Ti  Ti141  1  -0.01667570  0.02525072  0.48085655  1
  Ti  Ti142  1  0.29643590  0.29679377  0.62900854  1
  Ti  Ti143  1  0.59663710  0.00649867  -0.00215167  1
  Ti  Ti144  1  -0.00813378  0.20507297  0.48694317  1
  Ti  Ti145  1  0.58724500  0.77696386  0.52611615  1
  Ti  Ti146  1  0.51126430  0.49833993  0.62894819  1
  Ti  Ti147  1  0.90231125  0.30356499  0.12453194  1
  Ti  Ti148  1  0.89750113  0.29690534  0.35579262  1
  Ti  Ti149  1  0.29128019  0.09726751  0.36631323  1
  Ti  Ti150  1  0.09025482  0.91142201  0.12489667  1
  Ti  Ti151  1  0.70295110  0.49921757  0.88289190  1
  Ti  Ti152  1  0.50948882  0.29918682  0.10506340  1
  Ti  Ti153  1  0.18645369  0.21747030  0.75321544  1
  Ti  Ti154  1  0.89808680  0.70784255  0.86376321  1
  Ti  Ti155  1  0.30285709  0.90502510  0.12969867  1
  Ti  Ti156  1  -0.00851013  0.80640260  0.23893293  1
  Ti  Ti157  1  0.20046259  0.39834316  0.74609235  1
  Ti  Ti158  1  0.89796178  0.90041536  0.89185365  1
  Ti  Ti159  1  0.81010783  -0.00361984  0.75572706  1
  Mo  Mo160  1  0.19574918  0.01790114  0.47940885  1
  Mo  Mo161  1  0.80260715  0.59868478  0.77712913  1
  Mo  Mo162  1  0.40251091  0.79496675  0.74986121  1
  Mo  Mo163  1  -0.00233681  0.21281698  0.25040337  1
  Mo  Mo164  1  0.09647077  0.48890424  0.39123102  1
  Mo  Mo165  1  0.50489847  0.69247268  0.64533508  1
  Mo  Mo166  1  0.80145012  -0.01161321  0.25625455  1
  Mo  Mo167  1  0.20335707  0.40237913  0.00594005  1
  Mo  Mo168  1  0.80318182  0.01490997  0.47916697  1
  Mo  Mo169  1  0.30005988  0.49833535  0.11200514  1
  Mo  Mo170  1  0.49443065  0.89980749  0.10999199  1
  Mo  Mo171  1  -0.00329421  0.20085950  0.02121116  1
  Mo  Mo172  1  0.70150224  0.30901590  0.10035963  1
  Mo  Mo173  1  -0.01023633  0.79866016  0.49973321  1
  Mo  Mo174  1  0.70729586  0.49218371  0.36693585  1
  Mo  Mo175  1  -0.01062025  0.00229880  0.75373187  1
  Mo  Mo176  1  0.50178977  0.49252991  0.88640073  1
  Mo  Mo177  1  -0.00290622  0.40316901  -0.00986242  1
  Mo  Mo178  1  0.30685883  0.29974524  0.11538308  1
  Mo  Mo179  1  0.59958135  0.19281376  0.00577129  1
  Mo  Mo180  1  -0.00999786  0.59414444  0.25941742  1
  Mo  Mo181  1  0.20638969  0.80240079  0.50888734  1
  Mo  Mo182  1  0.39039878  0.20491170  0.74395512  1
  Mo  Mo183  1  0.61067795  0.40029912  0.52113227  1
  Mo  Mo184  1  0.19983437  0.60246325  -0.01300610  1
  Mo  Mo185  1  0.70567999  0.69010283  0.10453135  1
  Mo  Mo186  1  -0.00453401  -0.00023027  0.02036716  1
  Mo  Mo187  1  0.80979421  0.79545486  0.00224153  1
  Mo  Mo188  1  0.19674570  0.00416360  0.25320130  1
  Mo  Mo189  1  0.70258913  0.49313072  0.64613818  1
  Mo  Mo190  1  0.41708206  0.59449907  0.22880024  1
  Mo  Mo191  1  0.70925709  0.29997210  0.61681867  1
  Mo  Mo192  1  0.79765727  0.21836549  0.23232843  1
  Mo  Mo193  1  0.60288116  0.59364964  -0.01690361  1
  Mo  Mo194  1  0.59740830  0.79141308  0.24802467  1
  Mo  Mo195  1  0.90062222  0.10081947  0.62795845  1
  Mo  Mo196  1  -0.00278954  0.59887310  0.76917843  1
  Mo  Mo197  1  0.00458201  0.20902524  0.74644856  1
  Mo  Mo198  1  0.59426468  0.79544219  -0.01504514  1
  Mo  Mo199  1  0.29763402  0.90099920  0.60284879  1
