# generated using pymatgen
data_HfZrTaTiMo
_symmetry_space_group_name_H-M   'P 1'
_cell_length_a   15.92455578
_cell_length_b   15.92413410
_cell_length_c   15.20647387
_cell_angle_alpha   89.95235817
_cell_angle_beta   90.01216023
_cell_angle_gamma   90.08728679
_symmetry_Int_Tables_number   1
_chemical_formula_structural   HfZrTaTiMo
_chemical_formula_sum   'Hf40 Zr40 Ta40 Ti40 Mo40'
_cell_volume   3856.12416027
_cell_formula_units_Z   40
loop_
 _symmetry_equiv_pos_site_id
 _symmetry_equiv_pos_as_xyz
  1  'x, y, z'
loop_
 _atom_site_type_symbol
 _atom_site_label
 _atom_site_symmetry_multiplicity
 _atom_site_fract_x
 _atom_site_fract_y
 _atom_site_fract_z
 _atom_site_occupancy
  Hf  Hf0  1  -0.00022722  0.60217329  0.24761035  1
  Hf  Hf1  1  0.70168254  0.29698766  0.12315171  1
  Hf  Hf2  1  0.71868259  0.51835788  0.87688225  1
  Hf  Hf3  1  -0.00057268  0.21880081  0.25184961  1
  Hf  Hf4  1  0.88506715  0.69412120  0.89481989  1
  Hf  Hf5  1  0.30673108  0.29194296  0.85738450  1
  Hf  Hf6  1  -0.01700882  0.78942410  0.75098994  1
  Hf  Hf7  1  0.10030759  0.49717934  0.61027854  1
  Hf  Hf8  1  0.81285685  0.41267316  0.00916901  1
  Hf  Hf9  1  0.18956924  0.79711618  0.00007496  1
  Hf  Hf10  1  0.49394541  0.90184080  0.88894746  1
  Hf  Hf11  1  0.29163514  0.69688592  0.38935314  1
  Hf  Hf12  1  0.10096458  0.49772149  0.11311603  1
  Hf  Hf13  1  0.39918242  0.39118677  0.25862928  1
  Hf  Hf14  1  0.81293007  0.61410229  0.72722562  1
  Hf  Hf15  1  0.79426517  -0.00929854  0.76256654  1
  Hf  Hf16  1  0.60117675  0.39747347  0.26188871  1
  Hf  Hf17  1  0.09509641  0.09819425  0.64540577  1
  Hf  Hf18  1  0.70016164  0.30114899  0.63453038  1
  Hf  Hf19  1  0.79762710  0.20131313  0.51401060  1
  Hf  Hf20  1  0.60515963  0.39202376  0.49541633  1
  Hf  Hf21  1  0.88325493  0.11721282  0.35821625  1
  Hf  Hf22  1  0.90356526  0.09618973  0.64663212  1
  Hf  Hf23  1  0.59921730  0.00194269  0.76930613  1
  Hf  Hf24  1  0.29667370  0.09915654  0.86783974  1
  Hf  Hf25  1  0.39687449  0.80247744  0.75816996  1
  Hf  Hf26  1  0.11280540  0.30099428  0.85697964  1
  Hf  Hf27  1  0.08606349  0.69675566  0.61846469  1
  Hf  Hf28  1  0.69665486  0.69694754  0.12037809  1
  Hf  Hf29  1  0.69307016  0.90033230  0.61619561  1
  Hf  Hf30  1  0.89229442  0.89363111  0.62556523  1
  Hf  Hf31  1  0.30822878  0.90246134  0.61351248  1
  Hf  Hf32  1  0.29932174  0.29909462  0.39350526  1
  Hf  Hf33  1  0.50340542  0.09930554  0.11510265  1
  Hf  Hf34  1  -0.00470936  0.20535891  0.49888148  1
  Hf  Hf35  1  0.09942598  0.69344726  0.39095933  1
  Hf  Hf36  1  0.60549328  0.40286639  -0.01163290  1
  Hf  Hf37  1  0.41937350  0.79998191  0.48009960  1
  Hf  Hf38  1  0.40387746  0.00008450  0.25129913  1
  Hf  Hf39  1  0.49782271  0.29232658  0.10993713  1
  Zr  Zr40  1  0.30248205  0.09575266  0.39262309  1
  Zr  Zr41  1  0.00565742  0.19972627  -0.01047709  1
  Zr  Zr42  1  0.50664427  0.90145461  0.62204015  1
  Zr  Zr43  1  0.70241602  0.10491546  0.89464792  1
  Zr  Zr44  1  -0.00474671  0.00081522  0.48733520  1
  Zr  Zr45  1  0.60126929  0.40664410  0.75049060  1
  Zr  Zr46  1  0.89881541  0.10517180  0.12557759  1
  Zr  Zr47  1  0.59130935  0.79758410  0.26302529  1
  Zr  Zr48  1  0.50477638  0.49852657  0.12615859  1
  Zr  Zr49  1  0.00222775  -0.00830861  -0.00229310  1
  Zr  Zr50  1  0.79858843  0.00183692  0.48594554  1
  Zr  Zr51  1  0.71214767  0.49226221  0.37789552  1
  Zr  Zr52  1  0.20388235  -0.00626506  0.24682255  1
  Zr  Zr53  1  0.10259955  0.10214945  0.36947665  1
  Zr  Zr54  1  0.70786959  0.30323544  0.87075264  1
  Zr  Zr55  1  0.20985741  0.19601858  0.00888918  1
  Zr  Zr56  1  0.20449945  -0.01167849  0.74584387  1
  Zr  Zr57  1  0.28894560  0.49329568  0.86093514  1
  Zr  Zr58  1  0.08577502  0.68466480  0.86919934  1
  Zr  Zr59  1  0.59882806  0.60936855  0.48569092  1
  Zr  Zr60  1  0.59406908  0.19974153  0.26534619  1
  Zr  Zr61  1  0.20290484  0.60322178  0.00110416  1
  Zr  Zr62  1  0.40523066  0.40070874  0.51497542  1
  Zr  Zr63  1  0.61361975  0.60677984  0.74440497  1
  Zr  Zr64  1  0.69465078  0.90219911  0.12455641  1
  Zr  Zr65  1  0.19873032  0.39804757  0.25408838  1
  Zr  Zr66  1  0.40099302  0.59543575  0.74232305  1
  Zr  Zr67  1  -0.00050780  0.40188124  0.25396042  1
  Zr  Zr68  1  0.80461193  0.59747488  0.24183514  1
  Zr  Zr69  1  0.20236083  0.60330992  0.24088344  1
  Zr  Zr70  1  0.29415910  0.89714050  0.11523423  1
  Zr  Zr71  1  -0.00718914  0.79519638  0.24806072  1
  Zr  Zr72  1  0.39989057  0.39636660  -0.01341689  1
  Zr  Zr73  1  0.38803366  0.79581643  0.25163329  1
  Zr  Zr74  1  0.50674942  0.71063528  0.62783830  1
  Zr  Zr75  1  0.90301612  0.49383987  0.39096221  1
  Zr  Zr76  1  0.20939775  0.20553272  0.24036952  1
  Zr  Zr77  1  0.19369576  0.20088194  0.51686373  1
  Zr  Zr78  1  0.59995188  0.00327092  0.47074805  1
  Zr  Zr79  1  0.50976469  0.09351715  0.61886187  1
  Ta  Ta80  1  0.19230441  0.59431675  0.73971681  1
  Ta  Ta81  1  0.40049945  0.59986291  0.50472438  1
  Ta  Ta82  1  0.59917172  0.59936848  0.25603522  1
  Ta  Ta83  1  0.90601159  0.30622603  0.64460029  1
  Ta  Ta84  1  0.10822424  0.49814910  0.39775001  1
  Ta  Ta85  1  0.90196155  0.30554432  0.86072407  1
  Ta  Ta86  1  0.30655049  0.49417444  0.12056160  1
  Ta  Ta87  1  0.70240708  0.71763516  0.60682764  1
  Ta  Ta88  1  0.49648852  0.89744703  0.11652548  1
  Ta  Ta89  1  0.80247003  0.60597237  0.50566922  1
  Ta  Ta90  1  0.79504314  -0.00180999  0.24869732  1
  Ta  Ta91  1  0.50284507  0.69607963  0.88335707  1
  Ta  Ta92  1  0.39864985  0.60120072  -0.00211106  1
  Ta  Ta93  1  0.10358366  0.89457088  0.37549933  1
  Ta  Ta94  1  0.41164690  0.39388727  0.73885692  1
  Ta  Ta95  1  0.40640202  0.19705172  0.73273740  1
  Ta  Ta96  1  -0.00661341  -0.00532407  0.25357056  1
  Ta  Ta97  1  0.49358906  0.69678901  0.12300931  1
  Ta  Ta98  1  0.09969255  0.09672130  0.13312735  1
  Ta  Ta99  1  0.72693792  0.29355925  0.37051133  1
  Ta  Ta100  1  0.39736043  0.59606906  0.25414862  1
  Ta  Ta101  1  0.29478126  0.70042610  0.61852995  1
  Ta  Ta102  1  0.00611294  0.41665913  0.75738440  1
  Ta  Ta103  1  0.90321247  0.10108984  0.86810610  1
  Ta  Ta104  1  0.39196745  0.78929642  -0.00119628  1
  Ta  Ta105  1  0.29350396  0.89678819  0.88202958  1
  Ta  Ta106  1  0.40630601  0.20079959  0.52025670  1
  Ta  Ta107  1  -0.00366975  0.79756951  0.01502424  1
  Ta  Ta108  1  0.70051756  0.70497819  0.89708031  1
  Ta  Ta109  1  0.60784524  0.80281984  0.76990469  1
  Ta  Ta110  1  0.29371187  0.50176843  0.39601283  1
  Ta  Ta111  1  -0.01265627  0.80385868  0.48737115  1
  Ta  Ta112  1  0.00413527  0.40320775  -0.01559154  1
  Ta  Ta113  1  0.69926315  0.10419186  0.12498369  1
  Ta  Ta114  1  0.09791498  0.30269996  0.11260519  1
  Ta  Ta115  1  0.29429460  0.30220129  0.63514028  1
  Ta  Ta116  1  0.08853257  0.89741404  0.62795228  1
  Ta  Ta117  1  0.70417802  0.89231545  0.89849717  1
  Ta  Ta118  1  0.49200123  0.11557044  0.88998956  1
  Ta  Ta119  1  0.38996877  0.00371333  0.00183937  1
  Ti  Ti120  1  0.60136028  0.59469348  0.00528209  1
  Ti  Ti121  1  0.19647681  0.79468160  0.74579916  1
  Ti  Ti122  1  -0.01103191  0.59962347  0.01818885  1
  Ti  Ti123  1  0.49218565  0.50058943  0.37689226  1
  Ti  Ti124  1  0.80959026  0.80625748  0.02057324  1
  Ti  Ti125  1  0.80585766  0.79613802  0.25441627  1
  Ti  Ti126  1  0.59789178  0.00217767  0.25583461  1
  Ti  Ti127  1  0.29639491  0.69707900  0.86446020  1
  Ti  Ti128  1  0.79898652  0.79918817  0.47545438  1
  Ti  Ti129  1  0.19469760  -0.00163295  0.51082988  1
  Ti  Ti130  1  0.51233156  0.50291041  0.62119261  1
  Ti  Ti131  1  0.59121263  0.79692020  0.00195329  1
  Ti  Ti132  1  0.19199184  0.80657688  0.50914982  1
  Ti  Ti133  1  0.20282412  0.39510579  -0.00078150  1
  Ti  Ti134  1  0.39406792  0.19998807  0.24124133  1
  Ti  Ti135  1  0.80657675  0.41818016  0.73954727  1
  Ti  Ti136  1  0.09721441  0.09738921  0.85568866  1
  Ti  Ti137  1  0.09445036  0.89586725  0.86458584  1
  Ti  Ti138  1  0.50134391  0.50535911  0.87138551  1
  Ti  Ti139  1  0.19273266  0.79077206  0.23916990  1
  Ti  Ti140  1  0.09767908  0.30183638  0.64327938  1
  Ti  Ti141  1  0.90974270  0.50316416  0.61409010  1
  Ti  Ti142  1  0.59897631  0.00079734  -0.00086299  1
  Ti  Ti143  1  0.60283138  0.20247139  0.48647184  1
  Ti  Ti144  1  0.09430998  0.90142183  0.13164433  1
  Ti  Ti145  1  0.69573725  0.09789601  0.63416265  1
  Ti  Ti146  1  0.78845119  0.79714124  0.75616572  1
  Ti  Ti147  1  0.79789198  0.19780223  0.75215753  1
  Ti  Ti148  1  0.91185862  0.51290521  0.87233763  1
  Ti  Ti149  1  0.48904225  0.10708027  0.37995091  1
  Ti  Ti150  1  0.70163207  0.89775212  0.36476191  1
  Ti  Ti151  1  0.29473611  0.90043927  0.38646161  1
  Ti  Ti152  1  0.80734484  -0.00256545  0.00780797  1
  Ti  Ti153  1  0.40249438  0.00304743  0.75528872  1
  Ti  Ti154  1  0.81466336  0.39230945  0.23239218  1
  Ti  Ti155  1  0.00082335  0.38630792  0.50036456  1
  Ti  Ti156  1  0.89747244  0.89549938  0.87950855  1
  Ti  Ti157  1  0.19234093  0.00178831  -0.00100205  1
  Ti  Ti158  1  0.59054928  0.20547612  0.75931141  1
  Ti  Ti159  1  0.81011901  0.20895054  0.00207705  1
  Mo  Mo160  1  -0.00228492  0.20480564  0.76021639  1
  Mo  Mo161  1  0.49716808  0.29314669  0.39062238  1
  Mo  Mo162  1  -0.00463499  0.60150034  0.49454017  1
  Mo  Mo163  1  0.90662710  0.49849228  0.12178893  1
  Mo  Mo164  1  0.09766933  0.70279917  0.12016972  1
  Mo  Mo165  1  0.89645227  0.70158379  0.11608578  1
  Mo  Mo166  1  0.49687784  0.90511488  0.36532323  1
  Mo  Mo167  1  0.80512082  0.39883636  0.52522054  1
  Mo  Mo168  1  0.60390561  0.20062549  -0.00431097  1
  Mo  Mo169  1  0.20395064  0.19530322  0.73766808  1
  Mo  Mo170  1  0.39726509  0.19725700  0.00631228  1
  Mo  Mo171  1  0.89625749  0.69921194  0.38455295  1
  Mo  Mo172  1  0.69966617  0.10438268  0.35447652  1
  Mo  Mo173  1  0.89392619  0.70993231  0.60492195  1
  Mo  Mo174  1  0.30504380  0.09661339  0.62672030  1
  Mo  Mo175  1  0.30453548  0.69270447  0.12312640  1
  Mo  Mo176  1  0.89432393  0.30614393  0.38595527  1
  Mo  Mo177  1  0.09998568  0.30901646  0.38883529  1
  Mo  Mo178  1  0.50021148  0.29485200  0.87204996  1
  Mo  Mo179  1  -0.00264416  -0.01111722  0.76691181  1
  Mo  Mo180  1  -0.00665583  0.59500498  0.74161485  1
  Mo  Mo181  1  0.09745539  0.49963104  0.87932831  1
  Mo  Mo182  1  0.30144177  0.30590364  0.12389901  1
  Mo  Mo183  1  0.80059191  0.20783675  0.23220968  1
  Mo  Mo184  1  0.70428958  0.70070140  0.37495964  1
  Mo  Mo185  1  0.89602750  0.90109969  0.35974008  1
  Mo  Mo186  1  0.70926597  0.50371226  0.61318106  1
  Mo  Mo187  1  0.30288364  0.09926628  0.11614041  1
  Mo  Mo188  1  0.49475487  0.68910998  0.36140305  1
  Mo  Mo189  1  0.20222064  0.40423441  0.73391832  1
  Mo  Mo190  1  0.79916732  0.60051677  0.01867314  1
  Mo  Mo191  1  0.61179378  0.80161146  0.47481252  1
  Mo  Mo192  1  0.30096499  0.50071478  0.62606281  1
  Mo  Mo193  1  0.39934104  -0.00057950  0.48758816  1
  Mo  Mo194  1  0.89645069  0.90151686  0.13560163  1
  Mo  Mo195  1  0.69915057  0.49819680  0.13463987  1
  Mo  Mo196  1  0.50667608  0.29586207  0.62200065  1
  Mo  Mo197  1  0.19750084  0.39556763  0.51096585  1
  Mo  Mo198  1  0.90963423  0.30356061  0.10470932  1
  Mo  Mo199  1  0.20469858  0.60097779  0.51574903  1
