# generated using pymatgen
data_HfZrTaTiMo
_symmetry_space_group_name_H-M   'P 1'
_cell_length_a   15.92226407
_cell_length_b   15.93655315
_cell_length_c   15.20665881
_cell_angle_alpha   89.92604757
_cell_angle_beta   89.97397313
_cell_angle_gamma   90.03219761
_symmetry_Int_Tables_number   1
_chemical_formula_structural   HfZrTaTiMo
_chemical_formula_sum   'Hf40 Zr40 Ta40 Ti40 Mo40'
_cell_volume   3858.62474144
_cell_formula_units_Z   40
loop_
 _symmetry_equiv_pos_site_id
 _symmetry_equiv_pos_as_xyz
  1  'x, y, z'
loop_
 _atom_site_type_symbol
 _atom_site_label
 _atom_site_symmetry_multiplicity
 _atom_site_fract_x
 _atom_site_fract_y
 _atom_site_fract_z
 _atom_site_occupancy
  Hf  Hf0  1  0.09731461  0.30414420  0.09541233  1
  Hf  Hf1  1  0.40011786  0.40724878  0.50680526  1
  Hf  Hf2  1  0.90864237  0.28818594  0.87046470  1
  Hf  Hf3  1  0.91539477  0.27594381  0.63424543  1
  Hf  Hf4  1  0.59919649  0.00876768  0.02744296  1
  Hf  Hf5  1  0.20536282  0.59559578  0.52017733  1
  Hf  Hf6  1  -0.00493964  0.79806193  0.75733237  1
  Hf  Hf7  1  0.58867501  0.81374286  0.73664378  1
  Hf  Hf8  1  0.20143066  -0.00066602  0.24824989  1
  Hf  Hf9  1  0.79208790  0.80113152  0.25502902  1
  Hf  Hf10  1  0.60125119  0.39983673  0.75656070  1
  Hf  Hf11  1  0.80577538  0.40064572  0.75441733  1
  Hf  Hf12  1  0.91597938  0.48976489  0.11825091  1
  Hf  Hf13  1  0.20516282  0.81540584  0.49352751  1
  Hf  Hf14  1  0.30310197  0.29442629  0.87439184  1
  Hf  Hf15  1  0.10644676  0.70177016  0.12446973  1
  Hf  Hf16  1  0.19352126  0.81235787  0.26090863  1
  Hf  Hf17  1  0.10475654  0.10445668  0.37549399  1
  Hf  Hf18  1  0.50308025  0.50260780  0.13255052  1
  Hf  Hf19  1  0.60947285  0.60578296  0.00360901  1
  Hf  Hf20  1  0.70436801  0.51101962  0.63564007  1
  Hf  Hf21  1  0.89986122  0.29808589  0.10260544  1
  Hf  Hf22  1  0.30396054  0.70978744  0.12011511  1
  Hf  Hf23  1  0.09924424  0.90364128  0.62209470  1
  Hf  Hf24  1  0.00288850  0.39313152  0.51491939  1
  Hf  Hf25  1  0.19982996  0.79792669  0.76063345  1
  Hf  Hf26  1  0.78783506  0.79874200  0.48361636  1
  Hf  Hf27  1  0.59792023  0.41558897  0.50694223  1
  Hf  Hf28  1  0.60457340  0.40158653  -0.00312860  1
  Hf  Hf29  1  0.70505509  0.50341857  0.35695485  1
  Hf  Hf30  1  -0.00561426  -0.00906942  0.01198831  1
  Hf  Hf31  1  0.89659412  0.48160534  0.37682283  1
  Hf  Hf32  1  0.10574711  0.09897171  0.11854940  1
  Hf  Hf33  1  0.30185414  0.49699799  0.36037039  1
  Hf  Hf34  1  0.69695951  0.91133019  0.87774806  1
  Hf  Hf35  1  0.48167594  0.08539012  0.61929626  1
  Hf  Hf36  1  0.71746473  0.30864383  0.39587639  1
  Hf  Hf37  1  0.79353201  -0.00695679  0.02307641  1
  Hf  Hf38  1  0.19153415  0.39630596  0.23291231  1
  Hf  Hf39  1  0.01823112  0.58365346  0.24957448  1
  Zr  Zr40  1  0.50029601  0.91304254  0.88868724  1
  Zr  Zr41  1  0.20238965  0.60474780  -0.01039001  1
  Zr  Zr42  1  0.41589230  0.41060534  0.75645014  1
  Zr  Zr43  1  0.61074086  0.37929128  0.23942239  1
  Zr  Zr44  1  0.30133626  0.50787146  0.13125839  1
  Zr  Zr45  1  0.50612994  0.28226032  0.88418706  1
  Zr  Zr46  1  0.71853814  0.50396764  0.13932344  1
  Zr  Zr47  1  0.11081690  0.49225046  0.38204592  1
  Zr  Zr48  1  0.58274709  0.60413062  0.74997193  1
  Zr  Zr49  1  0.01014743  0.40334856  0.74483879  1
  Zr  Zr50  1  0.89780651  0.68942436  0.14579340  1
  Zr  Zr51  1  0.79167982  -0.00116842  0.72468832  1
  Zr  Zr52  1  0.79570676  0.59659488  0.49426129  1
  Zr  Zr53  1  0.20379580  0.39442568  0.52292009  1
  Zr  Zr54  1  -0.00493576  0.00762915  0.49942258  1
  Zr  Zr55  1  0.31211528  0.91553645  0.63679270  1
  Zr  Zr56  1  -0.01436421  0.79236998  0.00215810  1
  Zr  Zr57  1  0.39543211  0.61614192  0.75999734  1
  Zr  Zr58  1  0.49543427  0.70822840  0.12374108  1
  Zr  Zr59  1  0.79945931  0.40196528  -0.02083525  1
  Zr  Zr60  1  0.29629219  0.69320988  0.36927707  1
  Zr  Zr61  1  0.18879929  0.60387138  0.75225398  1
  Zr  Zr62  1  0.89935942  0.70105044  0.61347089  1
  Zr  Zr63  1  0.00560290  0.20281488  0.24529095  1
  Zr  Zr64  1  0.89538105  0.08539911  0.87069328  1
  Zr  Zr65  1  0.50135227  0.50010648  0.35666205  1
  Zr  Zr66  1  0.38982133  0.19142275  0.49266687  1
  Zr  Zr67  1  0.50242303  0.29088029  0.62206545  1
  Zr  Zr68  1  0.09840425  0.69745203  0.38339621  1
  Zr  Zr69  1  0.79787419  0.22162005  0.24895827  1
  Zr  Zr70  1  0.29161220  0.89828219  0.10938818  1
  Zr  Zr71  1  0.59659414  0.61887939  0.48750242  1
  Zr  Zr72  1  0.78899184  0.18618952  0.74625330  1
  Zr  Zr73  1  0.30141570  0.28610973  0.64155507  1
  Zr  Zr74  1  0.70455436  0.29870442  0.61648501  1
  Zr  Zr75  1  0.89391493  0.09699783  0.36081696  1
  Zr  Zr76  1  0.81104670  0.61220858  -0.00969598  1
  Zr  Zr77  1  0.79649444  0.80591768  0.73859428  1
  Zr  Zr78  1  0.70033392  0.71351700  0.86792242  1
  Zr  Zr79  1  0.59292324  0.19568230  0.24833815  1
  Ta  Ta80  1  0.38955779  0.01458445  0.00520283  1
  Ta  Ta81  1  0.90348890  0.89614295  0.60711182  1
  Ta  Ta82  1  0.00828944  -0.01269280  0.24604076  1
  Ta  Ta83  1  0.49594487  0.29129172  0.10696608  1
  Ta  Ta84  1  0.18674782  0.00855913  0.76354976  1
  Ta  Ta85  1  0.10691742  0.28934619  0.87488778  1
  Ta  Ta86  1  0.40060535  0.80688501  0.76095500  1
  Ta  Ta87  1  0.50113106  0.71637265  0.89245666  1
  Ta  Ta88  1  0.78989338  0.80278058  0.02241830  1
  Ta  Ta89  1  0.49656469  0.29793082  0.38164634  1
  Ta  Ta90  1  0.09846267  0.49393978  0.88357071  1
  Ta  Ta91  1  0.09599189  0.90064314  0.88318429  1
  Ta  Ta92  1  0.30019231  0.49774689  0.87190762  1
  Ta  Ta93  1  0.69752527  0.09514720  0.37571238  1
  Ta  Ta94  1  0.00355122  0.80827661  0.26011072  1
  Ta  Ta95  1  0.59444686  0.00525795  0.73236763  1
  Ta  Ta96  1  0.70272792  0.50985045  0.86324877  1
  Ta  Ta97  1  0.90202993  0.69186679  0.37147732  1
  Ta  Ta98  1  0.09372667  0.70716240  0.61625408  1
  Ta  Ta99  1  0.69348830  0.91117669  0.36884290  1
  Ta  Ta100  1  0.20032588  0.39985564  0.75208494  1
  Ta  Ta101  1  0.29421990  0.29932913  0.37357474  1
  Ta  Ta102  1  0.10576916  0.29305962  0.38662567  1
  Ta  Ta103  1  0.00319738  0.59271860  0.50829373  1
  Ta  Ta104  1  -0.00194774  0.38446960  0.25612420  1
  Ta  Ta105  1  0.29844675  0.90445874  0.87953233  1
  Ta  Ta106  1  0.40174479  0.80446456  0.48517374  1
  Ta  Ta107  1  0.40207274  0.60196598  0.50404346  1
  Ta  Ta108  1  0.40153819  0.40396677  -0.00163009  1
  Ta  Ta109  1  0.20845871  0.20650785  0.23928895  1
  Ta  Ta110  1  0.60918236  0.80949941  0.02337009  1
  Ta  Ta111  1  0.30629142  0.50457402  0.64314769  1
  Ta  Ta112  1  0.78952874  0.18852070  0.00256756  1
  Ta  Ta113  1  0.39787730  0.81464680  0.26687548  1
  Ta  Ta114  1  0.39980977  0.37897493  0.23981769  1
  Ta  Ta115  1  0.40375647  0.59960808  -0.01320988  1
  Ta  Ta116  1  0.49193157  0.71690205  0.61262018  1
  Ta  Ta117  1  0.39961986  0.00401352  0.24750553  1
  Ta  Ta118  1  0.81223313  0.18640466  0.50630883  1
  Ta  Ta119  1  0.50539715  0.90519390  0.37771821  1
  Ti  Ti120  1  0.60133335  0.18458418  0.73758756  1
  Ti  Ti121  1  0.90177642  0.50201652  0.62782298  1
  Ti  Ti122  1  0.59325510  0.79824946  0.25425550  1
  Ti  Ti123  1  0.68508971  0.09749554  0.88059010  1
  Ti  Ti124  1  0.48401675  0.10963229  0.12249864  1
  Ti  Ti125  1  0.21200907  0.18584156  -0.00538235  1
  Ti  Ti126  1  0.91744093  0.51718036  0.87234058  1
  Ti  Ti127  1  0.39697340  0.20034968  0.25300747  1
  Ti  Ti128  1  0.40507718  0.18520462  0.75624434  1
  Ti  Ti129  1  0.40964854  0.61487405  0.25576552  1
  Ti  Ti130  1  0.60122869  0.19209397  0.49509226  1
  Ti  Ti131  1  0.20506935  0.00895553  0.49693567  1
  Ti  Ti132  1  0.88894781  0.89256478  0.87836539  1
  Ti  Ti133  1  0.50026620  0.09692662  0.37381608  1
  Ti  Ti134  1  -0.00025938  0.18438645  -0.01048997  1
  Ti  Ti135  1  0.07962487  0.69025040  0.88112792  1
  Ti  Ti136  1  0.09503887  0.10753805  0.62627326  1
  Ti  Ti137  1  0.59318269  -0.00241428  0.24349626  1
  Ti  Ti138  1  0.79578385  0.00184013  0.50297313  1
  Ti  Ti139  1  0.81488900  0.60946618  0.75695770  1
  Ti  Ti140  1  -0.00319741  -0.00142692  0.74804824  1
  Ti  Ti141  1  0.30211234  0.09615336  0.86591280  1
  Ti  Ti142  1  0.29591505  0.10522011  0.36652231  1
  Ti  Ti143  1  0.10852867  0.27831026  0.63501685  1
  Ti  Ti144  1  0.59453448  0.00031853  0.50101497  1
  Ti  Ti145  1  0.20714732  0.40236650  -0.00407603  1
  Ti  Ti146  1  0.89805917  0.09856509  0.13592900  1
  Ti  Ti147  1  0.69328486  0.70514031  0.62625356  1
  Ti  Ti148  1  0.70632010  0.10068248  0.14728025  1
  Ti  Ti149  1  0.50335227  0.09841246  0.87959476  1
  Ti  Ti150  1  0.19580267  0.00102809  -0.00799107  1
  Ti  Ti151  1  0.30184493  0.71197088  0.62244058  1
  Ti  Ti152  1  0.48792673  0.89985641  0.12479792  1
  Ti  Ti153  1  0.90001231  0.90055675  0.37573862  1
  Ti  Ti154  1  0.89661954  0.89958783  0.14410260  1
  Ti  Ti155  1  0.39067501  -0.00547805  0.47998567  1
  Ti  Ti156  1  0.68733519  0.89941893  0.60335281  1
  Ti  Ti157  1  0.30836582  0.28724400  0.10844245  1
  Ti  Ti158  1  0.28487815  0.10124495  0.63863762  1
  Ti  Ti159  1  0.69614111  0.28467488  0.87894974  1
  Mo  Mo160  1  0.09631513  0.89748923  0.10958542  1
  Mo  Mo161  1  0.30209263  0.10422502  0.13072189  1
  Mo  Mo162  1  0.09601957  0.90679124  0.38907025  1
  Mo  Mo163  1  0.90457726  0.09062321  0.62921699  1
  Mo  Mo164  1  0.69139223  0.90318596  0.14864920  1
  Mo  Mo165  1  0.80997657  0.59719570  0.26213765  1
  Mo  Mo166  1  0.10067187  0.50433345  0.63443710  1
  Mo  Mo167  1  0.60540057  0.61653703  0.24950819  1
  Mo  Mo168  1  0.81541865  0.39282357  0.24192444  1
  Mo  Mo169  1  0.60530159  0.19165253  0.01584308  1
  Mo  Mo170  1  0.59787264  0.80903446  0.49475941  1
  Mo  Mo171  1  0.39770719  0.19347584  -0.00843506  1
  Mo  Mo172  1  0.90884671  0.29661865  0.39738068  1
  Mo  Mo173  1  0.00311583  0.39444937  -0.02538904  1
  Mo  Mo174  1  0.19970129  0.19305468  0.49959477  1
  Mo  Mo175  1  0.19302896  0.80155672  -0.02119240  1
  Mo  Mo176  1  0.50404197  0.50614965  0.89353911  1
  Mo  Mo177  1  0.39731492  0.00244644  0.76397745  1
  Mo  Mo178  1  0.49660502  0.51676421  0.61894955  1
  Mo  Mo179  1  0.30237341  0.70977718  0.88588645  1
  Mo  Mo180  1  0.39967681  0.80674151  -0.01153181  1
  Mo  Mo181  1  0.89891162  0.70178437  0.87203629  1
  Mo  Mo182  1  0.80673600  0.39624448  0.52531998  1
  Mo  Mo183  1  0.20482672  0.59968532  0.23495491  1
  Mo  Mo184  1  0.09977123  0.49383236  0.10368960  1
  Mo  Mo185  1  0.49744478  0.70827066  0.37519113  1
  Mo  Mo186  1  0.69974172  0.29422707  0.10463679  1
  Mo  Mo187  1  -0.00289490  0.80063359  0.48250576  1
  Mo  Mo188  1  0.49437663  0.90200446  0.60589263  1
  Mo  Mo189  1  0.09959786  0.09350253  0.88965466  1
  Mo  Mo190  1  0.00463956  0.19978297  0.49680726  1
  Mo  Mo191  1  0.30181007  0.91177698  0.37321890  1
  Mo  Mo192  1  0.19808068  0.19205457  0.76407639  1
  Mo  Mo193  1  0.69001439  0.09628951  0.59945081  1
  Mo  Mo194  1  -0.00058947  0.60275307  0.73770307  1
  Mo  Mo195  1  0.79939867  0.00059621  0.25088302  1
  Mo  Mo196  1  0.01675287  0.17876957  0.76273600  1
  Mo  Mo197  1  0.00603726  0.59357719  0.00768639  1
  Mo  Mo198  1  0.69509364  0.70410402  0.35728247  1
  Mo  Mo199  1  0.69630991  0.70090733  0.14144334  1
