# generated using pymatgen
data_HfZrTaTiMo
_symmetry_space_group_name_H-M   'P 1'
_cell_length_a   15.91908488
_cell_length_b   15.92580707
_cell_length_c   15.21728573
_cell_angle_alpha   90.03369192
_cell_angle_beta   89.96593028
_cell_angle_gamma   90.05363860
_symmetry_Int_Tables_number   1
_chemical_formula_structural   HfZrTaTiMo
_chemical_formula_sum   'Hf40 Zr40 Ta40 Ti40 Mo40'
_cell_volume   3857.94828687
_cell_formula_units_Z   40
loop_
 _symmetry_equiv_pos_site_id
 _symmetry_equiv_pos_as_xyz
  1  'x, y, z'
loop_
 _atom_site_type_symbol
 _atom_site_label
 _atom_site_symmetry_multiplicity
 _atom_site_fract_x
 _atom_site_fract_y
 _atom_site_fract_z
 _atom_site_occupancy
  Hf  Hf0  1  0.69148885  0.49937058  0.86026201  1
  Hf  Hf1  1  -0.00372425  0.19602106  0.50822440  1
  Hf  Hf2  1  0.19482392  0.39684020  -0.00743338  1
  Hf  Hf3  1  0.60273346  0.80083048  0.72403464  1
  Hf  Hf4  1  0.39733879  0.38762019  0.74157479  1
  Hf  Hf5  1  0.20210144  0.81220827  -0.01266057  1
  Hf  Hf6  1  0.00987700  0.00733810  0.75242677  1
  Hf  Hf7  1  0.69800180  0.70244939  0.85350110  1
  Hf  Hf8  1  -0.00040637  0.39480194  0.25671589  1
  Hf  Hf9  1  0.80415909  0.58826062  0.72931524  1
  Hf  Hf10  1  0.50481520  0.69564949  0.38042783  1
  Hf  Hf11  1  0.80138126  0.39710262  -0.01123232  1
  Hf  Hf12  1  0.91576646  0.09076791  0.10543574  1
  Hf  Hf13  1  0.30862494  0.69588248  0.86722884  1
  Hf  Hf14  1  0.11079604  0.70638161  0.38213100  1
  Hf  Hf15  1  0.79427522  0.59996942  0.00141671  1
  Hf  Hf16  1  0.59988998  0.60350898  0.00950892  1
  Hf  Hf17  1  0.20419785  0.20618654  0.50495570  1
  Hf  Hf18  1  0.89302410  0.70365029  0.86732343  1
  Hf  Hf19  1  0.40489832  -0.00900222  0.00182001  1
  Hf  Hf20  1  0.50374690  0.09788889  0.61732272  1
  Hf  Hf21  1  0.69020249  0.30016544  0.87239598  1
  Hf  Hf22  1  0.39197454  0.39640958  0.50372485  1
  Hf  Hf23  1  -0.00160264  0.60166355  0.25774592  1
  Hf  Hf24  1  0.58668034  0.58520259  0.24642896  1
  Hf  Hf25  1  0.01012199  0.59102364  0.49741816  1
  Hf  Hf26  1  0.11331267  0.11274027  0.88331981  1
  Hf  Hf27  1  0.51126198  0.30449362  0.37741479  1
  Hf  Hf28  1  0.31674121  0.09617944  0.62544009  1
  Hf  Hf29  1  0.20108477  0.19741112  0.73285874  1
  Hf  Hf30  1  0.60899843  -0.00004124  0.25788301  1
  Hf  Hf31  1  0.40031710  0.20299418  0.25943569  1
  Hf  Hf32  1  0.50651521  0.10074348  0.12782943  1
  Hf  Hf33  1  0.70538063  0.90191786  0.85936846  1
  Hf  Hf34  1  0.39813698  0.79742189  0.25205890  1
  Hf  Hf35  1  0.89777358  0.91266575  0.38323285  1
  Hf  Hf36  1  0.79105190  0.81435993  0.50387843  1
  Hf  Hf37  1  0.80309590  0.40170410  0.52315388  1
  Hf  Hf38  1  -0.00387694  0.21384683  0.75603966  1
  Hf  Hf39  1  0.00217875  0.80422188  0.74744586  1
  Zr  Zr40  1  0.79585325  0.61012761  0.23926039  1
  Zr  Zr41  1  0.30468443  0.69162841  0.63921608  1
  Zr  Zr42  1  0.19334400  0.20051491  0.25482485  1
  Zr  Zr43  1  0.50815917  0.30326103  0.13110065  1
  Zr  Zr44  1  0.70138054  0.69669437  0.38653159  1
  Zr  Zr45  1  0.69269073  0.48312921  0.13218192  1
  Zr  Zr46  1  0.61224715  -0.00635267  0.49328561  1
  Zr  Zr47  1  0.88787673  0.50234642  0.37923758  1
  Zr  Zr48  1  0.39771345  0.39664800  0.00004443  1
  Zr  Zr49  1  0.19549240  0.60333582  0.24873296  1
  Zr  Zr50  1  0.29311458  0.89610980  0.36822887  1
  Zr  Zr51  1  0.29748633  0.69863301  0.12267291  1
  Zr  Zr52  1  0.90672709  0.49856507  0.12053546  1
  Zr  Zr53  1  0.90528127  0.70020621  0.61626556  1
  Zr  Zr54  1  0.28537335  0.50318471  0.37728557  1
  Zr  Zr55  1  0.59588216  0.40397673  0.51707259  1
  Zr  Zr56  1  0.19617988  0.58934384  -0.00798146  1
  Zr  Zr57  1  0.79822067  -0.00729067  0.00221200  1
  Zr  Zr58  1  0.88861788  0.10011243  0.62943397  1
  Zr  Zr59  1  0.09410897  0.70362876  0.11111703  1
  Zr  Zr60  1  0.19081896  0.39149060  0.75675831  1
  Zr  Zr61  1  0.20807089  0.79293234  0.51638391  1
  Zr  Zr62  1  0.41052042  0.59014073  0.00011849  1
  Zr  Zr63  1  0.00288211  0.19945195  0.25353314  1
  Zr  Zr64  1  0.09236529  0.90274411  0.38829016  1
  Zr  Zr65  1  0.81071427  0.19282802  0.24307356  1
  Zr  Zr66  1  0.68932001  0.49731400  0.38302681  1
  Zr  Zr67  1  0.59777111  0.80520116  0.01431659  1
  Zr  Zr68  1  0.19776195  0.80816479  0.75682864  1
  Zr  Zr69  1  0.50567891  0.90039906  0.85826133  1
  Zr  Zr70  1  0.29768665  0.09584982  0.13592514  1
  Zr  Zr71  1  0.20190581  0.01033326  0.50757905  1
  Zr  Zr72  1  0.21563585  0.00088687  -0.01602801  1
  Zr  Zr73  1  0.09129881  0.92040626  0.11561071  1
  Zr  Zr74  1  0.79205717  0.79928114  0.01451386  1
  Zr  Zr75  1  0.78749318  0.18859451  0.76353504  1
  Zr  Zr76  1  0.29134805  0.50781299  0.63353081  1
  Zr  Zr77  1  0.49748512  0.29595171  0.87358492  1
  Zr  Zr78  1  0.40313840  0.80580681  0.00594031  1
  Zr  Zr79  1  -0.00200998  0.80693102  0.24478757  1
  Ta  Ta80  1  0.61365958  0.01813988  0.74416935  1
  Ta  Ta81  1  0.09204462  0.69776743  0.87389121  1
  Ta  Ta82  1  0.29992335  0.49235185  0.13457215  1
  Ta  Ta83  1  0.70677966  0.29808424  0.38169776  1
  Ta  Ta84  1  0.79815321  0.19894018  -0.00407904  1
  Ta  Ta85  1  0.80119724  0.80613456  0.25114222  1
  Ta  Ta86  1  0.90220482  0.70663019  0.11455179  1
  Ta  Ta87  1  -0.00339336  0.40094744  0.50823353  1
  Ta  Ta88  1  0.09860135  0.30789912  0.38918109  1
  Ta  Ta89  1  0.29111460  0.28084214  0.88313321  1
  Ta  Ta90  1  0.49638463  0.90814532  0.62447998  1
  Ta  Ta91  1  0.50674072  0.09881742  0.87827577  1
  Ta  Ta92  1  0.71983708  0.09980514  0.37339461  1
  Ta  Ta93  1  0.90324767  0.30032639  0.11016822  1
  Ta  Ta94  1  0.59222737  0.40805750  -0.00046151  1
  Ta  Ta95  1  0.49573885  0.28521400  0.62018833  1
  Ta  Ta96  1  0.50122703  0.69948469  0.13866529  1
  Ta  Ta97  1  0.39572849  0.60172039  0.48949142  1
  Ta  Ta98  1  0.09421981  0.30588779  0.62105773  1
  Ta  Ta99  1  0.09293011  0.50797517  0.64448784  1
  Ta  Ta100  1  0.00047509  0.21065205  -0.01449094  1
  Ta  Ta101  1  0.79988029  0.38645645  0.24934819  1
  Ta  Ta102  1  0.69918635  0.69124172  0.61110807  1
  Ta  Ta103  1  -0.00876631  0.81722523  -0.01185845  1
  Ta  Ta104  1  0.50584085  0.89447870  0.37347887  1
  Ta  Ta105  1  0.09708386  0.90586534  0.61811299  1
  Ta  Ta106  1  0.70047600  0.28409285  0.62308826  1
  Ta  Ta107  1  0.31276001  0.90547314  0.63364054  1
  Ta  Ta108  1  0.30265889  0.49836753  0.85936459  1
  Ta  Ta109  1  0.19395521  0.39663205  0.24719739  1
  Ta  Ta110  1  0.20811784  0.00139898  0.75426541  1
  Ta  Ta111  1  0.18815945  0.41020970  0.50810504  1
  Ta  Ta112  1  0.89766041  0.09655350  0.88017872  1
  Ta  Ta113  1  0.50579387  0.69456255  0.85884196  1
  Ta  Ta114  1  0.40492053  0.40805965  0.25664063  1
  Ta  Ta115  1  0.80581577  0.38953077  0.74110196  1
  Ta  Ta116  1  0.90194352  0.70918978  0.39354433  1
  Ta  Ta117  1  0.40420730  0.80101674  0.50073383  1
  Ta  Ta118  1  0.00332054  0.40215626  -0.02299646  1
  Ta  Ta119  1  0.59688677  0.80531503  0.50788249  1
  Ti  Ti120  1  0.29369104  0.30495594  0.37500529  1
  Ti  Ti121  1  0.39901175  0.19773508  0.48698658  1
  Ti  Ti122  1  0.18915388  -0.00110509  0.25177582  1
  Ti  Ti123  1  0.59945853  0.39552137  0.73109889  1
  Ti  Ti124  1  0.39227394  0.18986534  0.00044748  1
  Ti  Ti125  1  0.61173226  0.20104346  0.25646459  1
  Ti  Ti126  1  0.70432279  0.09985981  0.12529328  1
  Ti  Ti127  1  0.10453421  0.69166623  0.63172284  1
  Ti  Ti128  1  0.49582532  0.69530379  0.61901594  1
  Ti  Ti129  1  0.59726288  0.19712386  0.74603890  1
  Ti  Ti130  1  0.90127403  0.90533983  0.62513114  1
  Ti  Ti131  1  0.60555752  0.79906253  0.24834110  1
  Ti  Ti132  1  0.40674033  -0.00606169  0.24971311  1
  Ti  Ti133  1  0.08908436  0.09551510  0.38491020  1
  Ti  Ti134  1  0.30032363  0.09572379  0.37034485  1
  Ti  Ti135  1  0.10220673  0.10783609  0.10634759  1
  Ti  Ti136  1  0.59647568  0.59489265  0.72935690  1
  Ti  Ti137  1  0.60474188  0.19617396  0.00045753  1
  Ti  Ti138  1  0.50520024  0.09981671  0.37477131  1
  Ti  Ti139  1  0.89354004  0.90285737  0.85655293  1
  Ti  Ti140  1  0.70410234  0.90393732  0.14153063  1
  Ti  Ti141  1  0.89519178  0.29346895  0.38653417  1
  Ti  Ti142  1  0.60133405  -0.00469223  0.00899950  1
  Ti  Ti143  1  -0.00981988  0.00986522  0.25503132  1
  Ti  Ti144  1  0.40570322  0.80125061  0.74418695  1
  Ti  Ti145  1  0.71294429  0.91490864  0.63808823  1
  Ti  Ti146  1  0.29716290  0.29853762  0.12523968  1
  Ti  Ti147  1  0.09668844  0.29966284  0.11425142  1
  Ti  Ti148  1  -0.00287263  0.59751787  -0.01137149  1
  Ti  Ti149  1  0.50106103  0.50020429  0.85769832  1
  Ti  Ti150  1  0.61070690  0.19322659  0.49602929  1
  Ti  Ti151  1  0.49095395  0.50691961  0.62471803  1
  Ti  Ti152  1  0.09686846  0.49492114  0.12310624  1
  Ti  Ti153  1  0.39668059  0.59717747  0.25990409  1
  Ti  Ti154  1  0.90208200  0.50312805  0.86428775  1
  Ti  Ti155  1  0.80121012  0.01099962  0.50104939  1
  Ti  Ti156  1  0.40445489  -0.00597504  0.48413911  1
  Ti  Ti157  1  0.39962022  0.19439567  0.75416570  1
  Ti  Ti158  1  0.70015719  0.29619735  0.12353147  1
  Ti  Ti159  1  -0.00915852  0.40048799  0.75377570  1
  Mo  Mo160  1  0.09598827  0.90416040  0.87549956  1
  Mo  Mo161  1  0.69465759  0.49457126  0.63406306  1
  Mo  Mo162  1  0.00071168  -0.00007402  -0.02444387  1
  Mo  Mo163  1  0.60315201  0.38753637  0.25601629  1
  Mo  Mo164  1  0.20401466  0.20550168  0.01433983  1
  Mo  Mo165  1  0.70397936  0.89916419  0.36382282  1
  Mo  Mo166  1  0.00098610  0.60107487  0.75586831  1
  Mo  Mo167  1  0.29252695  0.90191595  0.14583699  1
  Mo  Mo168  1  0.09631238  0.49191196  0.37248506  1
  Mo  Mo169  1  -0.00239911  0.00245274  0.51567004  1
  Mo  Mo170  1  0.50304460  0.90214977  0.14531342  1
  Mo  Mo171  1  0.80124294  0.00019548  0.75625500  1
  Mo  Mo172  1  0.30229045  0.70060821  0.37928630  1
  Mo  Mo173  1  0.20045981  0.81169641  0.23622213  1
  Mo  Mo174  1  0.68946014  0.09791203  0.89385965  1
  Mo  Mo175  1  0.80008563  0.80304933  0.72862503  1
  Mo  Mo176  1  0.49024707  0.49826810  0.13430680  1
  Mo  Mo177  1  0.90288824  0.09786248  0.38506594  1
  Mo  Mo178  1  0.90085845  0.90248855  0.13429995  1
  Mo  Mo179  1  0.80012216  0.59792972  0.51134595  1
  Mo  Mo180  1  0.41079019  0.59634902  0.75505346  1
  Mo  Mo181  1  0.49082603  0.49888195  0.38266281  1
  Mo  Mo182  1  0.30760709  0.90217734  0.85142097  1
  Mo  Mo183  1  0.30315749  0.29667943  0.61209967  1
  Mo  Mo184  1  0.00068350  0.80063600  0.51499675  1
  Mo  Mo185  1  0.89984107  0.30046453  0.62809518  1
  Mo  Mo186  1  0.19636786  0.59702169  0.49962319  1
  Mo  Mo187  1  0.69743473  0.70258263  0.14055268  1
  Mo  Mo188  1  0.40859479  0.00381670  0.75811582  1
  Mo  Mo189  1  0.19400587  0.60081993  0.76804356  1
  Mo  Mo190  1  0.80738216  -0.00128567  0.24028532  1
  Mo  Mo191  1  0.89489765  0.30266687  0.88098502  1
  Mo  Mo192  1  0.09949313  0.30152692  0.87311164  1
  Mo  Mo193  1  0.90806561  0.49592875  0.63132743  1
  Mo  Mo194  1  0.69757410  0.10231068  0.61215022  1
  Mo  Mo195  1  0.31402778  0.10310685  0.86659577  1
  Mo  Mo196  1  0.79855863  0.20230867  0.49431923  1
  Mo  Mo197  1  0.10202911  0.09927511  0.63062918  1
  Mo  Mo198  1  0.58972774  0.60026430  0.51557798  1
  Mo  Mo199  1  0.09234477  0.50400329  0.86221399  1
