# generated using pymatgen
data_HfZrTaTiMo
_symmetry_space_group_name_H-M   'P 1'
_cell_length_a   15.93531827
_cell_length_b   15.93288930
_cell_length_c   15.21012651
_cell_angle_alpha   89.94187672
_cell_angle_beta   90.01936492
_cell_angle_gamma   90.04151177
_symmetry_Int_Tables_number   1
_chemical_formula_structural   HfZrTaTiMo
_chemical_formula_sum   'Hf40 Zr40 Ta40 Ti40 Mo40'
_cell_volume   3861.78191982
_cell_formula_units_Z   40
loop_
 _symmetry_equiv_pos_site_id
 _symmetry_equiv_pos_as_xyz
  1  'x, y, z'
loop_
 _atom_site_type_symbol
 _atom_site_label
 _atom_site_symmetry_multiplicity
 _atom_site_fract_x
 _atom_site_fract_y
 _atom_site_fract_z
 _atom_site_occupancy
  Hf  Hf0  1  0.48971135  0.08353004  0.37008579  1
  Hf  Hf1  1  0.20531342  0.38497112  0.75967727  1
  Hf  Hf2  1  0.91025053  0.69787556  0.11771299  1
  Hf  Hf3  1  0.40239798  0.61512450  0.49661257  1
  Hf  Hf4  1  0.38614277  0.61484489  0.25815096  1
  Hf  Hf5  1  0.61015067  0.59383375  0.76283097  1
  Hf  Hf6  1  0.42978332  0.81934304  0.51158398  1
  Hf  Hf7  1  -0.00219493  0.80485441  0.51438814  1
  Hf  Hf8  1  0.88971722  0.09941758  0.63432011  1
  Hf  Hf9  1  0.90495123  0.70139077  0.87765811  1
  Hf  Hf10  1  0.39861523  0.80089498  0.00062020  1
  Hf  Hf11  1  0.20102633  0.59639349  0.75343289  1
  Hf  Hf12  1  0.39212927  0.21133983  0.76150532  1
  Hf  Hf13  1  0.79358421  -0.00346973  0.24674037  1
  Hf  Hf14  1  0.19967677  0.80460161  0.74089755  1
  Hf  Hf15  1  0.32059376  0.91421899  0.38930656  1
  Hf  Hf16  1  0.09804094  0.70680759  0.88671167  1
  Hf  Hf17  1  0.19916800  0.18033268  0.47270645  1
  Hf  Hf18  1  0.71329501  0.69423369  0.63909680  1
  Hf  Hf19  1  0.28861868  0.11189893  0.63592008  1
  Hf  Hf20  1  0.09322588  0.11130711  0.12509015  1
  Hf  Hf21  1  0.90185882  0.49249233  0.87691869  1
  Hf  Hf22  1  0.20459392  -0.00384011  0.24293983  1
  Hf  Hf23  1  0.50052819  0.50065159  0.13435560  1
  Hf  Hf24  1  0.80569761  0.78432979  0.50316371  1
  Hf  Hf25  1  0.20524032  0.40313831  0.26323329  1
  Hf  Hf26  1  0.30325969  0.49677274  0.61637704  1
  Hf  Hf27  1  0.40217290  0.60423373  0.75276988  1
  Hf  Hf28  1  0.51480196  0.72045724  0.36925714  1
  Hf  Hf29  1  -0.00366850  0.19161182  0.49643714  1
  Hf  Hf30  1  0.51295871  0.30528288  0.88111181  1
  Hf  Hf31  1  0.49751956  0.30074170  0.62537169  1
  Hf  Hf32  1  0.50599885  0.50799243  0.36668909  1
  Hf  Hf33  1  0.59548242  -0.00216908  0.24047872  1
  Hf  Hf34  1  0.29718825  0.90024214  0.87439069  1
  Hf  Hf35  1  0.40337779  0.80856215  0.23441707  1
  Hf  Hf36  1  0.60388952  0.38991863  0.24858626  1
  Hf  Hf37  1  0.29559149  0.50553245  0.12902890  1
  Hf  Hf38  1  0.77885573  0.39216523  0.75492807  1
  Hf  Hf39  1  0.57525669  -0.01824735  0.50802313  1
  Zr  Zr40  1  0.11705539  0.90062408  0.39036768  1
  Zr  Zr41  1  0.60433201  0.61383347  0.50384553  1
  Zr  Zr42  1  0.00317841  0.60073539  0.73742831  1
  Zr  Zr43  1  0.00018322  -0.00455858  0.24875988  1
  Zr  Zr44  1  0.88573590  0.29283712  0.62083027  1
  Zr  Zr45  1  0.88034813  0.50200167  0.61828663  1
  Zr  Zr46  1  0.80227452  0.39034057  0.24580233  1
  Zr  Zr47  1  0.60007034  0.60016292  -0.01035695  1
  Zr  Zr48  1  0.70925580  0.69536037  0.11019549  1
  Zr  Zr49  1  0.29270072  0.11827436  0.11982552  1
  Zr  Zr50  1  0.90114721  0.50630005  0.11641003  1
  Zr  Zr51  1  0.19859317  -0.00312017  0.00505031  1
  Zr  Zr52  1  -0.00717568  0.60894123  0.51014239  1
  Zr  Zr53  1  0.10742938  0.29747506  0.12702011  1
  Zr  Zr54  1  0.77797841  -0.00401571  0.76550213  1
  Zr  Zr55  1  0.70704539  0.49817322  0.38441074  1
  Zr  Zr56  1  0.01176664  0.79586335  0.24591059  1
  Zr  Zr57  1  0.09553771  0.30215076  0.37557434  1
  Zr  Zr58  1  0.00723664  0.80105147  0.72573253  1
  Zr  Zr59  1  0.39667796  0.19541466  0.48970973  1
  Zr  Zr60  1  0.00419133  0.00084771  0.50556389  1
  Zr  Zr61  1  0.21648644  0.79374187  0.24563327  1
  Zr  Zr62  1  -0.01488637  -0.01364773  0.02054691  1
  Zr  Zr63  1  0.79622816  0.00686711  -0.00860818  1
  Zr  Zr64  1  0.39612076  0.20654658  0.25607783  1
  Zr  Zr65  1  0.00556622  0.39101665  0.73864708  1
  Zr  Zr66  1  0.69255238  0.09999748  0.61770018  1
  Zr  Zr67  1  0.40130854  0.59864064  -0.00521537  1
  Zr  Zr68  1  -0.00310568  0.40803635  0.24961683  1
  Zr  Zr69  1  0.11427622  0.69578681  0.39156705  1
  Zr  Zr70  1  0.31568267  0.91515533  0.63164699  1
  Zr  Zr71  1  0.20278944  0.40375352  -0.00696860  1
  Zr  Zr72  1  0.90290194  0.29072900  0.87416667  1
  Zr  Zr73  1  0.91394652  0.09724342  0.86700837  1
  Zr  Zr74  1  0.79958880  -0.01025529  0.49903369  1
  Zr  Zr75  1  0.50372074  0.49853084  0.63007805  1
  Zr  Zr76  1  0.68715681  0.88490406  0.37851685  1
  Zr  Zr77  1  0.69914418  0.89742449  0.10419739  1
  Zr  Zr78  1  0.11428585  0.49088969  0.60450245  1
  Zr  Zr79  1  0.18036170  0.00976782  0.75368196  1
  Ta  Ta80  1  0.59701963  0.39220675  0.49732315  1
  Ta  Ta81  1  0.50456492  0.90494580  0.10267510  1
  Ta  Ta82  1  0.89724821  0.89136371  0.36699077  1
  Ta  Ta83  1  0.59272670  0.19437272  0.49961149  1
  Ta  Ta84  1  0.39946043  0.40086627  0.48040553  1
  Ta  Ta85  1  0.09666161  0.28675258  0.88715997  1
  Ta  Ta86  1  0.28972790  0.11236069  0.87796804  1
  Ta  Ta87  1  0.40033088  0.01028052  -0.00619357  1
  Ta  Ta88  1  0.29418856  0.30598513  0.60615491  1
  Ta  Ta89  1  -0.01527348  0.20649884  0.25284393  1
  Ta  Ta90  1  0.39734626  -0.00269435  0.22110785  1
  Ta  Ta91  1  0.78884610  0.19992788  0.25466721  1
  Ta  Ta92  1  0.90422174  0.89431675  0.86065953  1
  Ta  Ta93  1  0.50434019  0.48846881  0.86864347  1
  Ta  Ta94  1  0.08753341  0.89712143  0.88630344  1
  Ta  Ta95  1  0.61030994  0.80956544  0.76716535  1
  Ta  Ta96  1  0.50558468  0.90589133  0.88225589  1
  Ta  Ta97  1  0.39631235  0.40105943  0.26307752  1
  Ta  Ta98  1  0.02072011  0.19053904  0.73498227  1
  Ta  Ta99  1  0.20040539  0.59603574  -0.01469966  1
  Ta  Ta100  1  -0.00083464  0.39302280  0.00746878  1
  Ta  Ta101  1  0.88895547  0.10945415  0.13317343  1
  Ta  Ta102  1  0.50208113  0.10657934  0.11168179  1
  Ta  Ta103  1  0.59977968  0.20190248  0.74894233  1
  Ta  Ta104  1  0.50988200  0.71751105  0.64557182  1
  Ta  Ta105  1  0.90292980  0.50210343  0.38217553  1
  Ta  Ta106  1  0.30523847  0.30717687  0.12039011  1
  Ta  Ta107  1  0.69826555  0.29245882  0.11264821  1
  Ta  Ta108  1  0.29904319  0.70401033  0.87273867  1
  Ta  Ta109  1  0.78173727  0.19715997  0.76605090  1
  Ta  Ta110  1  0.69263682  0.09912836  0.38164363  1
  Ta  Ta111  1  0.11485326  0.28919558  0.60877628  1
  Ta  Ta112  1  0.69873344  0.49076042  0.61399985  1
  Ta  Ta113  1  -0.00205318  0.39814669  0.49789203  1
  Ta  Ta114  1  0.80506804  0.59718111  0.25305976  1
  Ta  Ta115  1  0.89146606  0.10103880  0.36897509  1
  Ta  Ta116  1  0.90300933  0.69598867  0.36106501  1
  Ta  Ta117  1  0.60260088  0.80012503  0.22854684  1
  Ta  Ta118  1  0.10108262  0.68620639  0.10980352  1
  Ta  Ta119  1  0.39914998  0.20749731  -0.00783782  1
  Ti  Ti120  1  0.67607780  0.10994571  0.89238445  1
  Ti  Ti121  1  0.50640188  0.69992637  0.11936098  1
  Ti  Ti122  1  0.19102308  0.60106161  0.25896307  1
  Ti  Ti123  1  0.69250753  0.10653291  0.11563042  1
  Ti  Ti124  1  0.40563443  0.01199018  0.77149427  1
  Ti  Ti125  1  0.80000423  0.79713760  0.24386045  1
  Ti  Ti126  1  0.69839910  0.29071144  0.38779310  1
  Ti  Ti127  1  0.68813514  0.47802226  0.88907952  1
  Ti  Ti128  1  0.88646637  0.29963617  0.38872312  1
  Ti  Ti129  1  0.10694554  0.87837564  0.10963677  1
  Ti  Ti130  1  0.70826956  0.71533628  0.88400944  1
  Ti  Ti131  1  0.00587561  -0.00797101  0.73065339  1
  Ti  Ti132  1  0.28965216  0.51111390  0.38614124  1
  Ti  Ti133  1  0.12310657  0.69987275  0.60774795  1
  Ti  Ti134  1  0.79883551  0.59249916  -0.01218429  1
  Ti  Ti135  1  0.80078908  0.39317977  0.00594262  1
  Ti  Ti136  1  0.49037376  0.09491355  0.63213270  1
  Ti  Ti137  1  0.69204355  0.29817124  0.89449163  1
  Ti  Ti138  1  0.80248058  0.19948260  -0.00205889  1
  Ti  Ti139  1  0.81713922  0.81360815  -0.00415237  1
  Ti  Ti140  1  0.59442008  0.00727230  0.76404110  1
  Ti  Ti141  1  0.39842806  0.39763295  0.75326058  1
  Ti  Ti142  1  0.70030901  0.49667390  0.11887288  1
  Ti  Ti143  1  0.28655589  0.70031007  0.10554795  1
  Ti  Ti144  1  0.70761619  0.69810059  0.36994987  1
  Ti  Ti145  1  0.49998180  0.30015374  0.12077052  1
  Ti  Ti146  1  0.69830046  0.29495900  0.61084143  1
  Ti  Ti147  1  0.79616586  0.59472958  0.76865544  1
  Ti  Ti148  1  0.50510048  0.29774964  0.37611959  1
  Ti  Ti149  1  0.87744168  0.89151320  0.64351408  1
  Ti  Ti150  1  0.61157672  0.60725308  0.24347201  1
  Ti  Ti151  1  0.60074614  0.19807120  0.24844347  1
  Ti  Ti152  1  0.09164962  0.49587770  0.87813327  1
  Ti  Ti153  1  0.09669132  0.51022990  0.12218723  1
  Ti  Ti154  1  0.68848610  0.89000757  0.62917789  1
  Ti  Ti155  1  0.49999510  0.70889782  0.86797941  1
  Ti  Ti156  1  0.30865951  0.49714811  0.87359726  1
  Ti  Ti157  1  0.40503123  0.40232947  0.00165781  1
  Ti  Ti158  1  0.09334559  0.10406200  0.89282008  1
  Ti  Ti159  1  0.30977208  0.70821161  0.62591472  1
  Mo  Mo160  1  0.79805049  0.79841904  0.76245008  1
  Mo  Mo161  1  0.59472793  0.00711965  -0.00660030  1
  Mo  Mo162  1  0.20469117  0.00365141  0.49949484  1
  Mo  Mo163  1  0.79227778  0.19442138  0.48285744  1
  Mo  Mo164  1  0.30561575  0.30803999  0.89168333  1
  Mo  Mo165  1  0.60430273  0.39130987  0.73878212  1
  Mo  Mo166  1  -0.00318144  0.79929059  0.00957516  1
  Mo  Mo167  1  0.39989907  0.01107349  0.51357116  1
  Mo  Mo168  1  0.40690655  0.80294506  0.76115762  1
  Mo  Mo169  1  0.59913057  0.40136418  0.02029980  1
  Mo  Mo170  1  0.60638284  0.79917670  0.51972023  1
  Mo  Mo171  1  0.30362257  0.90210967  0.10626126  1
  Mo  Mo172  1  0.09309334  0.09952928  0.34932522  1
  Mo  Mo173  1  0.89462290  0.29283431  0.11414250  1
  Mo  Mo174  1  0.09697786  0.50509636  0.38281838  1
  Mo  Mo175  1  0.50315964  0.90080980  0.35539708  1
  Mo  Mo176  1  0.80218848  0.60191941  0.48483829  1
  Mo  Mo177  1  0.79629819  0.39417639  0.49308907  1
  Mo  Mo178  1  0.19487902  0.20761792  0.76397921  1
  Mo  Mo179  1  0.50582821  0.90872668  0.66375705  1
  Mo  Mo180  1  0.21324799  0.60399833  0.49941062  1
  Mo  Mo181  1  0.19600646  0.19931928  0.26396266  1
  Mo  Mo182  1  0.30722789  0.71122831  0.39176563  1
  Mo  Mo183  1  0.30183144  0.30481415  0.38026477  1
  Mo  Mo184  1  0.20338387  0.39770331  0.48508046  1
  Mo  Mo185  1  0.10204472  0.10084809  0.62176482  1
  Mo  Mo186  1  0.89205404  0.69923083  0.64716000  1
  Mo  Mo187  1  -0.00649850  0.19899719  0.01547736  1
  Mo  Mo188  1  0.59704990  0.79870112  -0.01141736  1
  Mo  Mo189  1  0.29685386  0.09488135  0.35264184  1
  Mo  Mo190  1  0.22175681  0.80053962  0.51411687  1
  Mo  Mo191  1  0.19950216  0.79565718  -0.00300471  1
  Mo  Mo192  1  0.00811533  0.59710905  0.26146316  1
  Mo  Mo193  1  0.49523183  0.10599048  0.87925701  1
  Mo  Mo194  1  0.00490922  0.59032686  -0.01077352  1
  Mo  Mo195  1  0.59688484  0.20294528  0.00976463  1
  Mo  Mo196  1  0.19972706  0.20404558  -0.01190071  1
  Mo  Mo197  1  0.11818666  0.90415086  0.60629205  1
  Mo  Mo198  1  0.69752070  0.89934060  0.88778980  1
  Mo  Mo199  1  0.89466629  0.89586441  0.14244346  1
