# generated using pymatgen
data_HfZrTaTiMo
_symmetry_space_group_name_H-M   'P 1'
_cell_length_a   15.93178064
_cell_length_b   15.93213701
_cell_length_c   15.20941278
_cell_angle_alpha   89.98883518
_cell_angle_beta   89.97853942
_cell_angle_gamma   89.91660091
_symmetry_Int_Tables_number   1
_chemical_formula_structural   HfZrTaTiMo
_chemical_formula_sum   'Hf40 Zr40 Ta40 Ti40 Mo40'
_cell_volume   3860.55993089
_cell_formula_units_Z   40
loop_
 _symmetry_equiv_pos_site_id
 _symmetry_equiv_pos_as_xyz
  1  'x, y, z'
loop_
 _atom_site_type_symbol
 _atom_site_label
 _atom_site_symmetry_multiplicity
 _atom_site_fract_x
 _atom_site_fract_y
 _atom_site_fract_z
 _atom_site_occupancy
  Hf  Hf0  1  0.29016279  0.90283905  0.88265575  1
  Hf  Hf1  1  0.60989625  -0.00727455  0.24542432  1
  Hf  Hf2  1  0.09969623  0.09474567  0.60998874  1
  Hf  Hf3  1  0.59947151  -0.00460157  0.49622397  1
  Hf  Hf4  1  0.60430440  0.79522226  -0.00101254  1
  Hf  Hf5  1  0.50509391  0.30109387  0.11417604  1
  Hf  Hf6  1  0.00206808  0.19625653  0.74994898  1
  Hf  Hf7  1  0.20254184  -0.01282081  0.73360861  1
  Hf  Hf8  1  0.49753803  0.29549569  0.86585713  1
  Hf  Hf9  1  0.81026616  0.39857419  0.53685869  1
  Hf  Hf10  1  0.39951931  0.19438403  -0.00313933  1
  Hf  Hf11  1  0.89752773  0.70440842  0.88984757  1
  Hf  Hf12  1  0.29128841  0.30393777  0.12770363  1
  Hf  Hf13  1  0.10110555  0.10322299  0.39754072  1
  Hf  Hf14  1  0.49667560  0.89317828  0.37249315  1
  Hf  Hf15  1  0.71353792  0.09082914  0.10679997  1
  Hf  Hf16  1  0.91380011  0.09311468  0.88861561  1
  Hf  Hf17  1  0.31067920  0.10425809  0.62141961  1
  Hf  Hf18  1  0.79719472  0.79823803  0.23748881  1
  Hf  Hf19  1  0.70387850  0.89451303  0.61656574  1
  Hf  Hf20  1  0.80479618  0.60865489  0.73799120  1
  Hf  Hf21  1  0.10051111  0.50373489  0.61753208  1
  Hf  Hf22  1  -0.01034603  0.80400750  0.01632778  1
  Hf  Hf23  1  0.21513545  0.21697095  0.50688103  1
  Hf  Hf24  1  0.29795072  0.49745938  0.36519073  1
  Hf  Hf25  1  0.00399922  0.61273948  0.75061137  1
  Hf  Hf26  1  0.70417131  0.10823101  0.38209759  1
  Hf  Hf27  1  -0.01540687  0.80452481  0.48044118  1
  Hf  Hf28  1  0.09357415  0.70960756  0.60900636  1
  Hf  Hf29  1  0.40652604  -0.00931679  0.73241755  1
  Hf  Hf30  1  0.90330820  0.08827236  0.62473412  1
  Hf  Hf31  1  0.20525432  0.60691993  0.49148483  1
  Hf  Hf32  1  0.90582470  0.50003928  0.87540155  1
  Hf  Hf33  1  0.48527060  0.90947434  0.89197187  1
  Hf  Hf34  1  0.70830256  0.30168467  0.37190672  1
  Hf  Hf35  1  0.81804696  -0.01620738  0.48273031  1
  Hf  Hf36  1  0.90071288  0.30634919  0.87053205  1
  Hf  Hf37  1  0.19655927  0.59929032  -0.00993835  1
  Hf  Hf38  1  0.08853757  0.11255165  0.10996830  1
  Hf  Hf39  1  0.18460580  0.80185111  0.75075711  1
  Zr  Zr40  1  0.09777475  0.69636736  0.13614583  1
  Zr  Zr41  1  0.19952844  0.20789103  -0.01086930  1
  Zr  Zr42  1  0.39895690  0.39954343  0.51237314  1
  Zr  Zr43  1  0.39107316  0.41118758  0.00022869  1
  Zr  Zr44  1  0.60790849  0.40524877  0.23620380  1
  Zr  Zr45  1  0.81579678  0.40372303  0.22291681  1
  Zr  Zr46  1  0.30382577  0.30660621  0.85698264  1
  Zr  Zr47  1  0.93717296  0.30040513  0.09824469  1
  Zr  Zr48  1  0.69061493  0.50884035  0.62540772  1
  Zr  Zr49  1  0.39115353  0.79282030  0.01040032  1
  Zr  Zr50  1  0.80719309  0.61218836  0.50725718  1
  Zr  Zr51  1  0.59721129  0.37305516  0.52514183  1
  Zr  Zr52  1  0.59465939  0.61667928  0.76564182  1
  Zr  Zr53  1  0.61127977  0.19679144  0.23307660  1
  Zr  Zr54  1  0.49190697  0.51209674  0.11729478  1
  Zr  Zr55  1  0.59943574  0.39965744  0.75009014  1
  Zr  Zr56  1  0.50669802  0.29795743  0.36632962  1
  Zr  Zr57  1  0.29947480  0.68307131  0.13943936  1
  Zr  Zr58  1  0.89913459  0.49630870  0.38266342  1
  Zr  Zr59  1  0.70850110  0.50366607  0.87799668  1
  Zr  Zr60  1  -0.00678745  0.01141449  0.25311724  1
  Zr  Zr61  1  0.20490070  0.19439589  0.75085263  1
  Zr  Zr62  1  0.60401725  -0.00993338  0.76046992  1
  Zr  Zr63  1  0.79584869  0.20924803  0.52316478  1
  Zr  Zr64  1  0.81925300  0.19216513  0.23129734  1
  Zr  Zr65  1  0.01409132  0.21575271  0.25975114  1
  Zr  Zr66  1  0.69404730  0.49539558  0.38833006  1
  Zr  Zr67  1  0.30593250  0.09737168  0.38030553  1
  Zr  Zr68  1  0.49866196  0.10293227  0.37687317  1
  Zr  Zr69  1  0.49996823  0.08939678  0.11087100  1
  Zr  Zr70  1  0.68240979  0.71531539  0.61164351  1
  Zr  Zr71  1  0.11063188  0.08459253  0.88132566  1
  Zr  Zr72  1  0.78600296  0.80356283  0.77096299  1
  Zr  Zr73  1  0.69994894  0.09384192  0.62834324  1
  Zr  Zr74  1  0.79116169  0.60232936  0.23994543  1
  Zr  Zr75  1  0.90643105  0.30674412  0.38138765  1
  Zr  Zr76  1  0.10826811  0.31552588  0.63030064  1
  Zr  Zr77  1  0.40000204  0.60583197  0.49386047  1
  Zr  Zr78  1  0.60566597  0.79253381  0.24383189  1
  Zr  Zr79  1  0.30669889  0.29875292  0.36900261  1
  Ta  Ta80  1  0.49732708  0.69458235  0.13331758  1
  Ta  Ta81  1  0.19099784  0.40902615  -0.01111340  1
  Ta  Ta82  1  0.80717348  -0.00638661  0.76834763  1
  Ta  Ta83  1  0.80080248  -0.00209766  0.25494834  1
  Ta  Ta84  1  0.09970783  0.90533953  0.37505420  1
  Ta  Ta85  1  0.20500335  0.79966657  0.48513881  1
  Ta  Ta86  1  0.08877056  0.89939469  0.89171571  1
  Ta  Ta87  1  0.19723794  0.19879365  0.25202553  1
  Ta  Ta88  1  0.49556944  0.89700283  0.12482861  1
  Ta  Ta89  1  0.19358675  0.60839278  0.75454530  1
  Ta  Ta90  1  0.30066470  0.90220824  0.37085909  1
  Ta  Ta91  1  0.80707369  -0.01941183  -0.01039279  1
  Ta  Ta92  1  0.29884288  0.70525266  0.63322567  1
  Ta  Ta93  1  0.40002147  0.40272301  0.24037686  1
  Ta  Ta94  1  0.80250310  0.60947021  0.01586754  1
  Ta  Ta95  1  0.60203000  0.40078539  -0.01222526  1
  Ta  Ta96  1  0.19631304  0.00250014  0.24884882  1
  Ta  Ta97  1  0.29372507  0.09699548  0.12720420  1
  Ta  Ta98  1  0.18261227  0.39245324  0.25644794  1
  Ta  Ta99  1  0.39885678  0.19708616  0.23559658  1
  Ta  Ta100  1  0.00348233  -0.01509795  0.74549637  1
  Ta  Ta101  1  -0.01051921  0.59237889  0.24648289  1
  Ta  Ta102  1  0.29550817  0.70538543  0.86525764  1
  Ta  Ta103  1  0.09162113  0.69696212  0.36908304  1
  Ta  Ta104  1  0.40132724  -0.01349343  0.51097281  1
  Ta  Ta105  1  0.19644143  0.80274256  0.26049549  1
  Ta  Ta106  1  0.19202588  0.79749069  0.00428942  1
  Ta  Ta107  1  0.39825161  0.60770395  0.75116421  1
  Ta  Ta108  1  -0.00610040  0.80360521  0.75642896  1
  Ta  Ta109  1  0.70614804  0.29802781  0.87542096  1
  Ta  Ta110  1  0.80471098  0.40379964  0.00631460  1
  Ta  Ta111  1  0.29306562  0.50096340  0.63733846  1
  Ta  Ta112  1  0.09081836  0.49510928  0.38669916  1
  Ta  Ta113  1  0.79826993  0.19469501  0.75640627  1
  Ta  Ta114  1  0.09033470  0.48641043  0.12727229  1
  Ta  Ta115  1  0.31926416  0.08671118  0.87438852  1
  Ta  Ta116  1  0.69219846  0.50460751  0.10667467  1
  Ta  Ta117  1  0.39519116  0.79489895  0.25267983  1
  Ta  Ta118  1  0.50689922  0.87843047  0.61428292  1
  Ta  Ta119  1  0.29760460  0.50361307  0.85672228  1
  Ti  Ti120  1  0.70389555  0.29902988  0.10392076  1
  Ti  Ti121  1  0.09918893  0.90344213  0.13374331  1
  Ti  Ti122  1  0.58351120  0.60688297  0.49186154  1
  Ti  Ti123  1  -0.00715260  0.80038365  0.25249607  1
  Ti  Ti124  1  0.18846864  0.59431597  0.26004620  1
  Ti  Ti125  1  0.00173871  0.59710778  0.00736372  1
  Ti  Ti126  1  0.80672515  0.79305611  0.48010422  1
  Ti  Ti127  1  0.59907077  0.18836394  0.75867807  1
  Ti  Ti128  1  0.49210379  0.50545389  0.63170791  1
  Ti  Ti129  1  0.59328727  0.60738006  -0.01350511  1
  Ti  Ti130  1  0.39770740  0.80211726  0.74826189  1
  Ti  Ti131  1  0.39574154  0.79000324  0.48740648  1
  Ti  Ti132  1  0.69166309  0.69776695  0.38184605  1
  Ti  Ti133  1  0.28795681  0.49971937  0.13774155  1
  Ti  Ti134  1  0.41878449  0.20894402  0.51362391  1
  Ti  Ti135  1  0.89468805  0.91027371  0.13073883  1
  Ti  Ti136  1  -0.01366277  0.60761576  0.50079380  1
  Ti  Ti137  1  0.20202014  -0.00659590  0.01623457  1
  Ti  Ti138  1  0.21030330  -0.01232882  0.50404700  1
  Ti  Ti139  1  -0.00800218  0.21865485  0.51887926  1
  Ti  Ti140  1  0.49169806  0.50066660  0.87086537  1
  Ti  Ti141  1  0.39772546  0.60694810  -0.01953461  1
  Ti  Ti142  1  0.39641239  -0.00125376  0.24276131  1
  Ti  Ti143  1  0.70465809  0.09614011  0.88043062  1
  Ti  Ti144  1  0.31204674  0.30957892  0.64692288  1
  Ti  Ti145  1  0.59630727  0.59968107  0.25202411  1
  Ti  Ti146  1  0.09843514  0.31418093  0.40053502  1
  Ti  Ti147  1  0.09103958  0.89943282  0.60373299  1
  Ti  Ti148  1  0.29587703  0.89811432  0.13514913  1
  Ti  Ti149  1  0.80831250  0.19860806  -0.00492545  1
  Ti  Ti150  1  0.60562020  -0.00601347  -0.00531393  1
  Ti  Ti151  1  0.49464620  0.70409264  0.62702756  1
  Ti  Ti152  1  0.70044082  0.89091348  0.37919596  1
  Ti  Ti153  1  0.50729340  0.10084256  0.62139682  1
  Ti  Ti154  1  0.49931962  0.49658784  0.36997615  1
  Ti  Ti155  1  0.09438911  0.31777746  0.86212966  1
  Ti  Ti156  1  0.90726324  0.10776578  0.39168755  1
  Ti  Ti157  1  0.60381219  0.19579092  -0.01396502  1
  Ti  Ti158  1  0.89950384  0.88993324  0.62893274  1
  Ti  Ti159  1  0.59168484  0.80013896  0.77619247  1
  Mo  Mo160  1  0.90833019  0.50450893  0.63462428  1
  Mo  Mo161  1  0.40242797  0.59535162  0.26128888  1
  Mo  Mo162  1  0.00840038  0.40540209  0.25409977  1
  Mo  Mo163  1  0.89951711  0.89971228  0.35206632  1
  Mo  Mo164  1  0.00201916  -0.00574029  0.01926045  1
  Mo  Mo165  1  0.79672804  0.80030541  0.01651879  1
  Mo  Mo166  1  0.00080551  -0.00634884  0.49677933  1
  Mo  Mo167  1  0.90199441  0.69805518  0.35349421  1
  Mo  Mo168  1  0.29416800  0.70259216  0.36026309  1
  Mo  Mo169  1  0.59857217  0.19719189  0.51480519  1
  Mo  Mo170  1  0.90070255  0.09738844  0.10363793  1
  Mo  Mo171  1  0.09940312  0.50623334  0.86914345  1
  Mo  Mo172  1  0.90113077  0.70004182  0.12844419  1
  Mo  Mo173  1  -0.00244924  0.40984095  0.74525621  1
  Mo  Mo174  1  0.90586094  0.50207917  0.10970205  1
  Mo  Mo175  1  0.49595792  0.69260830  0.35711286  1
  Mo  Mo176  1  0.70007367  0.29360497  0.66025793  1
  Mo  Mo177  1  0.68966615  0.69063319  0.11359241  1
  Mo  Mo178  1  0.38886601  -0.00478310  0.01832705  1
  Mo  Mo179  1  0.49588892  0.28216963  0.64890084  1
  Mo  Mo180  1  0.30447315  0.88687918  0.60871483  1
  Mo  Mo181  1  0.50359821  0.09609029  0.88451998  1
  Mo  Mo182  1  0.19793973  0.41073470  0.76114551  1
  Mo  Mo183  1  0.69895959  0.90069800  0.88739366  1
  Mo  Mo184  1  0.01116881  0.40966571  -0.02050884  1
  Mo  Mo185  1  0.80108452  0.39748254  0.74601409  1
  Mo  Mo186  1  0.11008774  0.30635669  0.11538905  1
  Mo  Mo187  1  0.00879155  0.20462075  -0.02675088  1
  Mo  Mo188  1  0.70204359  0.90158097  0.11223778  1
  Mo  Mo189  1  0.40376682  0.41181227  0.74048013  1
  Mo  Mo190  1  0.41046919  0.18843262  0.75150067  1
  Mo  Mo191  1  0.48945008  0.70427805  0.87286129  1
  Mo  Mo192  1  0.89969798  0.71362930  0.62829745  1
  Mo  Mo193  1  0.70003010  0.69897567  0.89331575  1
  Mo  Mo194  1  0.90610827  0.89915443  0.87674728  1
  Mo  Mo195  1  0.20380215  0.40720798  0.48995812  1
  Mo  Mo196  1  0.90370512  0.30126591  0.65407662  1
  Mo  Mo197  1  0.09806795  0.70565627  0.88913936  1
  Mo  Mo198  1  0.59128945  0.79084838  0.48129719  1
  Mo  Mo199  1  -0.00251961  0.40581958  0.52118346  1
