# generated using pymatgen
data_HfZrTaTiMo
_symmetry_space_group_name_H-M   'P 1'
_cell_length_a   15.93845357
_cell_length_b   15.92904918
_cell_length_c   15.20398681
_cell_angle_alpha   90.06808134
_cell_angle_beta   89.97084420
_cell_angle_gamma   90.09882480
_symmetry_Int_Tables_number   1
_chemical_formula_structural   HfZrTaTiMo
_chemical_formula_sum   'Hf40 Zr40 Ta40 Ti40 Mo40'
_cell_volume   3860.04626858
_cell_formula_units_Z   40
loop_
 _symmetry_equiv_pos_site_id
 _symmetry_equiv_pos_as_xyz
  1  'x, y, z'
loop_
 _atom_site_type_symbol
 _atom_site_label
 _atom_site_symmetry_multiplicity
 _atom_site_fract_x
 _atom_site_fract_y
 _atom_site_fract_z
 _atom_site_occupancy
  Hf  Hf0  1  0.80881727  0.80264537  0.51031434  1
  Hf  Hf1  1  0.10605215  0.91041964  0.37524602  1
  Hf  Hf2  1  -0.00934576  0.19474219  0.76022969  1
  Hf  Hf3  1  0.29749421  0.29743786  0.86611463  1
  Hf  Hf4  1  0.69555736  0.69636886  0.63621677  1
  Hf  Hf5  1  0.19710519  0.20331745  0.00603713  1
  Hf  Hf6  1  -0.00537436  0.19499738  0.24511691  1
  Hf  Hf7  1  0.39981679  0.40364101  -0.00708818  1
  Hf  Hf8  1  0.70540462  0.69664863  0.37119520  1
  Hf  Hf9  1  0.70663470  0.90501030  0.37599247  1
  Hf  Hf10  1  0.59571626  0.79334521  -0.00667509  1
  Hf  Hf11  1  0.00598953  0.00726529  0.23441805  1
  Hf  Hf12  1  0.09465300  0.90909505  0.61451675  1
  Hf  Hf13  1  0.29247889  0.09597610  0.36567960  1
  Hf  Hf14  1  0.10835482  0.70144847  0.13857699  1
  Hf  Hf15  1  0.29570226  0.08467306  0.88193331  1
  Hf  Hf16  1  0.09833154  0.30729219  0.12893601  1
  Hf  Hf17  1  0.30315089  0.31081098  0.62634393  1
  Hf  Hf18  1  0.89802962  0.08899711  0.38604428  1
  Hf  Hf19  1  0.09858139  0.09431943  0.88153942  1
  Hf  Hf20  1  0.20755165  0.41428171  0.49496265  1
  Hf  Hf21  1  0.49783624  0.30500900  0.63392065  1
  Hf  Hf22  1  0.12139829  0.71302660  0.36834034  1
  Hf  Hf23  1  0.59758161  0.79910898  0.23821499  1
  Hf  Hf24  1  0.49772390  0.69664225  0.63334368  1
  Hf  Hf25  1  0.48131150  0.68998283  0.36698828  1
  Hf  Hf26  1  0.00501238  0.80888267  0.75374976  1
  Hf  Hf27  1  0.90879125  0.69389614  0.86937008  1
  Hf  Hf28  1  0.20053559  0.61003443  0.00237371  1
  Hf  Hf29  1  0.29479673  0.88631714  0.38100409  1
  Hf  Hf30  1  0.90191685  0.28933518  0.62312626  1
  Hf  Hf31  1  0.19745079  0.41642211  0.26871256  1
  Hf  Hf32  1  0.80627418  0.80196259  0.24048537  1
  Hf  Hf33  1  0.40146870  0.20382356  0.49405870  1
  Hf  Hf34  1  0.59363710  0.59799246  -0.00699199  1
  Hf  Hf35  1  0.59673353  0.79528424  0.49768615  1
  Hf  Hf36  1  0.01239424  0.59346646  0.26450669  1
  Hf  Hf37  1  0.69953357  0.29762222  0.37341847  1
  Hf  Hf38  1  0.80589186  0.59520853  0.00211148  1
  Hf  Hf39  1  0.00607603  0.39904757  0.50491542  1
  Zr  Zr40  1  0.60767022  -0.00260405  0.76277625  1
  Zr  Zr41  1  0.88067220  0.30413584  0.12113731  1
  Zr  Zr42  1  0.29410274  0.50800314  0.86518673  1
  Zr  Zr43  1  0.59583458  0.59613277  0.23842214  1
  Zr  Zr44  1  0.59183457  0.39706010  0.25246399  1
  Zr  Zr45  1  0.48953836  0.09839498  0.86918645  1
  Zr  Zr46  1  0.79489714  0.19709799  0.50427669  1
  Zr  Zr47  1  0.69505935  0.29646909  0.12392372  1
  Zr  Zr48  1  0.21949807  0.61598872  0.50093625  1
  Zr  Zr49  1  0.59068731  0.39723631  -0.00775638  1
  Zr  Zr50  1  0.59602692  0.80331730  0.77178840  1
  Zr  Zr51  1  0.90921654  0.90094901  0.11041249  1
  Zr  Zr52  1  0.40453263  0.00526690  0.49946709  1
  Zr  Zr53  1  0.59142821  0.58855562  0.49809848  1
  Zr  Zr54  1  0.51295779  0.10450196  0.63062956  1
  Zr  Zr55  1  0.67991909  0.28749588  0.62793274  1
  Zr  Zr56  1  0.90514368  0.49936337  0.86274695  1
  Zr  Zr57  1  0.19520933  0.40785528  -0.00460464  1
  Zr  Zr58  1  0.78812457  0.18171422  0.75876943  1
  Zr  Zr59  1  0.50151506  0.89972949  0.37573317  1
  Zr  Zr60  1  0.19475925  0.19707490  0.24535219  1
  Zr  Zr61  1  0.89177404  0.49655163  0.38566535  1
  Zr  Zr62  1  0.39862052  -0.00148303  0.24220006  1
  Zr  Zr63  1  0.30314623  0.71636429  0.87691989  1
  Zr  Zr64  1  0.80555068  -0.00640135  0.74785092  1
  Zr  Zr65  1  0.89890090  0.50158843  0.63117608  1
  Zr  Zr66  1  0.40023018  0.40417427  0.26361795  1
  Zr  Zr67  1  -0.00288184  0.40160384  0.26013357  1
  Zr  Zr68  1  0.79910183  0.60168466  0.50980357  1
  Zr  Zr69  1  0.80405136  0.59309225  0.24120135  1
  Zr  Zr70  1  0.59850252  0.00040655  -0.00593872  1
  Zr  Zr71  1  -0.00064437  0.40270413  -0.00979524  1
  Zr  Zr72  1  0.69142154  0.08947632  0.38200637  1
  Zr  Zr73  1  0.70506903  0.10726606  0.11351772  1
  Zr  Zr74  1  0.00225154  0.79777932  0.50138956  1
  Zr  Zr75  1  0.20513032  0.81211790  0.74778069  1
  Zr  Zr76  1  0.79608149  0.38717248  0.75194065  1
  Zr  Zr77  1  0.02160709  0.79363663  -0.00648792  1
  Zr  Zr78  1  0.09125173  0.10358447  0.62584190  1
  Zr  Zr79  1  0.80198760  0.80391509  0.75167688  1
  Ta  Ta80  1  0.58520693  0.19221637  0.25924105  1
  Ta  Ta81  1  0.30184860  0.89910370  0.61290456  1
  Ta  Ta82  1  0.20039244  0.20445812  0.50929375  1
  Ta  Ta83  1  0.01087621  0.60372855  0.49907872  1
  Ta  Ta84  1  0.20515746  0.01072242  0.50881342  1
  Ta  Ta85  1  0.89467987  0.29765219  0.37805290  1
  Ta  Ta86  1  0.80427656  0.00288706  0.23373027  1
  Ta  Ta87  1  0.70210808  0.89950054  0.11666948  1
  Ta  Ta88  1  0.39076771  0.19482052  0.74438560  1
  Ta  Ta89  1  0.59931714  0.00088740  0.23441248  1
  Ta  Ta90  1  0.00834241  0.59600965  0.00486372  1
  Ta  Ta91  1  0.49818336  0.90173904  0.11295984  1
  Ta  Ta92  1  0.38688359  0.78145425  0.50786693  1
  Ta  Ta93  1  0.40537593  0.60509128  0.75989117  1
  Ta  Ta94  1  0.10519640  0.50756742  0.62857878  1
  Ta  Ta95  1  0.70254309  0.49473737  0.87517551  1
  Ta  Ta96  1  0.59552730  0.59606251  0.76985455  1
  Ta  Ta97  1  0.90764672  0.70482788  0.36752110  1
  Ta  Ta98  1  0.10008862  0.29620663  0.38315424  1
  Ta  Ta99  1  0.19548335  0.20104424  0.74016905  1
  Ta  Ta100  1  0.91180681  0.69470328  0.12768855  1
  Ta  Ta101  1  0.69882755  0.49222602  0.37245610  1
  Ta  Ta102  1  0.19239559  0.39829376  0.74249642  1
  Ta  Ta103  1  0.49406309  0.49258561  0.64184887  1
  Ta  Ta104  1  -0.00636025  0.19529787  0.00528733  1
  Ta  Ta105  1  0.46756590  0.89959193  0.88745938  1
  Ta  Ta106  1  0.30510315  0.30493760  0.13089826  1
  Ta  Ta107  1  0.71045967  0.48525862  0.11703730  1
  Ta  Ta108  1  0.39898440  0.79543608  0.22714254  1
  Ta  Ta109  1  0.59122920  0.20316426  -0.01601722  1
  Ta  Ta110  1  0.40251464  0.41376753  0.48503744  1
  Ta  Ta111  1  0.58925076  0.39690774  0.49145766  1
  Ta  Ta112  1  0.30484522  0.10531881  0.11826467  1
  Ta  Ta113  1  0.90901910  0.90466506  0.89396904  1
  Ta  Ta114  1  0.00904889  0.39166883  0.74461166  1
  Ta  Ta115  1  0.68322447  0.49079129  0.64071297  1
  Ta  Ta116  1  0.29985461  0.50874764  0.13193173  1
  Ta  Ta117  1  0.80349631  0.79217473  0.00243219  1
  Ta  Ta118  1  0.90316218  0.08155580  0.61090351  1
  Ta  Ta119  1  0.50051803  0.89864390  0.62174838  1
  Ti  Ti120  1  0.10014682  0.10061695  0.38476436  1
  Ti  Ti121  1  0.49657419  0.10650385  0.11834579  1
  Ti  Ti122  1  0.70658744  0.69562886  0.87532862  1
  Ti  Ti123  1  0.39733539  0.59249368  0.50635220  1
  Ti  Ti124  1  0.78803580  0.39951037  0.51147795  1
  Ti  Ti125  1  0.20638233  0.00440822  0.73755273  1
  Ti  Ti126  1  0.90281810  0.90320075  0.37411748  1
  Ti  Ti127  1  0.90156971  0.49332065  0.12407401  1
  Ti  Ti128  1  0.69499572  0.90546946  0.61626866  1
  Ti  Ti129  1  0.10344445  0.50492130  0.12885297  1
  Ti  Ti130  1  0.40000641  0.20620929  -0.00330999  1
  Ti  Ti131  1  0.79991411  0.19307544  0.25514638  1
  Ti  Ti132  1  0.91086893  0.69754022  0.63672930  1
  Ti  Ti133  1  0.89402766  0.29643086  0.88337882  1
  Ti  Ti134  1  0.79592834  0.59687049  0.74964954  1
  Ti  Ti135  1  0.58808157  0.39634388  0.77347254  1
  Ti  Ti136  1  0.09690027  0.29773485  0.87266857  1
  Ti  Ti137  1  0.11044047  0.70078399  0.62958981  1
  Ti  Ti138  1  0.40239442  0.20126465  0.25627526  1
  Ti  Ti139  1  0.11868775  0.91053419  0.88979823  1
  Ti  Ti140  1  0.49382393  0.50053129  0.12249550  1
  Ti  Ti141  1  0.30536264  0.50676627  0.64259566  1
  Ti  Ti142  1  0.00313531  0.20026375  0.49689490  1
  Ti  Ti143  1  0.39248134  0.79717349  0.01526584  1
  Ti  Ti144  1  0.38994300  -0.00674573  0.73905488  1
  Ti  Ti145  1  0.69393751  0.09063495  0.60842872  1
  Ti  Ti146  1  0.19720039  -0.00085468  0.22473203  1
  Ti  Ti147  1  0.70330374  0.69670888  0.11936698  1
  Ti  Ti148  1  0.00592354  0.80838957  0.24818270  1
  Ti  Ti149  1  0.09726530  0.51229227  0.85230798  1
  Ti  Ti150  1  0.71948280  0.90645282  0.89591254  1
  Ti  Ti151  1  0.29616641  0.29809104  0.37481956  1
  Ti  Ti152  1  0.21479347  0.81167811  0.22501636  1
  Ti  Ti153  1  0.39977916  0.80743863  0.74646069  1
  Ti  Ti154  1  0.40478711  0.60606175  0.00082851  1
  Ti  Ti155  1  0.49290534  0.29293657  0.12607958  1
  Ti  Ti156  1  0.89071689  0.08917298  0.90038807  1
  Ti  Ti157  1  0.69878137  0.29417222  0.88036464  1
  Ti  Ti158  1  -0.00360119  -0.00320883  0.76155892  1
  Ti  Ti159  1  0.10655810  0.69111768  0.86062975  1
  Mo  Mo160  1  0.49854052  0.69898594  0.11541413  1
  Mo  Mo161  1  0.10207363  0.30150171  0.61949116  1
  Mo  Mo162  1  0.20324019  0.60416707  0.73895590  1
  Mo  Mo163  1  0.30325186  0.69829537  0.12383939  1
  Mo  Mo164  1  0.90629479  0.90198604  0.62608907  1
  Mo  Mo165  1  0.31010971  0.52152019  0.36418058  1
  Mo  Mo166  1  0.59509174  0.20195275  0.77144502  1
  Mo  Mo167  1  0.80304927  -0.01127785  0.51282522  1
  Mo  Mo168  1  0.79576691  0.40059512  -0.01646796  1
  Mo  Mo169  1  0.00366930  0.00206663  0.48461568  1
  Mo  Mo170  1  0.49880862  0.09922109  0.36764503  1
  Mo  Mo171  1  0.30732905  0.70050092  0.64330618  1
  Mo  Mo172  1  0.79682827  0.20097007  -0.01639980  1
  Mo  Mo173  1  0.20614501  0.80396131  0.51175365  1
  Mo  Mo174  1  0.49568718  0.50153413  0.86881241  1
  Mo  Mo175  1  0.00745661  0.60342263  0.73340318  1
  Mo  Mo176  1  0.70197731  0.10031847  0.89030982  1
  Mo  Mo177  1  0.20911245  0.60224142  0.25482859  1
  Mo  Mo178  1  0.29974041  0.90733465  0.88859602  1
  Mo  Mo179  1  0.09907861  0.10080079  0.10910657  1
  Mo  Mo180  1  0.60001631  -0.00626136  0.50821052  1
  Mo  Mo181  1  0.80386930  -0.00224612  0.01042035  1
  Mo  Mo182  1  0.89706965  0.10475665  0.11472933  1
  Mo  Mo183  1  0.79716768  0.39699892  0.25647636  1
  Mo  Mo184  1  0.20547213  0.80461367  0.00551456  1
  Mo  Mo185  1  0.10495847  0.50625770  0.39779122  1
  Mo  Mo186  1  0.30355313  0.70628348  0.35089622  1
  Mo  Mo187  1  0.39897146  0.00614685  0.01623630  1
  Mo  Mo188  1  0.49152196  0.29620021  0.86179116  1
  Mo  Mo189  1  0.40152025  0.60168744  0.22896541  1
  Mo  Mo190  1  0.00705781  0.00365557  0.00306979  1
  Mo  Mo191  1  0.58866120  0.19637733  0.48084770  1
  Mo  Mo192  1  0.30215937  0.90291651  0.10884631  1
  Mo  Mo193  1  0.19881083  -0.00025641  0.01699733  1
  Mo  Mo194  1  0.49949990  0.50317224  0.37685109  1
  Mo  Mo195  1  0.49645457  0.29625185  0.38127805  1
  Mo  Mo196  1  0.39704128  0.40237521  0.75827763  1
  Mo  Mo197  1  0.29920232  0.10141699  0.63205052  1
  Mo  Mo198  1  0.10778147  0.90095223  0.12297172  1
  Mo  Mo199  1  0.49231596  0.70544296  0.87776254  1
