# generated using pymatgen
data_HfZrTaTiMo
_symmetry_space_group_name_H-M   'P 1'
_cell_length_a   15.92085350
_cell_length_b   15.92293065
_cell_length_c   15.20867677
_cell_angle_alpha   90.02001212
_cell_angle_beta   89.92791740
_cell_angle_gamma   89.96717661
_symmetry_Int_Tables_number   1
_chemical_formula_structural   HfZrTaTiMo
_chemical_formula_sum   'Hf40 Zr40 Ta40 Ti40 Mo40'
_cell_volume   3855.49672092
_cell_formula_units_Z   40
loop_
 _symmetry_equiv_pos_site_id
 _symmetry_equiv_pos_as_xyz
  1  'x, y, z'
loop_
 _atom_site_type_symbol
 _atom_site_label
 _atom_site_symmetry_multiplicity
 _atom_site_fract_x
 _atom_site_fract_y
 _atom_site_fract_z
 _atom_site_occupancy
  Hf  Hf0  1  0.38909537  0.21035418  0.75969258  1
  Hf  Hf1  1  0.69132605  0.10623175  0.37374824  1
  Hf  Hf2  1  0.58894813  -0.00164413  0.23960485  1
  Hf  Hf3  1  0.70015292  0.89184634  0.87288673  1
  Hf  Hf4  1  0.29352670  0.30223253  0.12147459  1
  Hf  Hf5  1  0.60231284  0.59982498  0.24187719  1
  Hf  Hf6  1  0.90025440  0.69811806  0.37931659  1
  Hf  Hf7  1  0.80574934  0.79999634  0.74090439  1
  Hf  Hf8  1  0.70393036  0.49868331  0.11547637  1
  Hf  Hf9  1  0.49046747  0.88044474  0.86270646  1
  Hf  Hf10  1  0.89845902  0.71218776  0.87714044  1
  Hf  Hf11  1  0.10620520  0.71109919  0.87112081  1
  Hf  Hf12  1  0.80186868  0.21203183  0.01912448  1
  Hf  Hf13  1  0.90910140  0.69872630  0.61582753  1
  Hf  Hf14  1  0.00965478  0.60450013  0.00003699  1
  Hf  Hf15  1  0.58910017  0.00179795  0.50672306  1
  Hf  Hf16  1  0.90171515  0.31033670  0.36060897  1
  Hf  Hf17  1  0.39011849  -0.01897250  0.00612073  1
  Hf  Hf18  1  0.59663064  -0.01566731  0.01114740  1
  Hf  Hf19  1  0.01290367  0.82270771  0.00654223  1
  Hf  Hf20  1  0.31286207  0.49838487  0.86202959  1
  Hf  Hf21  1  0.89916127  0.49526703  0.88013162  1
  Hf  Hf22  1  0.69461386  0.90146662  0.62495467  1
  Hf  Hf23  1  0.18887691  0.78380902  0.27806729  1
  Hf  Hf24  1  0.00497327  0.59842434  0.75293554  1
  Hf  Hf25  1  0.59311754  0.59353601  0.50487244  1
  Hf  Hf26  1  0.00330479  0.81150104  0.25978039  1
  Hf  Hf27  1  0.30896183  0.69668170  0.39202189  1
  Hf  Hf28  1  0.68916799  0.89801815  0.37753810  1
  Hf  Hf29  1  0.50472420  0.49021112  0.64879204  1
  Hf  Hf30  1  0.29176310  0.90465589  0.61612773  1
  Hf  Hf31  1  0.21926089  0.61152888  -0.01156631  1
  Hf  Hf32  1  0.39306884  0.00155101  0.74674061  1
  Hf  Hf33  1  0.49822278  0.70435894  0.37586375  1
  Hf  Hf34  1  0.80659652  0.80790052  0.50591677  1
  Hf  Hf35  1  0.19453346  0.20006490  0.75656672  1
  Hf  Hf36  1  0.39229493  -0.00499377  0.24221555  1
  Hf  Hf37  1  0.60444811  0.19954676  0.00612006  1
  Hf  Hf38  1  0.49367624  0.30068557  0.11237316  1
  Hf  Hf39  1  0.80436424  0.39983763  0.74144481  1
  Zr  Zr40  1  0.91344479  0.49373690  0.61565906  1
  Zr  Zr41  1  0.70696175  0.49364748  0.36954600  1
  Zr  Zr42  1  0.28700376  0.09198923  0.88759331  1
  Zr  Zr43  1  0.40547100  0.41359957  0.49547426  1
  Zr  Zr44  1  0.01003517  0.39279568  0.75785190  1
  Zr  Zr45  1  0.49069831  0.89171331  0.37726024  1
  Zr  Zr46  1  0.90867664  0.09997903  0.61408144  1
  Zr  Zr47  1  0.10356201  0.09746262  0.37177751  1
  Zr  Zr48  1  0.49330384  0.09794342  0.88647015  1
  Zr  Zr49  1  0.88526656  0.91229061  0.12651160  1
  Zr  Zr50  1  0.09814011  0.30367673  0.61492666  1
  Zr  Zr51  1  0.80774181  0.60120592  0.00272537  1
  Zr  Zr52  1  0.80638831  0.20170010  0.74422747  1
  Zr  Zr53  1  0.59526559  0.20054021  0.75431732  1
  Zr  Zr54  1  0.79693007  0.20837817  0.49715777  1
  Zr  Zr55  1  0.29325365  0.90133070  0.38912553  1
  Zr  Zr56  1  0.71383816  0.08290344  0.13204573  1
  Zr  Zr57  1  0.10323696  0.69617465  0.61063284  1
  Zr  Zr58  1  -0.02191878  0.01366882  0.26220008  1
  Zr  Zr59  1  0.11277475  0.50475439  0.11724681  1
  Zr  Zr60  1  0.69354556  0.70522662  0.38098461  1
  Zr  Zr61  1  0.08745661  0.30838173  0.13885445  1
  Zr  Zr62  1  0.10137540  0.09239103  0.61630392  1
  Zr  Zr63  1  0.80892186  0.60004833  0.24733710  1
  Zr  Zr64  1  0.39904931  0.19243215  0.24909557  1
  Zr  Zr65  1  0.30089447  0.30118007  0.37832834  1
  Zr  Zr66  1  0.49612456  0.70041587  0.12126147  1
  Zr  Zr67  1  0.20193910  0.20350800  0.49240546  1
  Zr  Zr68  1  0.19301924  0.80824074  0.73639934  1
  Zr  Zr69  1  0.28449372  0.87789211  0.13491571  1
  Zr  Zr70  1  0.90588152  0.70787510  0.12665023  1
  Zr  Zr71  1  0.68744099  0.30966051  0.62212956  1
  Zr  Zr72  1  0.51103269  0.28777239  0.38612687  1
  Zr  Zr73  1  0.70500879  0.09902738  0.87524679  1
  Zr  Zr74  1  0.69596787  0.50082338  0.87709362  1
  Zr  Zr75  1  0.02766852  0.60335134  0.26140457  1
  Zr  Zr76  1  0.50470795  0.50869052  0.87722188  1
  Zr  Zr77  1  0.40469582  0.40276170  0.25299343  1
  Zr  Zr78  1  0.81139300  -0.00138400  0.74383716  1
  Zr  Zr79  1  0.31906142  0.70154811  0.84532209  1
  Ta  Ta80  1  0.48623866  0.10058306  0.11097164  1
  Ta  Ta81  1  0.69271870  0.69741577  0.88062610  1
  Ta  Ta82  1  0.30457510  0.50158975  0.12229242  1
  Ta  Ta83  1  0.91457473  0.48553088  0.12987829  1
  Ta  Ta84  1  0.79840528  0.60313981  0.74327402  1
  Ta  Ta85  1  0.00564170  -0.00042228  0.75554248  1
  Ta  Ta86  1  0.30023376  0.49711931  0.63244034  1
  Ta  Ta87  1  0.08859237  0.09754246  0.12688461  1
  Ta  Ta88  1  0.19006070  0.19979146  0.00791922  1
  Ta  Ta89  1  0.30549627  0.69278680  0.62039023  1
  Ta  Ta90  1  0.69339238  0.10102053  0.61858113  1
  Ta  Ta91  1  0.39833712  0.59825294  0.24468925  1
  Ta  Ta92  1  0.20789083  0.39146506  0.76026643  1
  Ta  Ta93  1  0.28807967  0.09795773  0.11738611  1
  Ta  Ta94  1  0.49993739  0.69515329  0.63631055  1
  Ta  Ta95  1  0.38898852  0.78652316  0.00087881  1
  Ta  Ta96  1  0.80080644  0.59363221  0.50411137  1
  Ta  Ta97  1  -0.00227680  0.20310053  0.47670366  1
  Ta  Ta98  1  0.60040285  0.39654332  0.24070340  1
  Ta  Ta99  1  0.60140159  0.19981726  0.23222696  1
  Ta  Ta100  1  0.49976941  0.50096808  0.10880200  1
  Ta  Ta101  1  0.70427498  0.71242716  0.11003572  1
  Ta  Ta102  1  0.80392964  0.00011153  0.49223505  1
  Ta  Ta103  1  0.81561930  0.19027295  0.24443951  1
  Ta  Ta104  1  0.70113644  0.29873366  0.35981444  1
  Ta  Ta105  1  -0.00107810  0.19647136  0.76472588  1
  Ta  Ta106  1  0.19815559  0.41469505  0.26176523  1
  Ta  Ta107  1  0.18050559  -0.01447945  0.01475828  1
  Ta  Ta108  1  0.49769282  0.31093152  0.88053550  1
  Ta  Ta109  1  0.70395491  0.30827804  0.87681578  1
  Ta  Ta110  1  0.29696902  0.10274072  0.62024475  1
  Ta  Ta111  1  0.89742437  0.29818614  0.88391940  1
  Ta  Ta112  1  0.09413371  0.09612728  0.88783895  1
  Ta  Ta113  1  0.19701530  0.19697041  0.24545717  1
  Ta  Ta114  1  0.30206431  0.30741994  0.61838567  1
  Ta  Ta115  1  0.69639218  0.69650741  0.62029894  1
  Ta  Ta116  1  -0.00495303  0.20062767  0.00751473  1
  Ta  Ta117  1  0.49383738  0.29942770  0.62217598  1
  Ta  Ta118  1  0.10781136  0.49741908  0.87973024  1
  Ta  Ta119  1  0.11898404  0.71605559  0.11615905  1
  Ti  Ti120  1  0.18794207  -0.00701824  0.24703309  1
  Ti  Ti121  1  0.20398484  0.59251156  0.49868811  1
  Ti  Ti122  1  0.59353726  0.79944409  0.00184542  1
  Ti  Ti123  1  -0.00368992  0.81522845  0.73990676  1
  Ti  Ti124  1  -0.00808054  -0.00776713  0.48262145  1
  Ti  Ti125  1  0.50346830  0.68982853  0.86956831  1
  Ti  Ti126  1  0.80493678  0.40580551  0.49702748  1
  Ti  Ti127  1  0.60501037  0.40085075  0.49020709  1
  Ti  Ti128  1  0.10976722  0.48801466  0.61088250  1
  Ti  Ti129  1  0.49462091  0.10339430  0.38263146  1
  Ti  Ti130  1  0.59577445  0.80764254  0.23026330  1
  Ti  Ti131  1  0.09879039  0.29624952  0.88642927  1
  Ti  Ti132  1  0.91188623  0.30168103  0.61252932  1
  Ti  Ti133  1  0.80215596  -0.00303588  -0.00617630  1
  Ti  Ti134  1  0.39800608  0.00775186  0.50746828  1
  Ti  Ti135  1  0.49833568  0.89536081  0.63360067  1
  Ti  Ti136  1  0.40797623  0.79669236  0.51911431  1
  Ti  Ti137  1  0.10529352  0.91025162  0.86807233  1
  Ti  Ti138  1  0.60152736  0.79065086  0.74531579  1
  Ti  Ti139  1  0.61132744  0.39283694  0.00639289  1
  Ti  Ti140  1  0.30108832  0.50848942  0.37660207  1
  Ti  Ti141  1  0.19796164  0.59144508  0.74456128  1
  Ti  Ti142  1  0.50086588  0.50620634  0.36886366  1
  Ti  Ti143  1  0.09940740  0.31051488  0.36761899  1
  Ti  Ti144  1  0.79316139  0.80965486  0.25301336  1
  Ti  Ti145  1  0.28991844  0.89408320  0.86949495  1
  Ti  Ti146  1  0.09559178  0.90708611  0.60799508  1
  Ti  Ti147  1  0.90467683  0.09988300  0.88653452  1
  Ti  Ti148  1  0.59445515  0.00341452  0.74686364  1
  Ti  Ti149  1  0.00554487  0.80846904  0.48376672  1
  Ti  Ti150  1  0.39340063  0.40037643  -0.00592314  1
  Ti  Ti151  1  0.80155256  0.39507643  0.23461115  1
  Ti  Ti152  1  -0.00387568  0.39391180  -0.00208726  1
  Ti  Ti153  1  0.69659452  0.50166216  0.63230162  1
  Ti  Ti154  1  0.00318215  0.58621500  0.48384355  1
  Ti  Ti155  1  0.29696553  0.69197166  0.13786722  1
  Ti  Ti156  1  0.90481770  0.90547237  0.88053869  1
  Ti  Ti157  1  0.20223970  0.39869632  -0.01059575  1
  Ti  Ti158  1  0.30188857  0.09738207  0.38117923  1
  Ti  Ti159  1  0.49452195  0.11043308  0.62262509  1
  Mo  Mo160  1  0.91502283  0.90219044  0.61788260  1
  Mo  Mo161  1  0.69762167  0.89037500  0.12401560  1
  Mo  Mo162  1  0.09611798  0.90259244  0.13937222  1
  Mo  Mo163  1  0.80748245  0.39514151  0.01128102  1
  Mo  Mo164  1  0.09772606  0.90393965  0.38509847  1
  Mo  Mo165  1  0.10421816  0.69731727  0.39865646  1
  Mo  Mo166  1  0.59426672  0.79802825  0.52063305  1
  Mo  Mo167  1  0.39623974  0.79225932  0.24446576  1
  Mo  Mo168  1  0.00204591  0.41270984  0.26504799  1
  Mo  Mo169  1  0.59584247  0.19927610  0.50710483  1
  Mo  Mo170  1  0.90474551  0.49745054  0.37352806  1
  Mo  Mo171  1  0.39130565  0.20144284  -0.00457053  1
  Mo  Mo172  1  0.89366530  0.10659366  0.38759578  1
  Mo  Mo173  1  0.20637225  0.80516845  -0.01188374  1
  Mo  Mo174  1  0.39785076  0.39061022  0.75416940  1
  Mo  Mo175  1  0.19528631  0.79606464  0.50303817  1
  Mo  Mo176  1  0.60204203  0.39571661  0.76319029  1
  Mo  Mo177  1  0.40243244  0.59731473  0.73369848  1
  Mo  Mo178  1  0.20337586  0.40750878  0.49302851  1
  Mo  Mo179  1  0.90342266  0.30309939  0.13788727  1
  Mo  Mo180  1  0.29530387  0.29926183  0.89377723  1
  Mo  Mo181  1  0.79293831  -0.00253304  0.27104038  1
  Mo  Mo182  1  0.00158402  0.20455758  0.25142303  1
  Mo  Mo183  1  0.39982699  0.60039487  0.01044102  1
  Mo  Mo184  1  0.11100889  0.49828478  0.38899023  1
  Mo  Mo185  1  0.21264391  0.59644634  0.25766938  1
  Mo  Mo186  1  0.60184662  0.60698474  0.00636123  1
  Mo  Mo187  1  0.40168804  0.59796663  0.51457386  1
  Mo  Mo188  1  0.79570667  0.80833561  -0.00981327  1
  Mo  Mo189  1  0.88969780  0.90031034  0.37272969  1
  Mo  Mo190  1  0.40190186  0.80342305  0.73408128  1
  Mo  Mo191  1  0.70001738  0.29960422  0.14135806  1
  Mo  Mo192  1  0.19237378  0.00168599  0.75162644  1
  Mo  Mo193  1  0.19944153  0.00026703  0.49581451  1
  Mo  Mo194  1  0.40080304  0.19390043  0.51101064  1
  Mo  Mo195  1  0.49038809  0.89207881  0.12442203  1
  Mo  Mo196  1  -0.00335194  0.00495239  -0.00774560  1
  Mo  Mo197  1  0.00375665  0.40013961  0.48323568  1
  Mo  Mo198  1  0.90246632  0.10216655  0.11451632  1
  Mo  Mo199  1  0.60994246  0.60511365  0.74467238  1
