# generated using pymatgen
data_HfZrTaTiMo
_symmetry_space_group_name_H-M   'P 1'
_cell_length_a   15.92695016
_cell_length_b   15.92393315
_cell_length_c   15.21803729
_cell_angle_alpha   89.90743557
_cell_angle_beta   89.97720832
_cell_angle_gamma   90.08445606
_symmetry_Int_Tables_number   1
_chemical_formula_structural   HfZrTaTiMo
_chemical_formula_sum   'Hf40 Zr40 Ta40 Ti40 Mo40'
_cell_volume   3859.58435350
_cell_formula_units_Z   40
loop_
 _symmetry_equiv_pos_site_id
 _symmetry_equiv_pos_as_xyz
  1  'x, y, z'
loop_
 _atom_site_type_symbol
 _atom_site_label
 _atom_site_symmetry_multiplicity
 _atom_site_fract_x
 _atom_site_fract_y
 _atom_site_fract_z
 _atom_site_occupancy
  Hf  Hf0  1  0.00153178  0.40500073  0.51417449  1
  Hf  Hf1  1  0.40003379  0.00195028  0.24427018  1
  Hf  Hf2  1  0.09255844  0.49986782  0.36095451  1
  Hf  Hf3  1  0.50584657  0.10537883  0.12759707  1
  Hf  Hf4  1  0.09916436  0.70627419  0.63278522  1
  Hf  Hf5  1  0.40099482  0.20510898  0.00460823  1
  Hf  Hf6  1  0.49328882  0.50808468  0.61341526  1
  Hf  Hf7  1  0.39588922  0.80442801  0.74111818  1
  Hf  Hf8  1  0.09304959  0.89768943  0.11583703  1
  Hf  Hf9  1  0.30712361  0.49893656  0.89522526  1
  Hf  Hf10  1  0.00075049  0.59983764  0.50968830  1
  Hf  Hf11  1  0.60773586  0.20423669  0.25804552  1
  Hf  Hf12  1  0.90598003  0.29492062  0.63142768  1
  Hf  Hf13  1  0.90386103  0.10638264  0.10968932  1
  Hf  Hf14  1  0.60399164  0.00386568  0.26112398  1
  Hf  Hf15  1  0.79712312  0.20398873  0.75176868  1
  Hf  Hf16  1  0.77890734  0.78581889  -0.01263987  1
  Hf  Hf17  1  -0.01022786  0.58223506  0.00843908  1
  Hf  Hf18  1  0.08918997  0.70092236  0.12902961  1
  Hf  Hf19  1  0.29698505  0.68702074  0.61976899  1
  Hf  Hf20  1  0.40182106  0.80131117  0.49423013  1
  Hf  Hf21  1  0.90311141  0.30096430  0.38946083  1
  Hf  Hf22  1  0.19214916  0.79739862  0.48839427  1
  Hf  Hf23  1  0.90279136  0.07865261  0.62934491  1
  Hf  Hf24  1  0.40101561  -0.00733447  0.00812298  1
  Hf  Hf25  1  0.50170401  0.49474481  0.88736979  1
  Hf  Hf26  1  0.09222607  0.28781225  0.11551357  1
  Hf  Hf27  1  0.89055968  0.69554096  0.12920751  1
  Hf  Hf28  1  0.48167146  0.29471625  0.37282432  1
  Hf  Hf29  1  0.20633729  -0.00021849  0.24018833  1
  Hf  Hf30  1  0.70712022  0.70547064  0.36897515  1
  Hf  Hf31  1  0.70406339  0.11129029  0.10755112  1
  Hf  Hf32  1  0.79765392  0.79984853  0.75516713  1
  Hf  Hf33  1  0.58695473  0.19690471  0.50954684  1
  Hf  Hf34  1  0.50134240  0.49336784  0.36415787  1
  Hf  Hf35  1  0.39612027  0.40596427  0.73590093  1
  Hf  Hf36  1  0.39665297  0.80432503  0.24442022  1
  Hf  Hf37  1  0.59451532  0.80843772  0.25476993  1
  Hf  Hf38  1  0.20039982  0.39160932  0.23766742  1
  Hf  Hf39  1  0.60949157  0.61478322  -0.00571471  1
  Zr  Zr40  1  0.50508709  0.10659165  0.86784880  1
  Zr  Zr41  1  0.19058254  0.18800937  -0.01033758  1
  Zr  Zr42  1  0.70202927  0.50557484  0.12662612  1
  Zr  Zr43  1  0.09759247  0.69618356  0.35951823  1
  Zr  Zr44  1  0.30142693  0.49468045  0.35868559  1
  Zr  Zr45  1  0.30957407  0.12016202  0.37638524  1
  Zr  Zr46  1  0.60510518  0.59822529  0.75871240  1
  Zr  Zr47  1  0.59620682  0.00019487  0.49554691  1
  Zr  Zr48  1  0.11309128  0.09864119  0.38344515  1
  Zr  Zr49  1  0.79593962  0.00144483  0.25325596  1
  Zr  Zr50  1  0.40074528  0.20578590  0.73739120  1
  Zr  Zr51  1  0.09676152  0.30912642  0.87418631  1
  Zr  Zr52  1  0.20233677  0.40565929  0.50686805  1
  Zr  Zr53  1  0.20690909  0.59458785  0.76427706  1
  Zr  Zr54  1  0.60205040  0.39621047  0.73235749  1
  Zr  Zr55  1  0.69544303  0.69902663  0.14421459  1
  Zr  Zr56  1  0.49883846  0.72023864  0.88676145  1
  Zr  Zr57  1  0.70166990  0.30186844  0.39149839  1
  Zr  Zr58  1  0.70901051  0.90570683  0.62500031  1
  Zr  Zr59  1  0.19905858  0.79883854  0.76546829  1
  Zr  Zr60  1  0.49942546  0.70157986  0.62300130  1
  Zr  Zr61  1  0.70572143  0.69267786  0.62622902  1
  Zr  Zr62  1  0.28212563  0.90677599  0.61384166  1
  Zr  Zr63  1  0.30289432  0.30784122  0.88126745  1
  Zr  Zr64  1  0.00824263  0.01888571  -0.01890294  1
  Zr  Zr65  1  0.19886770  -0.00669442  0.77180143  1
  Zr  Zr66  1  0.10412637  0.09174240  0.62889508  1
  Zr  Zr67  1  0.70018830  0.09513661  0.63434896  1
  Zr  Zr68  1  0.19170807  0.59332278  0.00566211  1
  Zr  Zr69  1  0.69140841  0.30463019  0.88486908  1
  Zr  Zr70  1  0.89544067  0.68844033  0.87247698  1
  Zr  Zr71  1  0.20825465  0.80139750  0.24582012  1
  Zr  Zr72  1  0.60278765  0.60017296  0.48970420  1
  Zr  Zr73  1  0.79904118  0.38507130  0.23929468  1
  Zr  Zr74  1  0.89767336  0.89110100  0.11656417  1
  Zr  Zr75  1  0.59529736  -0.00908889  -0.00574725  1
  Zr  Zr76  1  0.40756586  0.01133365  0.51084716  1
  Zr  Zr77  1  -0.00225527  0.00246173  0.25340050  1
  Zr  Zr78  1  -0.00054459  0.20309569  0.25960423  1
  Zr  Zr79  1  0.90992670  0.70289250  0.35901505  1
  Ta  Ta80  1  0.39082589  0.60054020  0.48125444  1
  Ta  Ta81  1  0.00550000  0.19635434  0.50441684  1
  Ta  Ta82  1  -0.00354980  0.39849600  0.23680101  1
  Ta  Ta83  1  0.40567419  -0.00266364  0.74262321  1
  Ta  Ta84  1  0.20341339  0.80292193  -0.00073223  1
  Ta  Ta85  1  0.80850801  0.40620002  0.00498079  1
  Ta  Ta86  1  0.20236074  0.40222864  0.73802848  1
  Ta  Ta87  1  0.90085751  0.30761949  0.87140276  1
  Ta  Ta88  1  0.59914397  0.39749811  0.23888947  1
  Ta  Ta89  1  0.80311246  0.58841952  0.26247489  1
  Ta  Ta90  1  0.39727385  0.38514009  0.22972734  1
  Ta  Ta91  1  0.80625017  -0.00557040  0.77345117  1
  Ta  Ta92  1  0.11098176  0.29718183  0.38346398  1
  Ta  Ta93  1  0.69957708  0.89879488  0.11952583  1
  Ta  Ta94  1  0.60014066  0.80752022  0.49409990  1
  Ta  Ta95  1  0.79292578  0.40500992  0.73719923  1
  Ta  Ta96  1  0.30918791  0.69994381  0.89693668  1
  Ta  Ta97  1  0.79621945  -0.00185515  -0.01651162  1
  Ta  Ta98  1  0.70122935  0.49394541  0.37445356  1
  Ta  Ta99  1  0.00349345  0.59782484  0.75028431  1
  Ta  Ta100  1  0.30486881  0.09651871  0.87223977  1
  Ta  Ta101  1  0.09293488  0.70076114  0.88446109  1
  Ta  Ta102  1  0.30732513  0.50457079  0.12554159  1
  Ta  Ta103  1  0.29363912  0.91146918  0.38543756  1
  Ta  Ta104  1  0.79899860  0.40846619  0.51798410  1
  Ta  Ta105  1  0.80857681  0.59648716  0.49247212  1
  Ta  Ta106  1  0.89509460  0.89441445  0.37225648  1
  Ta  Ta107  1  0.69584803  0.10229580  0.87105102  1
  Ta  Ta108  1  0.70978820  0.10208979  0.39112711  1
  Ta  Ta109  1  0.80659110  0.80126343  0.50346649  1
  Ta  Ta110  1  0.31019715  0.69904505  0.10856533  1
  Ta  Ta111  1  0.80248642  0.19581965  0.25299362  1
  Ta  Ta112  1  0.90418509  0.89301755  0.88728870  1
  Ta  Ta113  1  0.39858771  0.20410609  0.51823498  1
  Ta  Ta114  1  0.20563613  -0.00328663  -0.00466136  1
  Ta  Ta115  1  -0.00111099  -0.01159435  0.49335725  1
  Ta  Ta116  1  0.89667011  0.10006352  0.39343820  1
  Ta  Ta117  1  0.90024051  0.49047542  0.86177402  1
  Ta  Ta118  1  0.00025713  0.18854331  0.76397337  1
  Ta  Ta119  1  0.90074742  0.70070866  0.63434772  1
  Ti  Ti120  1  -0.00380127  0.80727730  0.75385851  1
  Ti  Ti121  1  0.40802762  0.40165843  0.02313510  1
  Ti  Ti122  1  0.59388782  0.81106011  0.73955319  1
  Ti  Ti123  1  0.29129627  0.29884034  0.61964427  1
  Ti  Ti124  1  0.89284546  0.51153404  0.64036455  1
  Ti  Ti125  1  0.09312338  0.89618087  0.36778215  1
  Ti  Ti126  1  -0.00489954  0.80224507  0.50548719  1
  Ti  Ti127  1  0.10376913  0.28992630  0.62749396  1
  Ti  Ti128  1  0.20133992  0.20166938  0.75600975  1
  Ti  Ti129  1  0.31745750  0.89127641  0.88752082  1
  Ti  Ti130  1  0.39912394  0.60048646  0.75721740  1
  Ti  Ti131  1  0.60313276  0.39806667  0.01810144  1
  Ti  Ti132  1  0.71079793  0.50270258  0.88087383  1
  Ti  Ti133  1  0.20642094  0.60125823  0.23908584  1
  Ti  Ti134  1  0.50317258  0.30593245  0.88257625  1
  Ti  Ti135  1  0.40117715  0.60904964  0.24809835  1
  Ti  Ti136  1  0.49948317  0.69794715  0.37005509  1
  Ti  Ti137  1  0.59529727  0.20770450  0.73223579  1
  Ti  Ti138  1  0.50299474  0.51553587  0.13287788  1
  Ti  Ti139  1  0.21631694  0.21022570  0.24287983  1
  Ti  Ti140  1  0.50944628  0.29527055  0.12508272  1
  Ti  Ti141  1  0.29822518  0.10692668  0.12175695  1
  Ti  Ti142  1  0.80034552  0.20001803  0.51599190  1
  Ti  Ti143  1  0.80517730  0.20223403  -0.01850092  1
  Ti  Ti144  1  0.10097603  0.10140819  0.12792495  1
  Ti  Ti145  1  0.28903441  0.10111344  0.62381039  1
  Ti  Ti146  1  -0.00302846  0.40105908  0.01062329  1
  Ti  Ti147  1  0.08688658  0.90551854  0.62741865  1
  Ti  Ti148  1  0.09314929  0.89257216  0.88544095  1
  Ti  Ti149  1  0.90155806  0.49403773  0.37137962  1
  Ti  Ti150  1  0.00540487  0.40207173  0.73864034  1
  Ti  Ti151  1  0.09456030  0.49484275  0.87108334  1
  Ti  Ti152  1  0.20241893  0.59891741  0.48894795  1
  Ti  Ti153  1  0.89489227  0.29199138  0.11072876  1
  Ti  Ti154  1  0.39305048  0.39899605  0.50408395  1
  Ti  Ti155  1  0.68306001  0.89186648  0.87335671  1
  Ti  Ti156  1  0.19565976  0.40269364  0.01792473  1
  Ti  Ti157  1  0.11031422  0.50862189  0.63161603  1
  Ti  Ti158  1  0.49376904  0.90705007  0.37468583  1
  Ti  Ti159  1  0.60027795  0.39674981  0.51120550  1
  Mo  Mo160  1  0.69330504  0.70324221  0.85922731  1
  Mo  Mo161  1  0.60199494  -0.00498020  0.76129678  1
  Mo  Mo162  1  0.70254601  0.30071834  0.61703104  1
  Mo  Mo163  1  0.70496309  0.89889386  0.38958173  1
  Mo  Mo164  1  0.70199557  0.29643815  0.10911220  1
  Mo  Mo165  1  0.39691703  0.20666848  0.23069758  1
  Mo  Mo166  1  -0.00601410  0.58631805  0.23509256  1
  Mo  Mo167  1  0.50499853  0.89883596  0.13602877  1
  Mo  Mo168  1  0.59463704  0.80689983  0.01585779  1
  Mo  Mo169  1  0.79640398  0.80596846  0.25307878  1
  Mo  Mo170  1  0.80592362  -0.00457237  0.49140655  1
  Mo  Mo171  1  -0.00456610  -0.01207473  0.76360658  1
  Mo  Mo172  1  -0.00883721  0.20857326  -0.02005017  1
  Mo  Mo173  1  0.29759541  0.29974009  0.38334240  1
  Mo  Mo174  1  0.59607566  0.59505998  0.26422171  1
  Mo  Mo175  1  0.49823376  0.69738093  0.12681324  1
  Mo  Mo176  1  0.29887073  0.30211073  0.10639450  1
  Mo  Mo177  1  0.49963268  0.10111684  0.64409717  1
  Mo  Mo178  1  0.50241804  0.10650876  0.36158843  1
  Mo  Mo179  1  0.30295154  0.69933346  0.37434539  1
  Mo  Mo180  1  0.49496390  0.30646119  0.60949024  1
  Mo  Mo181  1  0.50496577  0.90251076  0.63225919  1
  Mo  Mo182  1  0.80123031  0.59209136  0.75496524  1
  Mo  Mo183  1  0.19335914  -0.00295321  0.49213646  1
  Mo  Mo184  1  0.89520958  0.10140899  0.87065524  1
  Mo  Mo185  1  0.10346361  0.09986155  0.85957622  1
  Mo  Mo186  1  0.09845974  0.49498647  0.13675478  1
  Mo  Mo187  1  0.60191687  0.20713764  -0.00116851  1
  Mo  Mo188  1  0.29843050  0.90056243  0.11068045  1
  Mo  Mo189  1  -0.00294743  0.80364015  0.24816914  1
  Mo  Mo190  1  0.40962877  0.59802501  0.01353353  1
  Mo  Mo191  1  0.29992445  0.50495793  0.61734282  1
  Mo  Mo192  1  0.40681115  0.80528021  0.01832988  1
  Mo  Mo193  1  0.79875173  0.59134219  -0.01489278  1
  Mo  Mo194  1  0.90732829  0.89282416  0.62369857  1
  Mo  Mo195  1  0.00011833  0.79294461  -0.00743943  1
  Mo  Mo196  1  0.70287869  0.50252199  0.61049664  1
  Mo  Mo197  1  0.20129749  0.20362971  0.51363754  1
  Mo  Mo198  1  0.89670745  0.49555189  0.13004901  1
  Mo  Mo199  1  0.49779287  0.90264152  0.85965524  1
