# generated using pymatgen
data_HfZrTaTiMo
_symmetry_space_group_name_H-M   'P 1'
_cell_length_a   15.93213193
_cell_length_b   15.93351907
_cell_length_c   15.20322330
_cell_angle_alpha   89.99316726
_cell_angle_beta   90.08475102
_cell_angle_gamma   90.03618507
_symmetry_Int_Tables_number   1
_chemical_formula_structural   HfZrTaTiMo
_chemical_formula_sum   'Hf40 Zr40 Ta40 Ti40 Mo40'
_cell_volume   3859.40813509
_cell_formula_units_Z   40
loop_
 _symmetry_equiv_pos_site_id
 _symmetry_equiv_pos_as_xyz
  1  'x, y, z'
loop_
 _atom_site_type_symbol
 _atom_site_label
 _atom_site_symmetry_multiplicity
 _atom_site_fract_x
 _atom_site_fract_y
 _atom_site_fract_z
 _atom_site_occupancy
  Hf  Hf0  1  0.10882296  0.09248713  0.87275856  1
  Hf  Hf1  1  0.19116752  0.40618157  0.50563415  1
  Hf  Hf2  1  0.10887596  0.68987737  0.63356580  1
  Hf  Hf3  1  0.10120737  0.88958996  0.62749163  1
  Hf  Hf4  1  0.00464099  0.20262389  -0.01220521  1
  Hf  Hf5  1  0.51002745  0.30890950  0.10640569  1
  Hf  Hf6  1  0.69269008  0.71360001  0.62054766  1
  Hf  Hf7  1  0.21377781  -0.01103371  0.50659123  1
  Hf  Hf8  1  0.50152864  0.10406656  0.88355426  1
  Hf  Hf9  1  0.19624672  0.80873769  0.23860445  1
  Hf  Hf10  1  0.39570769  0.40598382  0.24009984  1
  Hf  Hf11  1  0.20803232  -0.00644681  0.74778858  1
  Hf  Hf12  1  0.40116743  -0.00123605  0.75616264  1
  Hf  Hf13  1  0.89147543  0.69936965  0.10897870  1
  Hf  Hf14  1  0.58346682  0.61275188  -0.00501909  1
  Hf  Hf15  1  0.80066138  -0.00533298  0.49113324  1
  Hf  Hf16  1  0.30083086  0.70225963  0.12431252  1
  Hf  Hf17  1  0.38833221  0.58939023  0.00162441  1
  Hf  Hf18  1  0.10843008  0.10346441  0.62605303  1
  Hf  Hf19  1  0.48817443  0.29125918  0.61863207  1
  Hf  Hf20  1  0.69446577  0.69376841  0.38645710  1
  Hf  Hf21  1  0.41443180  0.79091873  -0.00418678  1
  Hf  Hf22  1  0.50903135  0.10151680  0.62448026  1
  Hf  Hf23  1  0.81499796  0.21238255  -0.01801019  1
  Hf  Hf24  1  0.09650504  0.29814269  0.12967925  1
  Hf  Hf25  1  0.89748525  0.09496811  0.63423454  1
  Hf  Hf26  1  0.89991753  0.89987748  0.12041231  1
  Hf  Hf27  1  0.00396982  0.20066972  0.75721979  1
  Hf  Hf28  1  0.50046590  0.30460547  0.88271958  1
  Hf  Hf29  1  0.28820848  0.50835091  0.63091564  1
  Hf  Hf30  1  0.61557394  0.22233169  0.25527273  1
  Hf  Hf31  1  0.71558051  0.10817696  0.12346862  1
  Hf  Hf32  1  0.78328559  0.57847464  -0.00842078  1
  Hf  Hf33  1  0.30921694  0.09386522  0.11660447  1
  Hf  Hf34  1  0.39901677  0.79814398  0.48836437  1
  Hf  Hf35  1  0.11134000  0.09712752  0.37405929  1
  Hf  Hf36  1  0.60601726  0.20441016  0.75539191  1
  Hf  Hf37  1  0.40174153  0.20476803  0.25343599  1
  Hf  Hf38  1  0.89861838  0.50400160  0.38133046  1
  Hf  Hf39  1  0.59743180  0.60011343  0.74685129  1
  Zr  Zr40  1  0.30598833  0.29645072  0.10475066  1
  Zr  Zr41  1  0.40541309  -0.00861769  0.49497193  1
  Zr  Zr42  1  0.00227707  -0.00092675  -0.00052091  1
  Zr  Zr43  1  0.30207839  0.69336615  0.36012495  1
  Zr  Zr44  1  0.10212902  0.89774346  0.38148345  1
  Zr  Zr45  1  0.50237031  0.90048688  0.12315106  1
  Zr  Zr46  1  0.50659861  0.89604620  0.63251093  1
  Zr  Zr47  1  -0.00965935  0.59847397  0.24212563  1
  Zr  Zr48  1  -0.00646540  -0.01286005  0.50718829  1
  Zr  Zr49  1  -0.00150032  0.20487347  0.50058790  1
  Zr  Zr50  1  0.31358417  0.11854818  0.61649066  1
  Zr  Zr51  1  -0.01138707  0.58771713  -0.01427763  1
  Zr  Zr52  1  0.50191784  0.10358319  0.37306038  1
  Zr  Zr53  1  0.28944107  0.71106683  0.88021451  1
  Zr  Zr54  1  0.78342697  0.39083210  0.26798165  1
  Zr  Zr55  1  0.61195233  -0.00474025  0.25379843  1
  Zr  Zr56  1  0.50090451  0.31491258  0.39051020  1
  Zr  Zr57  1  0.80388874  0.60882163  0.74613338  1
  Zr  Zr58  1  0.80268115  0.80892323  0.75435030  1
  Zr  Zr59  1  0.48903046  0.50897221  0.38109908  1
  Zr  Zr60  1  0.80249975  0.39772253  0.50282826  1
  Zr  Zr61  1  0.18614781  0.59496415  -0.00450742  1
  Zr  Zr62  1  0.49203778  0.48937055  0.87500516  1
  Zr  Zr63  1  -0.00522400  0.80053675  0.25148317  1
  Zr  Zr64  1  0.30566114  0.09929804  0.89367710  1
  Zr  Zr65  1  0.00200120  0.59185786  0.51525714  1
  Zr  Zr66  1  0.10759104  0.29957907  0.37173611  1
  Zr  Zr67  1  0.90855886  0.09528936  0.36514637  1
  Zr  Zr68  1  0.90093904  0.29522173  0.13535221  1
  Zr  Zr69  1  0.19069558  0.40637588  -0.00313605  1
  Zr  Zr70  1  -0.00463705  0.79195496  0.76654280  1
  Zr  Zr71  1  0.68071847  0.49977303  0.38769262  1
  Zr  Zr72  1  0.10307053  0.69022267  0.38132752  1
  Zr  Zr73  1  0.68933247  0.71139474  0.11330498  1
  Zr  Zr74  1  0.70778744  0.09835163  0.87729398  1
  Zr  Zr75  1  0.39553864  0.60314747  0.75874725  1
  Zr  Zr76  1  0.29511866  0.50195223  0.38009244  1
  Zr  Zr77  1  0.79145476  0.80603299  0.26299909  1
  Zr  Zr78  1  0.50552590  0.10289005  0.11697245  1
  Zr  Zr79  1  0.79113124  0.59606701  0.24239846  1
  Ta  Ta80  1  0.20794570  0.19932540  0.24809603  1
  Ta  Ta81  1  0.60059343  0.80422088  0.76701818  1
  Ta  Ta82  1  0.30035128  0.10124129  0.37478282  1
  Ta  Ta83  1  0.09958980  0.49321746  0.65269091  1
  Ta  Ta84  1  0.69532623  0.70139201  0.87850226  1
  Ta  Ta85  1  0.80009958  0.20017507  0.49644508  1
  Ta  Ta86  1  -0.01050742  0.39425597  -0.01977174  1
  Ta  Ta87  1  0.21480105  0.20841086  0.75560458  1
  Ta  Ta88  1  0.80606515  0.80937641  0.50234026  1
  Ta  Ta89  1  -0.00010635  0.39832775  0.50690518  1
  Ta  Ta90  1  0.48961792  0.71193241  0.63628805  1
  Ta  Ta91  1  0.80512812  -0.00430460  0.25541042  1
  Ta  Ta92  1  0.10713756  0.09774513  0.12979371  1
  Ta  Ta93  1  0.80454434  0.80661899  -0.02222023  1
  Ta  Ta94  1  0.10012220  0.49840854  0.36313217  1
  Ta  Ta95  1  0.60762138  -0.00392987  0.49154580  1
  Ta  Ta96  1  0.59493708  0.80603706  0.48682345  1
  Ta  Ta97  1  0.70767998  0.31322914  0.11206431  1
  Ta  Ta98  1  0.60169886  0.40143034  0.73778533  1
  Ta  Ta99  1  -0.00343568  0.59980233  0.76510089  1
  Ta  Ta100  1  0.89609896  0.70001158  0.39100234  1
  Ta  Ta101  1  0.70435563  0.90321767  0.10711021  1
  Ta  Ta102  1  0.69927936  0.29390393  0.62019237  1
  Ta  Ta103  1  0.61733180  0.21076412  -0.00826063  1
  Ta  Ta104  1  0.79992297  0.20424867  0.74952315  1
  Ta  Ta105  1  0.50096446  0.90250246  0.88028761  1
  Ta  Ta106  1  0.59214511  0.59891540  0.23765317  1
  Ta  Ta107  1  0.08426939  0.48888192  0.13530277  1
  Ta  Ta108  1  0.20975550  0.79193489  0.50213663  1
  Ta  Ta109  1  0.90154244  0.30214916  0.63535978  1
  Ta  Ta110  1  0.00146701  0.79820410  -0.01628508  1
  Ta  Ta111  1  0.19541637  0.59228325  0.22945418  1
  Ta  Ta112  1  0.10638394  0.30095919  0.63322909  1
  Ta  Ta113  1  0.09443681  0.70343936  0.11177759  1
  Ta  Ta114  1  0.49768352  0.69703858  0.36181391  1
  Ta  Ta115  1  0.88314699  0.47828924  0.85558229  1
  Ta  Ta116  1  0.61031203  -0.00485402  0.75688124  1
  Ta  Ta117  1  0.58279933  0.60906111  0.51890813  1
  Ta  Ta118  1  0.49836069  0.49912763  0.11918398  1
  Ta  Ta119  1  0.30975265  0.30103800  0.88234607  1
  Ti  Ti120  1  0.00792803  -0.00720381  0.24215930  1
  Ti  Ti121  1  0.48617396  0.49807303  0.62294923  1
  Ti  Ti122  1  0.79969338  -0.00667158  0.75348325  1
  Ti  Ti123  1  0.80816760  0.00131166  -0.00574720  1
  Ti  Ti124  1  0.90288139  0.49619124  0.63726616  1
  Ti  Ti125  1  0.60741002  -0.00199661  -0.00469083  1
  Ti  Ti126  1  0.71693591  0.32606109  0.86606664  1
  Ti  Ti127  1  0.30045769  0.90455745  0.10460580  1
  Ti  Ti128  1  0.39225805  0.60909563  0.51207123  1
  Ti  Ti129  1  0.80414455  0.20603118  0.27015416  1
  Ti  Ti130  1  0.19985101  0.80041476  0.76004146  1
  Ti  Ti131  1  -0.00968127  0.39359707  0.26582826  1
  Ti  Ti132  1  0.20355009  0.39754058  0.24587101  1
  Ti  Ti133  1  0.30266190  0.29765969  0.39339460  1
  Ti  Ti134  1  0.70319645  0.10157883  0.37347065  1
  Ti  Ti135  1  0.28621063  0.48836258  0.85852475  1
  Ti  Ti136  1  0.88747478  0.48027150  0.12201652  1
  Ti  Ti137  1  0.70210831  0.09755634  0.62568264  1
  Ti  Ti138  1  0.80189911  0.60575937  0.51715432  1
  Ti  Ti139  1  0.69898404  0.90511618  0.62038838  1
  Ti  Ti140  1  0.60067178  0.79940213  0.25798963  1
  Ti  Ti141  1  0.31038173  0.88044030  0.63735210  1
  Ti  Ti142  1  0.59643730  0.40393697  0.52055639  1
  Ti  Ti143  1  0.11962928  0.89455309  0.89048890  1
  Ti  Ti144  1  0.39183869  0.38833028  0.74053743  1
  Ti  Ti145  1  0.49743942  0.90105215  0.36192006  1
  Ti  Ti146  1  0.90286895  0.09390763  0.86366460  1
  Ti  Ti147  1  -0.00984841  0.79774449  0.50894090  1
  Ti  Ti148  1  0.29949570  0.30009574  0.61174727  1
  Ti  Ti149  1  0.69945628  0.50093722  0.62618445  1
  Ti  Ti150  1  0.00478337  0.19782557  0.25471489  1
  Ti  Ti151  1  0.19417638  0.20132039  -0.00407344  1
  Ti  Ti152  1  0.10799727  0.31213532  0.85910185  1
  Ti  Ti153  1  0.39741661  0.80945931  0.24674009  1
  Ti  Ti154  1  0.29586340  0.70196808  0.63815397  1
  Ti  Ti155  1  0.90463513  0.10174170  0.13396717  1
  Ti  Ti156  1  0.62276144  0.41922482  -0.00755188  1
  Ti  Ti157  1  -0.00135894  -0.01645780  0.75637014  1
  Ti  Ti158  1  0.20844307  -0.00383564  0.24222346  1
  Ti  Ti159  1  0.60798080  0.19750129  0.49687964  1
  Mo  Mo160  1  0.60332990  0.80477406  -0.01381756  1
  Mo  Mo161  1  0.19564479  0.80455102  0.01199342  1
  Mo  Mo162  1  0.68808007  0.49499519  0.13010678  1
  Mo  Mo163  1  0.39846415  0.20655081  0.76232655  1
  Mo  Mo164  1  0.39936730  0.60167305  0.23162352  1
  Mo  Mo165  1  0.49806913  0.70379515  0.85758746  1
  Mo  Mo166  1  0.29191822  0.49736859  0.13224229  1
  Mo  Mo167  1  0.69756568  0.89867392  0.38342227  1
  Mo  Mo168  1  0.41067414  0.20148840  -0.00230353  1
  Mo  Mo169  1  0.49631903  0.70214010  0.14459941  1
  Mo  Mo170  1  0.90099402  0.70155690  0.61154728  1
  Mo  Mo171  1  0.69979741  0.90471383  0.88719979  1
  Mo  Mo172  1  0.39433794  0.40533268  0.51664784  1
  Mo  Mo173  1  0.39721376  0.80450538  0.76309800  1
  Mo  Mo174  1  0.79298934  0.40055609  0.72409155  1
  Mo  Mo175  1  0.20571270  0.39212779  0.74739293  1
  Mo  Mo176  1  0.20437370  0.20154684  0.49697663  1
  Mo  Mo177  1  0.30214849  0.90147269  0.36350886  1
  Mo  Mo178  1  0.90369303  0.90931425  0.87471930  1
  Mo  Mo179  1  -0.00160786  0.39742582  0.74931406  1
  Mo  Mo180  1  0.90326152  0.29848981  0.37718502  1
  Mo  Mo181  1  0.69372783  0.49905199  0.85360727  1
  Mo  Mo182  1  0.89669489  0.89845227  0.64083954  1
  Mo  Mo183  1  0.09710005  0.70080370  0.87999479  1
  Mo  Mo184  1  0.09259861  0.49451113  0.85778633  1
  Mo  Mo185  1  0.39366306  0.40660662  0.00316979  1
  Mo  Mo186  1  0.40417039  -0.00718382  -0.00927797  1
  Mo  Mo187  1  0.20008369  0.60442101  0.50559433  1
  Mo  Mo188  1  0.19107850  0.60006394  0.76961632  1
  Mo  Mo189  1  0.38944258  -0.00756363  0.25853732  1
  Mo  Mo190  1  0.90133393  0.89389370  0.36542308  1
  Mo  Mo191  1  0.89330729  0.69198133  0.88875013  1
  Mo  Mo192  1  0.59884153  0.40672101  0.23897781  1
  Mo  Mo193  1  0.40162352  0.20264435  0.48187125  1
  Mo  Mo194  1  0.10277746  0.90128629  0.11690954  1
  Mo  Mo195  1  0.69544818  0.29716933  0.39959995  1
  Mo  Mo196  1  0.80446950  0.40115110  -0.00148372  1
  Mo  Mo197  1  0.90063344  0.30037784  0.85396774  1
  Mo  Mo198  1  0.19906920  -0.00125830  0.01225639  1
  Mo  Mo199  1  0.30039488  0.90240681  0.88732155  1
