# generated using pymatgen
data_HfZrTaTiMo
_symmetry_space_group_name_H-M   'P 1'
_cell_length_a   15.91566250
_cell_length_b   15.92906524
_cell_length_c   15.19471940
_cell_angle_alpha   89.98651303
_cell_angle_beta   90.00410165
_cell_angle_gamma   89.86113759
_symmetry_Int_Tables_number   1
_chemical_formula_structural   HfZrTaTiMo
_chemical_formula_sum   'Hf40 Zr40 Ta40 Ti40 Mo40'
_cell_volume   3852.17854209
_cell_formula_units_Z   40
loop_
 _symmetry_equiv_pos_site_id
 _symmetry_equiv_pos_as_xyz
  1  'x, y, z'
loop_
 _atom_site_type_symbol
 _atom_site_label
 _atom_site_symmetry_multiplicity
 _atom_site_fract_x
 _atom_site_fract_y
 _atom_site_fract_z
 _atom_site_occupancy
  Hf  Hf0  1  0.00300294  0.19715073  0.26597072  1
  Hf  Hf1  1  0.80505963  0.38243188  -0.00002667  1
  Hf  Hf2  1  0.80089069  0.40132927  0.25914664  1
  Hf  Hf3  1  0.80170953  0.00184661  0.50955690  1
  Hf  Hf4  1  -0.01890283  0.40862205  0.49128701  1
  Hf  Hf5  1  0.70303625  0.90026380  0.39143004  1
  Hf  Hf6  1  0.69683501  0.29629378  0.37653921  1
  Hf  Hf7  1  0.61189926  0.59509303  0.49602506  1
  Hf  Hf8  1  0.38443060  0.01365937  0.51519321  1
  Hf  Hf9  1  0.20000602  0.78699983  -0.00374377  1
  Hf  Hf10  1  0.50742145  0.49635559  0.62201023  1
  Hf  Hf11  1  0.60678950  0.18069027  0.49433535  1
  Hf  Hf12  1  0.60656177  0.39952179  0.00110687  1
  Hf  Hf13  1  0.01256154  0.59739860  0.00840343  1
  Hf  Hf14  1  0.79923923  0.00285356  0.00459531  1
  Hf  Hf15  1  0.59601516  -0.00742619  0.52827738  1
  Hf  Hf16  1  0.29858695  0.29773156  0.12612910  1
  Hf  Hf17  1  0.29963070  0.49584406  0.37993023  1
  Hf  Hf18  1  0.79557458  0.79243363  0.76622420  1
  Hf  Hf19  1  0.50515995  0.71284108  0.62889075  1
  Hf  Hf20  1  0.30350194  0.88785700  0.12792393  1
  Hf  Hf21  1  0.90412509  0.69114922  0.88034310  1
  Hf  Hf22  1  0.39688636  0.40722585  0.01001594  1
  Hf  Hf23  1  0.09957551  0.10884061  0.88788020  1
  Hf  Hf24  1  0.89365562  0.29138007  0.61369936  1
  Hf  Hf25  1  0.50046659  0.28724205  0.13134795  1
  Hf  Hf26  1  0.60861842  0.20799525  0.75776972  1
  Hf  Hf27  1  0.29326722  0.49755407  0.86946346  1
  Hf  Hf28  1  0.59794047  0.80299245  0.26200896  1
  Hf  Hf29  1  0.70868090  0.71699998  0.61126510  1
  Hf  Hf30  1  0.19675052  0.79882985  0.25973820  1
  Hf  Hf31  1  0.41751262  0.00686740  0.22815442  1
  Hf  Hf32  1  -0.01135008  -0.00457326  0.00365048  1
  Hf  Hf33  1  0.18915152  0.60241757  0.73575739  1
  Hf  Hf34  1  0.49860370  0.29807768  0.37280131  1
  Hf  Hf35  1  0.30076447  0.70101054  0.85653791  1
  Hf  Hf36  1  0.80216171  0.59256566  -0.00230509  1
  Hf  Hf37  1  0.90864073  0.48720503  0.87139217  1
  Hf  Hf38  1  0.40705081  -0.00097424  0.00023481  1
  Hf  Hf39  1  0.80665106  -0.01565613  0.23398298  1
  Zr  Zr40  1  0.39460152  0.81335484  0.49965619  1
  Zr  Zr41  1  0.29518335  0.70833881  0.62540439  1
  Zr  Zr42  1  0.70418346  0.30350118  0.61005778  1
  Zr  Zr43  1  0.48998752  0.11115029  0.64548331  1
  Zr  Zr44  1  0.30506555  0.28952367  0.61230425  1
  Zr  Zr45  1  0.00009702  -0.00599731  0.75609226  1
  Zr  Zr46  1  0.09979722  0.29342918  0.59878941  1
  Zr  Zr47  1  0.00957739  -0.01060755  0.50386720  1
  Zr  Zr48  1  0.10135381  0.49834272  0.37809496  1
  Zr  Zr49  1  0.89403874  0.88771152  0.62914545  1
  Zr  Zr50  1  0.19743096  0.40355685  0.73681128  1
  Zr  Zr51  1  0.68531325  0.89666987  0.87788130  1
  Zr  Zr52  1  0.61005395  0.40486469  0.75638879  1
  Zr  Zr53  1  0.49960561  0.91103478  0.37912466  1
  Zr  Zr54  1  0.49618956  0.50709749  0.86656818  1
  Zr  Zr55  1  0.49504231  0.29714915  0.88087191  1
  Zr  Zr56  1  0.40343355  0.60706157  0.49248074  1
  Zr  Zr57  1  0.30174409  0.11232522  0.12904230  1
  Zr  Zr58  1  0.00309321  0.59684296  0.73516640  1
  Zr  Zr59  1  -0.01367767  0.81411980  0.25614606  1
  Zr  Zr60  1  0.38667173  0.60832641  0.00245461  1
  Zr  Zr61  1  0.59974784  0.00987615  0.01615539  1
  Zr  Zr62  1  0.00498623  0.39384011  0.25449554  1
  Zr  Zr63  1  0.20853367  -0.00299276  -0.00350193  1
  Zr  Zr64  1  0.39653276  0.78573197  0.26898852  1
  Zr  Zr65  1  0.28326150  0.92600720  0.36665898  1
  Zr  Zr66  1  0.69074841  0.70971571  0.10244054  1
  Zr  Zr67  1  0.49268870  0.70206711  0.11811473  1
  Zr  Zr68  1  0.79145659  0.79224078  0.24953312  1
  Zr  Zr69  1  0.80854002  0.58871597  0.49728427  1
  Zr  Zr70  1  0.61084678  0.61290496  0.27156177  1
  Zr  Zr71  1  0.10288449  0.29166547  0.11345157  1
  Zr  Zr72  1  0.50370391  0.30219061  0.61355223  1
  Zr  Zr73  1  0.50581765  0.71274584  0.86074790  1
  Zr  Zr74  1  0.49982026  0.50660506  0.13775330  1
  Zr  Zr75  1  0.00089418  0.39592799  0.73452516  1
  Zr  Zr76  1  0.09950948  0.10578251  0.12123949  1
  Zr  Zr77  1  0.70168434  0.50384257  0.13120382  1
  Zr  Zr78  1  0.19889709  0.20375896  0.75236041  1
  Zr  Zr79  1  0.09842457  0.30914008  0.89266026  1
  Ta  Ta80  1  0.39726409  0.40011359  0.25258804  1
  Ta  Ta81  1  0.60259008  0.18635152  0.25273305  1
  Ta  Ta82  1  0.61792361  0.60916581  0.74697071  1
  Ta  Ta83  1  -0.00340512  0.60687016  0.25648215  1
  Ta  Ta84  1  0.00139754  0.79756685  -0.00236685  1
  Ta  Ta85  1  0.80087912  0.59285986  0.74155862  1
  Ta  Ta86  1  0.20363685  0.39759840  0.25240184  1
  Ta  Ta87  1  0.09934659  0.70074391  0.13687823  1
  Ta  Ta88  1  0.09116239  0.71426179  0.60876629  1
  Ta  Ta89  1  0.90049053  0.10547310  0.63795761  1
  Ta  Ta90  1  0.89343845  0.10261691  0.86643064  1
  Ta  Ta91  1  0.39756458  0.19212578  0.48417307  1
  Ta  Ta92  1  0.18444029  0.82008451  0.49401234  1
  Ta  Ta93  1  0.09831801  0.89985817  0.12800390  1
  Ta  Ta94  1  0.10050002  0.89742499  0.88093317  1
  Ta  Ta95  1  0.20537976  0.60811175  0.25874940  1
  Ta  Ta96  1  -0.00446906  0.60373431  0.49657101  1
  Ta  Ta97  1  -0.00387529  0.40211230  0.01774338  1
  Ta  Ta98  1  0.19731550  0.60898447  0.49763870  1
  Ta  Ta99  1  0.11146964  0.07626852  0.36221070  1
  Ta  Ta100  1  0.39461087  0.39532430  0.74437503  1
  Ta  Ta101  1  0.09602960  0.70283052  0.37889500  1
  Ta  Ta102  1  -0.00137219  0.18241640  0.48518414  1
  Ta  Ta103  1  0.50544479  0.49340736  0.37366859  1
  Ta  Ta104  1  0.80431290  0.18336265  0.48491587  1
  Ta  Ta105  1  0.49708323  0.90516429  0.85616929  1
  Ta  Ta106  1  0.89148252  0.28755685  0.13830533  1
  Ta  Ta107  1  0.90122617  0.08269409  0.36114805  1
  Ta  Ta108  1  0.89966071  0.69712626  0.12236261  1
  Ta  Ta109  1  0.20706474  0.17316923  0.49032095  1
  Ta  Ta110  1  0.50442278  0.09506454  0.86372764  1
  Ta  Ta111  1  -0.00766491  0.80251535  0.48410483  1
  Ta  Ta112  1  0.10134084  0.09734260  0.62462272  1
  Ta  Ta113  1  0.18675583  0.80394273  0.75320953  1
  Ta  Ta114  1  0.71246731  0.10113554  0.64508848  1
  Ta  Ta115  1  0.00257682  0.79460561  0.76748372  1
  Ta  Ta116  1  0.31003561  0.10329836  0.86468306  1
  Ta  Ta117  1  0.28690430  0.90644930  0.63560592  1
  Ta  Ta118  1  0.61258347  -0.00132527  0.23383010  1
  Ta  Ta119  1  0.90273607  0.50112961  0.13743651  1
  Ti  Ti120  1  0.51067973  0.88732284  0.11715131  1
  Ti  Ti121  1  0.60092887  0.60360492  -0.01831328  1
  Ti  Ti122  1  0.39884288  0.59435533  0.73632562  1
  Ti  Ti123  1  0.70101939  0.10039850  0.86895736  1
  Ti  Ti124  1  0.10190735  0.49952990  0.60058657  1
  Ti  Ti125  1  0.11114053  0.29713558  0.39240312  1
  Ti  Ti126  1  -0.03059893  0.20803469  -0.00553678  1
  Ti  Ti127  1  0.50229618  0.09520750  0.36860328  1
  Ti  Ti128  1  0.89520207  0.29224305  0.37856193  1
  Ti  Ti129  1  0.70650277  0.50145543  0.87162252  1
  Ti  Ti130  1  0.71261834  0.11454349  0.13224549  1
  Ti  Ti131  1  0.19918481  0.60045678  0.01124027  1
  Ti  Ti132  1  0.30522794  0.10228335  0.35283884  1
  Ti  Ti133  1  0.40199931  0.39807620  0.49579724  1
  Ti  Ti134  1  0.40519328  0.19073664  -0.00549517  1
  Ti  Ti135  1  0.39754307  0.60678166  0.26852650  1
  Ti  Ti136  1  0.19525816  0.00225324  0.75164375  1
  Ti  Ti137  1  -0.00185206  0.20287474  0.75340999  1
  Ti  Ti138  1  0.90197949  0.70070734  0.62171009  1
  Ti  Ti139  1  0.29798835  0.30123276  0.88516457  1
  Ti  Ti140  1  0.70559445  0.29000706  0.13468977  1
  Ti  Ti141  1  0.80268591  0.80453814  -0.00675720  1
  Ti  Ti142  1  0.19763404  0.41273789  0.01376655  1
  Ti  Ti143  1  0.39958144  0.80433921  -0.01161194  1
  Ti  Ti144  1  0.89827314  0.10782383  0.13480233  1
  Ti  Ti145  1  0.30218423  0.89999498  0.86085472  1
  Ti  Ti146  1  0.29842578  0.29843337  0.37818222  1
  Ti  Ti147  1  0.29890094  0.49509923  0.61179069  1
  Ti  Ti148  1  0.19921997  0.20414350  0.26412323  1
  Ti  Ti149  1  0.10368099  0.50356333  0.14131729  1
  Ti  Ti150  1  0.78977577  0.41129173  0.48948760  1
  Ti  Ti151  1  0.10244442  0.50229368  0.87920278  1
  Ti  Ti152  1  0.60105068  0.39772965  0.25013363  1
  Ti  Ti153  1  0.61306087  0.20025709  -0.00221712  1
  Ti  Ti154  1  0.79862429  -0.00692609  0.75660187  1
  Ti  Ti155  1  0.80022957  0.39668665  0.75116440  1
  Ti  Ti156  1  0.89060174  0.69904824  0.37517660  1
  Ti  Ti157  1  0.29744803  0.50833009  0.14196563  1
  Ti  Ti158  1  0.39469714  0.00010803  0.74338449  1
  Ti  Ti159  1  0.80270114  0.21234007  0.76684055  1
  Mo  Mo160  1  0.90321926  0.29684567  0.86790166  1
  Mo  Mo161  1  0.50232181  0.70301163  0.39265696  1
  Mo  Mo162  1  0.09336130  0.90542493  0.35723460  1
  Mo  Mo163  1  0.69680216  0.89571246  0.11209205  1
  Mo  Mo164  1  0.89862389  0.50639130  0.35765421  1
  Mo  Mo165  1  0.29358434  0.69170408  0.12890901  1
  Mo  Mo166  1  0.70022034  0.69359089  0.87918764  1
  Mo  Mo167  1  0.69769583  0.90207910  0.63404288  1
  Mo  Mo168  1  0.58755854  0.80549413  -0.01010739  1
  Mo  Mo169  1  0.39290842  0.81204153  0.74589612  1
  Mo  Mo170  1  0.60486282  0.00359401  0.74329747  1
  Mo  Mo171  1  0.70058816  0.09034177  0.36311196  1
  Mo  Mo172  1  0.89732928  0.90212014  0.38463924  1
  Mo  Mo173  1  0.89590439  0.49346461  0.63150656  1
  Mo  Mo174  1  0.50821819  0.10843559  0.12493974  1
  Mo  Mo175  1  0.19627413  0.00073381  0.51399291  1
  Mo  Mo176  1  0.80701100  0.79896831  0.49129763  1
  Mo  Mo177  1  0.20469376  0.39843706  0.49644062  1
  Mo  Mo178  1  0.70357051  0.70604213  0.39434917  1
  Mo  Mo179  1  0.89844167  0.89752877  0.88110818  1
  Mo  Mo180  1  -0.00098909  -0.00060636  0.23328537  1
  Mo  Mo181  1  0.39919802  0.20732164  0.76699442  1
  Mo  Mo182  1  0.29125747  0.10169519  0.64289257  1
  Mo  Mo183  1  0.60136408  0.80839087  0.73719252  1
  Mo  Mo184  1  0.69979222  0.49761595  0.36206302  1
  Mo  Mo185  1  0.10353565  0.69658928  0.88037351  1
  Mo  Mo186  1  0.70595852  0.29861513  0.88208010  1
  Mo  Mo187  1  0.59874806  0.80115733  0.50170951  1
  Mo  Mo188  1  0.70559133  0.50035512  0.63564023  1
  Mo  Mo189  1  0.89805837  0.88875342  0.10378877  1
  Mo  Mo190  1  0.40192230  0.20358526  0.26692754  1
  Mo  Mo191  1  0.79601788  0.19546731  -0.00740983  1
  Mo  Mo192  1  0.80689553  0.60362338  0.25259087  1
  Mo  Mo193  1  0.49300562  0.90230276  0.64369471  1
  Mo  Mo194  1  0.20118550  0.00161082  0.22837721  1
  Mo  Mo195  1  0.09810517  0.89471319  0.64110701  1
  Mo  Mo196  1  0.29124705  0.70176789  0.39120204  1
  Mo  Mo197  1  0.21778826  0.20237227  -0.01655423  1
  Mo  Mo198  1  0.79979606  0.19288704  0.26674390  1
  Mo  Mo199  1  0.60345933  0.40470652  0.48723486  1
