# generated using pymatgen
data_HfZrTaTiMo
_symmetry_space_group_name_H-M   'P 1'
_cell_length_a   15.93236573
_cell_length_b   15.95589169
_cell_length_c   15.17579556
_cell_angle_alpha   90.00880491
_cell_angle_beta   89.99231296
_cell_angle_gamma   90.12110873
_symmetry_Int_Tables_number   1
_chemical_formula_structural   HfZrTaTiMo
_chemical_formula_sum   'Hf40 Zr40 Ta40 Ti40 Mo40'
_cell_volume   3857.90771855
_cell_formula_units_Z   40
loop_
 _symmetry_equiv_pos_site_id
 _symmetry_equiv_pos_as_xyz
  1  'x, y, z'
loop_
 _atom_site_type_symbol
 _atom_site_label
 _atom_site_symmetry_multiplicity
 _atom_site_fract_x
 _atom_site_fract_y
 _atom_site_fract_z
 _atom_site_occupancy
  Hf  Hf0  1  0.29515225  0.32186334  0.64837699  1
  Hf  Hf1  1  0.10457392  0.48697718  0.35838589  1
  Hf  Hf2  1  0.19008626  0.19289861  0.75150263  1
  Hf  Hf3  1  0.19687312  0.20489352  0.24721548  1
  Hf  Hf4  1  0.39586980  0.59469990  0.50927630  1
  Hf  Hf5  1  0.49589785  0.49455016  0.64097997  1
  Hf  Hf6  1  -0.00624706  0.60515581  0.26056199  1
  Hf  Hf7  1  0.88144024  0.08867931  0.14885364  1
  Hf  Hf8  1  0.40660531  0.80185243  0.01017707  1
  Hf  Hf9  1  0.18913677  -0.00454354  0.73515750  1
  Hf  Hf10  1  0.50971076  0.29443328  0.12273355  1
  Hf  Hf11  1  0.69689472  0.49888076  0.38254994  1
  Hf  Hf12  1  0.89942302  0.70240210  0.87140982  1
  Hf  Hf13  1  0.79991925  0.39172736  0.50425745  1
  Hf  Hf14  1  0.28862193  0.69343322  0.64101439  1
  Hf  Hf15  1  0.91041505  0.69117699  0.61870471  1
  Hf  Hf16  1  -0.00632541  0.20702219  0.49641924  1
  Hf  Hf17  1  0.40938065  0.39860289  -0.00553981  1
  Hf  Hf18  1  0.49743084  0.50272222  0.37391703  1
  Hf  Hf19  1  0.91089433  0.89731540  0.61312478  1
  Hf  Hf20  1  0.30283301  0.10255891  0.11718176  1
  Hf  Hf21  1  0.28842306  0.09530526  0.88707792  1
  Hf  Hf22  1  0.50338046  0.69868545  0.64024279  1
  Hf  Hf23  1  0.20579929  0.39985015  0.00930859  1
  Hf  Hf24  1  0.00462685  0.80731580  0.75632949  1
  Hf  Hf25  1  0.30249612  0.69635152  0.35726721  1
  Hf  Hf26  1  -0.00507026  -0.01161354  0.26183361  1
  Hf  Hf27  1  0.50602712  0.69794679  0.87119995  1
  Hf  Hf28  1  0.80367670  0.80100095  0.26255606  1
  Hf  Hf29  1  0.80029334  0.60337545  0.25039991  1
  Hf  Hf30  1  0.09226480  0.09319464  0.10977425  1
  Hf  Hf31  1  0.81285709  0.82097182  0.00142625  1
  Hf  Hf32  1  0.39756158  0.00398376  0.73100879  1
  Hf  Hf33  1  0.19917867  0.59656012  0.48389972  1
  Hf  Hf34  1  0.09707593  0.28943537  0.89057077  1
  Hf  Hf35  1  0.30273730  0.90571383  0.87737430  1
  Hf  Hf36  1  0.19205816  0.23353124  0.49658096  1
  Hf  Hf37  1  0.87601742  0.08973364  0.85811933  1
  Hf  Hf38  1  0.69976830  0.70523910  0.11645332  1
  Hf  Hf39  1  -0.00624092  0.39554454  0.76729302  1
  Zr  Zr40  1  0.60430603  0.00458041  0.73105650  1
  Zr  Zr41  1  0.00928587  0.58640277  0.76497666  1
  Zr  Zr42  1  0.70950085  0.29865889  0.87071867  1
  Zr  Zr43  1  0.60268396  -0.00956662  0.27088359  1
  Zr  Zr44  1  -0.00711556  0.79302796  0.01068006  1
  Zr  Zr45  1  0.79227678  0.79436155  0.50751505  1
  Zr  Zr46  1  0.30468529  0.90572658  0.12974052  1
  Zr  Zr47  1  0.08573801  0.29388501  0.12682426  1
  Zr  Zr48  1  0.20453070  0.79813139  0.01006090  1
  Zr  Zr49  1  0.30584201  0.10743873  0.37646660  1
  Zr  Zr50  1  0.50228708  0.70136271  0.38281937  1
  Zr  Zr51  1  0.20649145  -0.01206106  0.50269121  1
  Zr  Zr52  1  0.90536463  0.30017410  0.35225176  1
  Zr  Zr53  1  0.88537108  0.49519546  0.89317522  1
  Zr  Zr54  1  0.10045841  0.69518399  0.62067554  1
  Zr  Zr55  1  0.71710735  0.92262557  0.13462514  1
  Zr  Zr56  1  0.09958210  0.90936608  0.89248100  1
  Zr  Zr57  1  0.50884133  0.90019940  0.86303758  1
  Zr  Zr58  1  0.11218531  0.49536303  0.62145199  1
  Zr  Zr59  1  0.30946518  0.69889487  0.86675316  1
  Zr  Zr60  1  0.40334062  0.40877320  0.22720580  1
  Zr  Zr61  1  0.29821804  0.11404460  0.61580728  1
  Zr  Zr62  1  0.50126189  0.10750414  0.37903783  1
  Zr  Zr63  1  0.58399504  0.38863641  0.49792878  1
  Zr  Zr64  1  0.60703672  0.81584618  -0.00000966  1
  Zr  Zr65  1  0.77973753  0.18462753  0.00994478  1
  Zr  Zr66  1  0.50149774  0.10444977  0.13619027  1
  Zr  Zr67  1  0.38493576  0.80085972  0.51465871  1
  Zr  Zr68  1  0.19653270  -0.00373721  0.25303607  1
  Zr  Zr69  1  0.09472921  0.10630341  0.37991912  1
  Zr  Zr70  1  0.79718212  0.59547931  0.74000911  1
  Zr  Zr71  1  0.29918664  0.30151371  0.87112792  1
  Zr  Zr72  1  0.60142852  0.60309444  0.24163843  1
  Zr  Zr73  1  0.68665159  0.28756756  0.63124775  1
  Zr  Zr74  1  0.40362435  0.22814004  0.49993397  1
  Zr  Zr75  1  0.01629978  0.38977141  0.49906270  1
  Zr  Zr76  1  0.89643975  0.09912715  0.61498916  1
  Zr  Zr77  1  0.10038808  0.69146156  0.12988323  1
  Zr  Zr78  1  0.51490387  0.11998235  0.60765184  1
  Zr  Zr79  1  -0.03118388  0.19803908  -0.00656066  1
  Ta  Ta80  1  0.29682828  0.31724993  0.35816551  1
  Ta  Ta81  1  0.61479900  0.01735562  -0.00417753  1
  Ta  Ta82  1  0.70055485  0.10582235  0.38049056  1
  Ta  Ta83  1  0.20743508  0.59456146  0.00140281  1
  Ta  Ta84  1  0.79033479  -0.00518274  0.72063239  1
  Ta  Ta85  1  0.30982126  0.50759031  0.87272425  1
  Ta  Ta86  1  0.40253404  -0.00598864  0.50729482  1
  Ta  Ta87  1  0.90811104  0.49409260  0.61267797  1
  Ta  Ta88  1  0.71619946  0.91326916  0.86723989  1
  Ta  Ta89  1  0.89643583  0.29598646  0.63980044  1
  Ta  Ta90  1  0.50165050  0.89320318  0.39094825  1
  Ta  Ta91  1  0.41346149  0.80103732  0.24033349  1
  Ta  Ta92  1  0.30854842  0.89276869  0.36739505  1
  Ta  Ta93  1  0.69809710  0.29962735  0.35853390  1
  Ta  Ta94  1  -0.00925450  0.39699043  0.00276200  1
  Ta  Ta95  1  -0.00573311  0.19305216  0.75636358  1
  Ta  Ta96  1  0.69443250  0.70059805  0.38509965  1
  Ta  Ta97  1  0.70466908  0.70672091  0.87272203  1
  Ta  Ta98  1  0.79950084  0.59603375  0.50415585  1
  Ta  Ta99  1  0.60967247  0.59515167  0.75859205  1
  Ta  Ta100  1  0.30103532  0.50336192  0.65602663  1
  Ta  Ta101  1  0.41534864  0.00182288  -0.00114783  1
  Ta  Ta102  1  0.09154498  0.10129919  0.61394142  1
  Ta  Ta103  1  0.09403658  0.50210625  0.12132068  1
  Ta  Ta104  1  0.51385755  0.50902694  0.09689179  1
  Ta  Ta105  1  0.79648336  0.40832564  0.23832737  1
  Ta  Ta106  1  0.40762886  0.20097463  0.76226128  1
  Ta  Ta107  1  0.19628215  0.79703977  0.25237211  1
  Ta  Ta108  1  0.79704609  0.40139504  0.74269801  1
  Ta  Ta109  1  0.20365906  0.40505751  0.22451962  1
  Ta  Ta110  1  0.38278901  0.40879951  0.49849913  1
  Ta  Ta111  1  -0.00524957  0.79546936  0.25666662  1
  Ta  Ta112  1  0.19620577  0.80392588  0.75548365  1
  Ta  Ta113  1  -0.03268174  -0.01304671  0.00223862  1
  Ta  Ta114  1  0.90012483  0.49665256  0.38012546  1
  Ta  Ta115  1  0.09231727  0.09424490  0.89351954  1
  Ta  Ta116  1  0.90032639  0.50307913  0.11898364  1
  Ta  Ta117  1  0.40790204  0.19858729  -0.01589845  1
  Ta  Ta118  1  0.10558955  0.69269011  0.88320328  1
  Ta  Ta119  1  0.60583654  0.40825411  0.23542262  1
  Ti  Ti120  1  0.10365550  0.88544396  0.60526867  1
  Ti  Ti121  1  0.80740082  0.61414246  0.00778565  1
  Ti  Ti122  1  0.09636831  0.30196707  0.64334457  1
  Ti  Ti123  1  0.60817684  0.60683212  0.51864753  1
  Ti  Ti124  1  0.89374606  0.29408622  0.14396821  1
  Ti  Ti125  1  0.49300507  0.30869181  0.64905928  1
  Ti  Ti126  1  0.78901081  -0.00269372  0.49650940  1
  Ti  Ti127  1  0.59620128  0.20196534  -0.01513964  1
  Ti  Ti128  1  0.70153959  0.50026918  0.10287691  1
  Ti  Ti129  1  0.40501329  -0.00382489  0.25848358  1
  Ti  Ti130  1  0.40642587  0.59992961  0.22909323  1
  Ti  Ti131  1  0.80001370  0.80511965  0.73796637  1
  Ti  Ti132  1  0.50679758  0.69670223  0.11127250  1
  Ti  Ti133  1  0.51005403  0.90848961  0.12760605  1
  Ti  Ti134  1  0.00260118  -0.00347094  0.49083810  1
  Ti  Ti135  1  0.69779095  0.50211361  0.89502558  1
  Ti  Ti136  1  0.30116242  0.50296514  0.35323337  1
  Ti  Ti137  1  0.60161035  0.80138183  0.25278951  1
  Ti  Ti138  1  0.69696057  0.29628459  0.13473691  1
  Ti  Ti139  1  0.30379025  0.69247814  0.13102647  1
  Ti  Ti140  1  0.10643100  0.88680815  0.38121540  1
  Ti  Ti141  1  0.79378323  0.20420340  0.49760101  1
  Ti  Ti142  1  0.39714563  0.81125189  0.73842363  1
  Ti  Ti143  1  0.18424835  0.41754497  0.77948532  1
  Ti  Ti144  1  0.30829949  0.28888281  0.11942362  1
  Ti  Ti145  1  0.89692235  0.89654948  0.38800577  1
  Ti  Ti146  1  0.69140246  0.10905210  0.15709467  1
  Ti  Ti147  1  0.60182084  0.19515176  0.76399461  1
  Ti  Ti148  1  0.80215629  0.38287850  0.01169648  1
  Ti  Ti149  1  0.00036123  0.00030920  0.74705039  1
  Ti  Ti150  1  0.50964049  0.89736523  0.61142558  1
  Ti  Ti151  1  0.69540665  0.49346715  0.62348903  1
  Ti  Ti152  1  0.09340079  0.90094964  0.12456334  1
  Ti  Ti153  1  0.50526886  0.50607441  0.88343599  1
  Ti  Ti154  1  0.49642032  0.30471303  0.35238133  1
  Ti  Ti155  1  0.62079277  0.80345886  0.73577538  1
  Ti  Ti156  1  0.60012345  0.40307108  0.76873689  1
  Ti  Ti157  1  0.50138777  0.09621100  0.87192287  1
  Ti  Ti158  1  0.89092184  0.10232300  0.37155522  1
  Ti  Ti159  1  0.00744280  0.77793482  0.47415328  1
  Mo  Mo160  1  0.79542667  0.00255395  -0.00030611  1
  Mo  Mo161  1  0.60282635  0.21001989  0.47907570  1
  Mo  Mo162  1  0.79256523  0.19387092  0.73491400  1
  Mo  Mo163  1  0.60997530  0.60576828  -0.01490030  1
  Mo  Mo164  1  0.19962862  0.59959039  0.77373185  1
  Mo  Mo165  1  0.89162651  0.29521614  0.85945955  1
  Mo  Mo166  1  0.10011708  0.49718773  0.90376605  1
  Mo  Mo167  1  0.89546099  0.69299263  0.39056459  1
  Mo  Mo168  1  0.50837711  0.29919060  0.87282013  1
  Mo  Mo169  1  0.89772983  0.69921939  0.12265731  1
  Mo  Mo170  1  0.19804977  0.79385285  0.47941184  1
  Mo  Mo171  1  0.21554562  0.40761608  0.49395397  1
  Mo  Mo172  1  0.40781683  0.59897393  0.75085085  1
  Mo  Mo173  1  0.40973432  0.40187842  0.77319393  1
  Mo  Mo174  1  0.59847774  0.20745371  0.26191662  1
  Mo  Mo175  1  0.20584991  0.59500643  0.23852240  1
  Mo  Mo176  1  0.69178608  0.89372457  0.39388805  1
  Mo  Mo177  1  0.20238028  0.19708158  0.00399110  1
  Mo  Mo178  1  0.10313490  0.69687431  0.36249739  1
  Mo  Mo179  1  0.79354234  0.20086849  0.25224861  1
  Mo  Mo180  1  0.00038109  0.59469709  -0.00192431  1
  Mo  Mo181  1  0.40399946  0.60241629  0.00561614  1
  Mo  Mo182  1  0.70045310  0.10039316  0.59606592  1
  Mo  Mo183  1  0.61162629  0.39950163  0.00269260  1
  Mo  Mo184  1  0.69165959  0.09578040  0.86531148  1
  Mo  Mo185  1  0.69906421  0.89735289  0.61269736  1
  Mo  Mo186  1  0.60246633  -0.00297899  0.49710108  1
  Mo  Mo187  1  0.10576678  0.30701636  0.34874800  1
  Mo  Mo188  1  0.89670884  0.90497362  0.85004698  1
  Mo  Mo189  1  0.19414149  -0.00105378  0.01030398  1
  Mo  Mo190  1  -0.00575846  0.40560111  0.23011822  1
  Mo  Mo191  1  0.30603178  0.50854355  0.11552191  1
  Mo  Mo192  1  -0.00376436  0.59298134  0.48170570  1
  Mo  Mo193  1  0.79918014  -0.00365146  0.28917813  1
  Mo  Mo194  1  0.29457407  0.89425567  0.63144421  1
  Mo  Mo195  1  0.59751470  0.79493382  0.51217990  1
  Mo  Mo196  1  0.90559233  0.90015078  0.14657187  1
  Mo  Mo197  1  0.39487743  0.20658429  0.25315628  1
  Mo  Mo198  1  -0.00414604  0.19438732  0.25401791  1
  Mo  Mo199  1  0.70008602  0.69323207  0.63619112  1
