# generated using pymatgen
data_HfZrTaTiMo
_symmetry_space_group_name_H-M   'P 1'
_cell_length_a   15.92511605
_cell_length_b   15.93850028
_cell_length_c   15.18277319
_cell_angle_alpha   90.05951044
_cell_angle_beta   89.97399550
_cell_angle_gamma   89.98160444
_symmetry_Int_Tables_number   1
_chemical_formula_structural   HfZrTaTiMo
_chemical_formula_sum   'Hf40 Zr40 Ta40 Ti40 Mo40'
_cell_volume   3853.72626781
_cell_formula_units_Z   40
loop_
 _symmetry_equiv_pos_site_id
 _symmetry_equiv_pos_as_xyz
  1  'x, y, z'
loop_
 _atom_site_type_symbol
 _atom_site_label
 _atom_site_symmetry_multiplicity
 _atom_site_fract_x
 _atom_site_fract_y
 _atom_site_fract_z
 _atom_site_occupancy
  Hf  Hf0  1  0.50719739  0.09982688  0.12979623  1
  Hf  Hf1  1  0.39448452  0.41180568  0.50725522  1
  Hf  Hf2  1  0.51476857  0.91102273  0.89504343  1
  Hf  Hf3  1  0.51287040  0.30740350  0.12862447  1
  Hf  Hf4  1  0.71488971  0.69919085  0.12083924  1
  Hf  Hf5  1  0.29998486  0.09398240  0.61949897  1
  Hf  Hf6  1  0.91174515  0.29178221  0.36997549  1
  Hf  Hf7  1  0.40224561  0.40027901  0.00069930  1
  Hf  Hf8  1  0.20456826  0.79628987  0.00494822  1
  Hf  Hf9  1  0.19968635  0.20078255  0.00408595  1
  Hf  Hf10  1  0.40342004  0.20128636  0.49029479  1
  Hf  Hf11  1  0.69022062  0.88627880  0.37696864  1
  Hf  Hf12  1  0.08703140  0.09545984  0.87828386  1
  Hf  Hf13  1  0.81745958  0.59684917  0.26563536  1
  Hf  Hf14  1  0.29562106  0.30837861  0.36752389  1
  Hf  Hf15  1  0.39228199  0.61394516  -0.00265257  1
  Hf  Hf16  1  0.40522653  0.00602933  0.46890316  1
  Hf  Hf17  1  -0.00394082  0.80180028  0.74916045  1
  Hf  Hf18  1  -0.00064158  0.00265944  0.48422140  1
  Hf  Hf19  1  0.61501560  0.39554170  -0.01613905  1
  Hf  Hf20  1  0.39831856  0.61797206  0.76888739  1
  Hf  Hf21  1  0.09512873  0.29917221  0.64773549  1
  Hf  Hf22  1  0.61103450  0.60473988  0.25350438  1
  Hf  Hf23  1  0.60380043  0.61354214  0.75198461  1
  Hf  Hf24  1  0.28400822  0.11327866  0.36388083  1
  Hf  Hf25  1  0.10103445  0.50579954  0.64328230  1
  Hf  Hf26  1  0.60775392  0.18967484  0.75279462  1
  Hf  Hf27  1  0.60527819  0.60097704  0.51021727  1
  Hf  Hf28  1  0.20048073  0.18926555  0.76342418  1
  Hf  Hf29  1  0.81039594  0.17460955  0.74549203  1
  Hf  Hf30  1  0.08970690  0.09593096  0.63901955  1
  Hf  Hf31  1  0.29317545  0.88543243  0.37389265  1
  Hf  Hf32  1  -0.03312285  0.00045729  0.74838257  1
  Hf  Hf33  1  0.80251222  0.19546411  0.25883376  1
  Hf  Hf34  1  0.50609242  0.31317636  0.36252667  1
  Hf  Hf35  1  0.18638858  0.00308237  0.48640662  1
  Hf  Hf36  1  0.50326094  0.72495240  0.89903701  1
  Hf  Hf37  1  0.60489868  0.79800836  0.73301020  1
  Hf  Hf38  1  0.61007514  0.40011813  0.50942723  1
  Hf  Hf39  1  -0.01809679  -0.01926211  0.00826900  1
  Zr  Zr40  1  0.40181965  0.40398157  0.76032953  1
  Zr  Zr41  1  0.09077360  0.89767004  0.87892086  1
  Zr  Zr42  1  0.60253893  0.20085936  -0.00491289  1
  Zr  Zr43  1  0.19689572  0.40410845  0.50440639  1
  Zr  Zr44  1  0.50031489  0.71305660  0.38347752  1
  Zr  Zr45  1  0.29980573  0.29800664  0.87571580  1
  Zr  Zr46  1  0.69962235  0.07976353  0.88425513  1
  Zr  Zr47  1  0.01300481  0.59901275  0.24580595  1
  Zr  Zr48  1  0.90086840  0.50017212  0.63352187  1
  Zr  Zr49  1  0.30055519  0.51275321  0.12350653  1
  Zr  Zr50  1  0.60953398  0.19817899  0.48830286  1
  Zr  Zr51  1  -0.01189067  0.39653333  -0.00920232  1
  Zr  Zr52  1  0.10258733  0.70178201  0.61696169  1
  Zr  Zr53  1  0.79561504  -0.00115784  0.25813769  1
  Zr  Zr54  1  0.19099756  0.40561623  0.21932526  1
  Zr  Zr55  1  0.50454866  0.70649855  0.12411762  1
  Zr  Zr56  1  0.19480276  -0.00644803  0.25267384  1
  Zr  Zr57  1  0.80362013  0.80658642  0.75126649  1
  Zr  Zr58  1  0.29361440  0.89664007  0.60798288  1
  Zr  Zr59  1  0.70589376  0.89994158  0.60001297  1
  Zr  Zr60  1  0.29944716  0.50734097  0.35620328  1
  Zr  Zr61  1  0.60362359  0.40108074  0.75762711  1
  Zr  Zr62  1  0.50251019  0.29434003  0.62800093  1
  Zr  Zr63  1  0.29353013  0.30205481  0.63612278  1
  Zr  Zr64  1  0.49778778  0.89783910  0.59401020  1
  Zr  Zr65  1  0.40712373  0.80615673  0.74433444  1
  Zr  Zr66  1  -0.00183385  0.39940877  0.50302616  1
  Zr  Zr67  1  0.48805832  0.51636482  0.62944320  1
  Zr  Zr68  1  0.40806313  0.18027026  0.75615822  1
  Zr  Zr69  1  0.79731821  0.21484150  0.00161561  1
  Zr  Zr70  1  0.89659779  0.69767784  0.61113956  1
  Zr  Zr71  1  0.89434493  0.50510129  0.10589903  1
  Zr  Zr72  1  0.70597409  0.49647883  0.11889443  1
  Zr  Zr73  1  0.10384330  0.29692995  0.36951072  1
  Zr  Zr74  1  0.09343877  0.08964139  0.12292846  1
  Zr  Zr75  1  0.49927718  0.50564845  0.36826599  1
  Zr  Zr76  1  0.30858151  0.69703623  0.60641766  1
  Zr  Zr77  1  0.39448428  0.20529869  0.23769379  1
  Zr  Zr78  1  0.31466740  0.89819463  0.88650018  1
  Zr  Zr79  1  -0.00378754  0.39647161  0.22899363  1
  Ta  Ta80  1  0.20355122  -0.00887790  0.75605379  1
  Ta  Ta81  1  0.19254246  0.40230093  -0.00021482  1
  Ta  Ta82  1  0.70952177  0.50860724  0.87278002  1
  Ta  Ta83  1  -0.00753912  -0.00741021  0.25724958  1
  Ta  Ta84  1  0.09721088  0.89782853  0.62470928  1
  Ta  Ta85  1  0.60501951  0.60119655  -0.00557804  1
  Ta  Ta86  1  0.80064611  0.39374200  0.49508585  1
  Ta  Ta87  1  0.80464742  0.20019858  0.49504484  1
  Ta  Ta88  1  0.19895773  0.59684181  0.48727400  1
  Ta  Ta89  1  0.28705929  0.50897149  0.64676972  1
  Ta  Ta90  1  -0.00037670  0.78621681  0.24310399  1
  Ta  Ta91  1  0.40232759  -0.00128082  0.25311419  1
  Ta  Ta92  1  0.70717741  0.69985607  0.38876007  1
  Ta  Ta93  1  0.40083442  0.80410634  0.25048616  1
  Ta  Ta94  1  0.09878292  0.88700087  0.13153876  1
  Ta  Ta95  1  0.70277828  0.71122469  0.89056488  1
  Ta  Ta96  1  0.50979931  0.90200542  0.13868455  1
  Ta  Ta97  1  0.89955229  0.90032909  0.59941729  1
  Ta  Ta98  1  -0.00445839  0.40170609  0.76723785  1
  Ta  Ta99  1  0.20359666  0.79783697  0.75789636  1
  Ta  Ta100  1  0.29184858  0.50280875  0.87446952  1
  Ta  Ta101  1  0.90220316  0.29253260  0.63597673  1
  Ta  Ta102  1  0.70735361  0.30767113  0.14165972  1
  Ta  Ta103  1  0.19181825  0.21191064  0.22048925  1
  Ta  Ta104  1  0.61161766  0.19927092  0.26185383  1
  Ta  Ta105  1  -0.00841506  0.20214970  0.00809627  1
  Ta  Ta106  1  0.19286300  0.60244098  -0.00560990  1
  Ta  Ta107  1  0.08495616  0.11681139  0.35457884  1
  Ta  Ta108  1  0.50801977  0.50497770  0.12389269  1
  Ta  Ta109  1  0.71384246  0.50307755  0.63707405  1
  Ta  Ta110  1  0.00610409  0.59389221  0.48349230  1
  Ta  Ta111  1  0.40062055  -0.00261404  0.02457976  1
  Ta  Ta112  1  0.60022061  -0.00314255  0.73924919  1
  Ta  Ta113  1  0.89504270  0.09842667  0.12605476  1
  Ta  Ta114  1  0.19616410  0.61401710  0.77271895  1
  Ta  Ta115  1  0.81042000  0.81053805  0.00597800  1
  Ta  Ta116  1  -0.00482050  0.60628786  0.77325832  1
  Ta  Ta117  1  0.90017629  0.88639745  0.37750041  1
  Ta  Ta118  1  0.80430847  0.39814015  0.76309427  1
  Ta  Ta119  1  0.71539636  0.29942702  0.63418241  1
  Ti  Ti120  1  0.70070698  0.49237082  0.37411583  1
  Ti  Ti121  1  0.88876915  0.08758041  0.89561181  1
  Ti  Ti122  1  0.89958621  0.28797430  0.86282937  1
  Ti  Ti123  1  0.49898029  0.08895968  0.89062084  1
  Ti  Ti124  1  0.18884322  0.19993778  0.50669934  1
  Ti  Ti125  1  0.59616147  0.00917220  0.47549617  1
  Ti  Ti126  1  0.30693548  0.08635601  0.88480568  1
  Ti  Ti127  1  0.09298360  0.70612503  0.88879015  1
  Ti  Ti128  1  0.80382353  0.78793475  0.25537431  1
  Ti  Ti129  1  0.61946345  0.81838844  0.02113694  1
  Ti  Ti130  1  0.20134313  -0.00520518  0.00359330  1
  Ti  Ti131  1  0.28954285  0.70104140  0.37242738  1
  Ti  Ti132  1  0.80198045  0.61205254  0.76053958  1
  Ti  Ti133  1  0.10310765  0.49840500  0.36767333  1
  Ti  Ti134  1  0.50432102  0.09259718  0.61796355  1
  Ti  Ti135  1  0.80277620  0.40010720  0.26475961  1
  Ti  Ti136  1  0.29930008  0.89612705  0.13468904  1
  Ti  Ti137  1  0.70537049  0.09199754  0.61307509  1
  Ti  Ti138  1  0.09359391  0.29620352  0.87311548  1
  Ti  Ti139  1  0.78672700  -0.01447954  0.02365231  1
  Ti  Ti140  1  0.28936063  0.70454334  0.14031277  1
  Ti  Ti141  1  0.40625054  -0.00302701  0.74842283  1
  Ti  Ti142  1  0.50013220  0.29122560  0.87538076  1
  Ti  Ti143  1  -0.00425235  0.19294174  0.50957392  1
  Ti  Ti144  1  0.40139557  0.60980667  0.24646533  1
  Ti  Ti145  1  0.59956292  0.00348715  0.26307759  1
  Ti  Ti146  1  0.69749975  0.09831850  0.12627912  1
  Ti  Ti147  1  0.90465272  0.71208033  0.89128502  1
  Ti  Ti148  1  0.80500447  0.58748089  0.49000625  1
  Ti  Ti149  1  0.70385523  0.90201746  0.87367529  1
  Ti  Ti150  1  0.39741731  0.19742882  0.00745543  1
  Ti  Ti151  1  0.29757299  0.09543465  0.12676514  1
  Ti  Ti152  1  0.50218750  0.50857698  0.88257704  1
  Ti  Ti153  1  0.80806978  0.60506573  -0.01499945  1
  Ti  Ti154  1  0.39985707  0.40385955  0.23174848  1
  Ti  Ti155  1  0.89611184  0.88932963  0.14400474  1
  Ti  Ti156  1  0.80326351  0.00973286  0.47853450  1
  Ti  Ti157  1  0.09478949  0.87551833  0.37037080  1
  Ti  Ti158  1  0.91088168  0.70360705  0.38885113  1
  Ti  Ti159  1  0.09544258  0.50226597  0.87804518  1
  Mo  Mo160  1  0.70941062  0.68986468  0.61204964  1
  Mo  Mo161  1  0.19010236  0.40839473  0.77314708  1
  Mo  Mo162  1  0.70109270  0.09907797  0.38233058  1
  Mo  Mo163  1  0.29637196  0.70672858  0.88267203  1
  Mo  Mo164  1  0.89110984  0.29958153  0.13218826  1
  Mo  Mo165  1  0.90122886  0.70146323  0.11655115  1
  Mo  Mo166  1  0.60887450  0.79905379  0.24380028  1
  Mo  Mo167  1  0.19518358  0.60758153  0.25392237  1
  Mo  Mo168  1  0.09364992  0.29945890  0.10311810  1
  Mo  Mo169  1  0.00254013  0.80111475  0.49754661  1
  Mo  Mo170  1  0.89665370  0.50881104  0.87223250  1
  Mo  Mo171  1  0.10420696  0.70023983  0.38397737  1
  Mo  Mo172  1  -0.00622422  0.19647535  0.76074174  1
  Mo  Mo173  1  0.80382857  0.79314507  0.48912671  1
  Mo  Mo174  1  0.19234380  0.79737894  0.49802117  1
  Mo  Mo175  1  0.60315856  0.79267307  0.51101660  1
  Mo  Mo176  1  0.90170345  0.49609890  0.38202574  1
  Mo  Mo177  1  0.70554315  0.29733208  0.85287359  1
  Mo  Mo178  1  0.79778007  0.39623132  -0.02468450  1
  Mo  Mo179  1  0.00082727  0.60528949  -0.01123366  1
  Mo  Mo180  1  0.70684335  0.30683997  0.36804260  1
  Mo  Mo181  1  0.70225673  0.89661199  0.14912909  1
  Mo  Mo182  1  0.09827391  0.50677789  0.09991133  1
  Mo  Mo183  1  0.39700202  0.79954755  0.48096626  1
  Mo  Mo184  1  0.50027358  0.10503923  0.35481962  1
  Mo  Mo185  1  0.89297304  0.09616964  0.60374320  1
  Mo  Mo186  1  0.49907721  0.70375780  0.60739449  1
  Mo  Mo187  1  -0.00369184  0.79598550  0.01889759  1
  Mo  Mo188  1  0.39061773  0.60079007  0.49254232  1
  Mo  Mo189  1  0.39928125  0.80966063  0.03170458  1
  Mo  Mo190  1  -0.00483971  0.19629177  0.22470973  1
  Mo  Mo191  1  0.30264218  0.30185486  0.10814621  1
  Mo  Mo192  1  0.90519457  0.09874046  0.37581875  1
  Mo  Mo193  1  0.60478257  -0.00242063  0.02188492  1
  Mo  Mo194  1  0.78763341  -0.00634949  0.73793545  1
  Mo  Mo195  1  0.60720483  0.40480005  0.24731240  1
  Mo  Mo196  1  0.50100026  0.90042217  0.36267128  1
  Mo  Mo197  1  0.19348504  0.79022541  0.24064303  1
  Mo  Mo198  1  0.88370655  0.90403814  0.88371542  1
  Mo  Mo199  1  0.09732270  0.69574167  0.11085380  1
