# generated using pymatgen
data_HfZrTaTiMo
_symmetry_space_group_name_H-M   'P 1'
_cell_length_a   15.93773567
_cell_length_b   15.94239854
_cell_length_c   15.15719723
_cell_angle_alpha   90.01761809
_cell_angle_beta   90.00646615
_cell_angle_gamma   89.89676072
_symmetry_Int_Tables_number   1
_chemical_formula_structural   HfZrTaTiMo
_chemical_formula_sum   'Hf40 Zr40 Ta40 Ti40 Mo40'
_cell_volume   3851.22112436
_cell_formula_units_Z   40
loop_
 _symmetry_equiv_pos_site_id
 _symmetry_equiv_pos_as_xyz
  1  'x, y, z'
loop_
 _atom_site_type_symbol
 _atom_site_label
 _atom_site_symmetry_multiplicity
 _atom_site_fract_x
 _atom_site_fract_y
 _atom_site_fract_z
 _atom_site_occupancy
  Hf  Hf0  1  0.31261059  0.10155710  0.86476775  1
  Hf  Hf1  1  0.60311221  0.40488130  0.25622530  1
  Hf  Hf2  1  0.50411386  0.90434519  0.60722126  1
  Hf  Hf3  1  0.50097028  0.29281792  0.84844533  1
  Hf  Hf4  1  -0.00498700  0.01719701  0.02157335  1
  Hf  Hf5  1  0.39778419  0.00370289  0.26072569  1
  Hf  Hf6  1  0.39775118  0.19208537  0.48589876  1
  Hf  Hf7  1  0.29481114  0.09945452  0.63130024  1
  Hf  Hf8  1  0.28778118  0.51232557  0.38549464  1
  Hf  Hf9  1  0.72172222  0.28594238  0.88479005  1
  Hf  Hf10  1  0.61492480  0.19132508  0.74064058  1
  Hf  Hf11  1  0.70082982  0.30594078  0.38356939  1
  Hf  Hf12  1  0.49583808  0.69677958  0.38665839  1
  Hf  Hf13  1  0.50797015  0.47386176  0.63377420  1
  Hf  Hf14  1  0.80115135  0.20183069  0.25523219  1
  Hf  Hf15  1  0.00515310  0.38662123  0.75640752  1
  Hf  Hf16  1  0.60390525  0.79263656  0.25435253  1
  Hf  Hf17  1  0.39276760  0.79553445  0.73403959  1
  Hf  Hf18  1  0.20025208  0.00836684  0.00687578  1
  Hf  Hf19  1  0.90698426  0.31115038  0.38155020  1
  Hf  Hf20  1  0.50488411  0.90626470  0.87784002  1
  Hf  Hf21  1  0.68714324  0.30625430  0.60900093  1
  Hf  Hf22  1  0.40641435  0.19578017  0.00776305  1
  Hf  Hf23  1  0.80297032  -0.00262446  0.48759824  1
  Hf  Hf24  1  0.81159999  -0.00652494  0.25351729  1
  Hf  Hf25  1  0.59257209  0.19205709  0.00308841  1
  Hf  Hf26  1  0.89820102  0.50075731  0.63496805  1
  Hf  Hf27  1  0.10402934  0.69314625  0.37221769  1
  Hf  Hf28  1  0.09404131  0.90207796  0.62104597  1
  Hf  Hf29  1  0.80264426  0.37738512  0.74415117  1
  Hf  Hf30  1  0.59792261  0.39203125  -0.00666189  1
  Hf  Hf31  1  0.71166977  0.49552374  0.11776523  1
  Hf  Hf32  1  0.08853478  0.71132072  0.12438457  1
  Hf  Hf33  1  0.60691102  0.59827774  0.25158516  1
  Hf  Hf34  1  0.69297924  0.09146693  0.14116346  1
  Hf  Hf35  1  0.30934426  0.89197925  0.89518347  1
  Hf  Hf36  1  0.79593125  0.00398608  0.73443157  1
  Hf  Hf37  1  0.49507524  0.89667446  0.38118029  1
  Hf  Hf38  1  0.10404649  0.30017289  0.36358809  1
  Hf  Hf39  1  0.30170615  0.29916732  0.13112226  1
  Zr  Zr40  1  0.29145758  0.71225860  0.10829570  1
  Zr  Zr41  1  0.72060422  0.70046315  0.12750805  1
  Zr  Zr42  1  0.09052525  0.49636080  0.36123848  1
  Zr  Zr43  1  0.59612811  0.60185763  0.75173032  1
  Zr  Zr44  1  0.19403033  0.41164757  0.51818660  1
  Zr  Zr45  1  0.29572779  0.30492011  0.36779865  1
  Zr  Zr46  1  0.60210616  0.59852251  -0.01219768  1
  Zr  Zr47  1  0.39984110  0.60166713  0.24073015  1
  Zr  Zr48  1  0.38668205  0.59000397  0.74965537  1
  Zr  Zr49  1  0.50089117  0.09596311  0.61873629  1
  Zr  Zr50  1  0.69910429  0.29890007  0.12875987  1
  Zr  Zr51  1  0.10058559  0.28773864  0.62513849  1
  Zr  Zr52  1  0.90048886  0.87512962  0.11945374  1
  Zr  Zr53  1  0.88931672  0.10920027  0.87704576  1
  Zr  Zr54  1  0.38980219  0.60748493  0.52705007  1
  Zr  Zr55  1  0.89838458  0.32557913  0.11226111  1
  Zr  Zr56  1  0.50045771  0.49978512  0.39518599  1
  Zr  Zr57  1  0.19422910  0.19774940  0.00183165  1
  Zr  Zr58  1  -0.00095264  0.19791507  0.23798890  1
  Zr  Zr59  1  0.09748607  0.70803409  0.62499437  1
  Zr  Zr60  1  0.00561486  0.59130030  0.50954796  1
  Zr  Zr61  1  0.89047732  0.90506391  0.89207071  1
  Zr  Zr62  1  0.29858036  0.90488518  0.61227066  1
  Zr  Zr63  1  0.50338829  0.90165819  0.13378959  1
  Zr  Zr64  1  0.89935025  0.70843178  0.62470010  1
  Zr  Zr65  1  0.49291235  0.71250321  0.87851421  1
  Zr  Zr66  1  0.89369407  0.48628082  0.87507259  1
  Zr  Zr67  1  0.20436809  0.80404912  0.49061379  1
  Zr  Zr68  1  0.31454178  0.29461635  0.63881701  1
  Zr  Zr69  1  0.30839002  0.30424146  0.87064920  1
  Zr  Zr70  1  -0.00992804  0.61346694  -0.01194088  1
  Zr  Zr71  1  0.19839405  -0.00695431  0.76476497  1
  Zr  Zr72  1  0.08270088  0.50098131  0.11652318  1
  Zr  Zr73  1  0.61370342  0.79084545  0.49440182  1
  Zr  Zr74  1  0.09857515  0.09583131  0.63049120  1
  Zr  Zr75  1  0.70110526  0.08866734  0.88310820  1
  Zr  Zr76  1  0.39932446  0.41043492  0.24993870  1
  Zr  Zr77  1  0.79934140  0.61083643  -0.02087879  1
  Zr  Zr78  1  0.20677129  0.41190095  0.75472845  1
  Zr  Zr79  1  0.10496928  0.89386593  0.12916005  1
  Ta  Ta80  1  0.19653915  0.40010660  -0.00524747  1
  Ta  Ta81  1  0.70448482  0.70298419  0.63489266  1
  Ta  Ta82  1  0.50008241  0.29846067  0.37579943  1
  Ta  Ta83  1  0.00710565  0.19050751  0.48572713  1
  Ta  Ta84  1  0.20155445  0.60303411  0.23433828  1
  Ta  Ta85  1  0.40493510  0.00861625  0.01540489  1
  Ta  Ta86  1  0.00731818  -0.00412283  0.47765050  1
  Ta  Ta87  1  0.59570518  -0.00013772  0.01205264  1
  Ta  Ta88  1  0.39346921  0.79879829  0.24900152  1
  Ta  Ta89  1  0.90542843  0.10023949  0.37363498  1
  Ta  Ta90  1  0.19721405  0.41058427  0.23334658  1
  Ta  Ta91  1  0.09726870  0.30816143  0.12342144  1
  Ta  Ta92  1  0.80008693  0.81230693  0.74637442  1
  Ta  Ta93  1  0.29468098  0.70083752  0.88348695  1
  Ta  Ta94  1  0.39937075  0.59651607  -0.00591934  1
  Ta  Ta95  1  0.50056122  0.29506325  0.14478914  1
  Ta  Ta96  1  0.90570104  0.09909639  0.61119264  1
  Ta  Ta97  1  -0.00826096  -0.00232575  0.75206175  1
  Ta  Ta98  1  0.29780729  0.90197697  0.12956691  1
  Ta  Ta99  1  0.90709459  0.90012712  0.60964239  1
  Ta  Ta100  1  0.49983393  0.69969372  0.11525948  1
  Ta  Ta101  1  0.19904199  0.60446095  0.74987276  1
  Ta  Ta102  1  0.50079785  0.49738587  0.11193147  1
  Ta  Ta103  1  0.70124315  0.90195620  0.61377412  1
  Ta  Ta104  1  0.60697774  0.80046355  0.00479577  1
  Ta  Ta105  1  0.10075655  0.50193632  0.87702364  1
  Ta  Ta106  1  0.19682800  0.79932508  0.76181360  1
  Ta  Ta107  1  0.08773106  0.10174724  0.86936790  1
  Ta  Ta108  1  0.89885802  0.28841877  0.60673327  1
  Ta  Ta109  1  0.70060995  0.71631496  0.86137562  1
  Ta  Ta110  1  0.70157244  0.50026453  0.63011005  1
  Ta  Ta111  1  0.49029886  0.48588307  0.87024418  1
  Ta  Ta112  1  0.29615509  0.50230894  0.10850083  1
  Ta  Ta113  1  0.29947768  0.70397803  0.37482992  1
  Ta  Ta114  1  0.70542718  0.89624829  0.12574520  1
  Ta  Ta115  1  0.70271694  0.89808111  0.36589009  1
  Ta  Ta116  1  0.80183262  0.41027680  0.50393847  1
  Ta  Ta117  1  0.69772596  0.90337756  0.88437936  1
  Ta  Ta118  1  0.09166709  0.90179834  0.89030306  1
  Ta  Ta119  1  0.00361233  0.60311824  0.75911727  1
  Ti  Ti120  1  -0.01511466  0.20116977  0.75442785  1
  Ti  Ti121  1  0.79436319  0.60596341  0.50115777  1
  Ti  Ti122  1  0.89278314  0.51093752  0.11986859  1
  Ti  Ti123  1  0.28375922  0.10857565  0.35178677  1
  Ti  Ti124  1  0.79927141  0.19428728  0.49249180  1
  Ti  Ti125  1  0.19625239  0.60020166  -0.00703717  1
  Ti  Ti126  1  0.19623653  0.00830526  0.47395240  1
  Ti  Ti127  1  -0.01569187  0.60305966  0.24686383  1
  Ti  Ti128  1  0.60308327  0.81360620  0.74266516  1
  Ti  Ti129  1  0.38395402  0.00278328  0.47861450  1
  Ti  Ti130  1  0.00176358  0.20377820  0.00822148  1
  Ti  Ti131  1  0.59553506  0.19704159  0.49037554  1
  Ti  Ti132  1  -0.00348325  0.80663589  0.76374136  1
  Ti  Ti133  1  0.69618260  0.48935260  0.86027732  1
  Ti  Ti134  1  0.60591474  0.01011039  0.47428004  1
  Ti  Ti135  1  0.40693035  -0.00575850  0.74592800  1
  Ti  Ti136  1  0.90211246  0.69512270  0.38459236  1
  Ti  Ti137  1  0.00304558  0.40040449  0.51528922  1
  Ti  Ti138  1  -0.00696180  0.79985359  0.26807948  1
  Ti  Ti139  1  0.70054254  0.09673153  0.60944049  1
  Ti  Ti140  1  0.49930926  0.10304597  0.14889461  1
  Ti  Ti141  1  0.29653264  0.10291255  0.14231890  1
  Ti  Ti142  1  0.50491907  0.09163702  0.86179362  1
  Ti  Ti143  1  0.90028481  0.50443520  0.38082473  1
  Ti  Ti144  1  0.00457737  0.00073413  0.25209908  1
  Ti  Ti145  1  0.40151242  0.39691873  0.00251394  1
  Ti  Ti146  1  0.40054873  0.39315514  0.50770539  1
  Ti  Ti147  1  0.80051931  0.60627858  0.75608208  1
  Ti  Ti148  1  0.80608863  0.78608367  0.26972685  1
  Ti  Ti149  1  0.81144982  0.18562146  0.02595622  1
  Ti  Ti150  1  0.19784393  0.19279003  0.49184248  1
  Ti  Ti151  1  0.59612170  0.18821418  0.27372927  1
  Ti  Ti152  1  0.80775407  0.41569702  0.26117179  1
  Ti  Ti153  1  0.70588784  0.50654541  0.38658403  1
  Ti  Ti154  1  0.18911680  0.20547674  0.76679564  1
  Ti  Ti155  1  0.80479580  0.79946735  0.49012563  1
  Ti  Ti156  1  0.10827679  0.89982218  0.35876945  1
  Ti  Ti157  1  0.09935171  0.70845261  0.87954000  1
  Ti  Ti158  1  0.60936648  0.59703676  0.51139093  1
  Ti  Ti159  1  0.50605640  0.70572017  0.62231284  1
  Mo  Mo160  1  0.89742831  0.70816409  0.85001952  1
  Mo  Mo161  1  0.70915775  0.69184861  0.37983781  1
  Mo  Mo162  1  0.40820311  0.18960801  0.74112183  1
  Mo  Mo163  1  0.40311636  0.80350845  0.01637309  1
  Mo  Mo164  1  -0.00698462  0.40910325  0.24940092  1
  Mo  Mo165  1  0.19873566  0.00162063  0.24751878  1
  Mo  Mo166  1  0.20025169  0.60297301  0.52341367  1
  Mo  Mo167  1  0.50343087  0.29321927  0.61816303  1
  Mo  Mo168  1  0.79610442  0.79774398  -0.01335449  1
  Mo  Mo169  1  0.90638423  0.89465749  0.37609658  1
  Mo  Mo170  1  0.40342316  0.19948655  0.25606343  1
  Mo  Mo171  1  0.70202253  0.10115640  0.37375342  1
  Mo  Mo172  1  0.60254893  0.40256401  0.48742098  1
  Mo  Mo173  1  0.89912834  0.09751041  0.13657818  1
  Mo  Mo174  1  0.09546009  0.29456391  0.88265903  1
  Mo  Mo175  1  0.19455302  0.80209187  -0.01564561  1
  Mo  Mo176  1  0.60660407  -0.00830753  0.74204003  1
  Mo  Mo177  1  0.40270833  0.39908435  0.74532329  1
  Mo  Mo178  1  0.10348892  0.09771530  0.36153642  1
  Mo  Mo179  1  0.39946366  0.79951577  0.50366060  1
  Mo  Mo180  1  -0.00375908  0.79741304  -0.01377121  1
  Mo  Mo181  1  0.79805204  0.40296093  -0.01012816  1
  Mo  Mo182  1  0.90176366  0.69678533  0.13979102  1
  Mo  Mo183  1  0.20426295  0.79922824  0.26249046  1
  Mo  Mo184  1  0.00496853  0.39432582  -0.01909457  1
  Mo  Mo185  1  0.10517874  0.10265162  0.13984558  1
  Mo  Mo186  1  0.29776012  0.50355855  0.89528471  1
  Mo  Mo187  1  0.79296286  -0.00190678  0.02373965  1
  Mo  Mo188  1  0.90298642  0.28795160  0.89097782  1
  Mo  Mo189  1  0.19845383  0.20440336  0.23534629  1
  Mo  Mo190  1  0.09624070  0.50338014  0.65055969  1
  Mo  Mo191  1  -0.00175920  0.80738301  0.47939430  1
  Mo  Mo192  1  0.29709364  0.49976420  0.61953176  1
  Mo  Mo193  1  0.60417347  -0.00296281  0.26175215  1
  Mo  Mo194  1  0.49894341  0.09972013  0.37729212  1
  Mo  Mo195  1  0.60838268  0.39479955  0.76082436  1
  Mo  Mo196  1  0.80568738  0.19404920  0.72250929  1
  Mo  Mo197  1  0.29703741  0.89995172  0.36583486  1
  Mo  Mo198  1  0.80645589  0.59692440  0.26714978  1
  Mo  Mo199  1  0.29054410  0.70409755  0.63506140  1
