# generated using pymatgen
data_HfZrTaTiMo
_symmetry_space_group_name_H-M   'P 1'
_cell_length_a   15.92977706
_cell_length_b   15.92490127
_cell_length_c   15.22603388
_cell_angle_alpha   90.02253305
_cell_angle_beta   89.94413748
_cell_angle_gamma   90.10821276
_symmetry_Int_Tables_number   1
_chemical_formula_structural   HfZrTaTiMo
_chemical_formula_sum   'Hf40 Zr40 Ta40 Ti40 Mo40'
_cell_volume   3862.53318661
_cell_formula_units_Z   40
loop_
 _symmetry_equiv_pos_site_id
 _symmetry_equiv_pos_as_xyz
  1  'x, y, z'
loop_
 _atom_site_type_symbol
 _atom_site_label
 _atom_site_symmetry_multiplicity
 _atom_site_fract_x
 _atom_site_fract_y
 _atom_site_fract_z
 _atom_site_occupancy
  Hf  Hf0  1  0.51110232  0.28873823  0.37728892  1
  Hf  Hf1  1  0.49321756  0.90508972  0.14478147  1
  Hf  Hf2  1  0.90588985  0.29078915  0.61746582  1
  Hf  Hf3  1  0.89387580  0.10887060  0.12884289  1
  Hf  Hf4  1  0.00599639  0.60036384  0.48916500  1
  Hf  Hf5  1  0.40626464  0.59879198  0.24252205  1
  Hf  Hf6  1  0.39483806  0.21648372  0.72596969  1
  Hf  Hf7  1  0.18140014  -0.00707991  0.25815956  1
  Hf  Hf8  1  0.59515622  0.80030904  0.75387425  1
  Hf  Hf9  1  0.00917048  0.39125810  0.76684903  1
  Hf  Hf10  1  0.00286033  0.80189353  0.50336811  1
  Hf  Hf11  1  0.29045831  0.48806520  0.36574259  1
  Hf  Hf12  1  0.89950153  0.69912001  0.64187793  1
  Hf  Hf13  1  0.00014255  0.20375916  0.25345293  1
  Hf  Hf14  1  0.28479346  0.91101001  0.62048110  1
  Hf  Hf15  1  0.38885869  0.57884828  0.77079159  1
  Hf  Hf16  1  0.60538030  0.79135018  0.49172895  1
  Hf  Hf17  1  0.39273935  0.80191608  0.00474030  1
  Hf  Hf18  1  0.19824518  0.60318223  0.48653822  1
  Hf  Hf19  1  0.29120576  0.90512734  0.86239637  1
  Hf  Hf20  1  0.70224774  0.69561351  0.63537514  1
  Hf  Hf21  1  0.29838114  0.49175602  0.61770626  1
  Hf  Hf22  1  0.59926152  0.19816157  0.00847620  1
  Hf  Hf23  1  0.80332068  0.60062614  0.49642584  1
  Hf  Hf24  1  0.79418109  0.80796895  0.49277683  1
  Hf  Hf25  1  0.00864616  0.81463576  0.24772473  1
  Hf  Hf26  1  0.20267197  0.19872063  0.01940126  1
  Hf  Hf27  1  0.89232311  0.90291546  0.86873351  1
  Hf  Hf28  1  0.89524203  0.91627230  0.62927257  1
  Hf  Hf29  1  0.49009059  0.89526613  0.36931946  1
  Hf  Hf30  1  0.10975345  0.30117884  0.61099252  1
  Hf  Hf31  1  0.71435528  0.70307539  0.86503428  1
  Hf  Hf32  1  0.90521645  0.69840196  0.36048732  1
  Hf  Hf33  1  0.50770828  0.49309711  0.37425286  1
  Hf  Hf34  1  0.71588170  0.09887667  0.62988851  1
  Hf  Hf35  1  0.81155735  0.01577878  0.47970553  1
  Hf  Hf36  1  0.19682151  0.79951666  0.00594693  1
  Hf  Hf37  1  0.90653696  0.50241244  0.63884909  1
  Hf  Hf38  1  -0.00235054  0.18840104  0.47638747  1
  Hf  Hf39  1  0.69782998  0.10051913  0.13884702  1
  Zr  Zr40  1  0.29285431  0.90313223  0.37774194  1
  Zr  Zr41  1  0.70048200  0.30220923  0.62129349  1
  Zr  Zr42  1  0.21429820  0.40680790  0.76953189  1
  Zr  Zr43  1  0.91253374  0.50024687  0.13003099  1
  Zr  Zr44  1  0.00665902  0.38643883  0.24604486  1
  Zr  Zr45  1  0.49125020  0.11003006  0.87345031  1
  Zr  Zr46  1  0.09431178  0.69105743  0.12166584  1
  Zr  Zr47  1  0.59404285  0.58657034  0.76969147  1
  Zr  Zr48  1  0.51150968  0.70858510  0.11505439  1
  Zr  Zr49  1  0.49131200  0.09737757  0.36701147  1
  Zr  Zr50  1  0.30174531  0.71036777  0.35604964  1
  Zr  Zr51  1  0.49601641  0.68073204  0.62195779  1
  Zr  Zr52  1  0.61966231  0.59215233  0.00247074  1
  Zr  Zr53  1  0.79976178  0.40575958  0.49946695  1
  Zr  Zr54  1  0.38920740  0.38235009  0.49236770  1
  Zr  Zr55  1  0.80999499  0.60680635  0.00758544  1
  Zr  Zr56  1  0.79972805  0.40992232  -0.00632916  1
  Zr  Zr57  1  0.40115255  0.39176216  0.23845181  1
  Zr  Zr58  1  0.40056242  0.01368545  0.73043792  1
  Zr  Zr59  1  0.80394947  0.00554687  -0.00425893  1
  Zr  Zr60  1  0.29891294  0.09392298  0.15438789  1
  Zr  Zr61  1  0.61436352  0.38625663  0.23799823  1
  Zr  Zr62  1  0.61279378  -0.00621178  0.49529126  1
  Zr  Zr63  1  0.50240893  0.48870796  0.61619396  1
  Zr  Zr64  1  0.49526619  0.89942237  0.87363155  1
  Zr  Zr65  1  0.38944477  0.78820241  0.51127026  1
  Zr  Zr66  1  0.80005847  -0.00658362  0.25900810  1
  Zr  Zr67  1  0.19849018  0.40187090  0.01180394  1
  Zr  Zr68  1  0.00553167  0.80911915  0.74714571  1
  Zr  Zr69  1  0.39035405  0.00446920  0.01013408  1
  Zr  Zr70  1  0.30993055  0.30038834  0.88170748  1
  Zr  Zr71  1  0.68735477  0.89412727  0.12385524  1
  Zr  Zr72  1  0.50172662  0.90117835  0.61791766  1
  Zr  Zr73  1  0.10449869  0.50381281  0.63549104  1
  Zr  Zr74  1  0.59629588  -0.00110741  -0.00856741  1
  Zr  Zr75  1  0.09803896  0.90625229  0.87874587  1
  Zr  Zr76  1  0.39142625  0.78820658  0.74694664  1
  Zr  Zr77  1  0.79844316  0.39397343  0.76011612  1
  Zr  Zr78  1  0.59431228  0.20240808  0.74255627  1
  Zr  Zr79  1  0.29218599  0.10358509  0.87094021  1
  Ta  Ta80  1  0.90525551  0.10333820  0.63195672  1
  Ta  Ta81  1  0.90256857  0.49910105  0.35725098  1
  Ta  Ta82  1  0.70577704  0.69348821  0.36270954  1
  Ta  Ta83  1  0.28422420  0.11370006  0.60739070  1
  Ta  Ta84  1  0.60086241  0.19399297  0.50837485  1
  Ta  Ta85  1  0.79992514  0.79774441  0.01283660  1
  Ta  Ta86  1  0.10158687  0.69165875  0.64139035  1
  Ta  Ta87  1  0.69676799  0.50134933  0.63459795  1
  Ta  Ta88  1  0.70662653  0.10156145  0.86685479  1
  Ta  Ta89  1  0.19723693  -0.00149296  0.01326591  1
  Ta  Ta90  1  0.50735706  0.50002036  0.11928948  1
  Ta  Ta91  1  -0.01095474  0.79588420  -0.00306934  1
  Ta  Ta92  1  0.60458580  0.00372877  0.74765761  1
  Ta  Ta93  1  0.08714664  0.09350982  0.12151159  1
  Ta  Ta94  1  0.19396816  0.59733559  0.24887316  1
  Ta  Ta95  1  0.90391641  0.51016858  0.86590866  1
  Ta  Ta96  1  0.29540682  0.69896719  0.13202940  1
  Ta  Ta97  1  -0.00119079  0.00709701  0.27089880  1
  Ta  Ta98  1  0.49863613  0.30589663  0.88884597  1
  Ta  Ta99  1  0.50384786  0.09613628  0.14859530  1
  Ta  Ta100  1  0.00440238  0.40492426  0.48778506  1
  Ta  Ta101  1  0.39985917  0.39815714  0.02137507  1
  Ta  Ta102  1  0.40152424  0.20600920  0.02693463  1
  Ta  Ta103  1  0.71882824  0.29512059  0.11102630  1
  Ta  Ta104  1  0.70920717  0.49285284  0.35910639  1
  Ta  Ta105  1  0.10057113  0.69544062  0.86864594  1
  Ta  Ta106  1  0.61174020  0.59102669  0.48578359  1
  Ta  Ta107  1  0.60770805  0.59712866  0.24363805  1
  Ta  Ta108  1  0.49807848  0.69718635  0.89214655  1
  Ta  Ta109  1  0.09280567  0.10307379  0.61300483  1
  Ta  Ta110  1  0.80123659  0.79860022  0.24043384  1
  Ta  Ta111  1  0.18912726  0.79563540  0.51369999  1
  Ta  Ta112  1  0.60455312  0.79519687  0.26358246  1
  Ta  Ta113  1  0.69129543  0.11466518  0.36380382  1
  Ta  Ta114  1  0.10098391  0.29126335  0.89002140  1
  Ta  Ta115  1  0.19102193  0.20305382  0.74706394  1
  Ta  Ta116  1  0.09477575  0.10142032  0.89169164  1
  Ta  Ta117  1  0.79979913  0.59819997  0.23679731  1
  Ta  Ta118  1  0.69615820  0.29568023  0.88291974  1
  Ta  Ta119  1  0.79772173  0.22146368  0.26030681  1
  Ti  Ti120  1  0.50147533  0.69446323  0.37034092  1
  Ti  Ti121  1  0.50153800  0.30445147  0.60923107  1
  Ti  Ti122  1  0.90731112  0.90802630  0.11944566  1
  Ti  Ti123  1  0.29445043  0.69614728  0.87890713  1
  Ti  Ti124  1  0.11569830  0.30521573  0.38393596  1
  Ti  Ti125  1  0.81199487  0.19790848  0.76480610  1
  Ti  Ti126  1  0.19797560  0.79731086  0.74188947  1
  Ti  Ti127  1  0.18051988  0.00898471  0.48572614  1
  Ti  Ti128  1  0.10006985  0.50064712  0.13110927  1
  Ti  Ti129  1  0.70955601  0.90031264  0.64178098  1
  Ti  Ti130  1  0.90155459  0.70240319  0.86137365  1
  Ti  Ti131  1  0.18671283  0.21195042  0.24145919  1
  Ti  Ti132  1  -0.00057319  0.01650067  0.75743891  1
  Ti  Ti133  1  0.39324162  0.59656447  0.00563920  1
  Ti  Ti134  1  0.28794800  0.68343900  0.63306465  1
  Ti  Ti135  1  0.59093237  0.39637994  0.76244309  1
  Ti  Ti136  1  0.29402483  0.11088689  0.37806795  1
  Ti  Ti137  1  0.29386314  0.50380552  0.13084157  1
  Ti  Ti138  1  0.20031733  0.59395175  -0.00706411  1
  Ti  Ti139  1  0.10082998  0.49478654  0.36112039  1
  Ti  Ti140  1  0.90155882  0.29199990  0.88943354  1
  Ti  Ti141  1  0.29760278  0.89270254  0.14912932  1
  Ti  Ti142  1  0.00257718  0.40012982  -0.00285242  1
  Ti  Ti143  1  -0.00684733  0.19879710  0.00402493  1
  Ti  Ti144  1  0.00576261  0.59695196  -0.01534171  1
  Ti  Ti145  1  0.49285283  0.48898372  0.89550633  1
  Ti  Ti146  1  0.39796318  0.59629232  0.48756297  1
  Ti  Ti147  1  0.89141531  0.30640319  0.38284613  1
  Ti  Ti148  1  0.10662404  0.71210942  0.36132095  1
  Ti  Ti149  1  0.09406403  0.91455702  0.61849481  1
  Ti  Ti150  1  0.90855113  0.70155175  0.13359517  1
  Ti  Ti151  1  0.60612952  0.40076098  0.00627573  1
  Ti  Ti152  1  0.39669921  0.01261096  0.50484723  1
  Ti  Ti153  1  0.70304219  0.89792333  0.87168035  1
  Ti  Ti154  1  0.08983962  0.90475777  0.11325801  1
  Ti  Ti155  1  0.18627553  0.01502512  0.74323421  1
  Ti  Ti156  1  0.00573339  0.19876333  0.75770475  1
  Ti  Ti157  1  0.29310335  0.29011598  0.36579430  1
  Ti  Ti158  1  0.90547723  0.89890354  0.37710601  1
  Ti  Ti159  1  0.40459852  0.20846613  0.23902271  1
  Mo  Mo160  1  0.70191607  0.89606971  0.36301720  1
  Mo  Mo161  1  0.79852955  0.80591982  0.74683147  1
  Mo  Mo162  1  0.29325642  0.30214873  0.62412501  1
  Mo  Mo163  1  0.19591820  0.39420363  0.23665573  1
  Mo  Mo164  1  0.70522459  0.70296243  0.13608387  1
  Mo  Mo165  1  0.30723000  0.50186800  0.90217681  1
  Mo  Mo166  1  0.49951210  0.10297393  0.60866445  1
  Mo  Mo167  1  -0.00157486  0.00128965  -0.00024109  1
  Mo  Mo168  1  0.10722313  0.10703880  0.37015448  1
  Mo  Mo169  1  0.00551461  0.60049830  0.26118612  1
  Mo  Mo170  1  0.60667221  0.79793975  -0.01764459  1
  Mo  Mo171  1  0.09135879  0.29436365  0.10834477  1
  Mo  Mo172  1  0.79811916  0.20007275  0.48369329  1
  Mo  Mo173  1  0.80160282  0.59570080  0.75106195  1
  Mo  Mo174  1  0.90744667  0.10667899  0.86727463  1
  Mo  Mo175  1  0.69912292  0.29901814  0.39036008  1
  Mo  Mo176  1  0.00072747  0.00211846  0.48749845  1
  Mo  Mo177  1  0.80605098  0.39645605  0.24718935  1
  Mo  Mo178  1  0.70044758  0.49297378  0.86248778  1
  Mo  Mo179  1  0.40116260  0.79549011  0.24183142  1
  Mo  Mo180  1  0.19308322  0.80101525  0.23387138  1
  Mo  Mo181  1  0.90074285  0.29739573  0.10717813  1
  Mo  Mo182  1  0.09530774  0.89805610  0.39141306  1
  Mo  Mo183  1  0.00450648  0.59918914  0.76659256  1
  Mo  Mo184  1  0.80087989  0.20140323  -0.01266977  1
  Mo  Mo185  1  0.39791292  0.19575226  0.50708119  1
  Mo  Mo186  1  0.50794552  0.29875564  0.11584817  1
  Mo  Mo187  1  0.60036354  -0.00349827  0.26608884  1
  Mo  Mo188  1  0.20493614  0.60412872  0.76865168  1
  Mo  Mo189  1  0.09979999  0.50069133  0.88353106  1
  Mo  Mo190  1  0.60594598  0.39975613  0.49179052  1
  Mo  Mo191  1  0.89543632  0.10773648  0.35705852  1
  Mo  Mo192  1  0.20216148  0.20232948  0.49069129  1
  Mo  Mo193  1  0.60391031  0.20195112  0.23778688  1
  Mo  Mo194  1  0.29644309  0.29984144  0.13848539  1
  Mo  Mo195  1  0.41466412  0.39750382  0.75527702  1
  Mo  Mo196  1  0.19335939  0.40169524  0.49142129  1
  Mo  Mo197  1  0.70468372  0.49513713  0.13846237  1
  Mo  Mo198  1  0.80002404  0.00755701  0.75960369  1
  Mo  Mo199  1  0.39137443  0.00196785  0.26201789  1
