# generated using pymatgen
data_HfZrTaTiMo
_symmetry_space_group_name_H-M   'P 1'
_cell_length_a   15.94280941
_cell_length_b   15.92040832
_cell_length_c   15.21331331
_cell_angle_alpha   90.04994437
_cell_angle_beta   90.01480457
_cell_angle_gamma   89.76134756
_symmetry_Int_Tables_number   1
_chemical_formula_structural   HfZrTaTiMo
_chemical_formula_sum   'Hf40 Zr40 Ta40 Ti40 Mo40'
_cell_volume   3861.34778430
_cell_formula_units_Z   40
loop_
 _symmetry_equiv_pos_site_id
 _symmetry_equiv_pos_as_xyz
  1  'x, y, z'
loop_
 _atom_site_type_symbol
 _atom_site_label
 _atom_site_symmetry_multiplicity
 _atom_site_fract_x
 _atom_site_fract_y
 _atom_site_fract_z
 _atom_site_occupancy
  Hf  Hf0  1  -0.01636795  0.59437195  0.01166597  1
  Hf  Hf1  1  -0.00862302  0.39643500  0.00024275  1
  Hf  Hf2  1  -0.01264908  0.80207127  0.00451606  1
  Hf  Hf3  1  -0.00873132  0.60111491  0.48746200  1
  Hf  Hf4  1  0.40842660  0.39040746  0.49778448  1
  Hf  Hf5  1  0.68757171  0.49362578  0.37649156  1
  Hf  Hf6  1  0.29400855  0.49487052  0.61960728  1
  Hf  Hf7  1  0.59659454  0.19453200  0.22740329  1
  Hf  Hf8  1  0.18274577  0.61362242  0.73329094  1
  Hf  Hf9  1  0.10204518  0.89929072  0.37554248  1
  Hf  Hf10  1  0.08721822  0.49186882  0.61943740  1
  Hf  Hf11  1  0.39896629  0.20336617  -0.01167727  1
  Hf  Hf12  1  0.30824082  0.68344910  0.12593846  1
  Hf  Hf13  1  0.90410416  0.10802255  0.64400338  1
  Hf  Hf14  1  0.81094870  0.01115940  0.24347280  1
  Hf  Hf15  1  0.11292828  0.47901074  0.39280734  1
  Hf  Hf16  1  0.47625588  0.30244081  0.13224636  1
  Hf  Hf17  1  0.77700699  0.60866980  0.74410794  1
  Hf  Hf18  1  0.09333491  0.29229924  0.62565149  1
  Hf  Hf19  1  0.20629390  0.79949809  -0.00278745  1
  Hf  Hf20  1  0.41199093  -0.00638077  0.77186577  1
  Hf  Hf21  1  0.80405828  0.21017629  0.49341576  1
  Hf  Hf22  1  0.69632838  0.90956366  0.37590361  1
  Hf  Hf23  1  0.70429292  0.30396777  0.11550468  1
  Hf  Hf24  1  0.08310607  0.50437939  0.86652757  1
  Hf  Hf25  1  0.80901627  0.79721239  0.50097477  1
  Hf  Hf26  1  0.40117474  0.20132285  0.49692732  1
  Hf  Hf27  1  0.58573643  0.41140230  0.00965429  1
  Hf  Hf28  1  0.59936359  0.22398827  0.50863898  1
  Hf  Hf29  1  0.40726018  -0.00516855  0.49059212  1
  Hf  Hf30  1  0.49366623  0.50152268  0.61720935  1
  Hf  Hf31  1  0.68253988  0.51391583  0.88092844  1
  Hf  Hf32  1  0.20849650  0.00152379  0.49244659  1
  Hf  Hf33  1  0.20376024  0.57304720  0.25224932  1
  Hf  Hf34  1  0.31937770  0.89338965  0.12537127  1
  Hf  Hf35  1  0.51002630  0.10151053  0.37273852  1
  Hf  Hf36  1  0.72011803  0.88359667  0.13145273  1
  Hf  Hf37  1  0.19335631  0.40389989  0.01401449  1
  Hf  Hf38  1  0.90602016  0.68596463  0.85636303  1
  Hf  Hf39  1  0.00100328  0.39958242  0.24755047  1
  Zr  Zr40  1  0.01715750  -0.00137751  0.75912196  1
  Zr  Zr41  1  0.31260504  0.69652474  0.62310214  1
  Zr  Zr42  1  0.02225498  0.79567822  0.74181794  1
  Zr  Zr43  1  0.29507593  0.29591589  0.63532778  1
  Zr  Zr44  1  0.10047412  0.68828957  0.12413779  1
  Zr  Zr45  1  0.51086140  0.09385985  0.62093469  1
  Zr  Zr46  1  0.31416813  0.10792808  0.12834845  1
  Zr  Zr47  1  0.20654817  0.00348259  0.24133511  1
  Zr  Zr48  1  0.10394163  0.09916691  0.36944359  1
  Zr  Zr49  1  0.10067379  0.29291206  0.37866483  1
  Zr  Zr50  1  0.30956487  0.90117025  0.63123712  1
  Zr  Zr51  1  0.29607249  0.09639363  0.63552820  1
  Zr  Zr52  1  0.58960131  0.61694205  0.02115188  1
  Zr  Zr53  1  0.40808415  0.19418834  0.76177519  1
  Zr  Zr54  1  -0.00510960  -0.00173795  0.23388069  1
  Zr  Zr55  1  0.89878930  0.30067022  0.64434623  1
  Zr  Zr56  1  0.28818857  0.50248673  0.87272420  1
  Zr  Zr57  1  0.79754909  0.00274999  0.75607732  1
  Zr  Zr58  1  0.79198456  0.78820993  -0.01839438  1
  Zr  Zr59  1  0.30961539  0.68363706  0.87977277  1
  Zr  Zr60  1  -0.01065171  0.79827038  0.25255123  1
  Zr  Zr61  1  0.70133980  0.10705857  0.37060228  1
  Zr  Zr62  1  0.69125086  0.29909171  0.88311438  1
  Zr  Zr63  1  0.89423182  0.49326688  0.63477916  1
  Zr  Zr64  1  0.81413126  0.00929221  0.50363424  1
  Zr  Zr65  1  0.58194077  0.61283626  0.73256147  1
  Zr  Zr66  1  0.69883734  0.70580536  0.37083136  1
  Zr  Zr67  1  0.80632376  0.39759209  0.25530913  1
  Zr  Zr68  1  0.42068972  0.78929460  0.75587727  1
  Zr  Zr69  1  -0.00653087  0.59127528  0.26010538  1
  Zr  Zr70  1  0.60260903  0.80280713  0.72410780  1
  Zr  Zr71  1  0.60555198  -0.00337833  0.75936068  1
  Zr  Zr72  1  0.90508697  0.69586610  0.63333670  1
  Zr  Zr73  1  0.81262946  -0.00896581  -0.00773934  1
  Zr  Zr74  1  0.10687988  0.90429477  0.11497769  1
  Zr  Zr75  1  0.20470357  0.80806797  0.76015493  1
  Zr  Zr76  1  0.20601490  0.79438846  0.25210286  1
  Zr  Zr77  1  0.20159079  0.20758035  -0.00132269  1
  Zr  Zr78  1  -0.02483432  0.19634975  0.25590436  1
  Zr  Zr79  1  0.29330363  0.31208878  0.36205129  1
  Ta  Ta80  1  0.40341948  0.40357688  0.75415474  1
  Ta  Ta81  1  0.70131581  0.10531444  0.88884209  1
  Ta  Ta82  1  0.20822479  0.79880080  0.49195885  1
  Ta  Ta83  1  0.79678864  0.59587718  0.49519572  1
  Ta  Ta84  1  0.59632449  0.59657390  0.24718839  1
  Ta  Ta85  1  0.41780903  0.78472240  -0.00083620  1
  Ta  Ta86  1  0.00115333  -0.00117525  -0.01187709  1
  Ta  Ta87  1  0.30723598  0.10767853  0.35963983  1
  Ta  Ta88  1  0.60152690  0.80187239  0.24330219  1
  Ta  Ta89  1  0.50141066  0.70139742  0.36725186  1
  Ta  Ta90  1  0.00578861  0.80164291  0.50140718  1
  Ta  Ta91  1  0.80264786  0.41370279  -0.00995361  1
  Ta  Ta92  1  0.40403874  0.80147014  0.48383172  1
  Ta  Ta93  1  0.70262700  0.30589099  0.64263959  1
  Ta  Ta94  1  0.20180337  0.60164944  0.49606636  1
  Ta  Ta95  1  0.60954538  -0.00351938  0.00950393  1
  Ta  Ta96  1  -0.00769423  0.18946609  0.49443025  1
  Ta  Ta97  1  0.59406933  0.40652083  0.74871647  1
  Ta  Ta98  1  0.87136516  0.70496481  0.14194304  1
  Ta  Ta99  1  0.90571194  0.89260889  0.85803904  1
  Ta  Ta100  1  0.50056052  0.30923299  0.87510724  1
  Ta  Ta101  1  0.48923182  0.70392641  0.15081814  1
  Ta  Ta102  1  0.78737723  0.80598763  0.74634731  1
  Ta  Ta103  1  0.10201193  0.69192179  0.89137085  1
  Ta  Ta104  1  0.69068244  0.30194380  0.35787576  1
  Ta  Ta105  1  0.79082372  0.40813814  0.76876379  1
  Ta  Ta106  1  0.29493076  0.30437926  0.86266223  1
  Ta  Ta107  1  0.90007635  0.30061292  0.86651988  1
  Ta  Ta108  1  0.52511942  0.88234606  0.89667075  1
  Ta  Ta109  1  0.69782911  0.90956925  0.60583615  1
  Ta  Ta110  1  0.60487235  0.00142374  0.22419967  1
  Ta  Ta111  1  0.71030549  0.10928485  0.10734035  1
  Ta  Ta112  1  0.20385220  0.00036002  0.77844657  1
  Ta  Ta113  1  0.50408859  0.30710708  0.35440237  1
  Ta  Ta114  1  0.09498331  0.10695376  0.11012538  1
  Ta  Ta115  1  0.41223004  -0.00189777  -0.00702158  1
  Ta  Ta116  1  0.39977838  0.59953300  0.48113152  1
  Ta  Ta117  1  0.78983174  0.39612486  0.49284032  1
  Ta  Ta118  1  0.59800916  0.60503279  0.50042511  1
  Ta  Ta119  1  0.10410997  0.69767588  0.37856405  1
  Ti  Ti120  1  0.88912980  0.50148896  0.12914650  1
  Ti  Ti121  1  0.00288671  0.00090840  0.50673102  1
  Ti  Ti122  1  0.09934292  0.10372772  0.89289807  1
  Ti  Ti123  1  0.20001758  0.20741993  0.23440801  1
  Ti  Ti124  1  0.50391200  0.89584415  0.12320021  1
  Ti  Ti125  1  0.81083403  0.20391035  -0.01742354  1
  Ti  Ti126  1  0.38993783  0.40326961  -0.00705607  1
  Ti  Ti127  1  0.19674393  0.18936735  0.76656230  1
  Ti  Ti128  1  0.50207529  0.49318432  0.37589486  1
  Ti  Ti129  1  0.70626471  0.50980301  0.12850126  1
  Ti  Ti130  1  0.21091436  0.00416970  -0.00923774  1
  Ti  Ti131  1  0.50957025  0.90211004  0.36496180  1
  Ti  Ti132  1  0.18987886  0.39694729  0.74835894  1
  Ti  Ti133  1  0.66890293  0.71732215  0.87592702  1
  Ti  Ti134  1  0.80195761  0.59869213  0.26834531  1
  Ti  Ti135  1  0.48353341  0.51798217  0.87315999  1
  Ti  Ti136  1  0.41797655  0.00665294  0.24302408  1
  Ti  Ti137  1  0.20173058  0.19754376  0.50007982  1
  Ti  Ti138  1  0.70343939  0.10831717  0.62630175  1
  Ti  Ti139  1  0.90437030  0.10828174  0.10091222  1
  Ti  Ti140  1  0.11168636  0.90260694  0.61525679  1
  Ti  Ti141  1  0.00480231  0.19514567  0.77014636  1
  Ti  Ti142  1  0.89215893  0.29264681  0.11452786  1
  Ti  Ti143  1  0.79370797  0.60298134  -0.00186079  1
  Ti  Ti144  1  0.51819052  0.10575432  0.89248710  1
  Ti  Ti145  1  0.90336489  0.90449256  0.37979332  1
  Ti  Ti146  1  -0.02147039  0.38558411  0.48620779  1
  Ti  Ti147  1  0.59344478  0.80514344  0.50260964  1
  Ti  Ti148  1  0.90497829  0.90067416  0.63470605  1
  Ti  Ti149  1  0.47566682  0.50579008  0.13240093  1
  Ti  Ti150  1  0.09675230  0.30269417  0.87169142  1
  Ti  Ti151  1  0.08864493  0.29276643  0.12462847  1
  Ti  Ti152  1  0.59353997  0.40886472  0.23165991  1
  Ti  Ti153  1  0.30213958  0.69834775  0.36884987  1
  Ti  Ti154  1  0.31389234  0.89522769  0.88736710  1
  Ti  Ti155  1  0.10457850  0.09908514  0.62754666  1
  Ti  Ti156  1  0.69460969  0.49558362  0.61624913  1
  Ti  Ti157  1  0.31085010  0.90248970  0.35900837  1
  Ti  Ti158  1  0.39531350  0.58748025  0.26749796  1
  Ti  Ti159  1  0.60341302  0.20294669  0.75009719  1
  Mo  Mo160  1  0.29706455  0.30698804  0.13820536  1
  Mo  Mo161  1  0.40220840  0.20111060  0.25903454  1
  Mo  Mo162  1  0.49651902  0.70238928  0.59133377  1
  Mo  Mo163  1  0.50547823  0.30245858  0.64909644  1
  Mo  Mo164  1  0.79614736  0.20013545  0.24261658  1
  Mo  Mo165  1  0.09298993  0.49384447  0.12292341  1
  Mo  Mo166  1  0.50314698  0.90086984  0.60602403  1
  Mo  Mo167  1  0.90424551  0.10332557  0.87255255  1
  Mo  Mo168  1  0.19534014  0.39499975  0.22759601  1
  Mo  Mo169  1  0.88732623  0.50203268  0.86860171  1
  Mo  Mo170  1  0.50329117  0.69538029  0.88173708  1
  Mo  Mo171  1  -0.00241108  0.20182978  -0.01009049  1
  Mo  Mo172  1  0.30173681  0.09554887  0.88114373  1
  Mo  Mo173  1  0.70125018  0.69206942  0.14825212  1
  Mo  Mo174  1  0.80407118  0.80361472  0.27460876  1
  Mo  Mo175  1  0.30382514  0.49433633  0.11668769  1
  Mo  Mo176  1  0.89377472  0.49472389  0.38626474  1
  Mo  Mo177  1  0.50523177  0.09533391  0.11136171  1
  Mo  Mo178  1  0.00029695  0.59945375  0.74366299  1
  Mo  Mo179  1  0.59656011  0.20161646  0.00831091  1
  Mo  Mo180  1  0.60354299  0.40013883  0.51043279  1
  Mo  Mo181  1  0.89174190  0.29600540  0.37634250  1
  Mo  Mo182  1  0.19952882  0.39281274  0.51983593  1
  Mo  Mo183  1  0.10533425  0.70317919  0.59683912  1
  Mo  Mo184  1  0.19150575  0.59497682  0.01158950  1
  Mo  Mo185  1  0.40065235  0.58971319  0.01121103  1
  Mo  Mo186  1  0.70152905  0.89730933  0.88336147  1
  Mo  Mo187  1  -0.00188643  0.39527779  0.76474901  1
  Mo  Mo188  1  0.90275478  0.09465934  0.38367072  1
  Mo  Mo189  1  0.70175186  0.70372835  0.60132463  1
  Mo  Mo190  1  0.10658858  0.89926051  0.89380924  1
  Mo  Mo191  1  0.39420245  0.41229463  0.26194786  1
  Mo  Mo192  1  0.40708370  0.80436291  0.26512933  1
  Mo  Mo193  1  0.39703672  0.59403579  0.73966738  1
  Mo  Mo194  1  0.90077632  0.70103829  0.37236651  1
  Mo  Mo195  1  0.29985199  0.49679813  0.39182820  1
  Mo  Mo196  1  0.60338571  0.00309536  0.50389538  1
  Mo  Mo197  1  0.79159892  0.20138414  0.76489370  1
  Mo  Mo198  1  0.59944193  0.79967774  0.02713522  1
  Mo  Mo199  1  0.90177372  0.89773186  0.12043970  1
